#------------------------------------------------------------------------------
#$Date: 2019-01-26 05:40:39 +0200 (Sat, 26 Jan 2019) $
#$Revision: 213349 $
#$URL: file:///home/coder/svn-repositories/cod/cif/2/02/14/2021456.cif $
#------------------------------------------------------------------------------
#
# This file is available in the Crystallography Open Database (COD),
# http://www.crystallography.net/. The original data for this entry
# were provided by IUCr Journals, http://journals.iucr.org/.
#
# The file may be used within the scientific community so long as
# proper attribution is given to the journal article from which the
# data were obtained.
#
data_2021456
loop_
_publ_author_name
'Guerrero, Sergio A.'
'Ram\'irez, Juan E.'
'Palma, Alirio'
'Cobo, Justo'
'Glidewell, Christopher'
_publ_section_title
;
 A concise and versatile route to tetrahydro-1-benzazepines carrying
 [<i>a</i>]-fused heterocyclic units: synthetic sequence and spectroscopic
 characterization, and the molecular and supramolecular structures of one
 intermediate and two products
;
_journal_coeditor_code           FN3291
_journal_issue                   2
_journal_name_full               'Acta Crystallographica Section C'
_journal_page_first
;
;
_journal_paper_doi               10.1107/S2053229619000871
_journal_volume                  75
_journal_year                    2019
_chemical_formula_iupac          'C12 H12 Cl N3 O2'
_chemical_formula_moiety         'C12 H12 Cl N3 O2'
_chemical_formula_sum            'C12 H12 Cl N3 O2'
_chemical_formula_weight         265.70
_chemical_name_systematic
(4a<i>RS</i>,6<i>SR</i>)-9-Chloro-6-hydroxy-4a,5,6,7-tetrahydrobenzo[<i>f</i>][1,2,4]triazino[4,5-<i>a</i>]azepin-4(3<i>H</i>)-one
_space_group_crystal_system      triclinic
_space_group_IT_number           2
_space_group_name_Hall           '-P 1'
_space_group_name_H-M_alt        'P -1'
_symmetry_space_group_name_Hall  '-P 1'
_symmetry_space_group_name_H-M   'P -1'
_atom_sites_solution_hydrogens   mixed
_audit_creation_method           SHELXL-2014
_cell_angle_alpha                98.10(3)
_cell_angle_beta                 100.10(2)
_cell_angle_gamma                101.76(3)
_cell_formula_units_Z            2
_cell_length_a                   5.595(4)
_cell_length_b                   8.377(5)
_cell_length_c                   12.712(8)
_cell_measurement_reflns_used    2621
_cell_measurement_temperature    100(2)
_cell_measurement_theta_max      27.673
_cell_measurement_theta_min      2.526
_cell_volume                     564.5(6)
_computing_cell_refinement
;
SAINT (Bruker, 2016)
;
_computing_data_collection
;
APEX3 (Bruker, 2016)
;
_computing_data_reduction
;
SAINT (Bruker, 2016)
;
_computing_molecular_graphics
;
PLATON (Spek, 2009)
;
_computing_publication_material
;
SHELXL2014 (Sheldrick, 2015) and PLATON (Spek, 2009)
;
_computing_structure_refinement
;
SHELXL2014 (Sheldrick, 2015)
;
_computing_structure_solution
;
SIR92 (Altomare <i>et al.</i>,  1994)
;
_diffrn_ambient_temperature      100(2)
_diffrn_measured_fraction_theta_full 1.000
_diffrn_measured_fraction_theta_max 0.994
_diffrn_measurement_device_type  'Bruker D8 Venture'
_diffrn_measurement_method       '\f and \w scans'
_diffrn_radiation_monochromator  'multilayer mirror'
_diffrn_radiation_type           MoK\a
_diffrn_radiation_wavelength     0.71073
_diffrn_reflns_av_R_equivalents  0.0911
_diffrn_reflns_av_unetI/netI     0.0360
_diffrn_reflns_limit_h_max       7
_diffrn_reflns_limit_h_min       -7
_diffrn_reflns_limit_k_max       10
_diffrn_reflns_limit_k_min       -10
_diffrn_reflns_limit_l_max       16
_diffrn_reflns_limit_l_min       -16
_diffrn_reflns_number            32796
_diffrn_reflns_theta_full        25.242
_diffrn_reflns_theta_max         27.673
_diffrn_reflns_theta_min         2.526
_diffrn_source
'INCOATEC high brilliance microfocus sealed tube'
_diffrn_standards_decay_%        0
_diffrn_standards_interval_count 0
_diffrn_standards_interval_time  0
_diffrn_standards_number         0
_exptl_absorpt_coefficient_mu    0.336
_exptl_absorpt_correction_T_max  0.954
_exptl_absorpt_correction_T_min  0.710
_exptl_absorpt_correction_type   multi-scan
_exptl_absorpt_process_details
;
(SADABS; Bruker, 2015)
;
_exptl_crystal_colour            colourless
_exptl_crystal_density_diffrn    1.563
_exptl_crystal_description       block
_exptl_crystal_F_000             276
_exptl_crystal_size_max          0.420
_exptl_crystal_size_mid          0.280
_exptl_crystal_size_min          0.140
_refine_diff_density_max         1.091
_refine_diff_density_min         -0.471
_refine_ls_extinction_method     none
_refine_ls_goodness_of_fit_ref   1.060
_refine_ls_hydrogen_treatment    mixed
_refine_ls_matrix_type           full
_refine_ls_number_parameters     169
_refine_ls_number_reflns         2621
_refine_ls_number_restraints     0
_refine_ls_restrained_S_all      1.060
_refine_ls_R_factor_all          0.0493
_refine_ls_R_factor_gt           0.0425
_refine_ls_shift/su_max          0.000
_refine_ls_shift/su_mean         0.000
_refine_ls_structure_factor_coef Fsqd
_refine_ls_weighting_details
'w=1/[\s^2^(Fo^2^)+(0.0598P)^2^+0.5564P] where P=(Fo^2^+2Fc^2^)/3'
_refine_ls_weighting_scheme      calc
_refine_ls_wR_factor_gt          0.1108
_refine_ls_wR_factor_ref         0.1158
_reflns_number_gt                2324
_reflns_number_total             2621
_reflns_threshold_expression     'I > 2\s(I)'
_cod_data_source_file            fn3291sup1.cif
_cod_data_source_block           VII
_cod_database_code               2021456
_shelx_space_group_comment
;
The symmetry employed for this shelxl refinement is uniquely defined
by the following loop, which should always be used as a source of
symmetry information in preference to the above space-group names.
They are only intended as comments.
;
_shelx_estimated_absorpt_t_min   0.872
_shelx_estimated_absorpt_t_max   0.955
_shelx_hkl_file
;
  -1   0   0   45.30    5.00
  -1   0   0   46.70    4.70
  -1   0   0   47.30    4.70
  -1   0   0   45.60    5.00
  -1   0   0   48.70    4.90
  -1   0   0   50.29    4.70
   1   0   0   46.60    4.80
   1   0   0   40.70    5.30
   1   0   0   47.60    4.70
   1   0   0   43.60    5.00
   1   0   0   50.29    5.00
   1   0   0   49.80    4.80
   1   0   0   47.40    5.00
  -2   0   0  278.07   24.10
  -2   0   0  231.48   24.40
  -2   0   0  244.48   23.90
  -2   0   0  272.97   24.00
  -2   0   0  252.77   24.10
  -2   0   0  263.47   24.30
  -2   0   0  209.28   25.00
  -2   0   0  246.68   24.50
   2   0   0  227.08   25.10
   2   0   0  286.67   24.70
   2   0   0  250.37   24.10
   2   0   0  276.07   24.10
   2   0   0  271.57   24.50
  -3   0   0   67.99    8.40
  -3   0   0   62.99    8.30
  -3   0   0   65.69    8.00
  -3   0   0   70.99    7.70
  -3   0   0   53.49    9.70
  -3   0   0   76.39    7.50
  -3   0   0   73.79    7.70
   3   0   0   67.09    7.60
   3   0   0   68.89    7.80
   3   0   0   64.59    8.20
   3   0   0   78.19    8.70
   3   0   0   74.59    8.50
   3   0   0   77.69   10.00
   3   0   0   75.39    7.80
  -4   0   0  140.99   14.20
  -4   0   0  107.39   14.60
  -4   0   0  133.39   13.80
  -4   0   0  138.09   13.40
  -4   0   0  139.49   13.70
  -4   0   0  127.79   14.80
   4   0   0  136.49   13.90
   4   0   0  124.09   13.90
   4   0   0  116.59   14.50
   4   0   0  138.59   15.00
   4   0   0  137.89   14.60
   4   0   0  141.79   16.90
   4   0   0  141.39   15.00
   4   0   0  120.19   13.60
  -5   0   0  155.08   15.30
  -5   0   0  126.69   16.20
  -5   0   0  145.69   14.20
  -5   0   0  123.39   14.90
  -5   0   0  131.49   16.70
   5   0   0  153.18   16.20
   5   0   0  131.99   15.00
   5   0   0  131.09   18.60
   5   0   0  115.69   15.90
   5   0   0  132.29   15.60
   5   0   0  141.59   19.80
   5   0   0  163.68   17.30
  -6   0   0   -8.50    9.80
  -6   0   0   -9.00    4.90
  -6   0   0    9.30    7.60
  -6   0   0    9.10    6.60
  -6   0   0    5.10    3.60
  -6   0   0   -0.70    5.00
   6   0   0    9.10    6.00
   6   0   0   -2.90    6.20
   6   0   0    4.60   11.00
   6   0   0    2.10    4.40
   6   0   0    6.40    9.20
   6   0   0   14.40    6.10
   6   0   0   -3.90    6.30
   6   0   0    9.40    7.40
   7  -1   0   -2.00    9.30
   7  -1   0   16.80   12.10
   7  -1   0    5.20    8.10
   7  -1   0   18.10   10.00
   7  -1   0   -4.00    7.50
   7  -1   0    2.50    6.60
   7  -1   0    4.20    8.80
   7  -1   0  -18.30   14.90
  -7   1   0    5.40    5.20
  -7   1   0   -8.50    7.20
  -7   1   0   -6.50    7.40
  -7   1   0   17.70   11.60
  -7   1   0    0.00   15.30
   6  -1   0   44.90    9.60
   6  -1   0   50.79    9.90
   6  -1   0   43.10   10.90
   6  -1   0   52.99    9.60
   6  -1   0   60.99   10.40
   6  -1   0   57.89   13.50
   6  -1   0   71.39   10.30
   6  -1   0   50.19    8.40
  -6   1   0   62.09    9.70
  -6   1   0   37.20    9.60
  -6   1   0   58.19    6.10
  -6   1   0   38.70    8.30
  -6   1   0   42.80   10.20
  -6   1   0   52.59    8.30
  -6   1   0   32.50   11.70
  -6   1   0   61.19    7.00
   5  -1   0   40.20    6.30
   5  -1   0   33.30    9.20
   5  -1   0   43.00    7.30
   5  -1   0   30.40    5.50
   5  -1   0   26.60    6.40
   5  -1   0   36.20    7.10
   5  -1   0   30.70    5.70
   5  -1   0   28.30    7.20
  -5   1   0   36.10    6.00
  -5   1   0   33.90    4.40
  -5   1   0   22.10    8.20
  -5   1   0   25.40    6.70
  -5   1   0   31.80    5.40
  -5   1   0   40.70    6.40
  -5   1   0   28.50    6.70
  -5   1   0   38.40    7.10
   4  -1   0  517.85   51.99
   4  -1   0  517.35   52.79
   4  -1   0  549.85   52.89
   4  -1   0  536.35   52.19
   4  -1   0  580.84   52.29
   4  -1   0  554.44   52.89
   4  -1   0  609.04   53.09
  -4   1   0  589.74   51.49
  -4   1   0  495.65   52.69
  -4   1   0  541.25   52.09
  -4   1   0  567.34   51.79
  -4   1   0  527.45   52.79
  -4   1   0  586.54   52.19
  -4   1   0  596.74   52.59
   3  -1   0  137.89   14.70
   3  -1   0  129.39   14.50
   3  -1   0  122.49   15.50
   3  -1   0  138.49   14.50
   3  -1   0  139.09   14.10
   3  -1   0  152.98   14.70
   3  -1   0  152.58   14.20
   3  -1   0  142.79   14.00
  -3   1   0  149.29   13.90
  -3   1   0  146.99   14.70
  -3   1   0  147.69   14.10
  -3   1   0  154.08   13.70
  -3   1   0  124.69   14.50
  -3   1   0  155.38   14.20
   2  -1   0  168.08   15.90
   2  -1   0  166.88   15.40
   2  -1   0  140.69   16.20
   2  -1   0  168.08   15.50
   2  -1   0  154.68   15.40
   2  -1   0  158.38   15.60
   2  -1   0  178.08   15.80
   2  -1   0  144.09   15.60
  -2   1   0  179.18   15.20
  -2   1   0  177.48   15.20
  -2   1   0  153.28   15.70
  -2   1   0  158.88   15.40
  -2   1   0  144.89   15.70
  -2   1   0  178.38   15.50
   1  -1   0  470.25   41.20
   1  -1   0  445.36   40.80
   1  -1   0  428.36   40.90
   1  -1   0  395.06   41.10
   1  -1   0  494.05   41.00
  -1   1   0  435.16   40.90
   0  -1   0  107.49   10.50
   0  -1   0  112.29   10.50
   0  -1   0  101.09   10.40
   0  -1   0   99.79   10.60
   0  -1   0  100.69   10.50
   0   1   0  119.69   10.50
   0   1   0  116.29   10.40
   0   1   0  122.89   10.40
   0   1   0  105.29   10.60
   0   1   0  118.19   10.40
  -1  -1   0  899.21   83.39
  -1  -1   0  934.01   83.09
  -1  -1   0  930.21   83.49
  -1  -1   0  868.81   83.29
  -1  -1   0  802.72   83.79
  -1  -1   0  870.01   82.99
  -1  -1   0  942.01   82.99
   1   1   0  917.91   83.09
   1   1   0  877.01   83.39
   1   1   0  868.21   83.89
   1   1   0  944.01   82.99
   1   1   0  950.00   83.29
   1   1   0  927.41   83.39
   1   1   0  875.11   83.09
  -2  -1   0    0.60    1.20
  -2  -1   0    0.10    1.20
  -2  -1   0    0.60    1.30
  -2  -1   0   -0.30    1.70
  -2  -1   0   -1.80    1.80
  -2  -1   0    0.40    2.60
  -2  -1   0    1.20    1.90
   2   1   0   -0.50    1.70
   2   1   0    1.20    1.40
   2   1   0   -1.30    1.80
   2   1   0    0.60    1.80
   2   1   0   -0.20    2.40
   2   1   0    1.20    1.40
  -3  -1   0   36.00    6.40
  -3  -1   0   45.40    6.30
  -3  -1   0   52.49    5.60
  -3  -1   0   40.40    5.50
  -3  -1   0   38.40    7.00
  -3  -1   0   42.60    6.50
  -3  -1   0   44.00    5.50
   3   1   0   48.80    6.80
   3   1   0   32.40    5.20
   3   1   0   42.90    5.70
   3   1   0   46.90    6.70
   3   1   0   42.60    7.90
   3   1   0   45.10    5.70
  -4  -1   0   84.79    9.90
  -4  -1   0   83.99    9.80
  -4  -1   0   62.69   13.20
  -4  -1   0   93.39    9.80
  -4  -1   0   86.59   11.30
  -4  -1   0   79.39   10.60
  -4  -1   0   86.19    9.60
  -4  -1   0   72.99   10.90
   4   1   0   70.59    9.60
   4   1   0   93.59   11.40
   4   1   0   70.99   11.00
   4   1   0   79.69   13.50
   4   1   0   77.69   10.20
   4   1   0  103.99   11.70
   4   1   0   81.49   10.20
   4   1   0   91.99   10.00
  -5  -1   0   83.29   14.10
  -5  -1   0  121.79   12.30
  -5  -1   0  101.49   13.70
  -5  -1   0  116.39   12.80
  -5  -1   0   80.49   16.60
  -5  -1   0  104.09   14.50
  -5  -1   0  113.69   12.50
   5   1   0  125.69   15.20
   5   1   0  100.89   13.50
   5   1   0  112.29   13.00
   5   1   0   94.89   12.30
   5   1   0   94.29   14.00
   5   1   0  106.19   17.90
   5   1   0  103.09   13.60
   5   1   0  112.19   15.60
  -6  -1   0    2.30    9.50
  -6  -1   0    0.80    7.00
  -6  -1   0   10.30    5.30
  -6  -1   0    1.10    6.70
  -6  -1   0    6.70   11.40
  -6  -1   0    5.30    5.80
   6   1   0   -5.60    6.00
   6   1   0   -3.70   11.00
   6   1   0    2.00    5.00
   6   1   0   -6.40    5.60
   6   1   0   -2.90    7.00
   6   1   0   14.30    8.90
   6   1   0  -12.50    6.50
   6   1   0    0.50    9.20
   7  -2   0   61.79   10.50
   7  -2   0   15.70   17.20
   7  -2   0   59.59   15.50
   7  -2   0   39.50   10.50
   7  -2   0   36.70    8.00
   7  -2   0   42.30   10.10
   7  -2   0   47.00   12.30
   7  -2   0   50.49    9.70
  -7   2   0   26.40    9.20
  -7   2   0   35.60    8.80
  -7   2   0   23.20   14.20
  -7   2   0   56.19   11.80
  -7   2   0   47.10    8.30
   6  -2   0   -7.00    4.40
   6  -2   0   -0.30    5.20
   6  -2   0    8.50    8.30
   6  -2   0    3.60    4.20
   6  -2   0    0.90    6.90
   6  -2   0   -5.90    5.10
   6  -2   0   -1.30    5.30
   6  -2   0   -0.60    5.00
  -6   2   0   -0.80    4.40
  -6   2   0    3.60    3.80
  -6   2   0    4.50    5.40
  -6   2   0   -5.80    3.90
  -6   2   0    1.50    7.60
  -6   2   0   10.20    5.70
   5  -2   0  224.48   22.40
   5  -2   0  217.38   21.00
   5  -2   0  217.98   22.10
   5  -2   0  232.38   21.80
   5  -2   0  178.08   21.70
   5  -2   0  196.48   21.00
   5  -2   0  202.18   23.70
   5  -2   0  205.78   20.70
  -5   2   0  179.28   21.60
  -5   2   0  209.28   20.60
  -5   2   0  225.58   21.60
  -5   2   0  216.68   21.00
  -5   2   0  201.88   21.40
   4  -2   0    0.80    1.90
   4  -2   0   -1.90    3.40
   4  -2   0    1.80    1.60
   4  -2   0    0.50    2.20
   4  -2   0    3.20    1.90
   4  -2   0    0.30    2.80
   4  -2   0    4.00    2.80
   4  -2   0   -0.80    2.20
  -4   2   0    1.70    2.00
  -4   2   0    2.00    1.70
  -4   2   0   -1.90    3.10
  -4   2   0    0.10    2.30
  -4   2   0    6.40    2.80
  -4   2   0   -0.20    2.10
   3  -2   0   52.59    6.20
   3  -2   0   42.80    6.90
   3  -2   0   53.59    5.90
   3  -2   0   52.09    5.60
   3  -2   0   55.79    6.00
   3  -2   0   55.09    5.70
   3  -2   0   54.79    6.60
   3  -2   0   55.39    6.20
   3  -2   0   48.00    6.00
  -3   2   0   47.50    6.60
  -3   2   0   61.49    6.40
  -3   2   0   56.49    5.60
  -3   2   0   44.40    6.10
  -3   2   0   50.09    6.00
  -3   2   0   58.39    5.90
   2  -2   0  986.20   93.09
   2  -2   0  978.60   93.29
   2  -2   0 1005.90   93.09
   2  -2   0  916.21   93.59
   2  -2   0 1158.98   93.09
   2  -2   0 1055.19   93.39
   2  -2   0 1052.09   93.39
   2  -2   0 1063.69   93.79
  -2   2   0 1162.28   93.49
  -2   2   0  963.30   93.09
  -2   2   0  887.81   93.19
  -2   2   0  949.21   93.29
   1  -2   0 4820.02  478.15
   1  -2   0 4723.13  477.25
   1  -2   0 5848.71  477.25
   1  -2   0 4648.13  477.65
   1  -2   0 5774.22  477.65
  -1   2   0 4662.83  477.05
  -1   2   0 5746.53  477.25
  -1   2   0 4565.74  477.25
  -1   2   0 6055.39  477.15
   0  -2   0 1733.63  158.58
   0  -2   0 1561.24  159.18
   0  -2   0 1733.23  158.68
   0  -2   0 1757.72  158.58
   0  -2   0 1727.93  158.78
   0  -2   0 1749.72  158.88
   0   2   0 1909.21  158.68
   0   2   0 1892.01  158.78
   0   2   0 1729.63  158.78
   0   2   0 1665.73  158.58
   0   2   0 1677.13  158.58
   0   2   0 1594.24  159.08
  -1  -2   0  710.53   63.19
  -1  -2   0  570.14   63.99
  -1  -2   0  663.53   63.49
  -1  -2   0  652.73   63.59
  -1  -2   0  675.73   63.09
  -1  -2   0  683.73   63.49
  -1  -2   0  717.03   62.99
   1   2   0  679.63   63.19
   1   2   0  651.73   64.19
   1   2   0  674.93   63.09
   1   2   0  721.53   63.59
   1   2   0  728.73   63.49
   1   2   0  690.93   63.79
   1   2   0  704.03   63.19
  -2  -2   0    4.40    2.80
  -2  -2   0    6.30    3.00
  -2  -2   0   14.60    2.80
  -2  -2   0    9.00    2.30
  -2  -2   0    6.40    3.90
  -2  -2   0   11.60    2.50
  -2  -2   0   12.40    3.40
   2   2   0    9.60    2.40
   2   2   0    5.40    2.30
   2   2   0   10.50    3.10
   2   2   0    9.20    2.40
   2   2   0   13.50    4.10
   2   2   0    9.80    3.00
   2   2   0   12.50    3.40
  -3  -2   0  106.79   12.70
  -3  -2   0  112.99   12.10
  -3  -2   0  119.19   11.90
  -3  -2   0  100.59   14.70
  -3  -2   0  116.39   12.00
  -3  -2   0  109.49   13.20
  -3  -2   0   98.89   12.90
   3   2   0  117.69   15.10
   3   2   0  112.19   12.10
   3   2   0  107.29   12.20
   3   2   0  113.09   13.30
   3   2   0  128.59   13.60
  -4  -2   0    1.80    3.00
  -4  -2   0    2.60    4.90
  -4  -2   0    3.20    3.10
  -4  -2   0   -2.10    3.20
  -4  -2   0   -4.60    4.00
  -4  -2   0   -2.60    3.70
  -4  -2   0    0.30    4.10
  -4  -2   0    8.00    6.20
   4   2   0    0.70    3.10
   4   2   0    2.20    6.50
   4   2   0   -3.30    4.90
   4   2   0   -0.40    3.80
   4   2   0    2.80    3.30
   4   2   0   11.90    4.70
   4   2   0    1.90    3.10
   4   2   0    6.80    3.90
  -5  -2   0  295.37   28.90
  -5  -2   0  295.47   29.10
  -5  -2   0  286.47   28.50
  -5  -2   0  271.87   30.70
  -5  -2   0  249.88   30.30
  -5  -2   0  202.58   33.50
  -5  -2   0  295.07   28.80
   5   2   0  298.37   29.40
   5   2   0  353.66   31.70
   5   2   0  330.57   31.50
   5   2   0  283.47   34.40
   5   2   0  291.57   29.20
   5   2   0  288.97   29.50
   5   2   0  244.78   28.50
   5   2   0  264.17   30.50
  -6  -2   0   10.90    8.60
  -6  -2   0   26.90   12.30
  -6  -2   0   11.30    6.70
  -6  -2   0   14.80    9.60
  -6  -2   0   15.60   14.90
  -6  -2   0   12.80    6.20
  -6  -2   0   23.60    6.90
   6   2   0    8.30    6.30
   6   2   0   -2.90    7.70
   6   2   0   15.70    9.30
   6   2   0   15.50    8.00
   6   2   0    1.30    7.40
   6   2   0    1.30   10.10
   6   2   0   13.30   10.90
   6   2   0   11.00   14.60
   7  -3   0   11.60    5.60
   7  -3   0   13.90   11.20
   7  -3   0   23.40    8.00
   7  -3   0   26.50    8.00
   7  -3   0   33.70    7.80
   7  -3   0   19.60   10.60
   7  -3   0   41.60   11.50
   7  -3   0    4.30    6.90
  -7   3   0   20.50    8.90
  -7   3   0   20.00    7.70
  -7   3   0   34.80   11.00
  -7   3   0    9.30    6.00
  -7   3   0   14.10    6.90
  -7   3   0   13.20    5.40
   6  -3   0  214.58   23.00
   6  -3   0  222.68   22.70
   6  -3   0  212.88   22.70
   6  -3   0  216.08   24.30
   6  -3   0  212.38   25.60
   6  -3   0  204.18   22.50
   6  -3   0  239.48   24.20
   6  -3   0  242.08   21.90
  -6   3   0  175.38   23.90
  -6   3   0  213.68   22.60
  -6   3   0  228.28   22.70
  -6   3   0  197.68   22.70
  -6   3   0  217.98   21.60
   5  -3   0   19.30    4.40
   5  -3   0   23.40    5.30
   5  -3   0   23.50    6.80
   5  -3   0   18.20    5.80
   5  -3   0   20.70    3.70
   5  -3   0   24.40    4.70
   5  -3   0   24.20    4.50
  -5   3   0   15.00    4.30
  -5   3   0   16.60    5.40
  -5   3   0   30.50    4.30
  -5   3   0   18.30    4.90
  -5   3   0   25.00    5.60
  -5   3   0   18.60    4.20
   4  -3   0   94.39    9.10
   4  -3   0   88.49    9.70
   4  -3   0   89.29    9.90
   4  -3   0   71.99   10.20
   4  -3   0   96.99    9.60
   4  -3   0   83.59    9.30
   4  -3   0   96.89   10.00
   4  -3   0   87.39   11.00
  -4   3   0   84.59   10.10
  -4   3   0   83.49    9.40
  -4   3   0   95.69    9.70
  -4   3   0   91.29    9.10
   3  -3   0  105.89   11.80
   3  -3   0  103.19   11.90
   3  -3   0  124.99   11.30
   3  -3   0  111.19   11.20
   3  -3   0  111.49   11.00
   3  -3   0  113.29   11.40
   3  -3   0  117.49   10.90
   3  -3   0  128.79   14.30
   3  -3   0  114.29   11.10
  -3   3   0  128.29   11.20
  -3   3   0  110.89   11.00
  -3   3   0  122.49   12.10
  -3   3   0  102.69   11.00
  -3   3   0  110.89   10.90
   2  -3   0    0.00    0.40
   2  -3   0    0.10    0.40
   2  -3   0    0.10    0.80
   2  -3   0    1.00    0.90
   2  -3   0    0.10    0.30
   2  -3   0    0.20    1.20
  -2   3   0   -1.00    1.80
   1  -3   0 3334.47  295.87
   1  -3   0 3314.67  295.37
   1  -3   0 3189.98  295.57
   1  -3   0 2873.01  295.17
   1  -3   0 3119.19  295.27
  -1   3   0 3452.45  295.67
  -1   3   0 2842.22  294.87
  -1   3   0 3596.94  296.17
  -1   3   0 3045.60  294.87
  -1   3   0 3413.46  295.47
   0  -3   0 1929.91  175.68
   0  -3   0 1695.13  176.48
   0  -3   0 1959.30  175.98
   0  -3   0 1873.41  176.08
   0  -3   0 1954.90  175.68
   0  -3   0 1890.81  175.78
   0   3   0 1875.31  175.58
   0   3   0 1648.73  176.48
   0   3   0 1958.90  175.88
   0   3   0 2160.98  175.68
   0   3   0 1869.01  175.68
   0   3   0 2117.89  175.38
   0   3   0 1902.41  176.48
  -1  -3   0   48.60    5.50
  -1  -3   0   38.80    5.90
  -1  -3   0   46.80    6.20
  -1  -3   0   49.30    5.40
  -1  -3   0   32.40    7.00
  -1  -3   0   47.40    5.30
  -1  -3   0   39.40    6.10
   1   3   0   44.70    5.80
   1   3   0   49.70    6.20
   1   3   0   45.50    5.50
   1   3   0   41.00    7.20
   1   3   0   43.30    6.20
   1   3   0   40.90    5.40
  -2  -3   0    1.90    2.20
  -2  -3   0    3.20    2.60
  -2  -3   0   -1.40    2.50
  -2  -3   0    5.90    2.10
  -2  -3   0    1.30    2.30
  -2  -3   0    4.60    1.90
  -2  -3   0   -0.80    3.80
   2   3   0    2.50    2.60
   2   3   0    5.50    2.90
   2   3   0    1.40    2.10
   2   3   0    3.70    2.00
   2   3   0    1.20    3.80
   2   3   0    2.80    1.90
   2   3   0    0.80    2.50
  -3  -3   0   62.19    9.30
  -3  -3   0   61.89    7.80
  -3  -3   0   62.79    8.30
  -3  -3   0   57.99    9.50
  -3  -3   0   51.89   10.50
  -3  -3   0   52.09    9.30
  -3  -3   0   62.59    8.20
   3   3   0   68.39    8.50
   3   3   0   82.49   10.10
   3   3   0   59.49    8.10
   3   3   0   66.19   12.00
   3   3   0   68.99    9.60
   3   3   0   59.89    8.00
  -4  -3   0  209.28   22.30
  -4  -3   0  199.98   20.10
  -4  -3   0  202.88   20.50
  -4  -3   0  154.88   24.00
  -4  -3   0  181.48   21.40
  -4  -3   0  173.38   21.80
  -4  -3   0  179.08   23.90
   4   3   0  197.48   20.40
   4   3   0  207.38   21.20
   4   3   0  176.68   20.40
   4   3   0  160.88   21.50
   4   3   0  218.58   22.20
   4   3   0  211.28   25.30
   4   3   0  201.58   20.50
   4   3   0  227.58   22.70
  -5  -3   0   25.30    9.90
  -5  -3   0   20.10    8.00
  -5  -3   0   20.00    7.90
  -5  -3   0   26.70    8.90
  -5  -3   0   21.10   11.60
  -5  -3   0   28.70    7.20
  -5  -3   0   22.80    9.60
   5   3   0   27.20   12.30
   5   3   0   16.30   10.20
   5   3   0   21.90    9.00
   5   3   0   26.90    8.50
   5   3   0   36.70    8.20
   5   3   0   27.90    6.40
   5   3   0   29.00    7.40
   5   3   0   15.90    6.60
  -6  -3   0   -4.80   10.70
  -6  -3   0    9.80    7.70
  -6  -3   0   13.60   13.00
  -6  -3   0    3.20    4.80
  -6  -3   0   -0.90   18.30
  -6  -3   0    7.90    8.50
  -6  -3   0   11.00   10.90
  -6  -3   0    4.90    4.70
   6   3   0  -18.20   11.90
   6   3   0   16.40   11.50
   6   3   0    8.80    9.10
   6   3   0   12.90   17.20
   6   3   0   17.30    8.00
   6   3   0   13.50   14.60
   6   3   0   18.00    8.90
   7  -4   0   12.80    6.80
   7  -4   0   13.50    4.90
   7  -4   0   23.70    6.90
   7  -4   0   17.80    7.60
   7  -4   0   27.50   10.90
   7  -4   0    1.20    8.30
   7  -4   0   15.90   10.40
   7  -4   0   30.20    7.70
  -7   4   0   22.00    4.70
  -7   4   0   29.60    7.60
  -7   4   0   25.50    5.40
  -7   4   0   19.40    7.40
   6  -4   0   50.19    7.60
   6  -4   0   41.60    9.70
   6  -4   0   33.70    8.40
   6  -4   0   25.50    8.00
   6  -4   0   34.40    7.80
   6  -4   0   35.60    6.80
   6  -4   0   36.10    6.50
   6  -4   0   42.10    6.60
  -6   4   0   43.10    8.20
  -6   4   0   37.70    6.30
  -6   4   0   34.90    5.80
  -6   4   0   47.20    6.60
  -6   4   0   41.90    8.10
   5  -4   0  120.59   13.00
   5  -4   0  126.59   11.90
   5  -4   0  108.99   14.50
   5  -4   0  112.19   12.70
   5  -4   0  117.79   13.30
   5  -4   0  121.69   13.60
   5  -4   0  123.79   12.50
   5  -4   0  129.59   14.10
  -5   4   0  123.29   11.90
  -5   4   0  112.59   12.10
  -5   4   0  113.49   13.60
  -5   4   0  118.79   12.10
  -5   4   0  130.29   12.50
   4  -4   0   23.10    3.60
   4  -4   0   16.80    2.90
   4  -4   0   14.70    3.00
   4  -4   0   13.80    6.30
   4  -4   0   16.00    2.80
   4  -4   0   17.80    3.10
   4  -4   0   17.70    4.40
   4  -4   0   17.80    3.50
   4  -4   0   17.50    2.30
  -4   4   0   23.70    2.30
  -4   4   0   23.00    4.90
  -4   4   0   18.70    2.20
   3  -4   0  341.87   34.80
   3  -4   0  310.67   29.40
   3  -4   0  288.87   29.50
   3  -4   0  316.27   30.00
   3  -4   0  332.37   30.70
   3  -4   0  331.07   29.40
  -3   4   0  327.77   31.00
   2  -4   0  346.37   31.90
   2  -4   0  361.66   32.50
   2  -4   0  356.96   31.80
   2  -4   0  307.17   32.10
  -2   4   0  357.36   33.10
   1  -4   0  174.18   16.00
   1  -4   0  186.88   16.10
   1  -4   0  140.69   16.80
   1  -4   0  172.58   16.40
   1  -4   0  169.08   16.00
   1  -4   0  167.68   16.40
   1  -4   0  188.78   15.90
  -1   4   0  177.08   16.50
  -1   4   0  172.28   16.10
  -1   4   0  174.08   16.80
  -1   4   0  152.18   16.00
  -1   4   0  142.89   16.20
   0  -4   0  608.34   57.59
   0  -4   0  625.74   57.29
   0  -4   0  607.84   57.89
   0  -4   0  632.94   57.29
   0  -4   0  522.05   58.39
   0  -4   0  605.74   57.79
   0   4   0  658.83   56.59
   0   4   0  635.24   57.59
   0   4   0  618.54   57.19
   0   4   0  710.83   57.29
   0   4   0  558.14   57.89
   0   4   0  628.14   58.39
   0   4   0  579.84   57.29
  -1  -4   0   44.10    6.90
  -1  -4   0   61.59    7.40
  -1  -4   0   54.89    6.20
  -1  -4   0   53.89    8.60
  -1  -4   0   51.99    6.40
  -1  -4   0   50.59    7.20
  -1  -4   0   53.99    6.40
   1   4   0   47.10    7.40
   1   4   0   55.99    8.60
   1   4   0   54.19    7.20
   1   4   0   46.80    6.50
   1   4   0   59.39    7.10
   1   4   0   52.39    6.40
  -2  -4   0   59.79    9.10
  -2  -4   0   80.69    9.90
  -2  -4   0   60.09    9.50
  -2  -4   0   50.89   11.00
  -2  -4   0   73.99    8.60
  -2  -4   0   78.09    8.60
  -2  -4   0   69.59    8.20
   2   4   0   79.09    9.80
   2   4   0   74.29   10.90
   2   4   0   63.39    8.50
   2   4   0   74.89    9.60
  -3  -4   0   18.60    4.60
  -3  -4   0   18.30    5.80
  -3  -4   0   11.50    5.50
  -3  -4   0   10.90    5.30
  -3  -4   0   26.20    8.00
  -3  -4   0   19.20    4.30
  -3  -4   0   15.40    4.70
   3   4   0   26.10    6.10
   3   4   0   17.00    4.90
   3   4   0   29.40    6.70
   3   4   0   22.20    8.30
   3   4   0    8.60    5.20
   3   4   0   12.40    4.30
  -4  -4   0   -0.60    8.90
  -4  -4   0    2.00    9.30
  -4  -4   0   -1.20    3.90
  -4  -4   0   -8.50    4.30
  -4  -4   0   -0.60    4.10
  -4  -4   0   12.00    6.70
   4   4   0    4.30    4.30
   4   4   0    1.00    4.20
   4   4   0   -4.40    5.40
   4   4   0   -1.20    5.10
   4   4   0   -7.80    5.80
   4   4   0    5.10    6.60
  -5  -4   0   33.80   11.40
  -5  -4   0   51.09    9.20
  -5  -4   0   34.60   11.10
  -5  -4   0   37.70    8.30
  -5  -4   0   33.60   15.10
  -5  -4   0   35.50   13.60
  -5  -4   0   43.60   10.80
   5   4   0   32.30    8.50
   5   4   0   52.29   12.20
   5   4   0   53.99   16.50
   5   4   0   45.90    9.10
   5   4   0   44.50   11.50
   5   4   0   59.19   10.90
   5   4   0   52.49   12.00
   6  -5   0   90.29   13.80
   6  -5   0  107.59    9.90
   6  -5   0   95.49   10.10
   6  -5   0  116.69   13.00
   6  -5   0   90.39   12.30
   6  -5   0   98.59   11.70
   6  -5   0  110.49   10.90
   6  -5   0  125.19   15.10
  -6   5   0   95.69   13.10
   5  -5   0  185.48   19.20
   5  -5   0  194.08   19.30
   5  -5   0  190.18   18.70
   5  -5   0  181.58   22.40
   5  -5   0  174.58   18.10
   5  -5   0  214.78   18.00
   5  -5   0  198.38   20.90
  -5   5   0  178.08   20.10
   4  -5   0   20.70    3.20
   4  -5   0   28.50    3.20
   4  -5   0   21.60    3.80
   4  -5   0   19.10    8.60
   4  -5   0   17.10    4.50
  -4   5   0   24.10    5.50
   3  -5   0  105.29   10.10
   3  -5   0  108.29   10.80
   3  -5   0  106.09   10.00
   3  -5   0  114.79   11.50
  -3   5   0  110.39   12.10
   2  -5   0  545.75   51.29
   2  -5   0  619.44   51.09
   2  -5   0  628.14   51.29
   2  -5   0  537.65   51.39
   2  -5   0  515.65   50.99
   2  -5   0  625.14   50.99
  -2   5   0  488.15   50.89
  -2   5   0  471.95   50.89
  -2   5   0  547.85   52.39
   1  -5   0 1699.03  161.68
   1  -5   0 1743.03  162.08
   1  -5   0 1755.32  161.78
   1  -5   0 1743.63  162.08
   1  -5   0 1791.62  161.28
   1  -5   0 1763.82  161.58
  -1   5   0 1795.22  162.28
  -1   5   0 1817.92  161.78
  -1   5   0 1699.83  162.38
   0  -5   0  153.18   16.00
   0  -5   0  169.58   15.60
   0  -5   0  150.78   16.30
   0  -5   0  155.38   15.70
   0  -5   0  157.88   16.40
   0  -5   0  154.78   15.60
   0  -5   0  120.49   17.20
   0   5   0  157.18   16.60
   0   5   0  185.28   15.60
   0   5   0  152.18   15.70
   0   5   0  161.18   16.10
   0   5   0  147.29   15.40
   0   5   0  154.18   17.10
   0   5   0  163.68   14.60
  -1  -5   0   29.40    5.10
  -1  -5   0   30.90    5.10
  -1  -5   0   23.10    5.70
  -1  -5   0   34.50    5.50
  -1  -5   0   28.90    5.90
  -1  -5   0   33.40    6.10
   1   5   0   39.10    6.10
   1   5   0   36.70    6.10
   1   5   0   35.80    7.50
   1   5   0   35.10    5.30
  -2  -5   0  259.77   23.10
  -2  -5   0  229.88   24.60
  -2  -5   0  246.48   23.40
  -2  -5   0  199.58   24.00
  -2  -5   0  235.58   23.30
  -2  -5   0  211.48   24.40
   2   5   0  259.17   24.50
   2   5   0  209.48   23.20
   2   5   0  208.68   26.00
   2   5   0  235.08   24.00
  -3  -5   0  200.08   27.30
  -3  -5   0  147.59   22.60
  -3  -5   0  159.08   26.90
  -3  -5   0  192.18   21.60
  -3  -5   0  194.88   19.20
  -3  -5   0  153.18   20.30
  -3  -5   0  201.98   19.70
   3   5   0  208.58   21.50
   3   5   0  165.58   19.70
   3   5   0  179.58   24.20
   3   5   0  158.58   19.30
   3   5   0  182.38   18.70
   3   5   0  223.98   21.40
   3   5   0  170.18   21.00
  -4  -5   0   29.00   14.60
  -4  -5   0   24.50    9.40
  -4  -5   0   15.80    7.60
  -4  -5   0   35.00    7.40
  -4  -5   0   24.50   11.80
  -4  -5   0   23.00    7.30
  -4  -5   0   24.90    8.90
  -4  -5   0   26.70    6.60
   4   5   0   29.60    8.60
   4   5   0   34.30    8.10
   4   5   0   32.30    7.10
   4   5   0   48.00   10.30
   4   5   0   37.50    9.90
   4   5   0   32.20    7.10
  -5  -5   0    5.10   10.60
  -5  -5   0    2.20    7.40
  -5  -5   0    0.20   17.70
  -5  -5   0    4.80    7.70
  -5  -5   0    2.40   16.80
  -5  -5   0    4.10    7.60
  -5  -5   0   10.50   10.60
  -5  -5   0  -16.30   11.10
   5   5   0    2.50   11.60
   5   5   0    7.70   10.80
   5   5   0    7.30    8.10
   5   5   0   -4.30    6.90
   5   5   0   20.10   17.00
   5   5   0  -11.60    8.40
   5   5   0  -18.50   11.40
   6  -6   0   57.89    8.20
   6  -6   0   44.10   10.20
   6  -6   0   44.50    7.70
   6  -6   0   49.99    8.60
   6  -6   0   57.69   10.00
  -6   6   0   32.20    9.30
   5  -6   0   74.69   10.50
   5  -6   0   68.19   14.80
   5  -6   0   72.49    8.10
   5  -6   0   66.19    7.70
   5  -6   0   63.19    8.50
  -5   6   0   56.99    9.40
   4  -6   0  128.69   13.50
   4  -6   0  134.39   14.60
   4  -6   0  147.69   23.40
   4  -6   0  135.99   12.80
  -4   6   0  129.39   15.00
   3  -6   0    0.60    2.40
  -3   6   0   -5.60    3.90
   2  -6   0   38.00    5.10
   2  -6   0   40.40    4.90
   2  -6   0   38.80    6.60
   2  -6   0   48.10    5.60
   2  -6   0   50.89    5.40
   2  -6   0   47.90    4.70
   2  -6   0   42.10    5.00
  -2   6   0   37.60    4.80
  -2   6   0   37.80    4.50
  -2   6   0   40.00    7.20
  -2   6   0   45.20    4.60
   1  -6   0   33.60    4.30
   1  -6   0   34.60    5.80
   1  -6   0   34.10    5.30
   1  -6   0   29.30    6.40
   1  -6   0   28.90    5.20
   1  -6   0   32.30    4.70
  -1   6   0   34.60    5.70
  -1   6   0   35.40    4.90
   0  -6   0  129.99   18.90
   0  -6   0  180.58   17.20
   0  -6   0  168.18   17.00
   0  -6   0  168.28   18.10
   0  -6   0  166.48   17.80
   0  -6   0  160.78   17.10
   0  -6   0  151.68   18.10
   0   6   0  194.28   16.90
   0   6   0  169.98   18.80
   0   6   0  155.78   16.70
   0   6   0  180.08   17.80
  -1  -6   0    8.10    4.30
  -1  -6   0    7.00    4.50
  -1  -6   0    9.40    3.40
  -1  -6   0    8.40    6.20
  -1  -6   0    9.80    4.20
  -1  -6   0    7.70    3.00
  -1  -6   0    4.90    3.00
   1   6   0    6.90    4.00
   1   6   0    7.10    1.70
   1   6   0    5.40    6.00
   1   6   0    3.80    3.10
   1   6   0   11.10    4.30
  -2  -6   0    5.80    5.90
  -2  -6   0   13.50    4.70
  -2  -6   0   23.90    5.30
  -2  -6   0   12.10    5.80
  -2  -6   0   23.30    8.70
   2   6   0   21.20    6.30
   2   6   0   13.60    3.30
   2   6   0   16.00    5.60
   2   6   0   17.20    5.30
   2   6   0   23.90    6.30
   2   6   0   17.10    4.70
  -3  -6   0   10.40    4.90
  -3  -6   0   -8.10   12.20
  -3  -6   0   -4.20    6.70
  -3  -6   0   -4.60    6.20
  -3  -6   0    2.10    6.10
  -3  -6   0    2.20    4.40
  -3  -6   0    3.40    5.10
   3   6   0   -1.40    7.00
   3   6   0    3.80    5.30
   3   6   0   -4.70    6.50
   3   6   0   -4.40    3.50
   3   6   0   10.60    5.80
   3   6   0    2.10    6.60
   3   6   0    5.00    8.30
  -4  -6   0   44.50    8.90
  -4  -6   0   35.20   11.60
  -4  -6   0   45.60   16.50
  -4  -6   0   32.80   19.90
  -4  -6   0   41.40    8.30
  -4  -6   0   38.00   12.30
  -4  -6   0   34.50   11.40
  -4  -6   0   56.59    9.50
   4   6   0   53.79   12.30
   4   6   0   18.60    9.00
   4   6   0   40.60   11.70
   4   6   0   34.50    8.10
   4   6   0   49.70   15.80
   4   6   0   28.80    8.90
   4   6   0   34.40   11.50
   6  -7   0   -4.80    6.90
   6  -7   0   -4.90    5.50
   6  -7   0    6.80    4.70
   6  -7   0    3.60    3.80
   6  -7   0    6.70   10.30
  -6   7   0    0.60    5.10
   5  -7   0  -10.60   12.60
   5  -7   0    5.10    4.90
   5  -7   0    3.00    2.00
   5  -7   0    0.10    2.50
   5  -7   0    1.50    3.30
  -5   7   0    4.60    5.40
   4  -7   0   63.19    6.40
   4  -7   0   57.59    7.50
   4  -7   0   78.79    8.90
   4  -7   0   76.39   19.20
   4  -7   0   65.29    6.70
  -4   7   0   55.39    9.50
   3  -7   0 1109.39  102.49
   3  -7   0 1151.88  112.59
   3  -7   0 1134.29  102.09
   3  -7   0 1098.69  102.29
   3  -7   0 1113.89  102.09
  -3   7   0 1038.50  103.99
   2  -7   0  107.89   12.30
   2  -7   0  131.59   11.60
   2  -7   0  114.29   11.40
   2  -7   0  126.39   12.20
   2  -7   0  113.89   11.80
   2  -7   0   98.19   13.60
   2  -7   0  114.69   12.20
  -2   7   0   99.29   11.30
  -2   7   0  105.49   11.70
  -2   7   0  108.19   13.30
  -2   7   0  135.89   11.50
   1  -7   0   47.00    6.90
   1  -7   0   49.10    5.70
   1  -7   0   35.10    8.10
   1  -7   0   31.10    6.50
   1  -7   0   40.20    6.60
   1  -7   0   33.90    6.10
  -1   7   0   51.09    7.70
  -1   7   0   54.49    6.50
  -1   7   0   41.60    5.90
  -1   7   0   40.20    6.70
   0  -7   0  685.83   65.19
   0  -7   0  743.43   64.19
   0  -7   0  704.23   64.19
   0  -7   0  641.54   64.69
   0  -7   0  683.03   65.19
   0  -7   0  686.23   63.89
   0   7   0  746.53   64.69
   0   7   0  624.34   63.79
   0   7   0  602.04   65.69
   0   7   0  649.83   63.39
   0   7   0  717.53   66.19
  -1  -7   0  115.49   12.50
  -1  -7   0  124.69   12.80
  -1  -7   0   93.99   17.60
  -1  -7   0   85.79   14.30
  -1  -7   0  104.59   12.80
  -1  -7   0   92.19   13.90
  -1  -7   0  114.79   14.40
   1   7   0  115.99   10.40
   1   7   0  129.89   13.50
   1   7   0   93.89   12.70
   1   7   0  100.09   14.00
   1   7   0  100.79   16.10
   1   7   0  102.29   10.40
   1   7   0  134.39   14.30
   1   7   0  110.19   12.80
  -2  -7   0   81.49   11.30
  -2  -7   0   91.79   11.00
  -2  -7   0   53.39   14.30
  -2  -7   0   72.79   12.70
  -2  -7   0   83.29   13.60
  -2  -7   0   71.19   10.00
  -2  -7   0   81.09   12.90
   2   7   0   77.09   11.30
   2   7   0   70.69   14.30
   2   7   0   63.89    8.20
   2   7   0   85.99   13.10
   2   7   0   69.59   12.30
   2   7   0   51.99   10.10
   2   7   0   75.99   12.90
  -3  -7   0   37.10   11.20
  -3  -7   0   60.99   11.90
  -3  -7   0   29.80   20.70
  -3  -7   0   51.69    9.90
  -3  -7   0   43.40    9.30
  -3  -7   0   35.70   14.40
  -3  -7   0   33.80   10.80
  -3  -7   0   46.00    9.00
   3   7   0   45.40    7.10
   3   7   0   42.00    9.30
   3   7   0   39.30    9.80
   3   7   0   49.10   14.70
   3   7   0   42.40   11.60
   3   7   0   61.99   11.80
   3   7   0   55.49   11.60
  -4  -7   0    8.10   11.90
  -4  -7   0   -4.30   12.20
  -4  -7   0    2.70    8.60
  -4  -7   0   15.70    8.80
  -4  -7   0   19.50   19.20
  -4  -7   0    8.70   11.70
  -4  -7   0   21.60   24.90
   4   7   0    4.50   12.30
   4   7   0    4.90   13.70
   4   7   0   11.80   16.50
   4   7   0    4.10    8.70
   4   7   0    8.00    7.40
   4   7   0   -1.90    9.40
   4   7   0   23.50   12.40
   5  -8   0   78.39    8.00
   5  -8   0   70.69    7.80
   5  -8   0   81.09   22.90
   5  -8   0   76.49    9.40
   5  -8   0   81.79   11.80
  -5   8   0   53.29   11.50
   4  -8   0    7.90   18.70
   4  -8   0    2.60    2.10
   4  -8   0   -0.20    3.50
   4  -8   0    6.00    2.80
   4  -8   0    5.70    1.90
  -4   8   0   -4.00    4.50
   3  -8   0    0.20    2.70
   3  -8   0    0.80    2.20
   3  -8   0    5.90    2.50
   3  -8   0   -0.70    1.80
   3  -8   0   -3.20    2.30
   3  -8   0   -4.30   16.20
   3  -8   0   -0.50    2.60
  -3   8   0   -0.30    4.70
   2  -8   0   75.09    9.00
   2  -8   0   84.99    9.40
   2  -8   0   62.59    9.70
   2  -8   0   73.59    9.70
   2  -8   0   61.99   11.90
  -2   8   0   88.09    9.10
  -2   8   0   66.69    8.80
  -2   8   0   74.29   10.60
  -2   8   0   87.89    8.50
  -2   8   0   70.79    8.10
   1  -8   0    0.40    4.50
   1  -8   0    7.50    3.60
   1  -8   0   -2.60    6.10
   1  -8   0   -1.60    3.00
   1  -8   0    2.20    2.60
   1  -8   0    5.00    4.00
   1  -8   0    3.90    4.30
  -1   8   0   -4.90    3.70
  -1   8   0    6.60    3.80
  -1   8   0    2.60    4.40
  -1   8   0    1.10    2.90
   0  -8   0   -1.40    3.20
   0  -8   0    2.50    3.40
   0  -8   0    0.80    5.40
   0  -8   0    7.50    7.90
   0  -8   0    4.40    4.70
   0  -8   0    7.90    5.30
   0  -8   0   -5.90    5.30
   0   8   0    5.10    3.00
   0   8   0    4.40    4.60
   0   8   0   -1.10    5.50
   0   8   0    2.60    3.60
   0   8   0    2.80    2.70
  -1  -8   0   14.50   10.10
  -1  -8   0   15.20    5.20
  -1  -8   0   11.50    7.40
  -1  -8   0   18.80    6.70
  -1  -8   0   18.00    5.20
  -1  -8   0   14.00    7.20
  -1  -8   0   10.20    5.50
   1   8   0   12.40    5.60
   1   8   0   23.00    7.00
   1   8   0   23.20    6.00
   1   8   0    7.30    4.90
   1   8   0   18.20    6.60
   1   8   0   16.90    9.10
  -2  -8   0    5.90    8.60
  -2  -8   0    1.70   19.00
  -2  -8   0   -2.90   12.10
  -2  -8   0    5.30    5.50
  -2  -8   0    4.30    6.20
  -2  -8   0   -1.10    7.60
  -2  -8   0   10.90    6.70
  -2  -8   0   13.60    8.60
   2   8   0    9.40    8.10
   2   8   0   16.70    8.00
   2   8   0   11.40    7.80
   2   8   0    3.50   11.10
   2   8   0    9.20    2.50
   2   8   0    9.70    2.70
   2   8   0    8.60    6.60
  -3  -8   0   43.00   13.70
  -3  -8   0   27.50   12.50
  -3  -8   0   50.29   10.50
  -3  -8   0   43.80   18.70
  -3  -8   0   50.49    9.70
  -3  -8   0   63.29   27.40
   3   8   0   28.70   17.40
   3   8   0   43.60   14.80
   3   8   0   62.09   13.70
   3   8   0   45.30    7.40
   3   8   0   50.19   11.30
   3   8   0   67.99   13.30
   3   8   0   52.79   11.80
   5  -9   0   10.30    4.20
   5  -9   0    4.70    3.10
   5  -9   0   13.40   23.80
   5  -9   0    4.20    2.70
   5  -9   0   10.60    5.70
  -5   9   0   12.80    6.40
   4  -9   0   72.89    9.80
   4  -9   0   78.69    9.20
   4  -9   0   84.09    8.50
   4  -9   0   65.39    9.30
   4  -9   0   97.59   29.30
  -4   9   0   55.09   13.50
   3  -9   0   76.99   11.50
   3  -9   0   96.79   11.00
   3  -9   0   89.99   11.70
   3  -9   0   94.89   10.90
   3  -9   0   89.69   27.40
   3  -9   0  107.79   10.40
   3  -9   0   86.69   10.50
  -3   9   0   79.19   13.00
   2  -9   0   13.60    7.90
   2  -9   0   38.30    6.40
   2  -9   0   23.30   19.80
   2  -9   0   35.80    5.90
   2  -9   0   32.00    7.50
   2  -9   0   24.30    6.50
  -2   9   0   36.60    6.60
  -2   9   0   33.30    6.40
  -2   9   0   27.00    4.60
   1  -9   0  167.68   20.00
   1  -9   0  145.39   20.20
   1  -9   0  158.28   20.00
   1  -9   0  174.28   18.00
   1  -9   0  180.68   17.90
   1  -9   0  171.18   36.30
   1  -9   0  191.98   20.10
   1  -9   0  139.49   22.30
  -1   9   0  191.18   20.40
  -1   9   0  205.28   18.80
  -1   9   0  163.28   17.70
  -1   9   0  147.49   18.70
   0  -9   0  131.09   22.60
   0  -9   0  169.48   17.70
   0  -9   0  166.18   19.90
   0  -9   0  167.28   20.10
   0  -9   0  123.39   19.90
   0  -9   0  149.99   18.10
   0  -9   0  154.18   33.80
   0  -9   0  150.48   17.30
   0   9   0  152.08   17.40
   0   9   0  159.68   18.50
   0   9   0  167.98   21.50
   0   9   0  146.99   15.90
  -1  -9   0  190.88   23.00
  -1  -9   0  179.88   19.80
  -1  -9   0  146.39   21.90
  -1  -9   0  132.09   25.90
  -1  -9   0  173.08   19.00
  -1  -9   0  194.88   22.60
  -1  -9   0  153.28   35.40
  -1  -9   0  149.49   20.40
   1   9   0  185.88   21.40
   1   9   0  181.78   24.70
   1   9   0  157.48   19.80
   1   9   0  156.68   19.40
   1   9   0  189.58   19.70
   1   9   0  165.18   22.70
  -2  -9   0    9.10    8.20
  -2  -9   0   20.30   10.60
  -2  -9   0  -34.70   23.00
  -2  -9   0   -0.60    7.30
  -2  -9   0   -6.40   10.30
  -2  -9   0    9.80    8.20
  -2  -9   0   13.20   10.30
  -2  -9   0   -4.50   15.60
   2   9   0    0.60    8.60
   2   9   0   12.50    8.80
   2   9   0   -4.30   13.90
   2   9   0    6.30   11.30
   2   9   0   17.20    9.20
   4 -10   0    0.70    3.70
   4 -10   0   11.90    4.50
   4 -10   0  -20.70   27.40
   4 -10   0   -4.80    3.90
   4 -10   0    1.50    5.00
  -4  10   0   12.40    7.00
   3 -10   0  103.59   14.70
   3 -10   0  145.89   16.20
   3 -10   0  135.49   14.40
   2 -10   0   29.50    6.00
   2 -10   0   13.50    6.20
   2 -10   0   28.80    6.20
   2 -10   0   15.50    6.90
   2 -10   0   25.40    9.40
   2 -10   0   58.09   27.00
   2 -10   0   25.60    8.20
  -2  10   0   16.50    4.50
  -2  10   0   18.60    5.40
  -2  10   0   24.50    4.90
  -2  10   0   30.70    5.80
   1 -10   0   80.49   13.20
   1 -10   0   79.59   28.50
   1 -10   0   75.09   12.30
   1 -10   0   75.09   13.50
   1 -10   0   74.69   15.40
   1 -10   0   66.39   10.40
   1 -10   0   49.60    9.30
   1 -10   0   67.79   11.90
  -1  10   0   91.89   11.00
  -1  10   0   67.59   11.60
  -1  10   0   66.49   12.90
  -1  10   0   78.69   14.10
   0 -10   0   13.30    9.20
   0 -10   0   10.90    6.00
   0 -10   0    8.20    8.50
   0 -10   0   21.30   24.60
   0 -10   0    6.20    7.20
   0 -10   0    6.30    9.00
   0 -10   0   39.50   14.50
   0 -10   0    6.50    6.00
   0  10   0    3.60    3.10
   0  10   0    9.10    9.90
   0  10   0    0.20    2.30
   0  10   0    3.60    6.70
   0  10   0   -1.90    7.60
  -1 -10   0  378.36   33.80
  -1 -10   0  304.67   35.90
  -1 -10   0  229.48   35.40
  -1 -10   0  331.47   33.70
  -1 -10   0  249.38   40.00
  -1 -10   0  324.67   32.10
  -1 -10   0  289.17   57.79
   1  10   0  279.07   33.50
   1  10   0  316.27   33.10
   1  10  -1   -1.40   10.00
   1  10  -1    5.80    9.30
   1  10  -1    2.80    8.30
  -1 -10   1   -8.80   27.70
  -1 -10   1    1.40   10.70
  -1 -10   1  -11.10    8.20
  -1 -10   1    9.10   11.20
  -1 -10   1   -0.90   14.40
  -1 -10   1   17.60   11.70
  -1 -10   1    1.50   10.60
  -1 -10   1    0.20    8.50
   0  10  -1   23.20    8.50
   0  10  -1   22.60   10.20
   0  10  -1   17.00    3.90
   0  10  -1   23.20    7.50
   0  10  -1   17.70    3.60
   0  10  -1   18.90    8.30
   0 -10   1   24.70    6.20
   0 -10   1    8.30    8.40
   0 -10   1   30.10   12.40
   0 -10   1   14.40    9.10
   0 -10   1   15.00    6.30
   0 -10   1   28.90    9.80
   0 -10   1   16.40    7.90
  -1  10  -1  133.19   16.40
  -1  10  -1  136.39   17.90
  -1  10  -1  131.09   22.60
  -1  10  -1  164.08   19.20
   1 -10   1  136.99   16.10
   1 -10   1  120.29   19.20
   1 -10   1  157.48   18.50
   1 -10   1  161.08   17.60
   1 -10   1  135.59   18.90
   1 -10   1  114.49   22.50
   1 -10   1  172.18   16.50
  -2  10  -1    9.10    4.60
  -2  10  -1    9.70    4.60
  -2  10  -1   10.00    4.80
  -2  10  -1    4.20    3.70
   2 -10   1    9.50    5.30
   2 -10   1   15.30    4.50
   2 -10   1    6.70    6.00
   2 -10   1   14.60    6.80
   2 -10   1   12.10    4.30
   2 -10   1   21.30    8.90
   2 -10   1    8.80    5.20
  -3  10  -1   -1.10    6.30
   3 -10   1    0.60    5.40
   3 -10   1    1.40    3.80
   3 -10   1    7.60   24.20
   3 -10   1   -6.30    5.60
   3 -10   1    3.30    2.20
   3 -10   1   -1.30    3.80
   3 -10   1   -4.00    2.90
   3 -10   1    1.50    3.00
  -4  10  -1    6.40    6.10
   4 -10   1    5.40    5.00
   4 -10   1   -5.60    4.80
   4 -10   1    8.30    3.80
   4 -10   1    0.80    3.20
   4 -10   1   -3.60   25.30
   2   9  -1   91.19    9.40
   2   9  -1  123.39   17.40
   2   9  -1   64.09   14.20
   2   9  -1  142.09   24.20
   2   9  -1   88.29    9.30
   2   9  -1  109.79   16.70
   2   9  -1  110.79   16.60
   2   9  -1  104.39   20.00
  -2  -9   1  101.99   14.10
  -2  -9   1   72.79   15.60
  -2  -9   1   81.69   16.20
  -2  -9   1  119.79   15.70
  -2  -9   1  115.49   16.10
  -2  -9   1   75.59   16.10
  -2  -9   1   65.09   20.30
  -2  -9   1  109.39   30.40
   1   9  -1   -0.50    6.60
   1   9  -1    5.30    7.80
   1   9  -1    6.60    6.40
   1   9  -1   10.90    9.80
   1   9  -1   -3.40    5.60
   1   9  -1    2.50    5.80
  -1  -9   1   -1.00   11.40
  -1  -9   1   -3.50    7.00
  -1  -9   1    8.00    8.00
  -1  -9   1   -3.80    7.10
  -1  -9   1    0.30    5.00
  -1  -9   1   -1.30    7.80
  -1  -9   1   -3.30    5.20
   0   9  -1    5.80    3.30
   0   9  -1    2.50    3.10
   0   9  -1    4.00    7.00
   0   9  -1   -2.40    5.60
   0   9  -1    3.30    4.50
   0  -9   1    2.60    4.20
   0  -9   1    3.60    6.40
   0  -9   1    8.80    5.40
   0  -9   1    7.70    5.90
   0  -9   1   -1.30    6.30
   0  -9   1    5.60    9.20
  -1   9  -1    1.50    5.10
  -1   9  -1    6.70    3.60
  -1   9  -1   -2.20    4.50
  -1   9  -1    1.20    4.10
   1  -9   1    5.30    3.40
   1  -9   1    4.40    5.60
   1  -9   1   -0.40    7.30
   1  -9   1   -3.50    3.00
   1  -9   1   -5.00    4.40
   1  -9   1   -2.90    5.30
  -2   9  -1   52.39    7.50
  -2   9  -1   36.30    7.20
  -2   9  -1   43.10    6.80
   2  -9   1   42.00    6.40
   2  -9   1   45.70    8.00
   2  -9   1   39.70    6.60
   2  -9   1   29.30    8.80
   2  -9   1   53.69    7.40
   2  -9   1   36.00    7.50
  -3   9  -1  122.69   15.90
   3  -9   1  127.69   12.90
   3  -9   1  124.49   12.30
   3  -9   1  133.29   13.50
   3  -9   1  117.89   12.60
   3  -9   1  109.69   14.70
   3  -9   1  133.69   13.50
   3  -9   1  146.69   13.60
   3  -9   1  118.89   14.10
  -4   9  -1    4.90    7.10
   4  -9   1    2.70   20.80
   4  -9   1    7.50    3.00
   4  -9   1   11.00    3.80
   4  -9   1    6.40    4.30
   4  -9   1   12.80    3.10
  -5   9  -1   79.29   12.10
   5  -9   1   75.99   11.20
   5  -9   1   84.19    9.10
   5  -9   1   58.79    8.70
   5  -9   1   82.59    9.00
   5  -9   1   64.29   27.00
   3   8  -1   20.00   11.80
   3   8  -1   17.80    9.50
   3   8  -1   19.50    5.90
   3   8  -1   22.70   15.20
   3   8  -1   17.20   10.40
   3   8  -1   12.30   11.00
   3   8  -1   34.00    9.30
  -3  -8   1   54.09   24.70
  -3  -8   1   19.00    7.40
  -3  -8   1    9.00    8.50
  -3  -8   1   25.50   15.40
  -3  -8   1   23.10   10.30
  -3  -8   1   22.40   11.00
  -3  -8   1   17.10   10.70
  -3  -8   1   24.00    8.30
   2   8  -1  181.38   20.40
   2   8  -1  147.09   15.60
   2   8  -1  126.39   19.40
   2   8  -1  133.39   20.30
   2   8  -1  192.58   19.80
   2   8  -1  132.09   18.50
   2   8  -1  165.88   15.60
  -2  -8   1  147.39   20.50
  -2  -8   1  147.09   20.30
  -2  -8   1  133.49   19.90
  -2  -8   1  143.29   25.40
  -2  -8   1  186.48   18.80
  -2  -8   1  149.59   18.40
  -2  -8   1  159.58   17.70
   1   8  -1  183.58   18.40
   1   8  -1  195.78   22.90
   1   8  -1  163.08   18.00
   1   8  -1  160.98   15.50
   1   8  -1  159.58   19.60
   1   8  -1  157.08   15.60
  -1  -8   1  184.48   18.40
  -1  -8   1  177.08   19.90
  -1  -8   1  152.18   20.00
  -1  -8   1  124.89   22.30
  -1  -8   1  143.89   19.70
  -1  -8   1  166.38   17.60
  -1  -8   1  170.98   18.70
   0   8  -1   61.09    7.40
   0   8  -1   61.29   10.60
   0   8  -1   67.99    8.90
   0   8  -1   53.79    7.20
   0  -8   1   52.29    7.90
   0  -8   1   54.29    9.40
   0  -8   1   42.50    9.00
   0  -8   1   57.19    7.70
   0  -8   1   33.80    8.60
  -1   8  -1   84.69   11.20
   1  -8   1   86.69    9.20
   1  -8   1   85.89   10.80
   1  -8   1   67.19   11.00
   1  -8   1   76.39    9.10
   1  -8   1   84.19    9.80
   1  -8   1   65.49   13.20
   1  -8   1   65.69   10.40
  -2   8  -1    0.90    2.60
  -2   8  -1    1.10    2.00
  -2   8  -1   -1.40    2.70
  -2   8  -1   -4.40    3.60
  -2   8  -1    0.70    2.60
   2  -8   1    1.00    2.10
   2  -8   1   -3.00    2.60
   2  -8   1   -0.70    4.90
   2  -8   1    2.10    3.40
   2  -8   1   -2.70    2.40
   2  -8   1   -3.20    2.90
  -3   8  -1   30.10    6.90
   3  -8   1   25.00    3.40
   3  -8   1   25.40    4.20
   3  -8   1   22.70    3.90
   3  -8   1   25.80    4.30
   3  -8   1   27.40    4.60
   3  -8   1   26.80    3.80
   3  -8   1   28.50    4.70
  -4   8  -1   52.59   10.20
   4  -8   1   57.39    8.50
   4  -8   1   53.49    6.70
   4  -8   1   56.89    6.80
   4  -8   1   56.59    6.40
  -5   8  -1    4.90    6.20
   5  -8   1   19.90    3.30
   5  -8   1   11.40    6.20
   5  -8   1   19.80   19.00
   5  -8   1   12.70    3.60
   5  -8   1   12.30    3.40
   4   7  -1  -22.50   11.20
   4   7  -1  -15.10   11.20
   4   7  -1   14.90    9.80
   4   7  -1    8.20   15.80
   4   7  -1   -0.50   12.20
   4   7  -1    4.40    8.10
  -4  -7   1    1.90   17.70
  -4  -7   1   27.60    8.90
  -4  -7   1   -6.30    7.80
  -4  -7   1   11.90   22.00
  -4  -7   1   12.10   11.40
  -4  -7   1   22.40   11.60
  -4  -7   1    2.10   11.00
  -4  -7   1   -6.40    8.10
   3   7  -1   17.10    6.80
   3   7  -1    8.60    8.80
   3   7  -1   12.70    8.30
   3   7  -1   20.00    5.50
   3   7  -1   23.10    9.30
   3   7  -1   23.50    7.60
   3   7  -1    9.00   11.90
  -3  -7   1   21.90    6.00
  -3  -7   1   13.90    8.40
  -3  -7   1   23.80    7.00
  -3  -7   1    4.80   12.40
  -3  -7   1   36.30    9.30
  -3  -7   1   21.80    6.80
  -3  -7   1   30.80    8.90
   2   7  -1    1.20    5.80
   2   7  -1    1.60    5.70
   2   7  -1    0.50    7.80
   2   7  -1  -11.30    5.10
  -2  -7   1   12.50    9.40
  -2  -7   1   -1.30    4.10
  -2  -7   1   -2.10    5.90
  -2  -7   1   -2.70    4.10
  -2  -7   1   -0.80    5.50
  -2  -7   1   -4.50    4.30
  -2  -7   1   -4.20    5.70
   1   7  -1  142.69   14.70
   1   7  -1  136.89   12.50
   1   7  -1  111.89   14.10
   1   7  -1  127.39   15.50
   1   7  -1  145.59   18.30
  -1  -7   1  145.39   14.60
  -1  -7   1   81.19   22.10
  -1  -7   1  123.49   13.70
  -1  -7   1  116.19   15.50
  -1  -7   1  116.19   15.80
  -1  -7   1  118.69   15.30
  -1  -7   1  129.69   15.60
   0   7  -1  232.18   28.20
   0   7  -1  280.67   25.80
   0   7  -1  261.17   27.30
   0   7  -1  274.17   26.80
   0   7  -1  327.67   28.00
   0   7  -1  297.57   31.10
   0  -7   1  253.57   28.10
   0  -7   1  281.37   27.40
   0  -7   1  281.47   27.00
   0  -7   1  303.07   27.30
   0  -7   1  251.87   27.80
   0  -7   1  293.67   28.40
  -1   7  -1  109.29   13.00
  -1   7  -1  138.59   13.30
  -1   7  -1  143.39   14.40
   1  -7   1  125.69   13.20
   1  -7   1  134.19   13.90
   1  -7   1  119.69   12.80
   1  -7   1  121.39   13.60
   1  -7   1  119.59   13.90
   1  -7   1  106.29   15.00
   1  -7   1  129.89   12.80
  -2   7  -1    6.10    2.00
  -2   7  -1    8.60    2.50
  -2   7  -1    6.20    4.40
   2  -7   1    7.50    2.70
   2  -7   1    8.70    2.80
   2  -7   1    7.20    3.90
   2  -7   1    7.30    2.50
   2  -7   1   10.20    2.40
   2  -7   1    5.40    2.10
   2  -7   1    7.20    3.10
  -3   7  -1   27.90    6.50
   3  -7   1   28.20    3.00
   3  -7   1   28.80    4.60
   3  -7   1   27.90    4.00
   3  -7   1   27.50    3.00
   3  -7   1   27.20    3.90
   3  -7   1   24.30    5.00
   3  -7   1   36.20    4.40
   3  -7   1   24.50    4.30
  -4   7  -1   18.40    5.90
   4  -7   1   32.50    4.20
   4  -7   1   26.40    4.10
   4  -7   1   28.00    5.30
   4  -7   1   32.60   14.10
  -5   7  -1    1.50    4.60
   5  -7   1    3.30   13.00
   5  -7   1    2.90    4.90
   5  -7   1   -2.60    2.80
   5  -7   1    1.50    2.80
   5  -7   1    1.00    2.40
  -6   7  -1   75.59   12.10
   6  -7   1   83.59   10.40
   6  -7   1   80.89   16.00
   6  -7   1   94.09   12.90
   6  -7   1   62.59   10.60
   6  -7   1  102.19   14.20
   4   6  -1  340.07   43.70
   4   6  -1  439.96   41.00
   4   6  -1  380.06   38.70
   4   6  -1  444.06   41.40
   4   6  -1  373.66   37.80
   4   6  -1  372.76   39.00
   4   6  -1  405.76   45.50
  -4  -6   1  385.16   38.40
  -4  -6   1  333.97   40.00
  -4  -6   1  407.96   38.00
  -4  -6   1  369.66   41.10
  -4  -6   1  315.47   48.40
  -4  -6   1  353.96   40.80
   3   6  -1  257.07   24.90
   3   6  -1  248.78   28.50
   3   6  -1  252.77   25.10
   3   6  -1  196.88   23.10
  -3  -6   1  227.88   23.10
  -3  -6   1  183.48   24.60
  -3  -6   1  174.18   23.90
  -3  -6   1  167.48   27.90
  -3  -6   1  211.68   24.50
  -3  -6   1  236.88   22.40
  -3  -6   1  215.88   23.10
   2   6  -1   83.39   10.90
   2   6  -1   51.19    9.40
   2   6  -1   90.49   14.30
   2   6  -1   82.59   10.30
   2   6  -1   72.59   11.20
  -2  -6   1   76.89   11.40
  -2  -6   1   43.80   12.30
  -2  -6   1   56.59   14.90
  -2  -6   1   73.59    9.10
  -2  -6   1   77.89   10.00
  -2  -6   1   74.19    9.60
   1   6  -1  880.51   90.79
   1   6  -1 1018.10   89.79
   1   6  -1  914.21   91.99
   1   6  -1 1087.69   91.19
   1   6  -1  908.71   90.69
   1   6  -1  982.80   93.09
   1   6  -1 1041.80   91.59
  -1  -6   1  940.31   90.39
  -1  -6   1  998.50   92.09
  -1  -6   1  865.41   91.29
  -1  -6   1  980.50   90.89
  -1  -6   1 1052.49   90.99
   0   6  -1   24.90    2.90
   0   6  -1   21.40    3.70
   0   6  -1   20.30    4.10
   0   6  -1   20.90    5.50
   0   6  -1   24.70    4.60
   0   6  -1   34.00    4.20
   0   6  -1   16.50    5.20
   0  -6   1   15.60    5.50
   0  -6   1   28.10    5.40
   0  -6   1   12.90    4.60
   0  -6   1   28.30    4.70
   0  -6   1   25.50    4.10
   0  -6   1   17.20    4.50
   0  -6   1   26.60    4.00
  -1   6  -1  122.69   12.30
  -1   6  -1  115.09   12.40
  -1   6  -1   99.09   11.20
  -1   6  -1  106.59   12.00
  -1   6  -1  120.59   11.50
  -1   6  -1  104.69   10.80
   1  -6   1  120.29   12.10
   1  -6   1  110.49   12.00
   1  -6   1  111.69   11.40
   1  -6   1  108.59   11.70
   1  -6   1   89.19   12.80
   1  -6   1  114.29   11.10
  -2   6  -1  259.67   28.00
  -2   6  -1  250.07   26.40
   2  -6   1  265.57   26.90
   2  -6   1  288.47   26.70
   2  -6   1  280.37   26.80
   2  -6   1  310.67   26.60
   2  -6   1  266.37   26.60
   2  -6   1  331.17   27.10
  -3   6  -1   10.50    4.00
   3  -6   1    8.40    2.00
   3  -6   1    9.50    1.70
   3  -6   1    9.20    2.10
   3  -6   1    7.90    1.90
   3  -6   1    8.20    2.10
   3  -6   1   10.90    2.80
  -4   6  -1  222.38   25.30
   4  -6   1  269.67   23.50
   4  -6   1  243.88   23.60
   4  -6   1  253.67   24.90
   4  -6   1  246.28   32.30
   4  -6   1  250.77   23.90
  -5   6  -1   -6.00    3.60
   5  -6   1  -10.30    4.30
   5  -6   1    6.70    3.20
   5  -6   1   -2.10    2.70
   5  -6   1    0.30    2.60
   5  -6   1   -2.60    9.20
  -6   6  -1  258.67   29.60
   6  -6   1  260.17   27.80
   6  -6   1  271.67   28.00
   6  -6   1  291.87   30.00
   6  -6   1  307.97   28.10
   6  -6   1  292.67   29.30
   5   5  -1  -11.90   11.30
   5   5  -1    6.60    9.60
   5   5  -1    7.50    8.20
   5   5  -1   -3.20    6.90
   5   5  -1   -5.10    6.70
   5   5  -1    0.20   14.00
   5   5  -1   21.10   11.60
  -5  -5   1   -2.20    6.50
  -5  -5   1   17.40   10.50
  -5  -5   1    4.20   10.60
  -5  -5   1  -10.50    6.70
  -5  -5   1    3.90    7.20
  -5  -5   1   24.10   17.00
  -5  -5   1  -13.60   18.50
   4   5  -1   21.30    6.10
   4   5  -1   18.90    7.10
   4   5  -1   18.60   12.00
   4   5  -1   29.20    8.60
   4   5  -1   26.20    6.50
   4   5  -1   19.60    8.40
   4   5  -1   27.70    8.90
  -4  -5   1   12.20   13.40
  -4  -5   1   18.00   11.10
  -4  -5   1   27.40    9.20
  -4  -5   1   25.70    6.70
  -4  -5   1   19.40    6.30
  -4  -5   1   34.30    7.20
  -4  -5   1   20.00    7.80
  -4  -5   1   16.90    8.20
   3   5  -1    7.30    5.60
   3   5  -1    1.40    5.30
   3   5  -1    7.60    5.60
   3   5  -1    3.70    7.40
  -3  -5   1    3.00    7.70
  -3  -5   1   -3.90    5.40
  -3  -5   1    6.40    4.00
  -3  -5   1   14.50    4.80
  -3  -5   1    9.00    4.00
  -3  -5   1    1.40    4.80
  -3  -5   1    2.90    5.10
   2   5  -1  164.58   15.70
   2   5  -1  125.59   15.50
   2   5  -1  152.38   17.80
   2   5  -1  130.99   15.30
   2   5  -1  118.99   14.20
   2   5  -1  136.39   14.60
  -2  -5   1  135.59   14.30
  -2  -5   1  126.39   14.20
  -2  -5   1  136.39   15.70
  -2  -5   1   99.09   16.60
  -2  -5   1  125.29   15.30
  -2  -5   1  148.89   14.00
  -2  -5   1  112.69   15.20
   1   5  -1   40.70    6.00
   1   5  -1   38.10    5.70
   1   5  -1   47.40    6.70
   1   5  -1   45.30    7.30
   1   5  -1   52.49    6.60
   1   5  -1   47.20    8.50
  -1  -5   1   34.80    5.60
  -1  -5   1   34.00    7.70
  -1  -5   1   42.50    5.50
  -1  -5   1   35.70    6.60
  -1  -5   1   37.60    6.00
  -1  -5   1   41.80    6.90
  -1  -5   1   29.60    6.40
   0   5  -1 1321.87  114.49
   0   5  -1 1199.18  114.19
   0   5  -1 1247.78  113.39
   0   5  -1 1185.48  113.89
   0   5  -1 1202.68  114.89
   0   5  -1 1264.37  115.29
   0  -5   1 1203.78  113.89
   0  -5   1 1151.58  114.59
   0  -5   1 1300.37  114.89
   0  -5   1 1220.08  114.19
   0  -5   1 1211.38  114.39
   0  -5   1 1299.97  114.19
  -1   5  -1  122.89   11.80
  -1   5  -1  102.29   11.00
  -1   5  -1  124.49   11.20
  -1   5  -1  110.19   12.00
  -1   5  -1  108.69   11.50
  -1   5  -1  108.79   10.80
   1  -5   1  119.99   11.60
   1  -5   1  103.79   11.00
   1  -5   1  107.69   11.20
   1  -5   1  119.19   10.90
   1  -5   1   94.29   12.10
   1  -5   1  110.69   10.90
   1  -5   1  104.69   11.40
  -2   5  -1   10.00    2.00
  -2   5  -1   10.20    1.80
  -2   5  -1   14.40    2.20
  -2   5  -1   15.00    1.90
  -2   5  -1   18.70    4.40
   2  -5   1   10.90    2.10
   2  -5   1   12.00    2.00
   2  -5   1    8.40    1.70
   2  -5   1   12.00    2.40
   2  -5   1   15.70    2.80
   2  -5   1   10.10    2.50
   2  -5   1    9.70    2.10
  -3   5  -1   -1.40    2.60
   3  -5   1    0.70    1.90
   3  -5   1    2.50    1.40
   3  -5   1    2.80    1.10
   3  -5   1   -0.80    0.90
   3  -5   1   -0.10    1.60
   3  -5   1    1.80    0.80
   3  -5   1   -0.80    1.10
   3  -5   1   -0.20    0.70
  -4   5  -1  198.58   21.50
   4  -5   1  214.38   21.40
   4  -5   1  207.18   20.10
   4  -5   1  206.78   20.10
   4  -5   1  205.38   19.40
   4  -5   1  216.58   20.30
   4  -5   1  208.88   19.60
   4  -5   1  196.18   20.30
   4  -5   1  226.98   26.50
   4  -5   1  222.78   19.80
  -5   5  -1  743.13   60.69
  -5   5  -1  586.04   62.89
  -5   5  -1  649.34   60.59
   5  -5   1  633.54   62.09
   5  -5   1  661.73   64.29
   5  -5   1  637.04   61.79
   5  -5   1  663.83   61.79
   5  -5   1  655.33   61.19
   5  -5   1  697.83   60.89
   5  -5   1  692.43   61.79
   5  -5   1  661.33   63.19
   5  -5   1  617.64   62.09
  -6   5  -1  114.49   17.20
  -6   5  -1  163.78   13.90
  -6   5  -1  139.39   13.70
   6  -5   1  159.08   18.70
   6  -5   1  130.09   14.50
   6  -5   1  124.49   15.80
   6  -5   1  138.29   14.00
   6  -5   1  136.29   16.70
   6  -5   1  145.79   16.20
   6  -5   1  157.88   15.00
   6  -5   1  147.29   17.60
   5   4  -1   81.39   13.90
   5   4  -1   53.39   11.20
   5   4  -1   53.09   10.10
   5   4  -1   43.70   15.90
   5   4  -1   63.59   12.70
   5   4  -1   57.69   10.60
   5   4  -1   46.00    9.70
   5   4  -1   44.90   11.50
  -5  -4   1   61.79   13.10
  -5  -4   1   91.59   14.50
  -5  -4   1   51.69    9.60
  -5  -4   1   63.09   12.40
  -5  -4   1   64.09   10.10
  -5  -4   1   49.50   16.00
  -5  -4   1   56.79    9.80
  -5  -4   1   42.70   14.10
   4   4  -1  652.83   58.79
   4   4  -1  588.14   57.29
   4   4  -1  651.13   62.09
   4   4  -1  659.73   59.09
   4   4  -1  563.74   57.49
   4   4  -1  552.24   57.09
  -4  -4   1  488.25   58.19
  -4  -4   1  632.14   56.99
  -4  -4   1  514.35   57.99
  -4  -4   1  631.04   57.29
  -4  -4   1  640.64   57.39
  -4  -4   1  594.14   60.59
   3   4  -1   24.70    7.00
   3   4  -1   38.60    6.60
   3   4  -1   42.40    9.40
   3   4  -1   41.10    7.60
   3   4  -1   32.50    6.30
   3   4  -1   34.00    6.20
   3   4  -1   45.40    8.00
  -3  -4   1   34.00    5.80
  -3  -4   1   40.50    7.50
  -3  -4   1   29.20    8.70
  -3  -4   1   30.00    7.10
  -3  -4   1   35.00    6.30
  -3  -4   1   44.40    6.50
  -3  -4   1   26.10    6.90
   2   4  -1  814.52   71.09
   2   4  -1  816.22   71.29
   2   4  -1  742.13   72.59
   2   4  -1  731.23   70.39
   2   4  -1  727.73   70.19
   2   4  -1  717.53   70.39
   2   4  -1  733.83   71.59
  -2  -4   1  788.22   70.09
  -2  -4   1  743.63   71.39
  -2  -4   1  683.83   70.89
  -2  -4   1  782.42   70.39
  -2  -4   1  774.42   70.39
  -2  -4   1  697.33   70.79
   1   4  -1  159.78   17.50
   1   4  -1  140.19   16.40
   1   4  -1  160.08   15.70
   1   4  -1  185.48   16.10
   1   4  -1  166.18   16.20
   1   4  -1  159.28   15.70
  -1  -4   1  143.89   16.00
  -1  -4   1  141.29   16.10
  -1  -4   1  165.28   15.70
  -1  -4   1  124.89   17.00
  -1  -4   1  162.08   15.40
  -1  -4   1  160.68   16.50
  -1  -4   1  157.18   15.60
   0   4  -1  228.48   24.20
   0   4  -1  269.87   23.10
   0   4  -1  258.77   23.90
   0   4  -1  252.97   24.60
   0   4  -1  254.57   23.60
   0   4  -1  245.68   23.50
   0  -4   1  237.68   23.90
   0  -4   1  245.38   24.10
   0  -4   1  206.18   24.50
   0  -4   1  240.78   23.40
   0  -4   1  266.07   23.60
   0  -4   1  247.88   23.80
   0  -4   1  252.37   23.60
  -1   4  -1 1975.80  163.48
  -1   4  -1 1689.63  162.98
  -1   4  -1 1913.11  163.08
  -1   4  -1 1595.14  163.28
  -1   4  -1 1844.32  163.78
  -1   4  -1 1648.94  162.98
   1  -4   1 1881.11  163.38
   1  -4   1 1809.42  162.98
   1  -4   1 1750.32  162.98
   1  -4   1 1910.41  163.08
   1  -4   1 1617.84  163.18
   1  -4   1 1590.34  163.58
   1  -4   1 1846.22  162.98
  -2   4  -1   43.80    4.50
  -2   4  -1   49.60    6.00
  -2   4  -1   46.40    4.40
  -2   4  -1   41.80    4.60
  -2   4  -1   43.80    4.40
  -2   4  -1   42.00    5.40
   2  -4   1   43.40    4.90
   2  -4   1   43.10    4.70
   2  -4   1   42.80    4.40
   2  -4   1   48.00    4.60
   2  -4   1   46.20    5.20
   2  -4   1   40.60    4.50
   2  -4   1   47.80    5.10
   2  -4   1   43.40    4.50
  -3   4  -1   31.90    4.00
  -3   4  -1   43.50    5.90
  -3   4  -1   32.30    4.00
  -3   4  -1   44.70    4.00
  -3   4  -1   47.00    4.10
   3  -4   1   35.90    4.30
   3  -4   1   44.50    4.20
   3  -4   1   36.30    5.50
   3  -4   1   43.30    4.40
   3  -4   1   36.80    5.30
   3  -4   1   35.70    4.50
   3  -4   1   34.80    4.60
   3  -4   1   42.00    4.10
  -4   4  -1  489.35   40.40
  -4   4  -1  411.46   41.60
  -4   4  -1  408.66   40.20
  -4   4  -1  401.26   40.40
   4  -4   1  427.16   40.80
   4  -4   1  433.16   41.70
   4  -4   1  459.45   40.80
   4  -4   1  450.75   40.20
   4  -4   1  459.55   40.60
   4  -4   1  452.65   43.80
   4  -4   1  395.66   41.50
   4  -4   1  424.16   40.70
   4  -4   1  413.36   40.60
  -5   4  -1    0.60    3.00
  -5   4  -1   -0.20    2.30
  -5   4  -1    1.80    2.40
  -5   4  -1    6.30    3.20
  -5   4  -1   -3.40    3.30
  -5   4  -1   -2.30    1.80
   5  -4   1    1.90    1.90
   5  -4   1    4.30    2.80
   5  -4   1    2.40    4.20
   5  -4   1    1.50    2.90
   5  -4   1    1.20    2.90
   5  -4   1    1.20    3.60
   5  -4   1    2.30    3.50
   5  -4   1   -2.80    4.60
  -6   4  -1   10.00    3.30
  -6   4  -1   -0.60    4.60
  -6   4  -1    5.70    3.80
  -6   4  -1    5.20    4.60
  -6   4  -1    4.20    5.10
  -6   4  -1    0.30    4.60
   6  -4   1    6.00    4.80
   6  -4   1   -3.10    6.00
   6  -4   1    3.90    6.60
   6  -4   1    3.40    3.00
   6  -4   1   -3.00    5.10
   6  -4   1    3.20    4.00
   6  -4   1    7.60    6.10
  -7   4  -1   23.80    6.20
  -7   4  -1    0.50    8.80
  -7   4  -1   15.30    6.60
  -7   4  -1    7.30    6.20
   7  -4   1   16.80    7.10
   7  -4   1   17.40    7.30
   7  -4   1    7.60    9.80
   7  -4   1   -4.90   11.10
   7  -4   1   11.90   10.10
   7  -4   1   20.00    5.20
   7  -4   1   21.60    8.40
   6   3  -1    5.90    6.90
   6   3  -1   -3.60    8.10
   6   3  -1    5.00    8.60
   6   3  -1  -10.10   11.10
   6   3  -1    0.30    9.40
   6   3  -1   -2.80   12.30
   6   3  -1    3.00   16.00
   6   3  -1    4.50    7.80
  -6  -3   1   -2.50    5.40
  -6  -3   1   33.30   16.90
  -6  -3   1   28.10   13.80
  -6  -3   1  -15.20   11.10
  -6  -3   1    1.20    7.10
  -6  -3   1   -5.70    7.00
  -6  -3   1    0.90   10.10
  -6  -3   1  -14.50    9.10
  -6  -3   1   -3.00    5.50
   5   3  -1   48.40    8.00
   5   3  -1   41.10    8.40
   5   3  -1   38.60    9.60
   5   3  -1   51.29   11.20
   5   3  -1   38.80    8.50
   5   3  -1   33.10   13.00
   5   3  -1   43.90   10.80
   5   3  -1   50.99    9.20
  -5  -3   1   51.19    8.50
  -5  -3   1   42.60    9.70
  -5  -3   1   40.10   13.00
  -5  -3   1   34.50    7.50
  -5  -3   1   39.70   11.10
  -5  -3   1   28.70   10.20
  -5  -3   1   53.39   10.60
  -5  -3   1   46.00    7.80
   4   3  -1  155.48   17.00
   4   3  -1  139.79   19.60
   4   3  -1  164.08   17.00
  -4  -3   1  106.69   15.80
  -4  -3   1  133.89   14.70
  -4  -3   1  113.49   16.50
  -4  -3   1  127.49   14.80
  -4  -3   1  121.19   16.10
  -4  -3   1  134.59   14.80
   3   3  -1  130.09   13.80
   3   3  -1  110.89   13.60
   3   3  -1  121.89   12.50
   3   3  -1  109.19   12.40
   3   3  -1  125.59   13.70
   3   3  -1   96.69   15.20
   3   3  -1  103.29   12.50
  -3  -3   1  124.69   12.20
  -3  -3   1  110.89   12.30
  -3  -3   1  125.49   12.40
  -3  -3   1   91.29   12.90
  -3  -3   1   81.39   14.70
  -3  -3   1  111.99   13.40
  -3  -3   1  118.59   13.80
   2   3  -1 1234.98  120.19
   2   3  -1 1208.18  119.19
   2   3  -1 1400.96  119.89
   2   3  -1 1305.77  119.39
   2   3  -1 1400.06  120.09
   2   3  -1 1293.87  119.09
   2   3  -1 1284.27  121.19
  -2  -3   1 1355.26  119.29
  -2  -3   1 1328.97  118.99
  -2  -3   1 1306.97  119.19
  -2  -3   1 1216.18  119.59
  -2  -3   1 1139.99  119.69
  -2  -3   1 1261.77  120.09
   1   3  -1  569.14   54.79
   1   3  -1  564.44   54.79
   1   3  -1  574.44   54.59
   1   3  -1  647.04   55.19
   1   3  -1  622.34   56.29
   1   3  -1  628.84   55.29
   1   3  -1  560.74   55.49
  -1  -3   1  625.54   54.89
  -1  -3   1  586.04   55.49
  -1  -3   1  544.05   55.19
  -1  -3   1  533.85   54.99
  -1  -3   1  582.54   54.59
  -1  -3   1  598.44   54.79
   0   3  -1    5.20    1.40
   0   3  -1    3.70    1.30
   0   3  -1    3.40    1.90
   0   3  -1    3.10    2.00
   0   3  -1    3.10    1.30
   0   3  -1    5.30    1.10
   0   3  -1    4.90    1.50
   0  -3   1    4.90    1.70
   0  -3   1    4.50    2.20
   0  -3   1    3.80    1.70
   0  -3   1    5.50    1.20
   0  -3   1    4.90    1.30
   0  -3   1    3.20    1.20
   0  -3   1    3.50    1.60
  -1   3  -1  138.59   13.70
  -1   3  -1  140.59   14.20
  -1   3  -1  162.38   13.60
  -1   3  -1  136.19   13.80
   1  -3   1  130.99   13.90
   1  -3   1  155.28   13.60
   1  -3   1  127.49   13.60
   1  -3   1  158.48   13.60
   1  -3   1  159.48   13.90
   1  -3   1  130.99   13.50
   1  -3   1  136.59   13.70
  -2   3  -1    5.50    1.80
  -2   3  -1    3.60    0.90
  -2   3  -1    6.30    1.20
  -2   3  -1    6.40    1.00
  -2   3  -1    5.60    2.30
  -2   3  -1    5.70    1.10
   2  -3   1    5.30    0.90
   2  -3   1    5.70    1.00
   2  -3   1    3.60    1.70
   2  -3   1    3.70    1.10
   2  -3   1    8.70    1.50
   2  -3   1    4.40    1.60
   2  -3   1    7.40    1.50
   2  -3   1    4.80    1.00
  -3   3  -1   16.10    3.10
  -3   3  -1   12.90    2.20
  -3   3  -1   12.00    3.40
  -3   3  -1   18.10    2.70
  -3   3  -1   13.10    2.50
   3  -3   1   14.40    2.40
   3  -3   1   12.00    3.10
   3  -3   1   13.40    3.50
   3  -3   1   16.20    2.20
   3  -3   1   18.80    2.70
   3  -3   1   13.80    2.50
   3  -3   1   13.40    2.40
  -4   3  -1  179.08   15.90
  -4   3  -1  166.88   16.60
  -4   3  -1  133.79   16.40
  -4   3  -1  152.18   16.10
  -4   3  -1  144.99   15.50
  -4   3  -1  150.78   16.10
   4  -3   1  158.18   17.80
   4  -3   1  148.99   16.80
   4  -3   1  156.98   16.10
   4  -3   1  167.98   15.90
   4  -3   1  166.78   16.00
   4  -3   1  178.68   16.50
   4  -3   1  163.18   16.30
   4  -3   1  165.68   15.50
   4  -3   1  156.18   15.80
  -5   3  -1  101.09   15.00
  -5   3  -1  125.19   14.30
  -5   3  -1  132.59   13.30
  -5   3  -1  140.39   13.80
  -5   3  -1  116.89   14.10
  -5   3  -1  124.49   14.40
   5  -3   1  124.89   14.00
   5  -3   1  126.09   13.90
   5  -3   1  138.89   14.50
   5  -3   1  133.79   15.30
   5  -3   1  145.99   15.10
   5  -3   1  135.69   14.30
   5  -3   1  112.79   16.50
   5  -3   1  132.99   13.30
  -6   3  -1  390.56   35.80
  -6   3  -1  292.57   37.20
  -6   3  -1  362.26   36.50
  -6   3  -1  311.87   36.20
  -6   3  -1  357.26   35.20
  -6   3  -1  365.46   37.40
   6  -3   1  375.36   36.00
   6  -3   1  364.76   36.20
   6  -3   1  353.76   39.20
   6  -3   1  384.16   36.60
   6  -3   1  389.96   35.40
   6  -3   1  401.96   36.50
   6  -3   1  379.26   37.40
  -7   3  -1   15.00   11.40
  -7   3  -1   19.20    8.30
  -7   3  -1   30.40    7.30
  -7   3  -1   31.10    8.60
  -7   3  -1   26.80   11.70
   7  -3   1   53.49   14.50
   7  -3   1   43.00   11.10
   7  -3   1   37.90    7.30
   7  -3   1   30.80    9.90
   7  -3   1   34.50    9.40
   7  -3   1   41.40    9.20
   7  -3   1   21.20    8.70
   7  -3   1   18.40   12.60
   6   2  -1   39.60    8.60
   6   2  -1   28.50   15.80
   6   2  -1   58.19   12.60
   6   2  -1   58.39   10.50
   6   2  -1   42.50    9.60
   6   2  -1   35.40   10.90
   6   2  -1   35.80   11.70
   6   2  -1   43.80   10.10
  -6  -2   1   29.90   15.30
  -6  -2   1   44.90   11.00
  -6  -2   1   44.60    7.90
  -6  -2   1   42.70    8.50
  -6  -2   1   44.50   10.80
  -6  -2   1   41.20    8.50
   5   2  -1  197.38   23.10
   5   2  -1  184.88   20.90
   5   2  -1  193.28   21.70
   5   2  -1  238.98   27.20
   5   2  -1  252.97   23.60
   5   2  -1  182.08   22.70
   5   2  -1  222.98   21.80
   5   2  -1  189.88   21.60
  -5  -2   1  203.78   21.10
  -5  -2   1  198.78   22.90
  -5  -2   1  179.98   21.30
  -5  -2   1  198.58   20.70
  -5  -2   1  169.08   22.80
  -5  -2   1  187.18   22.20
   4   2  -1  126.69   14.40
   4   2  -1  149.59   15.90
   4   2  -1  136.49   15.70
   4   2  -1  134.79   18.00
   4   2  -1  115.99   14.10
  -4  -2   1  113.99   15.40
  -4  -2   1  135.99   14.20
  -4  -2   1  119.79   14.90
  -4  -2   1  139.19   14.00
  -4  -2   1  127.99   14.00
  -4  -2   1  120.49   15.30
   3   2  -1    6.50    4.80
   3   2  -1    8.00    3.80
   3   2  -1   14.90    3.60
   3   2  -1   19.70    4.50
   3   2  -1   13.70    3.20
   3   2  -1   11.50    3.10
   3   2  -1   10.00    4.00
  -3  -2   1   11.10    3.90
  -3  -2   1    9.00    5.10
  -3  -2   1   10.10    3.10
  -3  -2   1   13.10    4.00
  -3  -2   1    9.10    2.90
  -3  -2   1   17.40    3.40
  -3  -2   1   16.50    4.10
   2   2  -1  753.32   74.39
   2   2  -1  854.71   74.29
   2   2  -1  794.12   75.39
   2   2  -1  875.11   74.39
   2   2  -1  815.42   73.59
   2   2  -1  776.12   73.69
   2   2  -1  791.32   73.79
  -2  -2   1  804.82   73.49
  -2  -2   1  707.83   74.09
  -2  -2   1  774.82   74.39
  -2  -2   1  819.52   73.69
  -2  -2   1  742.53   73.99
  -2  -2   1  794.52   73.69
   1   2  -1  225.48   21.70
   1   2  -1  226.58   20.90
   1   2  -1  221.78   20.50
   1   2  -1  221.48   20.90
   1   2  -1  203.28   21.10
   1   2  -1  217.68   20.60
   1   2  -1  213.78   20.60
  -1  -2   1  206.68   20.80
  -1  -2   1  225.08   20.60
  -1  -2   1  210.88   21.10
  -1  -2   1  190.68   21.50
  -1  -2   1  220.78   20.60
  -1  -2   1  229.68   20.50
  -1  -2   1  205.78   20.90
   0   2  -1  475.55   45.60
   0   2  -1  487.85   45.70
   0   2  -1  574.14   45.70
   0   2  -1  528.05   45.60
   0   2  -1  499.35   45.80
   0   2  -1  456.95   45.90
   0   2  -1  487.45   46.10
   0  -2   1  442.56   46.10
   0  -2   1  502.05   45.70
   0  -2   1  514.35   46.00
   0  -2   1  499.85   45.70
   0  -2   1  458.65   45.80
   0  -2   1  467.45   45.50
   0  -2   1  517.15   45.70
  -1   2  -1  761.72   63.59
  -1   2  -1  590.64   63.59
  -1   2  -1  719.33   63.49
  -1   2  -1  698.63   63.29
  -1   2  -1  739.43   63.79
   1  -2   1  702.03   63.39
   1  -2   1  627.44   63.19
   1  -2   1  776.52   63.69
   1  -2   1  755.82   63.59
   1  -2   1  690.63   63.39
   1  -2   1  596.74   63.49
   1  -2   1  611.94   63.29
  -2   2  -1  133.19   13.00
  -2   2  -1  151.88   13.20
  -2   2  -1  119.09   13.20
  -2   2  -1  122.59   13.50
   2  -2   1  133.69   13.60
   2  -2   1  142.09   13.00
   2  -2   1  158.38   13.20
   2  -2   1  144.89   13.20
   2  -2   1  133.89   13.40
   2  -2   1  132.19   13.10
   2  -2   1  141.79   13.30
  -3   2  -1  569.34   49.10
  -3   2  -1  503.45   49.40
  -3   2  -1  587.84   49.60
  -3   2  -1  499.45   49.00
  -3   2  -1  470.75   49.30
   3  -2   1  545.65   49.40
   3  -2   1  552.64   49.80
   3  -2   1  540.55   49.00
   3  -2   1  537.25   49.10
   3  -2   1  505.25   49.10
   3  -2   1  528.95   49.30
   3  -2   1  523.95   49.50
   3  -2   1  462.75   50.19
   3  -2   1  552.54   49.60
  -4   2  -1    9.50    4.10
  -4   2  -1   17.70    3.30
  -4   2  -1   21.30    4.40
  -4   2  -1    9.30    3.60
  -4   2  -1   12.10    2.90
  -4   2  -1   13.70    3.60
   4  -2   1   15.90    3.80
   4  -2   1   15.50    4.00
   4  -2   1   12.50    3.00
   4  -2   1   13.10    3.20
   4  -2   1   15.30    4.00
   4  -2   1   15.60    3.20
   4  -2   1   18.60    5.70
   4  -2   1   12.30    3.50
  -5   2  -1  185.08   22.50
  -5   2  -1  197.28   21.70
  -5   2  -1  225.78   21.90
  -5   2  -1  220.18   22.80
  -5   2  -1  242.88   22.70
   5  -2   1  222.48   25.50
   5  -2   1  207.28   22.10
   5  -2   1  229.08   23.40
   5  -2   1  228.88   21.80
   5  -2   1  219.68   22.00
   5  -2   1  211.98   22.80
   5  -2   1  246.38   23.20
   5  -2   1  205.18   22.90
  -6   2  -1   -2.80    4.70
  -6   2  -1   16.70    6.50
  -6   2  -1    2.90    4.20
  -6   2  -1    2.10    8.20
  -6   2  -1    1.20    4.10
  -6   2  -1   11.00    6.40
   6  -2   1   -3.50    5.20
   6  -2   1    6.40    5.60
   6  -2   1    4.70    9.00
   6  -2   1   -0.70    6.00
   6  -2   1    8.60    7.80
   6  -2   1   -3.70    4.90
   6  -2   1    5.40    4.20
   6  -2   1    7.40    6.10
  -7   2  -1   30.00   12.10
  -7   2  -1   14.00   17.20
  -7   2  -1   27.40    8.10
  -7   2  -1   28.00    7.50
  -7   2  -1   20.70    7.00
   7  -2   1   34.00    9.60
   7  -2   1   22.90    8.50
   7  -2   1   39.40   13.30
   7  -2   1   15.70   14.10
   7  -2   1   28.80    7.30
   7  -2   1   22.10   10.00
   7  -2   1   33.80    9.80
   7  -2   1    7.70   13.80
   6   1  -1   60.09    9.70
   6   1  -1   66.39   11.00
   6   1  -1   55.39   10.70
   6   1  -1   71.69   15.60
   6   1  -1   53.39   10.90
   6   1  -1   69.19   10.50
   6   1  -1   85.09   12.90
  -6  -1   1   57.59    9.60
  -6  -1   1   69.59    9.50
  -6  -1   1   58.69   10.50
  -6  -1   1   44.90   12.30
  -6  -1   1   53.89   11.30
  -6  -1   1   36.50   13.60
  -6  -1   1   54.59    9.20
   5   1  -1  561.44   53.39
   5   1  -1  542.95   53.19
   5   1  -1  585.74   57.19
   5   1  -1  648.74   55.19
   5   1  -1  526.95   53.79
   5   1  -1  478.35   54.19
   5   1  -1  597.94   54.89
  -5  -1   1  575.64   53.19
  -5  -1   1  477.85   54.09
  -5  -1   1  564.34   52.99
  -5  -1   1  593.34   52.69
  -5  -1   1  550.24   54.59
  -5  -1   1  544.25   53.59
   4   1  -1  362.56   34.80
   4   1  -1  412.96   36.10
   4   1  -1  389.36   36.00
   4   1  -1  350.76   34.90
   4   1  -1  353.56   37.40
  -4  -1   1  384.26   34.50
  -4  -1   1  367.46   34.80
  -4  -1   1  309.57   35.40
  -4  -1   1  358.06   35.20
  -4  -1   1  356.16   35.80
  -4  -1   1  315.37   34.80
  -4  -1   1  370.36   34.60
   3   1  -1  524.15   45.20
   3   1  -1  512.85   45.10
   3   1  -1  459.85   44.30
   3   1  -1  446.86   44.30
   3   1  -1  461.95   44.20
   3   1  -1  482.05   46.40
   3   1  -1  437.96   45.10
  -3  -1   1  479.65   44.30
  -3  -1   1  408.26   44.70
  -3  -1   1  500.15   44.20
  -3  -1   1  443.86   45.00
  -3  -1   1  509.65   44.20
  -3  -1   1  436.56   44.60
   2   1  -1 2212.18  196.08
   2   1  -1 2224.08  197.48
   2   1  -1 2044.90  195.98
   2   1  -1 2223.48  196.38
   2   1  -1 2025.50  196.58
   2   1  -1 2228.28  195.98
   2   1  -1 2352.66  196.58
  -2  -1   1 2107.19  195.98
  -2  -1   1 2129.39  196.58
  -2  -1   1 2024.00  196.18
  -2  -1   1 2245.28  195.98
  -2  -1   1 2220.48  195.88
  -2  -1   1 1796.52  196.88
  -2  -1   1 1999.40  196.28
   1   1  -1  806.12   78.19
   1   1  -1  848.92   77.59
   1   1  -1  870.31   77.49
   1   1  -1  841.52   77.89
   1   1  -1  885.11   77.79
   1   1  -1  878.01   77.69
   1   1  -1  824.22   77.49
  -1  -1   1  858.11   77.89
  -1  -1   1  876.81   77.49
  -1  -1   1  889.61   77.59
  -1  -1   1  856.71   77.39
  -1  -1   1  738.93   78.09
  -1  -1   1  796.92   77.69
  -1  -1   1  796.32   77.69
   0   1  -1  512.35   46.40
   0   1  -1  510.25   46.60
   0   1  -1  492.65   46.40
   0   1  -1  518.55   46.40
   0   1  -1  518.05   46.60
   0   1  -1  516.25   46.40
   0   1  -1  441.66   46.30
   0   1  -1  482.85   46.40
   0   1  -1  560.74   46.40
   0  -1   1  538.25   46.60
   0  -1   1  525.75   46.40
   0  -1   1  474.55   46.40
   0  -1   1  487.95   46.40
   0  -1   1  505.55   46.70
   0  -1   1  495.15   46.40
   0  -1   1  535.05   46.40
   0  -1   1  457.45   46.30
  -1   1  -1  792.42   74.19
  -1   1  -1  799.02   74.19
  -1   1  -1  763.22   74.39
  -1   1  -1  857.41   74.49
  -1   1  -1  845.82   74.19
  -1   1  -1  771.32   74.39
   1  -1   1  836.52   74.19
   1  -1   1  753.72   74.39
   1  -1   1  814.32   74.49
   1  -1   1  839.42   74.19
   1  -1   1  839.72   74.39
   1  -1   1  779.92   74.19
  -2   1  -1  418.96   36.20
  -2   1  -1  434.06   36.20
  -2   1  -1  350.36   36.50
  -2   1  -1  380.16   36.10
   2  -1   1  372.26   36.20
   2  -1   1  389.76   36.30
   2  -1   1  385.96   36.60
   2  -1   1  414.76   36.30
   2  -1   1  381.56   36.70
   2  -1   1  365.26   36.50
   2  -1   1  382.96   36.40
  -3   1  -1  468.15   40.90
  -3   1  -1  387.66   41.40
  -3   1  -1  451.85   40.70
  -3   1  -1  407.26   41.50
  -3   1  -1  463.15   40.80
  -3   1  -1  421.26   40.90
   3  -1   1  439.96   41.40
   3  -1   1  391.66   42.50
   3  -1   1  443.16   41.50
   3  -1   1  450.95   41.10
   3  -1   1  437.36   40.90
   3  -1   1  457.45   41.00
   3  -1   1  473.25   41.70
   3  -1   1  408.66   41.40
  -4   1  -1    6.00    1.90
  -4   1  -1   10.60    2.80
  -4   1  -1    9.20    2.70
  -4   1  -1    4.70    3.60
  -4   1  -1   10.10    3.40
  -4   1  -1    9.40    3.30
  -4   1  -1    8.80    2.50
   4  -1   1   11.30    3.00
   4  -1   1   10.80    3.90
   4  -1   1    7.10    2.50
   4  -1   1    3.10    3.00
   4  -1   1    6.30    2.80
   4  -1   1    2.30    3.10
   4  -1   1   10.20    4.00
   4  -1   1    5.30    5.10
  -5   1  -1  382.26   33.70
  -5   1  -1  364.56   33.20
  -5   1  -1  378.26   34.30
  -5   1  -1  326.37   34.10
  -5   1  -1  295.57   35.00
  -5   1  -1  375.06   34.70
  -5   1  -1  330.67   35.10
   5  -1   1  335.67   34.20
   5  -1   1  357.96   35.10
   5  -1   1  396.16   35.80
   5  -1   1  327.27   35.30
   5  -1   1  341.47   34.60
   5  -1   1  340.57   37.90
   5  -1   1  367.96   35.80
  -6   1  -1   41.40    6.20
  -6   1  -1   44.30    9.80
  -6   1  -1   41.80    7.60
  -6   1  -1   49.10    7.10
  -6   1  -1   53.69    8.30
  -6   1  -1   41.90    9.30
  -6   1  -1   45.40    8.70
   6  -1   1   51.99    9.40
   6  -1   1   44.50    9.30
   6  -1   1   35.10   12.50
   6  -1   1   56.29    9.40
   6  -1   1   48.10   11.20
   6  -1   1   43.40    9.30
   6  -1   1   57.19   10.50
   6  -1   1   38.40    8.00
   7  -1   1  105.29   16.50
   7   0  -1   55.59   13.20
   7   0  -1   40.90   11.70
   7   0  -1   51.59   14.60
   7   0  -1   42.30    9.10
   7   0  -1   48.40   12.60
   7   0  -1   19.00   10.10
   7   0  -1   43.90   11.10
  -7   0   1   39.10    8.70
  -7   0   1   45.40    8.00
  -7   0   1   47.30    7.60
  -7   0   1   32.00    9.50
  -7   0   1   34.50   14.00
  -7   0   1   59.99   15.00
   6   0  -1   30.40    8.40
   6   0  -1   25.70    6.80
   6   0  -1   19.30    7.20
   6   0  -1   37.00    8.70
   6   0  -1   36.10    8.40
   6   0  -1   48.00   12.00
   6   0  -1   18.40    9.50
   6   0  -1   31.60    6.50
  -6   0   1   36.00    6.60
  -6   0   1   12.00    7.80
  -6   0   1   28.90    6.70
  -6   0   1   25.30    8.10
  -6   0   1   42.40    7.70
  -6   0   1   32.00   12.60
  -6   0   1   25.00    5.00
   5   0  -1   14.20    6.00
   5   0  -1    5.40    5.70
   5   0  -1   19.90    5.50
   5   0  -1   18.10    5.40
   5   0  -1    7.50    4.50
   5   0  -1    9.50    4.20
   5   0  -1   10.80    6.70
  -5   0   1   17.60    4.20
  -5   0   1    7.40    7.70
  -5   0   1   11.40    3.70
  -5   0   1    6.20    4.50
  -5   0   1    8.30    5.00
  -5   0   1    8.30    4.00
  -5   0   1    8.30    2.90
   4   0  -1   44.90    6.10
   4   0  -1   42.00    6.30
   4   0  -1   35.70    5.80
   4   0  -1   41.90    7.10
   4   0  -1   55.99    7.20
   4   0  -1   49.20    9.50
  -4   0   1   42.30    5.40
  -4   0   1   31.60    7.80
  -4   0   1   41.70    6.00
  -4   0   1   47.00    7.30
  -4   0   1   56.19    6.10
  -4   0   1   33.40    6.60
  -4   0   1   41.30    6.30
   3   0  -1  117.49   12.10
   3   0  -1  115.29   13.70
   3   0  -1  126.19   12.20
   3   0  -1  118.79   12.70
   3   0  -1  143.99   13.00
   3   0  -1  113.69   12.70
   3   0  -1  112.19   12.10
  -3   0   1  131.09   12.20
  -3   0   1   91.69   13.60
  -3   0   1  113.69   12.30
  -3   0   1  130.59   11.80
  -3   0   1  128.29   12.10
  -3   0   1  102.09   12.50
  -3   0   1  117.69   12.70
   2   0  -1  544.15   49.30
   2   0  -1  515.25   48.90
   2   0  -1  485.45   49.30
   2   0  -1  544.35   49.00
   2   0  -1  516.75   49.90
   2   0  -1  527.25   48.90
   2   0  -1  548.85   49.30
  -2   0   1  556.74   48.80
  -2   0   1  503.85   49.10
  -2   0   1  501.55   48.90
  -2   0   1  542.25   49.40
  -2   0   1  487.05   49.10
  -2   0   1  571.44   49.00
   1   0  -1 1003.10   94.59
   1   0  -1 1056.49   94.29
   1   0  -1  982.40   94.39
   1   0  -1 1078.09   94.19
   1   0  -1  971.50   94.19
   1   0  -1 1031.90   94.29
   1   0  -1 1049.59   94.09
  -1   0   1  954.30   94.19
  -1   0   1  977.40   94.19
  -1   0   1 1009.20   94.19
  -1   0   1 1068.79   94.19
  -1   0   1 1118.19   94.09
  -1   0   1 1022.40   94.39
  -1   0  -1    7.20    2.50
  -1   0  -1   11.60    2.10
  -1   0  -1    9.70    1.60
  -1   0  -1   11.70    1.80
  -1   0  -1   10.70    2.00
  -1   0  -1   10.90    1.60
  -1   0  -1   11.40    2.00
  -1   0  -1   13.20    1.90
  -1   0  -1   13.60    2.50
   1   0   1    9.20    1.70
   1   0   1    8.20    2.40
   1   0   1   11.70    2.00
   1   0   1   12.10    1.70
   1   0   1   11.40    2.10
   1   0   1    7.80    1.70
   1   0   1   10.20    2.20
   1   0   1    8.80    1.90
   1   0   1    9.50    1.70
  -2   0  -1  393.66   40.00
  -2   0  -1  394.96   40.00
  -2   0  -1  453.95   39.90
  -2   0  -1  467.85   39.50
  -2   0  -1  397.26   39.50
  -2   0  -1  441.56   39.50
   2   0   1  426.86   39.80
   2   0   1  443.46   39.50
   2   0   1  395.46   39.90
   2   0   1  410.46   39.50
   2   0   1  363.46   40.70
   2   0   1  448.96   40.00
   2   0   1  442.76   40.20
   2   0   1  436.96   39.70
  -3   0  -1   98.59    9.60
  -3   0  -1   93.89   10.20
  -3   0  -1   69.79   11.30
  -3   0  -1   83.19   10.30
  -3   0  -1   96.89    9.70
  -3   0  -1   79.19   10.40
  -3   0  -1   91.19    9.70
   3   0   1  100.39   10.70
   3   0   1   90.59    9.60
   3   0   1   80.49   11.50
   3   0   1   98.29    9.90
   3   0   1   93.49   10.50
   3   0   1   96.29    9.70
   3   0   1   85.89   10.30
   3   0   1  106.49   10.30
  -4   0  -1   81.99   10.60
  -4   0  -1   81.69   10.00
  -4   0  -1   79.79    9.50
  -4   0  -1   58.19   12.00
  -4   0  -1   64.49   10.90
  -4   0  -1   96.99    9.30
  -4   0  -1   91.89    9.70
   4   0   1   86.79   11.30
   4   0   1   81.19    9.50
   4   0   1   79.39   10.80
   4   0   1   81.19   10.90
   4   0   1   85.19   10.10
   4   0   1   80.09   10.20
   4   0   1   79.79   12.60
   4   0   1   90.89    9.80
  -5   0  -1   86.29   10.40
  -5   0  -1   68.79   10.20
  -5   0  -1   96.69   11.10
  -5   0  -1   89.29   12.20
  -5   0  -1   83.99    9.90
  -5   0  -1   72.39   12.10
  -5   0  -1   60.39   13.30
   5   0   1  104.79   12.90
   5   0   1   80.49   10.40
   5   0   1   82.59   12.10
   5   0   1   70.79   12.90
   5   0   1   86.99   11.70
   5   0   1  120.49   16.90
   5   0   1   76.29   11.10
  -6   0  -1    4.20    6.00
  -6   0  -1    7.60    8.20
  -6   0  -1   14.90    6.10
  -6   0  -1   12.80   11.80
  -6   0  -1    0.60    5.20
  -6   0  -1   16.00    7.50
  -6   0  -1    7.20    4.00
   6   0   1    1.30   11.00
   6   0   1   10.10    7.20
   6   0   1    2.80    5.70
   6   0   1    1.00    8.90
   6   0   1    7.50    7.00
   6   0   1    7.40    5.10
   6   0   1    9.50    8.10
   6   0   1   14.60    6.90
   7  -1  -1   42.80   10.70
   7  -1  -1   69.29   13.80
   7  -1  -1   30.00   11.20
   7  -1  -1   35.30   17.60
   7  -1  -1   19.30   10.00
   7  -1  -1   27.00    9.00
   7  -1  -1   35.30    7.90
   7  -1  -1   25.20    9.50
  -7   1   1   43.60    9.00
  -7   1   1   38.70    8.10
  -7   1   1   20.30   14.60
  -7   1   1   32.50   12.60
  -7   1   1   34.90    8.40
   6  -1  -1  171.88   18.80
   6  -1  -1  164.78   19.80
   6  -1  -1  198.28   22.10
   6  -1  -1  205.98   20.90
   6  -1  -1  157.18   20.50
   6  -1  -1  190.48   19.70
   6  -1  -1  193.88   20.90
  -6   1   1  170.48   19.00
  -6   1   1  153.08   20.80
  -6   1   1  171.38   19.10
  -6   1   1  170.88   18.90
  -6   1   1  177.58   17.00
   5  -1  -1   45.00    8.30
   5  -1  -1   36.00    6.40
   5  -1  -1   33.90    6.00
   5  -1  -1   32.20    6.90
   5  -1  -1   45.60    7.40
   5  -1  -1   41.60    6.70
   5  -1  -1   39.60    7.40
  -5   1   1   31.30    8.30
  -5   1   1   32.30    7.10
  -5   1   1   37.30    5.40
  -5   1   1   33.90    6.80
  -5   1   1   44.70    6.60
  -5   1   1   48.80    6.80
  -5   1   1   43.20    6.40
  -5   1   1   39.00    4.60
   4  -1  -1 1194.58  106.99
   4  -1  -1 1146.09  105.59
   4  -1  -1 1102.09  104.89
   4  -1  -1 1272.27  105.69
   4  -1  -1  981.30  105.29
   4  -1  -1 1129.69  104.99
   4  -1  -1 1027.50  104.69
  -4   1   1 1122.09  105.49
  -4   1   1 1178.78  105.29
  -4   1   1 1143.09  104.79
  -4   1   1  991.50  105.19
  -4   1   1 1203.78  104.19
  -4   1   1 1172.48  104.39
  -4   1   1 1181.48  104.89
   3  -1  -1  304.17   27.70
   3  -1  -1  280.97   27.30
   3  -1  -1  278.27   27.20
   3  -1  -1  297.47   27.70
   3  -1  -1  283.67   28.60
  -3   1   1  301.37   27.30
  -3   1   1  310.27   26.70
  -3   1   1  290.97   27.20
  -3   1   1  248.28   27.40
  -3   1   1  273.87   26.90
  -3   1   1  275.67   27.60
  -3   1   1  305.27   27.60
   2  -1  -1  997.20   88.29
   2  -1  -1  973.90   88.09
   2  -1  -1  947.71   88.79
   2  -1  -1  968.20   88.29
   2  -1  -1  879.81   88.09
   2  -1  -1  879.91   88.39
   2  -1  -1  992.80   88.29
  -2   1   1  913.91   88.79
  -2   1   1  948.51   88.39
  -2   1   1  929.41   87.79
  -2   1   1 1094.69   88.49
  -2   1   1  855.41   88.29
  -2   1   1 1045.50   88.29
  -2   1   1  986.80   88.09
   1  -1  -1  451.75   41.90
   1  -1  -1  456.75   42.00
   1  -1  -1  441.06   43.10
   1  -1  -1  422.06   41.90
   1  -1  -1  490.25   42.10
   1  -1  -1  439.06   42.00
  -1   1   1  506.35   41.90
  -1   1   1  439.56   43.20
   0  -1  -1  208.08   20.30
   0  -1  -1  186.78   18.90
   0  -1  -1  202.88   18.90
   0  -1  -1  201.58   19.00
   0  -1  -1  191.68   18.70
   0  -1  -1  208.58   18.80
   0  -1  -1  213.08   18.60
   0   1   1  221.28   18.60
   0   1   1  209.58   20.20
   0   1   1  211.28   18.80
   0   1   1  203.58   18.90
   0   1   1  196.58   18.70
   0   1   1  168.48   19.10
   0   1   1  195.88   18.90
  -1  -1  -1   48.80    5.00
  -1  -1  -1   45.70    7.00
  -1  -1  -1   45.70    5.00
  -1  -1  -1   44.70    5.40
  -1  -1  -1   36.80    6.30
  -1  -1  -1   41.80    5.50
  -1  -1  -1   46.70    5.40
  -1  -1  -1   45.80    4.90
   1   1   1   46.60    5.10
   1   1   1   44.90    5.50
   1   1   1   42.00    5.20
   1   1   1   47.60    4.80
   1   1   1   39.30    6.20
   1   1   1   44.30    5.40
   1   1   1   45.50    4.90
  -2  -1  -1   46.80    6.30
  -2  -1  -1   37.70    6.20
  -2  -1  -1   43.40    6.30
  -2  -1  -1   38.90    5.30
  -2  -1  -1   47.70    5.50
  -2  -1  -1   30.40    7.00
  -2  -1  -1   51.39    5.40
  -2  -1  -1   46.30    7.40
   2   1   1   51.19    5.60
   2   1   1   38.50    6.00
   2   1   1   40.30    5.30
   2   1   1   48.00    6.40
   2   1   1   45.80    5.60
   2   1   1   48.20    7.50
   2   1   1   44.80    6.30
  -3  -1  -1  297.77   29.40
  -3  -1  -1  259.67   29.00
  -3  -1  -1  307.17   28.30
  -3  -1  -1  296.07   28.40
  -3  -1  -1  285.17   29.30
  -3  -1  -1  301.97   28.20
  -3  -1  -1  301.87   28.90
   3   1   1  304.97   28.50
   3   1   1  274.77   29.10
   3   1   1  314.57   29.30
   3   1   1  297.07   29.40
   3   1   1  276.67   30.60
   3   1   1  300.37   28.40
   3   1   1  290.17   28.30
   3   1   1  288.27   28.50
  -4  -1  -1  180.68   18.30
  -4  -1  -1  142.19   20.90
  -4  -1  -1  178.88   18.10
  -4  -1  -1  180.28   19.60
  -4  -1  -1  150.18   19.40
  -4  -1  -1  186.28   19.10
  -4  -1  -1  193.78   18.20
   4   1   1  171.68   21.80
   4   1   1  196.88   20.00
   4   1   1  181.08   18.60
   4   1   1  156.38   19.80
   4   1   1  181.68   18.40
   4   1   1  176.58   18.30
   4   1   1  180.18   18.80
   4   1   1  193.58   20.00
  -5  -1  -1    9.10    4.10
  -5  -1  -1    7.60    4.50
  -5  -1  -1   14.10    8.70
  -5  -1  -1    8.60    5.80
  -5  -1  -1   13.10    5.60
  -5  -1  -1    9.00    6.80
  -5  -1  -1   15.30    4.70
   5   1   1   26.90    7.70
   5   1   1    8.30    5.50
   5   1   1   11.90    6.80
   5   1   1   11.80    4.50
   5   1   1   14.80    5.40
   5   1   1    8.70    8.70
   5   1   1    9.10    5.50
   5   1   1    3.30    4.90
  -6  -1  -1  304.17   32.50
  -6  -1  -1  263.97   35.60
  -6  -1  -1  334.77   35.00
  -6  -1  -1  293.07   31.60
  -6  -1  -1  306.57   32.10
  -6  -1  -1  308.57   35.20
   6   1   1  373.86   38.00
   6   1   1  297.97   35.10
   6   1   1  352.36   33.50
   6   1   1  350.36   40.10
   6   1   1  339.07   32.80
   6   1   1  310.07   33.30
   6   1   1  306.37   34.60
   6   1   1  320.37   33.40
   7  -2  -1    0.10    9.20
   7  -2  -1    3.60    7.40
   7  -2  -1    0.10    7.30
   7  -2  -1    6.30    7.70
   7  -2  -1   21.40   11.80
   7  -2  -1   23.00   10.90
   7  -2  -1   11.90    6.90
   7  -2  -1   13.10    6.20
  -7   2   1    5.30    9.20
  -7   2   1   -1.70    7.20
  -7   2   1   16.10   11.90
  -7   2   1    7.20    5.30
  -7   2   1    4.20    6.90
  -7   2   1   15.30    5.70
   6  -2  -1   36.70    7.60
   6  -2  -1   29.70    6.40
   6  -2  -1   30.60    5.90
   6  -2  -1   27.40    6.60
   6  -2  -1   27.00    6.40
   6  -2  -1   31.40    7.80
   6  -2  -1   27.40   10.20
  -6   2   1   22.70    8.60
  -6   2   1   29.00    6.50
  -6   2   1   27.80    5.50
  -6   2   1   24.20    6.00
  -6   2   1   21.90    7.00
  -6   2   1   31.40    6.90
   5  -2  -1   31.10    5.60
   5  -2  -1   38.40    6.00
   5  -2  -1   37.10    7.00
   5  -2  -1   39.30    8.70
   5  -2  -1   39.40    6.60
   5  -2  -1   29.70    5.30
  -5   2   1   39.30    6.00
  -5   2   1   20.70    6.90
  -5   2   1   28.20    5.90
  -5   2   1   26.30    6.10
  -5   2   1   35.90    6.50
  -5   2   1   41.70    5.60
   4  -2  -1   43.10    6.90
   4  -2  -1   55.19    6.50
   4  -2  -1   45.40    5.30
   4  -2  -1   35.60    5.80
   4  -2  -1   42.70    5.70
   4  -2  -1   42.70    5.50
   4  -2  -1   45.00    5.90
   4  -2  -1   56.09    8.00
  -4   2   1   44.30    5.30
  -4   2   1   42.20    5.90
  -4   2   1   33.60    6.30
  -4   2   1   45.70    5.80
  -4   2   1   48.40    6.30
   3  -2  -1 1343.37  127.99
   3  -2  -1 1326.27  127.69
   3  -2  -1 1570.14  128.69
   3  -2  -1 1423.16  128.09
   3  -2  -1 1259.27  127.69
   3  -2  -1 1360.46  128.49
   3  -2  -1 1427.96  127.99
   3  -2  -1 1220.38  127.99
  -3   2   1 1557.24  128.39
  -3   2   1 1482.95  128.09
  -3   2   1 1345.57  127.69
  -3   2   1 1362.66  127.99
   2  -2  -1  141.69   14.20
   2  -2  -1  176.08   14.80
   2  -2  -1  139.19   16.60
   2  -2  -1  150.08   14.50
   2  -2  -1  157.38   14.30
  -2   2   1  170.78   14.20
  -2   2   1  135.79   14.30
   1  -2  -1   69.79    6.90
   1  -2  -1   71.49   10.00
  -1   2   1   79.09    6.70
  -1   2   1   64.89    6.90
  -1   2   1   81.19    7.40
  -1   2   1   68.29    6.80
   0  -2  -1  457.85   41.00
   0  -2  -1  456.85   41.20
   0  -2  -1  464.05   41.40
   0  -2  -1  456.05   41.00
   0  -2  -1  457.75   41.40
   0  -2  -1  380.76   41.70
   0   2   1  479.25   41.10
   0   2   1  443.66   40.90
   0   2   1  389.56   41.20
   0   2   1  460.15   41.00
   0   2   1  455.55   41.30
   0   2   1  397.96   41.60
  -1  -2  -1  904.91   82.49
  -1  -2  -1  910.31   79.79
  -1  -2  -1  860.21   80.49
  -1  -2  -1  749.33   80.99
  -1  -2  -1  921.71   79.99
  -1  -2  -1  881.11   79.89
  -1  -2  -1  844.42   80.19
  -1  -2  -1  818.32   80.29
   1   2   1  785.42   80.99
   1   2   1  943.01   80.29
   1   2   1  913.71   80.39
   1   2   1  763.62   80.19
   1   2   1  844.52   79.79
   1   2   1  913.81   79.99
   1   2   1  881.81   79.49
  -2  -2  -1    1.70    2.50
  -2  -2  -1   -0.10    3.50
  -2  -2  -1   -0.90    3.50
  -2  -2  -1    0.10    2.50
  -2  -2  -1   -2.70    1.60
  -2  -2  -1    0.20    1.60
  -2  -2  -1   -0.90    1.40
  -2  -2  -1   -1.00    1.60
   2   2   1    3.80    2.30
   2   2   1   -1.40    2.40
   2   2   1   -1.30    1.60
   2   2   1    0.70    1.60
   2   2   1   -1.10    1.50
   2   2   1    4.20    3.10
   2   2   1    0.60    1.60
   2   2   1   -4.20    3.10
  -3  -2  -1   27.80    7.10
  -3  -2  -1   26.20    4.90
  -3  -2  -1   24.40    5.80
  -3  -2  -1   24.90    4.40
  -3  -2  -1   32.70    5.20
  -3  -2  -1   29.70    5.80
  -3  -2  -1   23.40    7.20
  -3  -2  -1   20.40    5.20
   3   2   1   22.40    5.70
   3   2   1   24.70    4.50
   3   2   1   38.30    5.30
   3   2   1   28.20    6.00
   3   2   1   29.00    5.50
   3   2   1   23.60    5.00
   3   2   1   29.10    4.70
   3   2   1   29.80    7.30
  -4  -2  -1   42.00    7.30
  -4  -2  -1   45.40    8.40
  -4  -2  -1   31.10    7.70
  -4  -2  -1   41.10    6.50
  -4  -2  -1   29.00    7.20
  -4  -2  -1   25.60    9.30
  -4  -2  -1   36.10    8.20
   4   2   1   37.70    6.40
   4   2   1   33.70    6.40
   4   2   1   31.00    7.30
   4   2   1   43.80    7.00
   4   2   1   38.40    8.10
   4   2   1   50.29   10.50
   4   2   1   32.40    6.80
  -5  -2  -1  335.27   35.10
  -5  -2  -1  393.16   33.90
  -5  -2  -1  346.57   33.70
  -5  -2  -1  326.37   33.90
  -5  -2  -1  335.27   36.10
  -5  -2  -1  268.87   35.40
  -5  -2  -1  381.76   33.80
   5   2   1  312.67   34.00
   5   2   1  338.07   35.90
   5   2   1  337.47   34.60
   5   2   1  318.17   34.10
   5   2   1  403.86   36.80
   5   2   1  323.87   33.80
   5   2   1  308.77   35.60
   5   2   1  321.87   39.00
  -6  -2  -1    3.40    6.40
  -6  -2  -1   17.00   15.10
  -6  -2  -1   -2.90    9.10
  -6  -2  -1    1.30    7.00
  -6  -2  -1    5.50    9.00
  -6  -2  -1    2.00   12.00
  -6  -2  -1   -4.60    6.60
   6   2   1   16.30    8.30
   6   2   1   14.40   11.00
   6   2   1   11.50   10.80
   6   2   1    4.70   15.20
   6   2   1   -4.60    6.30
   6   2   1   -5.70    7.60
   6   2   1    1.70    9.50
   7  -3  -1   72.09   10.50
   7  -3  -1   90.69   16.90
   7  -3  -1   57.19   13.20
   7  -3  -1   64.79   11.20
   7  -3  -1   83.39   13.90
   7  -3  -1   81.49   11.10
   7  -3  -1  100.49   15.20
   7  -3  -1   71.79   11.70
  -7   3   1   68.69   13.50
  -7   3   1   91.09   13.20
  -7   3   1   65.89   15.30
  -7   3   1   62.29   12.50
  -7   3   1   66.69   13.30
  -7   3   1   71.29   11.90
   6  -3  -1    7.90    4.50
   6  -3  -1   15.60    7.10
   6  -3  -1   22.00    7.30
   6  -3  -1   16.00    6.80
   6  -3  -1   16.90    5.60
   6  -3  -1   24.60    5.40
   6  -3  -1   16.00    5.30
   6  -3  -1   23.40    4.60
  -6   3   1   17.70    6.10
  -6   3   1   19.30    5.10
  -6   3   1   14.20    5.10
  -6   3   1   18.60    4.10
  -6   3   1   27.30    5.80
  -6   3   1   12.40    7.00
   5  -3  -1  148.79   16.40
   5  -3  -1  167.78   17.20
   5  -3  -1  174.78   16.60
   5  -3  -1  171.18   18.40
   5  -3  -1  158.88   16.10
   5  -3  -1  154.68   16.80
   5  -3  -1  153.88   17.40
  -5   3   1  159.78   17.20
  -5   3   1  165.88   15.90
  -5   3   1  162.88   16.80
   4  -3  -1  219.08   22.10
   4  -3  -1  229.38   22.60
   4  -3  -1  268.57   23.60
   4  -3  -1  208.28   22.40
   4  -3  -1  232.98   22.20
   4  -3  -1  236.08   23.50
   4  -3  -1  224.48   21.90
   4  -3  -1  230.48   23.10
   4  -3  -1  240.58   22.70
  -4   3   1  220.98   21.90
  -4   3   1  237.88   23.20
  -4   3   1  235.08   22.10
  -4   3   1  250.37   22.70
   3  -3  -1  280.77   25.90
   3  -3  -1  271.77   25.90
   3  -3  -1  282.97   26.00
   3  -3  -1  280.27   29.10
   3  -3  -1  264.37   26.10
   3  -3  -1  279.87   26.60
   3  -3  -1  268.97   26.30
   3  -3  -1  275.57   26.00
   3  -3  -1  281.27   27.20
  -3   3   1  317.17   25.90
  -3   3   1  320.77   27.30
  -3   3   1  254.47   25.90
   2  -3  -1  275.87   28.90
   2  -3  -1  312.27   28.80
   2  -3  -1  305.57   32.20
  -2   3   1  334.97   29.30
   1  -3  -1  536.75   48.90
   1  -3  -1  549.05   48.90
   1  -3  -1  518.45   49.20
   1  -3  -1  570.44   48.90
   1  -3  -1  443.96   49.40
   1  -3  -1  530.85   49.20
  -1   3   1  509.75   49.00
  -1   3   1  598.14   49.60
  -1   3   1  509.15   49.30
  -1   3   1  540.95   49.00
   0  -3  -1  836.32   75.49
   0  -3  -1  826.32   75.79
   0  -3  -1  716.93   76.29
   0  -3  -1  845.92   75.29
   0  -3  -1  826.22   75.69
   0  -3  -1  835.02   75.29
   0   3   1  811.42   75.59
   0   3   1  806.42   75.19
   0   3   1  777.52   76.19
   0   3   1  910.31   75.39
   0   3   1  830.62   75.19
   0   3   1  738.33   75.59
  -1  -3  -1 1152.08  103.79
  -1  -3  -1 1064.09  104.29
  -1  -3  -1 1126.89  104.49
  -1  -3  -1  938.31  105.09
  -1  -3  -1 1094.09  104.19
  -1  -3  -1 1145.39  103.79
  -1  -3  -1 1205.08  103.79
   1   3   1 1252.07  104.29
   1   3   1 1083.19  104.29
   1   3   1 1068.29  103.69
   1   3   1 1116.99  103.79
   1   3   1 1141.79  103.19
   1   3   1 1194.18  104.39
   1   3   1 1108.19  105.39
  -2  -3  -1   15.30    3.60
  -2  -3  -1   13.60    3.20
  -2  -3  -1   15.90    4.20
  -2  -3  -1   14.00    3.20
  -2  -3  -1   12.60    4.20
  -2  -3  -1   15.00    6.40
  -2  -3  -1   18.50    4.30
  -2  -3  -1   19.50    5.90
   2   3   1   13.00    4.40
   2   3   1   15.80    3.40
   2   3   1   19.60    4.50
   2   3   1   21.20    5.80
   2   3   1   18.50    3.80
   2   3   1   16.80    3.00
   2   3   1   15.50    3.90
  -3  -3  -1   49.10   11.20
  -3  -3  -1   68.49    8.10
  -3  -3  -1   53.99    9.10
  -3  -3  -1   60.59    7.60
  -3  -3  -1   62.29    8.00
  -3  -3  -1   41.80    8.80
  -3  -3  -1   60.49    9.40
   3   3   1   54.09    7.80
   3   3   1   58.09    7.40
   3   3   1   64.19    9.60
   3   3   1   59.49    8.20
   3   3   1   63.59   11.00
   3   3   1   65.49    9.90
   3   3   1   50.79    8.90
  -4  -3  -1   47.90   11.20
  -4  -3  -1   41.00   11.20
  -4  -3  -1   53.49    8.50
  -4  -3  -1   57.69    8.30
  -4  -3  -1   47.10    9.70
  -4  -3  -1   41.00    9.40
  -4  -3  -1   48.10    8.30
   4   3   1   51.49   12.50
   4   3   1   40.60    7.40
   4   3   1   47.00    8.10
   4   3   1   52.29    8.90
   4   3   1   52.79   10.30
   4   3   1   56.39   10.10
   4   3   1   61.49   10.30
  -5  -3  -1  113.29   18.50
  -5  -3  -1   81.59   19.50
  -5  -3  -1  106.29   17.10
  -5  -3  -1   91.79   17.20
  -5  -3  -1  120.49   15.20
  -5  -3  -1  146.19   16.70
  -5  -3  -1  126.89   15.10
  -5  -3  -1  126.09   18.00
   5   3   1  102.09   15.80
   5   3   1  130.69   18.80
   5   3   1  119.09   15.80
   5   3   1  140.39   19.00
   5   3   1  122.89   22.80
   5   3   1  118.99   14.90
   5   3   1  106.49   17.40
  -6  -3  -1   41.50   15.50
  -6  -3  -1   26.10    9.00
  -6  -3  -1   36.20   12.40
  -6  -3  -1   43.30   12.40
  -6  -3  -1   11.00   19.40
   6   3   1   21.90    8.90
   6   3   1   33.40   10.70
   6   3   1   28.70   11.10
   6   3   1   47.70   19.70
   6   3   1   25.50   12.30
   7  -4  -1  -12.00    6.60
   7  -4  -1  -13.90    7.10
   7  -4  -1   -5.70    9.10
   7  -4  -1    0.00    3.60
   7  -4  -1    7.20    6.90
   7  -4  -1    7.50   10.00
   7  -4  -1   -0.30    4.00
   7  -4  -1    1.90    5.40
  -7   4   1   -4.60    8.20
  -7   4   1   -2.70    3.60
  -7   4   1    8.60    5.30
  -7   4   1   -3.40    4.60
  -7   4   1   -3.10    3.50
   6  -4  -1   12.60    3.00
   6  -4  -1    9.00    4.50
   6  -4  -1   16.30    6.50
   6  -4  -1   15.80    5.20
   6  -4  -1   12.20    3.30
   6  -4  -1   14.50    4.30
   6  -4  -1   10.20    4.90
   6  -4  -1   17.70    6.10
  -6   4   1   16.60    3.10
  -6   4   1    4.80    3.50
  -6   4   1   10.80    4.80
  -6   4   1   10.80    2.70
  -6   4   1   11.90    4.00
   5  -4  -1  210.78   19.50
   5  -4  -1  207.88   20.90
   5  -4  -1  207.58   20.10
   5  -4  -1  206.88   19.70
   5  -4  -1  195.78   20.20
   5  -4  -1  207.88   20.60
  -5   4   1  193.48   19.50
  -5   4   1  221.08   19.40
  -5   4   1  199.78   21.40
   4  -4  -1  318.37   30.60
   4  -4  -1  336.07   29.50
   4  -4  -1  304.27   30.20
   4  -4  -1  333.77   31.60
   4  -4  -1  321.97   33.60
   4  -4  -1  314.07   29.90
   4  -4  -1  320.67   29.90
   4  -4  -1  337.67   29.80
  -4   4   1  293.07   31.20
   3  -4  -1  133.39   12.60
   3  -4  -1  125.89   17.00
   3  -4  -1  112.69   12.90
  -3   4   1  130.79   13.40
   2  -4  -1   67.49   12.80
   2  -4  -1   67.09    7.70
   2  -4  -1   76.59    7.00
  -2   4   1   79.79    8.50
   1  -4  -1   15.50    1.80
   1  -4  -1   14.30    2.30
   1  -4  -1   12.70    3.40
   1  -4  -1   13.30    2.50
   1  -4  -1   16.00    2.30
   1  -4  -1   12.20    2.60
   1  -4  -1   16.10    2.80
  -1   4   1   16.70    2.60
  -1   4   1   15.30    3.00
  -1   4   1   15.90    2.30
  -1   4   1   15.50    2.60
  -1   4   1   21.50    3.90
   0  -4  -1  140.19   13.80
   0  -4  -1  145.89   14.50
   0  -4  -1  138.79   14.20
   0  -4  -1  136.69   13.70
   0  -4  -1  121.79   15.40
   0  -4  -1  136.99   14.40
   0   4   1  159.68   13.90
   0   4   1  122.69   14.20
   0   4   1  146.19   13.60
   0   4   1  122.29   14.90
   0   4   1  146.29   14.30
   0   4   1  137.19   13.70
  -1  -4  -1    7.30    2.90
  -1  -4  -1    8.00    2.40
  -1  -4  -1    6.40    2.20
  -1  -4  -1    2.10    2.30
  -1  -4  -1    1.40    3.70
  -1  -4  -1    4.60    2.90
  -1  -4  -1    9.50    3.10
   1   4   1    5.10    3.90
   1   4   1    8.30    3.10
   1   4   1    5.50    1.50
   1   4   1    6.40    2.40
   1   4   1    6.80    2.90
   1   4   1    5.00    2.20
   1   4   1    5.50    3.00
  -2  -4  -1    8.90    4.20
  -2  -4  -1   10.30    7.50
  -2  -4  -1   14.30    4.40
  -2  -4  -1   13.10    6.30
  -2  -4  -1   15.10    3.60
  -2  -4  -1   11.90    4.40
  -2  -4  -1   18.20    3.70
  -2  -4  -1   16.70    4.10
   2   4   1    8.90    4.20
   2   4   1   12.00    4.50
   2   4   1   11.40    3.60
   2   4   1   24.50    5.50
   2   4   1   12.90    2.80
   2   4   1   16.80    5.80
   2   4   1   13.90    3.40
  -3  -4  -1   53.69    7.90
  -3  -4  -1   38.00    8.90
  -3  -4  -1   39.80   10.90
  -3  -4  -1   59.19    9.80
  -3  -4  -1   54.89   13.20
  -3  -4  -1   61.39   10.10
   3   4   1   54.59    8.00
   3   4   1   63.89   12.00
   3   4   1   52.49    7.40
   3   4   1   67.99   10.30
   3   4   1   46.00    9.20
   3   4   1   50.69    8.50
  -4  -4  -1   49.60   10.30
  -4  -4  -1   39.70    7.70
  -4  -4  -1   35.40   12.30
  -4  -4  -1   46.90   10.00
  -4  -4  -1   44.50   13.40
  -4  -4  -1   35.30   11.00
  -4  -4  -1   48.80    8.40
  -4  -4  -1   46.60    8.00
   4   4   1   52.29   13.20
   4   4   1   43.30    9.80
   4   4   1   33.40    9.20
   4   4   1   58.29    8.90
   4   4   1   36.10    7.40
   4   4   1   36.60    8.40
   4   4   1   56.99   10.70
  -5  -4  -1  101.19   17.70
  -5  -4  -1  118.79   15.50
  -5  -4  -1   89.19   14.70
  -5  -4  -1   73.39   21.30
  -5  -4  -1  103.59   15.40
  -5  -4  -1  102.79   16.60
  -5  -4  -1   98.69   18.80
  -5  -4  -1  120.79   24.00
   5   4   1  116.59   17.70
   5   4   1  117.79   15.70
   5   4   1  102.09   18.40
   5   4   1   95.69   17.30
   5   4   1  103.89   16.60
   5   4   1  118.49   15.40
   5   4   1   99.89   21.80
   7  -5  -1   74.59   12.80
   6  -5  -1   -3.10    4.20
   6  -5  -1    2.80    5.50
   6  -5  -1   21.60    7.20
   6  -5  -1    1.50    1.90
   6  -5  -1   -0.10    1.70
   6  -5  -1    7.90    3.80
  -6   5   1    2.10    4.40
   5  -5  -1  214.28   21.20
   5  -5  -1  208.78   20.70
   5  -5  -1  236.78   21.70
   5  -5  -1  233.38   25.10
  -5   5   1  182.48   22.10
   4  -5  -1    4.20    1.10
   4  -5  -1    5.20    3.40
   4  -5  -1    5.80    2.30
   4  -5  -1   -1.70    6.70
   4  -5  -1    6.40    1.20
  -4   5   1    7.20    3.70
   3  -5  -1    6.20    2.00
   3  -5  -1    6.40    2.40
   3  -5  -1    4.30    7.40
  -3   5   1   -0.80    2.90
   2  -5  -1 1471.55  138.39
   2  -5  -1 1628.24  145.79
   2  -5  -1 1394.46  138.49
   2  -5  -1 1455.85  138.59
   2  -5  -1 1551.44  138.49
   2  -5  -1 1400.76  138.39
   2  -5  -1 1514.85  138.19
  -2   5   1 1601.34  138.09
  -2   5   1 1528.55  139.69
  -2   5   1 1425.76  138.19
  -2   5   1 1619.44  138.19
   1  -5  -1   93.79   10.00
   1  -5  -1   97.79    9.60
   1  -5  -1   81.89   11.20
   1  -5  -1  100.59    9.70
   1  -5  -1   97.69   10.20
   1  -5  -1  103.19   10.40
  -1   5   1   81.99    9.80
  -1   5   1   90.59    9.50
  -1   5   1  101.89    9.90
  -1   5   1  101.59   10.60
  -1   5   1   89.49   10.50
   0  -5  -1   73.59    8.90
   0  -5  -1   70.59    7.90
   0  -5  -1   81.29    9.20
   0  -5  -1   73.39    8.10
   0  -5  -1   68.39    9.10
   0  -5  -1   54.59   10.00
   0   5   1   78.19    8.90
   0   5   1   60.69    8.80
   0   5   1   64.19    7.90
   0   5   1   69.89    9.80
   0   5   1   86.09    8.10
   0   5   1   70.69    7.80
  -1  -5  -1  512.75   48.80
  -1  -5  -1  497.05   49.40
  -1  -5  -1  464.95   49.60
  -1  -5  -1  527.35   48.70
  -1  -5  -1  533.05   48.90
  -1  -5  -1  523.05   49.90
   1   5   1  549.95   49.70
   1   5   1  523.65   47.60
   1   5   1  519.05   50.99
   1   5   1  583.34   49.40
   1   5   1  465.95   49.50
   1   5   1  501.15   48.70
   1   5   1  488.85   48.70
  -2  -5  -1   71.59   11.20
  -2  -5  -1   47.50   12.00
  -2  -5  -1   61.79   10.20
  -2  -5  -1   82.79    9.00
  -2  -5  -1   62.39    8.90
  -2  -5  -1   54.89   15.40
  -2  -5  -1   88.29   10.70
  -2  -5  -1   74.79    9.50
   2   5   1   61.19    9.00
   2   5   1   81.79   13.20
   2   5   1   60.79   10.40
   2   5   1   68.39    8.00
   2   5   1   81.69   10.90
   2   5   1   78.39    9.60
   2   5   1   73.59   10.50
  -3  -5  -1  337.57   33.00
  -3  -5  -1  285.07   39.40
  -3  -5  -1  282.77   34.20
  -3  -5  -1  362.96   33.20
  -3  -5  -1  306.07   34.50
  -3  -5  -1  364.06   32.80
  -3  -5  -1  317.67   34.00
   3   5   1  386.06   34.90
   3   5   1  312.77   34.30
   3   5   1  327.77   36.70
   3   5   1  324.07   33.30
   3   5   1  347.67   34.50
   3   5   1  311.07   32.80
   3   5   1  327.47   31.90
  -4  -5  -1   12.20    7.80
  -4  -5  -1    8.20   12.50
  -4  -5  -1   19.30   13.40
  -4  -5  -1    0.70    8.40
  -4  -5  -1   15.20    6.70
  -4  -5  -1    5.80    5.60
  -4  -5  -1   -2.20    7.60
   4   5   1    1.10    5.60
   4   5   1  -11.40    7.50
   4   5   1    4.90    6.40
   4   5   1    4.80    5.00
   4   5   1    6.30   12.30
  -5  -5  -1   81.39   17.80
  -5  -5  -1   70.19   15.80
  -5  -5  -1   87.59   16.10
  -5  -5  -1   68.19   13.30
  -5  -5  -1  104.99   20.50
  -5  -5  -1   89.19   23.20
  -5  -5  -1   75.89   23.30
  -5  -5  -1   83.79   13.50
   5   5   1   81.69   13.60
   5   5   1   57.09   16.50
   5   5   1   88.19   15.10
   5   5   1   71.79   21.00
   5   5   1   97.09   17.40
   5   5   1   77.19   13.40
   6  -6  -1  104.49   14.80
   6  -6  -1   88.89   10.80
   6  -6  -1   90.89   12.70
   6  -6  -1   86.09   13.60
   5  -6  -1  425.26   39.50
   5  -6  -1  427.56   39.20
   5  -6  -1  413.06   40.10
  -5   6   1  413.06   41.50
   4  -6  -1  173.48   17.90
   4  -6  -1  189.48   26.80
   4  -6  -1  173.78   17.10
  -4   6   1  157.08   18.30
   3  -6  -1  282.97   27.20
   3  -6  -1  286.27   27.10
   3  -6  -1  265.67   26.30
   3  -6  -1  301.37   36.10
   3  -6  -1  300.77   26.40
  -3   6   1  274.27   28.40
   2  -6  -1    6.30    1.80
   2  -6  -1    6.30    2.40
   2  -6  -1    4.20    3.10
   2  -6  -1    9.10    1.80
   2  -6  -1   10.10    9.20
   2  -6  -1    8.80    2.20
   2  -6  -1    6.10    1.50
   2  -6  -1    8.60    2.30
  -2   6   1    8.90    1.60
  -2   6   1    7.90    1.70
  -2   6   1    1.50    3.30
  -2   6   1    7.30    1.70
  -2   6   1    6.40    1.50
   1  -6  -1 1112.29   95.89
   1  -6  -1 1076.29   96.69
   1  -6  -1 1043.60   95.99
   1  -6  -1  895.61   97.39
   1  -6  -1 1047.60   96.29
   1  -6  -1 1083.89   96.59
  -1   6   1  989.60   95.69
  -1   6   1 1053.19   96.89
  -1   6   1 1115.29   96.19
  -1   6   1  931.61   96.09
   0  -6  -1  188.58   18.90
   0  -6  -1  196.88   18.90
   0  -6  -1  160.88   19.60
   0  -6  -1  180.28   19.50
   0  -6  -1  191.88   19.90
   0  -6  -1  159.28   21.40
   0  -6  -1  201.88   18.90
   0   6   1  197.18   19.50
   0   6   1  214.18   18.60
   0   6   1  182.68   20.80
   0   6   1  175.28   19.50
   0   6   1  185.68   18.70
   0   6   1  181.18   18.40
  -1  -6  -1   57.39    9.20
  -1  -6  -1   70.19   10.80
  -1  -6  -1   89.09    9.70
  -1  -6  -1   57.29   10.30
  -1  -6  -1   60.89   10.90
  -1  -6  -1   82.59   10.00
  -1  -6  -1   77.29   18.00
   1   6   1   67.99    9.30
   1   6   1   71.79    9.50
   1   6   1   75.99   10.70
   1   6   1   76.59   10.00
   1   6   1   79.49    7.40
   1   6   1   86.19    7.50
   1   6   1   78.19   13.10
   1   6   1   87.19   10.90
  -2  -6  -1  117.49   16.60
  -2  -6  -1  101.99   19.60
  -2  -6  -1  133.49   17.40
  -2  -6  -1  145.99   15.50
  -2  -6  -1  152.48   15.20
  -2  -6  -1  133.99   15.40
  -2  -6  -1  118.29   24.60
  -2  -6  -1  123.89   16.50
   2   6   1  145.29   13.70
   2   6   1  133.69   15.70
   2   6   1  121.39   16.60
   2   6   1  143.49   17.20
   2   6   1  138.49   15.30
   2   6   1  140.39   20.20
   2   6   1  147.89   18.20
  -3  -6  -1   47.70    8.00
  -3  -6  -1   54.69   10.70
  -3  -6  -1   39.00   14.30
  -3  -6  -1   38.30    8.10
  -3  -6  -1   43.80   10.30
  -3  -6  -1   19.00   25.20
  -3  -6  -1   39.00    8.20
  -3  -6  -1   45.40   10.70
   3   6   1   42.20    8.30
   3   6   1   46.00    7.40
   3   6   1   46.80   10.30
   3   6   1   53.79   11.20
   3   6   1   38.20    8.40
   3   6   1   49.60   10.60
   3   6   1   39.00   13.20
  -4  -6  -1   85.49   14.90
  -4  -6  -1  105.19   17.40
  -4  -6  -1  136.79   15.10
  -4  -6  -1   53.89   23.20
  -4  -6  -1  102.39   18.90
  -4  -6  -1   96.49   15.50
  -4  -6  -1   99.99   17.40
  -4  -6  -1   59.79   20.90
   4   6   1   92.59   14.90
   4   6   1   85.59   16.00
   4   6   1   98.69   14.00
   4   6   1   89.19   15.00
   4   6   1   91.09   16.90
   4   6   1  102.39   16.60
   4   6   1  115.89   21.50
   6  -7  -1   21.20   12.80
   6  -7  -1    2.20    7.00
   6  -7  -1   14.50    4.80
   6  -7  -1    8.20    3.60
  -6   7   1    3.60    5.50
   5  -7  -1   11.90    3.70
   5  -7  -1    2.60   12.60
   5  -7  -1    6.00    1.80
   5  -7  -1   -4.00    5.70
  -5   7   1    4.50    4.40
   4  -7  -1    1.90    3.20
   4  -7  -1    1.80    1.00
   4  -7  -1  -17.10   12.20
   4  -7  -1    0.10    2.60
   4  -7  -1    1.10    1.10
  -4   7   1    3.70    4.10
   3  -7  -1  221.58   32.80
   3  -7  -1  200.58   19.30
   3  -7  -1  214.48   19.90
   3  -7  -1  194.88   19.40
   3  -7  -1  197.58   19.70
  -3   7   1  198.98   21.40
   2  -7  -1    1.30    3.90
   2  -7  -1    2.30    2.20
   2  -7  -1   -0.20    2.80
   2  -7  -1   15.50   12.90
   2  -7  -1   -1.70    2.50
   2  -7  -1    2.30    1.70
   2  -7  -1   -0.10    2.00
   2  -7  -1    4.50    1.50
  -2   7   1    2.40    2.00
  -2   7   1    0.50    1.50
  -2   7   1    2.30    1.70
  -2   7   1    6.90    4.10
  -2   7   1    0.50    1.80
   1  -7  -1    7.60    3.80
   1  -7  -1    6.40    2.90
   1  -7  -1   15.30   14.20
   1  -7  -1    4.80    3.30
   1  -7  -1    6.90    2.50
   1  -7  -1   -0.20    5.20
   1  -7  -1    3.90    3.70
  -1   7   1    7.50    3.10
  -1   7   1    7.70    3.20
  -1   7   1    7.60    2.70
   0  -7  -1  419.96   39.60
   0  -7  -1  426.46   41.10
   0  -7  -1  434.66   39.90
   0  -7  -1  431.76   40.90
   0  -7  -1  386.56   40.50
   0  -7  -1  453.45   39.80
   0   7   1  429.86   42.10
   0   7   1  378.96   39.40
   0   7   1  346.27   41.50
  -1  -7  -1    2.70    5.50
  -1  -7  -1    7.60   14.30
  -1  -7  -1   -1.50    7.70
  -1  -7  -1    3.20    4.10
  -1  -7  -1    4.50    3.80
  -1  -7  -1   -0.20    4.90
  -1  -7  -1    2.30    4.20
   1   7   1    1.20    4.50
   1   7   1    1.20    4.70
   1   7   1    6.50    4.10
   1   7   1    2.20    3.80
   1   7   1    4.30    4.80
   1   7   1   -8.10    6.30
  -2  -7  -1   23.50    7.70
  -2  -7  -1   36.90    6.20
  -2  -7  -1   13.80   11.10
  -2  -7  -1   31.50    6.70
  -2  -7  -1   18.50    5.90
  -2  -7  -1    5.10   15.70
  -2  -7  -1   34.10    9.00
  -2  -7  -1   23.50    8.20
   2   7   1   18.00    7.30
   2   7   1   23.90    3.70
   2   7   1   13.70    6.10
   2   7   1   21.60    8.00
   2   7   1   17.00   10.40
   2   7   1   32.70    7.80
   2   7   1   23.00    7.20
  -3  -7  -1   47.50   17.50
  -3  -7  -1   54.69   13.10
  -3  -7  -1   65.19   10.60
  -3  -7  -1   62.49   11.10
  -3  -7  -1   68.29   14.10
  -3  -7  -1   58.39   10.80
  -3  -7  -1   54.69   22.20
  -3  -7  -1   66.69   13.80
   3   7   1   64.99   12.00
   3   7   1   71.89   17.70
   3   7   1   49.60   12.80
   3   7   1   66.29    9.30
   3   7   1   83.19   14.00
   3   7   1   74.49   12.50
  -4  -7  -1    5.30   12.80
  -4  -7  -1    5.60   20.10
  -4  -7  -1    9.80   13.90
  -4  -7  -1   -7.50   23.10
  -4  -7  -1   31.40   13.40
  -4  -7  -1    3.10    8.80
   4   7   1    4.00   13.90
   4   7   1    6.30   14.60
   4   7   1    7.10    7.60
   4   7   1   20.10   11.60
   4   7   1   20.70    9.90
   4   7   1   -6.40   17.60
   5  -8  -1   90.89   14.60
   5  -8  -1   93.99   11.90
   5  -8  -1  108.39    9.80
   5  -8  -1  100.79    9.70
  -5   8   1   82.49   14.60
   4  -8  -1  225.68   38.20
   4  -8  -1  255.27   23.80
   4  -8  -1  245.88   22.50
   4  -8  -1  238.88   22.70
   4  -8  -1  234.98   23.40
  -4   8   1  209.58   25.20
   3  -8  -1  155.88   16.00
   3  -8  -1  167.28   32.90
   3  -8  -1  140.99   14.70
   3  -8  -1  168.18   15.60
   3  -8  -1  165.58   15.50
  -3   8   1  154.18   17.80
   2  -8  -1  180.08   19.10
   2  -8  -1  176.88   19.90
   2  -8  -1  206.28   19.80
   2  -8  -1  197.08   34.90
   2  -8  -1  188.28   20.10
   2  -8  -1  209.18   19.50
  -2   8   1  208.58   18.90
  -2   8   1  164.18   20.60
  -2   8   1  174.98   18.60
  -2   8   1  184.48   19.10
  -2   8   1  224.08   19.40
   1  -8  -1  164.38   33.70
   1  -8  -1  164.28   22.80
   1  -8  -1  199.98   20.60
   1  -8  -1  166.28   20.40
   1  -8  -1  206.38   19.70
   1  -8  -1  183.18   22.30
   1  -8  -1  211.08   19.20
  -1   8   1  195.28   21.00
  -1   8   1  174.58   19.80
  -1   8   1  201.18   19.70
  -1   8   1  179.78   19.00
   0  -8  -1  108.09   14.70
   0  -8  -1  140.99   16.40
   0  -8  -1  117.09   18.80
   0  -8  -1  111.29   16.80
   0  -8  -1  115.79   16.60
   0  -8  -1  141.89   14.70
   0  -8  -1   97.09   26.10
   0   8   1  144.49   13.50
   0   8   1  133.49   15.70
   0   8   1  129.09   13.30
   0   8   1  127.39   14.20
   0   8   1  120.79   18.00
  -1  -8  -1   75.19   16.00
  -1  -8  -1   84.79   14.30
  -1  -8  -1   89.29   11.70
  -1  -8  -1   88.59   24.30
  -1  -8  -1   69.29   13.30
  -1  -8  -1   83.79   12.10
  -1  -8  -1   62.49   10.90
  -1  -8  -1   80.89   13.50
   1   8   1   84.29   11.40
   1   8   1   72.29   11.30
   1   8   1   83.79   13.10
   1   8   1   99.79   12.20
   1   8   1   84.49   15.30
   1   8   1   78.39   12.90
  -2  -8  -1   -9.70   18.10
  -2  -8  -1    2.10    8.60
  -2  -8  -1   12.70    8.50
  -2  -8  -1    3.70    6.40
  -2  -8  -1    2.30    8.00
  -2  -8  -1   -5.30    5.90
  -2  -8  -1   12.10   12.40
   2   8   1   -2.20    6.50
   2   8   1   -8.70    7.80
   2   8   1    8.50    8.40
   2   8   1   -3.20   11.50
   2   8   1   -5.10    6.70
  -3  -8  -1  139.69   20.80
  -3  -8  -1  124.19   22.90
  -3  -8  -1  196.18   28.00
  -3  -8  -1  136.69   34.60
  -3  -8  -1  174.78   20.80
  -3  -8  -1  139.49   24.20
   3   8   1  136.59   23.70
   3   8   1  155.38   16.50
   3   8   1  178.88   21.70
   3   8   1  146.39   26.20
   3   8   1  203.68   31.80
   3   8   1  169.68   22.40
   5  -9  -1    7.50    3.20
   5  -9  -1    0.30    4.50
   5  -9  -1   -7.50   20.90
  -5   9   1   -6.60    5.50
   4  -9  -1   18.90    4.50
   4  -9  -1   16.60    4.50
   4  -9  -1   17.50   21.60
   4  -9  -1   21.20    3.60
   4  -9  -1   10.60    4.40
  -4   9   1   11.30    8.20
   3  -9  -1   -2.70    3.40
   3  -9  -1   -1.90    2.00
   3  -9  -1    3.00    3.50
   3  -9  -1  -32.20   18.50
   3  -9  -1    0.40    2.20
   3  -9  -1    4.40    4.40
  -3   9   1   -0.10    5.20
   2  -9  -1   41.40   10.00
   2  -9  -1   51.59    9.20
   2  -9  -1   71.69    8.70
   2  -9  -1   47.70    8.60
   2  -9  -1   79.29   24.90
  -2   9   1   49.10    6.80
  -2   9   1   53.49    8.30
  -2   9   1   54.69    8.10
  -2   9   1   52.59    7.80
   1  -9  -1   78.39   11.10
   1  -9  -1   79.89   13.20
   1  -9  -1   83.59   10.10
   1  -9  -1   83.89   12.90
   1  -9  -1   88.99   23.60
   1  -9  -1   89.49   13.60
   1  -9  -1   61.19   13.80
   1  -9  -1   71.89   11.90
  -1   9   1   64.29   11.40
  -1   9   1   89.89   11.30
  -1   9   1   69.89    9.80
   0  -9  -1   -4.00   19.80
   0  -9  -1   -0.10    9.90
   0  -9  -1   -1.00    5.50
   0  -9  -1   -8.30    7.00
   0  -9  -1   -9.60    4.70
   0  -9  -1   -3.40    7.30
   0  -9  -1    8.40    6.50
   0  -9  -1   -4.70    4.70
   0   9   1    0.30    3.10
   0   9   1   -1.00    2.90
   0   9   1    4.40    4.80
   0   9   1   -6.50    7.90
  -1  -9  -1   55.99   10.00
  -1  -9  -1   72.99   11.30
  -1  -9  -1   80.89   13.00
  -1  -9  -1   34.80   25.00
  -1  -9  -1   77.99   13.20
  -1  -9  -1   67.59   13.60
  -1  -9  -1   43.50   16.10
  -1  -9  -1   63.49   13.00
   1   9   1   62.59   10.90
   1   9   1   56.69   12.60
   1   9   1   60.69   12.60
   1   9   1   58.69   10.00
   1   9   1   67.79   11.00
   1   9   1   77.09   16.00
  -2  -9  -1   50.19   13.90
  -2  -9  -1   42.20   10.80
  -2  -9  -1   54.29   29.10
  -2  -9  -1   38.90   14.20
  -2  -9  -1   38.70   19.10
  -2  -9  -1   48.60   10.30
  -2  -9  -1   48.00   13.20
   2   9   1   42.80   11.40
   2   9   1   52.79   31.10
   2   9   1   53.09   11.60
   2   9   1   45.50   14.40
   4 -10  -1  207.38   21.70
   4 -10  -1  205.38   20.70
   4 -10  -1  161.08   39.90
   4 -10  -1  198.28   20.00
   4 -10  -1  201.78   20.20
   3 -10  -1  151.18   15.10
   3 -10  -1  127.29   16.80
   3 -10  -1  111.59   14.40
   2 -10  -1   33.70    7.10
   2 -10  -1   38.50    8.10
   2 -10  -1   34.40    7.50
   2 -10  -1   38.40   11.10
   2 -10  -1   41.70    7.90
   2 -10  -1   21.00   10.00
   2 -10  -1   37.30   26.10
  -2  10   1   53.49    7.40
  -2  10   1   40.70    6.80
  -2  10   1   30.90    6.30
   1 -10  -1   41.30    9.70
   1 -10  -1   31.70    7.80
   1 -10  -1   32.80    8.70
   1 -10  -1   44.30   10.80
   1 -10  -1   47.80    9.70
   1 -10  -1   39.50    7.40
   1 -10  -1   55.99   29.50
   1 -10  -1   33.80   12.60
  -1  10   1   40.00    8.20
  -1  10   1   35.90    8.60
  -1  10   1   35.70    7.20
  -1  10   1   38.40    9.50
   0 -10  -1   -4.00   12.60
   0 -10  -1   -1.00    7.30
   0 -10  -1   -2.60    8.90
   0 -10  -1   13.50   26.70
   0 -10  -1   -6.40    6.40
   0 -10  -1    4.20    9.80
   0 -10  -1   12.10    6.70
   0 -10  -1    4.00    9.60
   0  10   1    6.50    8.10
   0  10   1   -2.60    4.20
   0  10   1    2.70    7.90
   0  10   1   11.10    6.60
   1  10  -2   32.50    9.90
   1  10  -2   29.20   11.80
   1  10  -2   29.80   11.70
  -1 -10   2   14.50   15.00
  -1 -10   2   19.70   10.70
  -1 -10   2    2.10   10.90
  -1 -10   2   31.60    7.30
  -1 -10   2   23.00   12.90
  -1 -10   2   18.60   10.70
  -1 -10   2   17.60    8.60
   0  10  -2  147.79   19.50
   0  10  -2  150.28   16.40
   0  10  -2  212.38   20.70
   0  10  -2  165.68   22.10
   0  10  -2  163.08   16.20
   0 -10   2  194.78   21.50
   0 -10   2  148.19   19.90
   0 -10   2  166.58   21.70
   0 -10   2  165.18   18.60
   0 -10   2  116.09   22.80
   0 -10   2  156.68   17.80
   0 -10   2  152.78   21.20
  -1  10  -2    0.40    6.50
  -1  10  -2    7.80    5.10
   1 -10   2   -1.30    5.30
   1 -10   2   13.80    9.60
   1 -10   2    6.70    7.00
   1 -10   2    4.90    4.20
   1 -10   2    6.70    7.20
   1 -10   2    8.70    4.70
   1 -10   2   16.10    7.00
  -2  10  -2  108.99   14.00
  -2  10  -2  128.09   12.90
  -2  10  -2  118.59   13.90
   2 -10   2  120.49   14.10
   2 -10   2  100.59   17.40
   2 -10   2  131.79   15.00
   2 -10   2  105.89   12.40
   2 -10   2  114.79   12.80
   2 -10   2   90.19   15.00
  -3  10  -2    8.20    7.20
   3 -10   2   12.20    4.60
   3 -10   2   12.10    3.10
   3 -10   2   10.40    4.40
   3 -10   2   18.30    5.00
   3 -10   2    6.20    5.90
   3 -10   2   11.60    5.10
   3 -10   2   20.50    3.60
   3 -10   2   14.40    3.40
   3 -10   2   13.30    6.80
  -4  10  -2    6.60    6.50
   4 -10   2    2.00    5.30
   4 -10   2    5.50    3.40
   4 -10   2    2.30    5.00
   4 -10   2   47.00   28.50
   4 -10   2    3.10    4.00
   2   9  -2    7.50    7.90
   2   9  -2   12.60    4.20
   2   9  -2   17.30    8.90
   2   9  -2   26.90    9.60
   2   9  -2   15.20    3.80
   2   9  -2    8.50   10.50
   2   9  -2   26.90   14.00
   2   9  -2   27.40    8.90
  -2  -9   2    2.80    7.20
  -2  -9   2   10.10   14.00
  -2  -9   2   -1.80    9.30
  -2  -9   2   30.90   11.10
  -2  -9   2   20.60   10.60
  -2  -9   2   20.10    7.70
   1   9  -2    8.00    1.90
   1   9  -2   -0.80    5.60
   1   9  -2   19.80    7.50
   1   9  -2   14.20    6.20
   1   9  -2  -10.90    8.40
  -1  -9   2   -4.70    7.50
  -1  -9   2    6.70    7.20
  -1  -9   2   22.70   10.80
  -1  -9   2   17.40    8.10
  -1  -9   2   15.00    5.70
  -1  -9   2    6.20    4.90
   0   9  -2   13.60    3.90
   0   9  -2   11.20    4.10
   0   9  -2   19.30    6.40
   0   9  -2   30.70    8.10
   0  -9   2   18.70    7.60
   0  -9   2   16.00    9.50
   0  -9   2   15.30    4.40
   0  -9   2   23.30    5.10
   0  -9   2   11.70    5.50
   0  -9   2   13.70    6.90
   0  -9   2   11.00    6.70
  -1   9  -2  131.89   15.20
  -1   9  -2  133.59   13.80
   1  -9   2  120.49   13.10
   1  -9   2  122.89   14.90
   1  -9   2   89.49   14.70
   1  -9   2  130.89   12.70
   1  -9   2   98.49   15.00
   1  -9   2  110.99   17.60
   1  -9   2   93.89   14.90
  -2   9  -2   56.39    9.20
  -2   9  -2   80.69    9.40
  -2   9  -2   71.39    8.40
   2  -9   2   72.89    8.20
   2  -9   2   51.39   10.90
   2  -9   2   74.29    9.20
   2  -9   2   62.29    9.80
   2  -9   2   51.59   10.10
   2  -9   2   82.09   10.10
   2  -9   2   64.69    7.90
  -3   9  -2  198.98   19.10
  -3   9  -2  178.88   22.60
  -3   9  -2  209.48   19.10
   3  -9   2  172.38   21.90
   3  -9   2  237.88   20.60
   3  -9   2  226.58   21.00
   3  -9   2  196.58   20.30
   3  -9   2  200.68   21.00
   3  -9   2  205.68   19.60
   3  -9   2  215.88   19.80
   3  -9   2  197.48   19.80
  -4   9  -2  171.38   21.60
   4  -9   2  187.48   19.90
   4  -9   2  171.28   35.40
   4  -9   2  195.78   18.50
   4  -9   2  195.98   17.80
   4  -9   2  170.88   18.70
  -5   9  -2  155.98   19.30
   5  -9   2  146.49   18.60
   5  -9   2  155.78   16.10
   5  -9   2  154.68   15.20
   5  -9   2  159.28   16.20
   3   8  -2   24.80   12.10
   3   8  -2   12.10    9.50
   3   8  -2    6.30   12.90
   3   8  -2   23.10   10.40
   3   8  -2   17.70    6.10
   3   8  -2    7.40    8.80
   3   8  -2   22.10    8.20
  -3  -8   2   29.00    7.20
  -3  -8   2    1.80    9.90
  -3  -8   2   14.60    7.40
  -3  -8   2   -3.40   15.00
  -3  -8   2    4.30    7.50
  -3  -8   2   19.30   10.30
  -3  -8   2    6.10   10.10
   2   8  -2  222.88   21.50
   2   8  -2  195.58   28.20
   2   8  -2  212.08   22.30
   2   8  -2  188.48   18.20
   2   8  -2  160.18   20.50
  -2  -8   2  195.28   19.10
  -2  -8   2  158.48   21.80
  -2  -8   2  120.19   25.60
  -2  -8   2  140.19   21.60
  -2  -8   2  163.88   22.30
  -2  -8   2  181.88   21.60
   1   8  -2  173.28   22.80
   1   8  -2  184.48   20.80
   1   8  -2  244.08   22.50
   1   8  -2  173.38   21.30
   1   8  -2  211.48   24.50
   1   8  -2  235.08   21.40
   1   8  -2  190.78   18.90
  -1  -8   2  159.48   24.50
  -1  -8   2  185.38   22.70
  -1  -8   2  170.88   22.50
  -1  -8   2  208.18   20.50
  -1  -8   2  204.98   21.00
  -1  -8   2  213.18   23.20
  -1  -8   2  208.18   21.10
   0   8  -2   26.90    5.30
   0   8  -2   21.50    4.20
   0   8  -2   28.30    5.80
   0   8  -2   20.70    3.40
   0   8  -2   23.30    7.20
   0   8  -2   20.80    4.10
   0   8  -2   33.40    7.60
   0  -8   2   21.60    4.30
   0  -8   2   17.50    6.00
   0  -8   2   23.30    6.50
   0  -8   2   20.30    6.00
   0  -8   2   16.60    7.10
   0  -8   2   31.80    5.20
  -1   8  -2    6.30    4.20
  -1   8  -2    4.90    2.10
  -1   8  -2    5.30    2.90
  -1   8  -2    4.70    4.30
  -1   8  -2    6.40    4.00
   1  -8   2    3.20    2.80
   1  -8   2    5.00    3.80
   1  -8   2    6.50    2.40
   1  -8   2    8.20    4.40
   1  -8   2    8.80    4.20
   1  -8   2    0.60    5.30
   1  -8   2    1.60    3.00
  -2   8  -2   22.90    3.70
  -2   8  -2   20.40    4.20
  -2   8  -2   18.10    6.00
   2  -8   2   19.90    3.90
   2  -8   2   20.30    4.10
   2  -8   2   14.50    5.60
   2  -8   2   23.00    3.70
   2  -8   2   15.80    4.30
   2  -8   2   17.60    4.70
   2  -8   2   23.20    4.60
   2  -8   2   21.50    3.40
  -3   8  -2   20.90    2.90
  -3   8  -2   25.30    6.40
  -3   8  -2   23.60    2.80
   3  -8   2   23.20    4.10
   3  -8   2   24.00    4.60
   3  -8   2   27.30    4.40
   3  -8   2   26.40    4.90
   3  -8   2   23.50    3.60
   3  -8   2   21.50    5.30
   3  -8   2   19.80    3.60
   3  -8   2   23.70    4.40
  -4   8  -2   10.20    5.80
   4  -8   2   18.10    2.90
   4  -8   2    8.00    4.60
   4  -8   2   11.20    3.40
  -5   8  -2   40.10   10.00
   5  -8   2   49.10    9.00
   5  -8   2   59.49    7.50
   5  -8   2   61.19    8.10
   5  -8   2   46.90    6.90
   5  -8   2   86.49   23.00
   4   7  -2   14.90    9.30
   4   7  -2    0.30   11.30
   4   7  -2   18.70    8.40
   4   7  -2   11.40   11.80
   4   7  -2   44.00   13.10
   4   7  -2   24.10    9.50
  -4  -7   2   32.60   18.60
  -4  -7   2   27.20   11.30
  -4  -7   2   21.80    9.00
  -4  -7   2   37.00    8.90
  -4  -7   2   28.20   11.20
  -4  -7   2   14.00    8.30
  -4  -7   2   31.50   12.00
   3   7  -2  -11.30    7.40
   3   7  -2   12.40    8.60
   3   7  -2   -5.50   10.10
   3   7  -2    7.30    6.20
  -3  -7   2   -1.80   11.40
  -3  -7   2   -2.00    5.40
  -3  -7   2   17.40    7.90
  -3  -7   2    4.70    4.90
  -3  -7   2    1.10    7.20
  -3  -7   2    7.00    5.60
  -3  -7   2    1.20    7.50
   2   7  -2    0.20    4.80
   2   7  -2   -4.80    5.90
   2   7  -2   -4.60    7.00
   2   7  -2    3.90    3.40
   2   7  -2    4.30    5.90
   2   7  -2    1.70    5.50
   2   7  -2    4.70    5.90
  -2  -7   2    1.40    8.20
  -2  -7   2    3.40    5.50
  -2  -7   2   14.50    4.10
  -2  -7   2   11.30    6.30
  -2  -7   2    8.90    5.60
  -2  -7   2    4.30    4.40
  -2  -7   2   -2.60    4.00
   1   7  -2   97.79   13.50
   1   7  -2  132.79   14.70
   1   7  -2  141.69   14.10
   1   7  -2  113.89   13.80
   1   7  -2  105.29   15.30
   1   7  -2  124.79   12.30
   1   7  -2  130.19   16.80
  -1  -7   2  116.89   15.30
  -1  -7   2  132.99   15.30
  -1  -7   2   98.79   15.30
  -1  -7   2  123.19   13.20
  -1  -7   2  136.69   13.80
   0   7  -2   38.80    7.60
   0   7  -2   44.50    6.10
   0   7  -2   50.49    7.40
   0   7  -2   41.30    6.70
   0   7  -2   39.90    6.00
   0   7  -2   41.60    4.90
   0  -7   2   49.70    6.40
   0  -7   2   36.90    8.90
   0  -7   2   38.50    6.70
   0  -7   2   43.80    7.60
   0  -7   2   40.40    7.80
   0  -7   2   43.10    5.80
   0  -7   2   47.30    7.70
  -1   7  -2   35.00    6.80
  -1   7  -2   39.20    6.90
  -1   7  -2   41.60    5.90
  -1   7  -2   41.30    5.00
  -1   7  -2   32.00    5.60
   1  -7   2   35.90    6.50
   1  -7   2   42.10    5.10
   1  -7   2   40.70    6.80
   1  -7   2   38.60    7.70
   1  -7   2   45.10    6.60
   1  -7   2   44.20    5.50
   1  -7   2   40.90    5.90
  -2   7  -2  382.46   41.80
  -2   7  -2  419.56   41.80
  -2   7  -2  417.36   43.10
   2  -7   2  489.75   41.50
   2  -7   2  512.25   42.30
   2  -7   2  386.26   41.80
   2  -7   2  445.16   41.60
   2  -7   2  447.96   41.80
   2  -7   2  475.55   41.70
  -3   7  -2  127.19   12.00
  -3   7  -2  114.59   14.50
   3  -7   2  152.18   13.00
   3  -7   2  131.19   12.30
   3  -7   2  112.49   13.20
   3  -7   2  115.79   12.60
   3  -7   2  139.39   12.60
   3  -7   2  109.09   13.40
   3  -7   2  127.69   12.60
   3  -7   2  133.39   13.50
  -4   7  -2  215.98   25.90
   4  -7   2  255.67   25.30
   4  -7   2  253.87   23.90
   4  -7   2  265.17   24.00
   4  -7   2  256.37   24.10
   5  -7   2   -0.50    2.70
   5  -7   2    4.90    3.60
   5  -7   2    6.50    3.10
   5  -7   2    4.40    5.20
   5  -7   2    9.40   13.00
   6  -7   2  229.58   22.80
   6  -7   2  249.88   25.50
   6  -7   2  204.58   24.20
   6  -7   2  215.08   22.30
   6  -7   2  218.18   29.10
   5   6  -2    4.30    9.70
   5   6  -2   -8.00   17.70
   5   6  -2   10.80   13.50
   5   6  -2    2.30    9.00
   5   6  -2   36.20   14.20
   5   6  -2    8.60   10.60
  -5  -6   2    5.20   20.40
  -5  -6   2  -10.00   22.30
  -5  -6   2   31.20   13.80
  -5  -6   2   10.70   11.70
  -5  -6   2    3.90   12.40
   4   6  -2  168.58   22.50
   4   6  -2  159.28   19.70
   4   6  -2  196.68   25.40
   4   6  -2  172.48   27.30
  -4  -6   2  150.58   18.60
  -4  -6   2  177.28   19.30
  -4  -6   2  138.59   21.50
  -4  -6   2  145.09   22.10
  -4  -6   2  117.89   24.70
  -4  -6   2  161.38   21.40
   3   6  -2   17.70    8.00
   3   6  -2   14.60    6.40
   3   6  -2   22.80   10.10
   3   6  -2   19.60    7.50
   3   6  -2   31.70    7.90
   3   6  -2   35.30    7.90
  -3  -6   2   11.70    7.00
  -3  -6   2   20.60    5.80
  -3  -6   2   30.50    5.50
  -3  -6   2   14.80    7.00
  -3  -6   2   22.80   10.80
  -3  -6   2    9.40    7.10
  -3  -6   2   17.80    5.70
   2   6  -2   50.39    8.60
   2   6  -2   59.69   11.50
   2   6  -2   49.70    8.10
   2   6  -2   52.59    9.80
   2   6  -2   61.49    9.70
   2   6  -2   47.50    7.90
  -2  -6   2   45.20    7.70
  -2  -6   2   59.89    9.80
  -2  -6   2   32.20    9.50
  -2  -6   2   52.99    7.90
  -2  -6   2   35.70    9.40
  -2  -6   2   37.40    8.90
  -2  -6   2   58.99    7.10
   1   6  -2  358.06   33.30
   1   6  -2  305.27   33.60
   1   6  -2  321.07   32.60
   1   6  -2  341.77   34.80
   1   6  -2  320.97   32.40
   1   6  -2  362.06   31.70
   1   6  -2  382.86   32.80
  -1  -6   2  330.47   32.00
  -1  -6   2  293.87   33.10
  -1  -6   2  346.07   33.80
  -1  -6   2  339.97   32.50
  -1  -6   2  304.37   33.00
  -1  -6   2  334.97   32.50
   0   6  -2   62.09    8.70
   0   6  -2   67.99    6.90
   0   6  -2   61.69    6.10
   0   6  -2   50.39    7.10
   0   6  -2   49.20    8.40
   0   6  -2   59.69    6.90
   0   6  -2   62.29    7.60
   0  -6   2   59.89    7.70
   0  -6   2   40.30    8.80
   0  -6   2   68.69    7.20
   0  -6   2   42.50    7.40
   0  -6   2   54.19    7.80
   0  -6   2   52.29    6.40
   0  -6   2   53.19    6.80
  -1   6  -2  178.98   18.50
  -1   6  -2  175.38   19.40
  -1   6  -2  217.18   19.40
  -1   6  -2  206.68   18.60
  -1   6  -2  164.98   19.00
  -1   6  -2  214.98   18.00
  -1   6  -2  175.28   17.60
  -1   6  -2  180.58   18.20
   1  -6   2  198.08   18.40
   1  -6   2  172.08   18.10
   1  -6   2  188.78   18.50
   1  -6   2  190.38   18.30
   1  -6   2  187.28   18.80
   1  -6   2  214.88   19.40
   1  -6   2  177.48   18.90
  -2   6  -2  120.89   10.70
  -2   6  -2   83.79   11.70
  -2   6  -2   93.59   10.90
  -2   6  -2  119.89   10.30
  -2   6  -2   87.09   10.70
   2  -6   2  103.29   10.40
   2  -6   2  124.49   11.20
   2  -6   2  108.69   10.80
   2  -6   2   90.39   10.60
   2  -6   2  110.89   11.20
   2  -6   2   81.99   11.30
   2  -6   2  103.69   10.60
  -3   6  -2  240.68   24.50
  -3   6  -2  239.38   22.30
  -3   6  -2  237.48   22.40
  -3   6  -2  214.88   22.20
  -3   6  -2  226.88   22.30
   3  -6   2  275.87   22.90
   3  -6   2  229.98   23.20
   3  -6   2  219.58   22.80
   3  -6   2  276.77   22.70
   3  -6   2  252.17   23.60
   3  -6   2  233.58   22.60
   3  -6   2  242.78   22.50
  -4   6  -2  517.15   51.89
   4  -6   2  586.94   50.29
   4  -6   2  524.45   49.60
   4  -6   2  469.55   50.49
   4  -6   2  546.05   50.09
   4  -6   2  562.74   49.80
   4  -6   2  551.44   50.29
   4  -6   2  535.75   50.09
   4  -6   2  550.54   51.39
  -5   6  -2   -1.90    4.10
   5  -6   2    0.90    2.10
   5  -6   2   -1.00    2.70
   5  -6   2    3.10    3.30
   5  -6   2    3.60    3.00
   5  -6   2    2.70    1.00
   5  -6   2    1.50    4.60
   5  -6   2    2.60    0.90
   5  -6   2    9.80    9.60
   5  -6   2    1.20    3.50
  -6   6  -2    9.10    6.10
   6  -6   2    4.40    5.50
   6  -6   2    5.00    2.90
   6  -6   2    5.10    1.40
   6  -6   2   11.50    7.00
   6  -6   2   13.90    7.10
   6  -6   2    6.70    5.00
   6  -6   2    4.80    1.30
   6  -6   2   10.40    4.40
   5   5  -2   94.59   20.80
   5   5  -2   98.39   15.30
   5   5  -2   75.09   12.90
   5   5  -2  113.69   17.30
   5   5  -2   77.69   16.20
   5   5  -2   81.99   13.40
   5   5  -2   77.49   16.00
  -5  -5   2   83.79   13.40
  -5  -5   2   59.29   20.90
  -5  -5   2   93.19   14.50
  -5  -5   2   91.19   16.10
  -5  -5   2   99.99   13.20
  -5  -5   2   74.59   21.40
  -5  -5   2   81.39   15.50
   4   5  -2   26.40   11.30
   4   5  -2   23.60    7.70
   4   5  -2   15.20    7.70
   4   5  -2   17.20    6.30
   4   5  -2   17.60    6.50
  -4  -5   2   24.70    6.60
  -4  -5   2   14.30    5.40
  -4  -5   2    9.50    7.80
  -4  -5   2   19.30    7.60
  -4  -5   2   11.20    6.80
  -4  -5   2   17.70    9.60
  -4  -5   2   20.60    6.10
   3   5  -2  109.39   17.10
   3   5  -2  159.18   19.30
   3   5  -2  174.58   17.20
   3   5  -2  132.39   15.60
   3   5  -2  121.69   15.20
   3   5  -2  159.18   17.40
  -3  -5   2  147.49   17.20
  -3  -5   2  146.49   15.60
  -3  -5   2  148.49   15.40
  -3  -5   2  104.19   17.00
  -3  -5   2  103.19   17.80
  -3  -5   2  113.79   16.60
  -3  -5   2  157.28   15.20
   2   5  -2   -0.30    2.70
   2   5  -2   -4.20    3.30
   2   5  -2    0.70    3.70
   2   5  -2   -2.10    2.60
   2   5  -2    4.10    4.90
   2   5  -2   -1.30    3.40
  -2  -5   2   -1.60    3.60
  -2  -5   2    3.70    2.90
  -2  -5   2    2.80    5.00
  -2  -5   2    1.60    2.30
  -2  -5   2    3.60    2.60
  -2  -5   2    0.00    3.70
  -2  -5   2    2.00    2.70
   1   5  -2  175.98   18.30
   1   5  -2  202.48   18.70
   1   5  -2  204.28   17.80
   1   5  -2  179.78   20.30
   1   5  -2  178.08   19.50
   1   5  -2  191.28   19.00
   1   5  -2  164.98   18.30
  -1  -5   2  188.38   18.40
  -1  -5   2  176.28   17.90
  -1  -5   2  183.88   18.50
  -1  -5   2  198.28   19.50
  -1  -5   2  159.98   18.80
  -1  -5   2  163.88   18.70
   0   5  -2   87.19    9.70
   0   5  -2  107.59    9.70
   0   5  -2   97.79    9.10
   0   5  -2   85.39    9.50
   0   5  -2   96.19   10.90
   0   5  -2   99.79   10.10
   0   5  -2   86.29   10.80
   0  -5   2   91.89    9.20
   0  -5   2   83.39   10.10
   0  -5   2   91.19   10.40
   0  -5   2   89.99    9.70
   0  -5   2   94.89   10.20
   0  -5   2   67.59   11.00
   0  -5   2   90.89    9.60
  -1   5  -2  118.39   12.10
  -1   5  -2  150.98   12.90
  -1   5  -2  121.49   13.30
  -1   5  -2  130.89   12.20
  -1   5  -2  121.19   12.70
  -1   5  -2  147.59   13.50
  -1   5  -2  126.29   13.60
  -1   5  -2  128.69   12.70
   1  -5   2  116.99   12.90
   1  -5   2  101.69   13.50
   1  -5   2  132.19   12.80
   1  -5   2  134.29   12.70
   1  -5   2  137.19   12.80
   1  -5   2  143.99   13.40
   1  -5   2  121.29   12.40
   1  -5   2  137.29   13.00
  -2   5  -2  415.66   34.40
  -2   5  -2  409.46   34.10
  -2   5  -2  345.67   35.30
  -2   5  -2  330.07   34.40
  -2   5  -2  340.67   34.70
   2  -5   2  307.47   34.60
   2  -5   2  323.97   34.20
   2  -5   2  364.46   33.90
   2  -5   2  399.16   34.30
   2  -5   2  364.16   34.10
   2  -5   2  418.36   34.80
   2  -5   2  364.96   34.50
  -3   5  -2   83.39    8.60
  -3   5  -2   91.09    8.90
  -3   5  -2   85.49   10.30
  -3   5  -2   77.69    8.80
  -3   5  -2   95.79    8.70
   3  -5   2   93.79    9.10
   3  -5   2   93.29    9.30
   3  -5   2  100.19    9.90
   3  -5   2   89.29    8.80
   3  -5   2   87.49    8.80
   3  -5   2   86.29    9.30
  -4   5  -2    7.00    1.80
  -4   5  -2    7.80    1.60
  -4   5  -2    6.70    3.90
  -4   5  -2    8.90    1.70
  -4   5  -2    7.30    1.70
   4  -5   2    6.30    3.80
   4  -5   2    8.40    2.30
   4  -5   2    8.60    1.70
   4  -5   2    6.00    2.50
   4  -5   2    4.10    2.00
   4  -5   2    4.50    3.50
   4  -5   2    5.70    2.50
   4  -5   2    6.50    2.60
  -5   5  -2  185.98   19.40
  -5   5  -2  184.38   21.30
  -5   5  -2  237.48   19.60
  -5   5  -2  196.68   19.60
   5  -5   2  200.38   20.20
   5  -5   2  176.08   20.80
   5  -5   2  236.38   20.30
   5  -5   2  215.48   19.50
   5  -5   2  186.38   23.20
   5  -5   2  209.38   21.80
   5  -5   2  212.88   20.60
   5  -5   2  188.18   21.90
   5  -5   2  197.58   20.20
  -6   5  -2   84.39    9.50
  -6   5  -2   87.99    9.50
  -6   5  -2   98.39   12.10
   6  -5   2   82.29   12.40
   6  -5   2   81.99   11.00
   6  -5   2   60.59   10.20
   6  -5   2   83.89    9.40
   6  -5   2   82.79   10.40
   6  -5   2   84.49   11.70
   6  -5   2   66.49   12.30
   6  -5   2   78.09   14.10
   6   4  -2   72.39   12.90
   6   4  -2   66.59   14.80
   6   4  -2  132.09   28.30
   6   4  -2   77.29   14.10
   6   4  -2   74.49   16.30
   6   4  -2   78.99   14.10
   6   4  -2   79.19   17.60
  -6  -4   2   94.89   18.20
  -6  -4   2   44.70   16.40
  -6  -4   2   73.79   15.30
  -6  -4   2   53.89   23.50
  -6  -4   2   72.59   16.00
  -6  -4   2   76.59   12.60
   5   4  -2   37.30   10.80
   5   4  -2   37.30   10.60
   5   4  -2   30.50    9.10
   5   4  -2   34.40   13.80
   5   4  -2   43.00    9.40
   5   4  -2   43.40    8.00
   5   4  -2   34.70   10.50
  -5  -4   2   34.30   13.50
  -5  -4   2   35.00   10.50
  -5  -4   2   47.50    8.30
  -5  -4   2   32.20    8.10
  -5  -4   2   55.19   11.10
  -5  -4   2   12.60   10.20
  -5  -4   2   20.90   14.00
  -5  -4   2   40.70    7.60
   4   4  -2   35.50    7.60
   4   4  -2   31.80    9.20
   4   4  -2   33.20    8.10
   4   4  -2   46.70   11.40
   4   4  -2   45.20    9.70
   4   4  -2   47.30   11.40
  -4  -4   2   56.39    8.40
  -4  -4   2   46.80    9.70
  -4  -4   2   52.49    8.10
  -4  -4   2   54.79    7.90
  -4  -4   2   46.00    9.40
  -4  -4   2   39.10    9.20
  -4  -4   2   36.60   11.00
   3   4  -2   25.90    6.10
   3   4  -2   26.20    5.20
   3   4  -2   21.90    4.80
   3   4  -2   23.10    5.10
   3   4  -2   25.90    8.20
   3   4  -2   17.60    5.80
   3   4  -2   28.80    6.20
  -3  -4   2   21.40    6.20
  -3  -4   2   13.20    5.50
  -3  -4   2   21.90    4.80
  -3  -4   2   23.80    5.10
  -3  -4   2   23.60    5.80
  -3  -4   2   11.70    6.80
  -3  -4   2   28.40    4.90
   2   4  -2   96.09   10.10
   2   4  -2   71.29    8.90
   2   4  -2   84.19    9.70
   2   4  -2   66.69    8.90
   2   4  -2   81.49    8.80
   2   4  -2   72.29   10.10
   2   4  -2   68.09   11.40
  -2  -4   2   61.59    9.60
  -2  -4   2   95.99    8.80
  -2  -4   2   85.99    9.00
  -2  -4   2   71.79   10.00
  -2  -4   2   58.09    9.40
  -2  -4   2   87.19    9.10
  -2  -4   2   54.49   11.00
   1   4  -2  382.96   34.40
   1   4  -2  348.67   33.90
   1   4  -2  360.36   33.90
   1   4  -2  408.86   34.30
   1   4  -2  379.26   35.60
   1   4  -2  334.07   34.70
   1   4  -2  341.27   33.60
  -1  -4   2  371.56   33.90
  -1  -4   2  354.86   34.60
  -1  -4   2  334.77   34.20
  -1  -4   2  319.57   34.20
  -1  -4   2  370.46   33.60
  -1  -4   2  379.86   33.90
  -1  -4   2  296.37   35.10
   0   4  -2  223.08   23.70
   0   4  -2  231.28   23.00
   0   4  -2  265.07   23.40
   0   4  -2  242.68   23.10
   0   4  -2  255.87   24.10
   0   4  -2  249.08   22.80
   0  -4   2  245.78   23.30
   0  -4   2  256.77   23.80
   0  -4   2  256.27   23.10
   0  -4   2  216.68   23.30
   0  -4   2  255.87   23.10
   0  -4   2  230.98   22.70
   0  -4   2  212.68   24.00
  -1   4  -2  535.05   43.00
  -1   4  -2  445.16   42.50
  -1   4  -2  431.16   43.30
  -1   4  -2  443.06   42.90
  -1   4  -2  411.06   42.50
  -1   4  -2  462.35   43.60
  -1   4  -2  441.46   43.00
   1  -4   2  416.36   43.00
   1  -4   2  507.05   43.00
   1  -4   2  481.15   43.00
   1  -4   2  399.96   43.40
   1  -4   2  505.45   42.90
   1  -4   2  527.15   43.50
   1  -4   2  456.95   42.90
  -2   4  -2  115.59   11.40
  -2   4  -2  120.79   10.70
  -2   4  -2  112.59   10.20
  -2   4  -2  110.39   10.50
  -2   4  -2   98.59   10.90
   2  -4   2  106.69   10.70
   2  -4   2   89.89   10.60
   2  -4   2  105.29   10.00
   2  -4   2   94.59   10.60
   2  -4   2  101.39   10.20
   2  -4   2  102.89   10.30
   2  -4   2  101.89   11.00
   2  -4   2  110.39   10.20
  -3   4  -2  541.15   42.60
  -3   4  -2  485.75   43.70
  -3   4  -2  387.56   42.60
  -3   4  -2  415.86   42.40
   3  -4   2  455.55   43.40
   3  -4   2  435.76   42.60
   3  -4   2  449.66   42.50
   3  -4   2  496.55   42.70
   3  -4   2  404.56   43.10
   3  -4   2  506.45   42.50
  -4   4  -2  510.55   48.40
  -4   4  -2  464.95   47.50
  -4   4  -2  568.44   47.40
  -4   4  -2  475.95   47.10
   4  -4   2  480.05   49.80
   4  -4   2  454.75   48.90
   4  -4   2  497.45   47.40
   4  -4   2  513.55   48.40
   4  -4   2  461.65   47.50
   4  -4   2  541.95   47.60
   4  -4   2  531.05   47.30
   4  -4   2  553.64   47.00
  -5   4  -2   11.60    3.50
  -5   4  -2   12.70    4.30
  -5   4  -2   16.50    4.90
  -5   4  -2    8.40    3.70
  -5   4  -2   14.00    3.20
   5  -4   2   10.00    4.60
   5  -4   2   12.90    3.60
   5  -4   2   11.60    6.20
   5  -4   2    8.60    4.20
   5  -4   2   14.70    5.10
   5  -4   2   12.30    2.90
   5  -4   2    9.40    3.90
   5  -4   2   11.90    3.80
  -6   4  -2  185.48   21.00
  -6   4  -2  204.58   20.50
  -6   4  -2  162.28   19.40
   6  -4   2  210.48   21.20
   6  -4   2  160.38   20.70
   6  -4   2  197.98   19.50
   6  -4   2  167.58   22.00
   6  -4   2  212.18   20.90
   6  -4   2  201.28   24.40
   6  -4   2  230.78   27.80
   6  -4   2  203.78   20.50
   6   3  -2  106.79   15.80
   6   3  -2  100.29   19.60
   6   3  -2  116.29   16.60
   6   3  -2  120.19   19.60
   6   3  -2  106.79   16.70
   6   3  -2  151.98   25.60
   6   3  -2  112.59   17.90
   6   3  -2  142.79   20.00
  -6  -3   2  122.79   19.60
  -6  -3   2   96.99   16.60
  -6  -3   2  103.69   19.00
  -6  -3   2  116.49   15.60
  -6  -3   2  121.39   16.50
  -6  -3   2  114.29   16.60
  -6  -3   2  123.39   19.40
  -6  -3   2   88.49   22.60
   5   3  -2   44.10    8.60
   5   3  -2   36.00    7.90
   5   3  -2   67.59   10.30
   5   3  -2   61.99   13.90
   5   3  -2   53.89   11.90
   5   3  -2   38.10   10.60
  -5  -3   2   46.30   10.20
  -5  -3   2   51.89    8.10
  -5  -3   2   40.40   10.50
  -5  -3   2   42.20    8.20
  -5  -3   2   45.70   13.40
  -5  -3   2   65.49   12.10
  -5  -3   2   35.00   11.20
   4   3  -2   20.70    6.40
   4   3  -2   17.30    5.40
   4   3  -2   16.40    6.60
   4   3  -2   11.00    5.40
   4   3  -2   21.90    8.40
   4   3  -2   29.40    7.00
   4   3  -2   28.70    6.50
  -4  -3   2   23.00    4.90
  -4  -3   2   13.50    6.30
  -4  -3   2   19.30    6.30
  -4  -3   2   16.10    4.70
  -4  -3   2   21.40    4.80
  -4  -3   2   22.40    8.40
  -4  -3   2   19.70    6.00
   3   3  -2    3.60    3.50
   3   3  -2   -2.50    2.20
   3   3  -2    0.20    2.30
   3   3  -2   -2.20    2.80
   3   3  -2   -2.40    3.40
   3   3  -2   -0.80    2.50
   3   3  -2    2.40    5.00
  -3  -3   2    1.10    2.50
  -3  -3   2   -4.00    4.20
  -3  -3   2    4.60    3.50
  -3  -3   2   -0.60    2.20
  -3  -3   2    3.60    3.20
  -3  -3   2    2.60    3.30
  -3  -3   2   -3.70    2.40
   2   3  -2  153.28   15.90
   2   3  -2  151.08   16.80
   2   3  -2  171.58   16.10
   2   3  -2  160.78   16.50
   2   3  -2  167.48   18.00
   2   3  -2  164.38   15.80
   2   3  -2  177.88   16.70
  -2  -3   2  126.49   17.30
  -2  -3   2  149.59   16.70
  -2  -3   2  168.68   15.90
  -2  -3   2  146.79   16.40
  -2  -3   2  158.38   15.60
  -2  -3   2  157.78   15.90
  -2  -3   2  146.59   16.30
   1   3  -2   91.49    9.40
   1   3  -2   81.39    8.90
   1   3  -2   80.49    8.90
   1   3  -2   93.39    9.30
   1   3  -2   91.39   10.50
   1   3  -2   86.99    8.70
   1   3  -2   82.59    9.70
  -1  -3   2   83.09    8.50
  -1  -3   2   70.59    9.20
  -1  -3   2   79.19    9.20
  -1  -3   2   88.69    8.90
  -1  -3   2   63.59   10.00
  -1  -3   2   87.39    8.90
  -1  -3   2   95.09    9.60
   0   3  -2  350.56   29.50
   0   3  -2  329.17   29.60
   0   3  -2  288.37   29.30
   0   3  -2  292.17   29.90
   0   3  -2  307.37   29.40
   0   3  -2  321.77   30.10
   0   3  -2  322.87   29.30
   0  -3   2  335.57   29.60
   0  -3   2  300.67   29.10
   0  -3   2  280.47   30.10
   0  -3   2  336.37   29.90
   0  -3   2  315.77   29.40
   0  -3   2  309.27   29.40
   0  -3   2  297.87   29.60
  -1   3  -2  209.98   21.30
  -1   3  -2  240.78   21.20
  -1   3  -2  236.78   21.60
  -1   3  -2  218.88   21.70
  -1   3  -2  206.48   20.90
  -1   3  -2  214.78   20.90
   1  -3   2  218.28   21.10
   1  -3   2  260.47   21.30
   1  -3   2  230.38   21.20
   1  -3   2  213.18   21.30
   1  -3   2  220.78   21.20
   1  -3   2  234.08   21.60
  -2   3  -2  101.49   11.20
  -2   3  -2   99.49   10.90
  -2   3  -2  131.19   11.80
  -2   3  -2  113.19   11.60
  -2   3  -2  125.69   11.60
   2  -3   2   99.69   11.00
   2  -3   2  133.19   11.00
   2  -3   2  105.09   11.40
   2  -3   2  110.69   10.80
   2  -3   2  130.39   11.00
   2  -3   2   90.99   11.20
   2  -3   2  127.69   11.30
  -3   3  -2   25.50    4.40
  -3   3  -2   25.70    4.60
  -3   3  -2   24.90    3.20
  -3   3  -2   26.50    4.10
   3  -3   2   16.70    3.90
   3  -3   2   27.00    3.40
   3  -3   2   23.90    3.60
   3  -3   2   20.60    3.90
   3  -3   2   15.10    4.40
   3  -3   2   26.10    3.20
   3  -3   2   24.10    3.70
   3  -3   2   27.40    3.70
  -4   3  -2   54.79    6.30
  -4   3  -2   50.59    6.10
  -4   3  -2   48.10    7.90
  -4   3  -2   42.70    6.90
  -4   3  -2   45.80    6.80
  -4   3  -2   52.79    7.10
   4  -3   2   57.79    6.30
   4  -3   2   54.19    7.20
   4  -3   2   48.40    6.50
   4  -3   2   47.90    7.30
   4  -3   2   43.60    6.70
   4  -3   2   56.99    9.80
   4  -3   2   51.49    7.10
   4  -3   2   49.00    7.20
   4  -3   2   52.49    6.00
  -5   3  -2   39.90    6.10
  -5   3  -2   31.30    6.40
  -5   3  -2   29.70    6.40
  -5   3  -2   27.00    7.00
  -5   3  -2   38.20    5.90
  -5   3  -2   42.90    6.80
   5  -3   2   38.60    7.20
   5  -3   2   43.30    6.50
   5  -3   2   43.20    7.00
   5  -3   2   35.70    7.20
   5  -3   2   45.30    6.00
   5  -3   2   37.00    7.20
   5  -3   2   42.00    7.50
   5  -3   2   29.50    9.20
  -6   3  -2  109.89   16.60
  -6   3  -2  127.79   16.40
  -6   3  -2  139.69   15.80
  -6   3  -2  132.59   14.80
  -6   3  -2   91.29   18.30
  -6   3  -2  132.19   15.40
   6  -3   2  125.29   15.60
   6  -3   2  157.88   15.10
   6  -3   2  152.98   16.70
   6  -3   2  148.79   17.00
   6  -3   2  120.89   17.00
   6  -3   2  146.59   18.30
   6  -3   2  112.19   20.80
   6   2  -2  160.68   19.00
   6   2  -2  137.19   19.50
   6   2  -2  135.29   17.90
   6   2  -2  123.89   19.60
   6   2  -2  182.38   22.40
   6   2  -2  167.08   20.90
   6   2  -2  139.99   17.00
   6   2  -2  149.29   25.90
  -6  -2   2  156.98   17.00
  -6  -2   2  114.29   19.70
  -6  -2   2  157.58   16.50
  -6  -2   2  125.89   19.50
  -6  -2   2  115.19   19.00
  -6  -2   2  141.69   17.20
  -6  -2   2   90.69   21.90
   5   2  -2   25.30    6.50
   5   2  -2   36.10    8.50
   5   2  -2   41.70   11.50
   5   2  -2   32.40    7.00
   5   2  -2   24.10    8.10
  -5  -2   2   26.70    6.00
  -5  -2   2   28.10    8.30
  -5  -2   2   29.10   10.40
  -5  -2   2   34.50    5.80
  -5  -2   2   31.30    7.90
  -5  -2   2   22.70    6.80
  -5  -2   2   25.90    7.20
  -5  -2   2   25.40    6.30
   4   2  -2   28.90    6.60
   4   2  -2   24.60    5.20
   4   2  -2   29.30    8.40
   4   2  -2   25.30    5.20
   4   2  -2   26.30    5.70
   4   2  -2   33.70    7.10
   4   2  -2   22.00    6.30
  -4  -2   2   35.90    5.50
  -4  -2   2   20.90    7.50
  -4  -2   2   35.40    5.80
  -4  -2   2   40.20    5.80
  -4  -2   2   25.60    6.50
  -4  -2   2   43.40    7.50
  -4  -2   2   28.10    6.40
   3   2  -2    4.40    4.00
   3   2  -2    1.00    2.10
   3   2  -2   -0.20    2.00
   3   2  -2   -1.30    2.60
   3   2  -2    2.10    2.20
   3   2  -2    3.00    3.10
   3   2  -2    1.70    2.90
  -3  -2   2    1.20    2.10
  -3  -2   2   -0.40    2.70
  -3  -2   2   -1.70    2.70
  -3  -2   2    2.70    2.20
  -3  -2   2   -2.50    3.70
  -3  -2   2    4.50    2.20
  -3  -2   2    1.50    2.30
   2   2  -2   13.90    2.80
   2   2  -2   15.80    3.50
   2   2  -2    9.90    2.40
   2   2  -2   15.30    3.40
   2   2  -2   10.70    3.90
   2   2  -2   16.50    3.40
   2   2  -2   12.10    2.70
  -2  -2   2   17.80    2.80
  -2  -2   2   14.40    2.80
  -2  -2   2   12.70    3.20
  -2  -2   2    8.10    3.70
  -2  -2   2   12.80    2.70
  -2  -2   2   11.30    3.00
  -2  -2   2    9.70    3.00
   1   2  -2    4.70    1.50
   1   2  -2    5.00    2.10
   1   2  -2    6.80    2.00
   1   2  -2    5.10    1.40
   1   2  -2    6.30    1.60
   1   2  -2    5.00    1.80
   1   2  -2    4.80    2.40
  -1  -2   2    4.70    2.30
  -1  -2   2    5.90    1.50
  -1  -2   2    4.20    1.80
  -1  -2   2    5.20    1.30
  -1  -2   2    6.30    2.00
  -1  -2   2    6.10    1.50
  -1  -2   2    4.80    1.70
   0   2  -2   66.89    6.80
   0   2  -2   67.39    6.70
   0   2  -2   59.29    6.40
   0   2  -2   69.49    6.80
   0   2  -2   74.49    6.80
   0   2  -2   66.69    6.90
   0   2  -2   74.39    6.80
   0   2  -2   69.59    7.20
   0   2  -2   69.39    7.20
   0  -2   2   65.89    6.70
   0  -2   2   70.49    7.40
   0  -2   2   66.79    6.80
   0  -2   2   62.29    6.60
   0  -2   2   67.29    6.90
   0  -2   2   72.19    7.20
   0  -2   2   62.99    6.80
   0  -2   2   58.89    6.40
  -1   2  -2 1350.86  109.19
  -1   2  -2 1047.90  108.69
  -1   2  -2 1233.88  108.79
  -1   2  -2 1236.28  109.09
  -1   2  -2 1111.59  108.99
   1  -2   2 1394.46  109.19
   1  -2   2 1280.27  108.79
   1  -2   2 1150.38  108.89
   1  -2   2 1034.10  108.79
   1  -2   2 1210.48  109.29
   1  -2   2 1087.39  108.99
   1  -2   2 1225.08  108.79
   1  -2   2 1036.60  108.49
  -2   2  -2  311.87   29.20
  -2   2  -2  285.87   29.60
  -2   2  -2  294.07   28.90
  -2   2  -2  314.87   29.50
  -2   2  -2  355.66   28.60
  -2   2  -2  311.77   28.70
  -2   2  -2  305.17   28.60
  -2   2  -2  288.17   29.20
   2  -2   2  326.67   28.90
   2  -2   2  283.27   28.90
   2  -2   2  318.77   28.80
   2  -2   2  281.67   29.30
   2  -2   2  308.57   29.30
   2  -2   2  325.97   29.20
   2  -2   2  313.67   29.00
  -3   2  -2  674.73   59.69
  -3   2  -2  656.03   59.29
  -3   2  -2  576.74   60.09
  -3   2  -2  738.43   60.39
   3  -2   2  687.13   59.79
   3  -2   2  649.54   60.29
   3  -2   2  614.14   59.89
   3  -2   2  535.95   61.19
   3  -2   2  622.54   60.09
   3  -2   2  692.23   59.79
   3  -2   2  627.44   60.39
   3  -2   2  634.54   60.39
  -4   2  -2  352.26   31.50
  -4   2  -2  308.07   31.40
  -4   2  -2  298.17   32.10
  -4   2  -2  392.46   32.30
  -4   2  -2  332.67   30.70
  -4   2  -2  305.67   32.10
   4  -2   2  338.27   31.50
   4  -2   2  322.27   32.20
   4  -2   2  347.27   32.40
   4  -2   2  306.87   34.20
   4  -2   2  327.97   31.40
   4  -2   2  318.17   32.20
   4  -2   2  307.37   31.60
   4  -2   2  353.56   32.60
  -5   2  -2  811.52   85.69
  -5   2  -2  924.21   83.79
  -5   2  -2  973.60   84.99
  -5   2  -2  852.61   84.89
  -5   2  -2  999.00   85.89
  -5   2  -2  866.41   85.89
   5  -2   2  875.41   87.09
   5  -2   2  953.20   85.19
   5  -2   2  920.81   85.99
   5  -2   2  895.11   86.19
   5  -2   2  952.00   86.29
   5  -2   2  887.81   88.29
   5  -2   2  912.71   85.99
  -6   2  -2   10.30    5.40
  -6   2  -2    6.00    9.00
  -6   2  -2   23.80    8.30
  -6   2  -2   26.60    6.90
  -6   2  -2   24.60    5.30
  -6   2  -2   13.50    5.40
   6  -2   2    4.00    6.90
   6  -2   2   22.80   12.50
   6  -2   2    9.00    7.60
   6  -2   2   10.50    4.80
   6  -2   2   29.10    8.70
   6  -2   2   10.90    5.90
   6  -2   2   21.80    7.40
   6  -2   2   22.70    6.50
   6   1  -2  112.59   15.90
   6   1  -2  115.09   17.40
   6   1  -2  130.39   21.90
   6   1  -2   84.39   15.90
   6   1  -2  120.79   15.30
   6   1  -2  137.19   15.20
   6   1  -2  104.79   14.40
   6   1  -2  142.39   17.50
  -6  -1   2  121.19   14.40
  -6  -1   2  108.89   20.90
  -6  -1   2   97.19   15.30
  -6  -1   2  122.59   14.40
  -6  -1   2  113.59   13.10
  -6  -1   2   98.09   16.10
  -6  -1   2  106.89   18.00
   5   1  -2   54.19    8.60
   5   1  -2   55.99    9.10
   5   1  -2   78.99   11.00
   5   1  -2   69.69   11.20
   5   1  -2   73.19   13.80
   5   1  -2   62.79   10.40
  -5  -1   2   51.39    9.10
  -5  -1   2   72.59    8.10
  -5  -1   2   61.49    8.70
  -5  -1   2   61.99    8.70
  -5  -1   2   57.89   10.00
  -5  -1   2   34.80   11.10
  -5  -1   2   55.79   10.30
   4   1  -2    3.40    4.10
   4   1  -2    3.40    2.50
   4   1  -2    6.70    3.00
   4   1  -2    2.70    3.20
   4   1  -2    2.80    5.00
   4   1  -2    1.50    2.70
   4   1  -2    5.50    3.70
  -4  -1   2    2.70    2.70
  -4  -1   2   -1.60    3.30
  -4  -1   2    3.00    3.60
  -4  -1   2    2.80    3.60
  -4  -1   2    4.10    2.50
  -4  -1   2   -1.30    4.90
  -4  -1   2    2.00    2.40
   3   1  -2    5.80    2.20
   3   1  -2    9.90    2.50
   3   1  -2    7.90    2.50
   3   1  -2    8.80    3.00
   3   1  -2    8.20    2.90
   3   1  -2   10.40    3.90
   3   1  -2    5.00    2.60
  -3  -1   2    9.00    3.10
  -3  -1   2    8.80    2.30
  -3  -1   2    8.00    2.40
  -3  -1   2    4.20    3.80
  -3  -1   2    6.00    2.70
  -3  -1   2    5.80    2.20
  -3  -1   2    5.70    2.70
   2   1  -2  105.49   11.50
   2   1  -2   95.99   10.10
   2   1  -2  107.69   10.60
   2   1  -2  104.19   10.20
   2   1  -2   95.19   10.80
   2   1  -2   98.39   10.20
   2   1  -2  108.39   10.70
  -2  -1   2  105.39   10.10
  -2  -1   2   96.29   10.50
  -2  -1   2   87.49   10.40
  -2  -1   2   85.49   11.20
  -2  -1   2  102.89   10.10
  -2  -1   2  100.29   10.70
  -2  -1   2  101.19   10.10
   1   1  -2 1287.17  118.99
   1   1  -2 1275.37  119.39
   1   1  -2 1326.17  119.59
   1   1  -2 1284.87  118.99
   1   1  -2 1286.17  118.89
   1   1  -2 1343.57  119.19
   1   1  -2 1342.17  119.19
  -1  -1   2 1196.88  119.09
  -1  -1   2 1212.08  119.09
  -1  -1   2 1208.18  119.59
  -1  -1   2 1279.47  118.89
  -1  -1   2 1371.06  118.99
  -1  -1   2 1340.17  118.99
  -1  -1   2 1355.96  119.39
   0   1  -2  317.57   27.20
   0   1  -2  334.17   27.50
   0   1  -2  301.77   27.10
   0   1  -2  265.57   27.10
   0   1  -2  269.67   26.90
   0   1  -2  280.57   27.10
   0   1  -2  335.17   27.50
   0   1  -2  283.37   27.10
   0   1  -2  255.37   27.00
   0  -1   2  303.67   27.20
   0  -1   2  328.97   27.50
   0  -1   2  291.17   27.10
   0  -1   2  275.17   27.10
   0  -1   2  250.87   27.10
   0  -1   2  298.47   27.40
   0  -1   2  284.87   27.10
  -1   1  -2  101.09   10.40
  -1   1  -2  110.09   10.20
  -1   1  -2  113.19   10.60
  -1   1  -2   92.69   11.50
  -1   1  -2  107.69   10.70
  -1   1  -2  109.49   10.70
  -1   1  -2  109.79   10.40
   1  -1   2   92.59   10.60
   1  -1   2  113.19   10.40
   1  -1   2  107.39   10.50
   1  -1   2  115.09   10.70
   1  -1   2  114.29   10.60
   1  -1   2  112.29   10.50
  -2   1  -2   76.79   12.40
  -2   1  -2   87.39    9.60
  -2   1  -2   90.09   10.10
  -2   1  -2  103.09   10.20
  -2   1  -2  113.49    9.80
  -2   1  -2  108.99    9.60
  -2   1  -2   96.89    9.60
  -2   1  -2   88.09   10.20
   2  -1   2  101.39    9.70
   2  -1   2   96.09    9.90
   2  -1   2   89.89   10.20
   2  -1   2  101.79   10.20
   2  -1   2  101.09    9.70
   2  -1   2  103.69   10.10
   2  -1   2  101.69   10.00
   2  -1   2   80.09   11.00
  -3   1  -2  664.23   66.49
  -3   1  -2  778.62   65.89
  -3   1  -2  760.02   65.79
  -3   1  -2  622.54   66.29
  -3   1  -2  732.33   65.69
   3  -1   2  710.43   66.49
   3  -1   2  700.03   66.29
   3  -1   2  719.63   65.79
   3  -1   2  746.73   65.89
   3  -1   2  710.43   65.99
   3  -1   2  605.44   67.39
   3  -1   2  715.43   66.59
   3  -1   2  715.13   66.29
  -4   1  -2   91.99   13.50
  -4   1  -2  128.29   12.60
  -4   1  -2  128.19   12.50
  -4   1  -2  118.29   12.10
  -4   1  -2  114.39   13.60
  -4   1  -2  121.39   12.70
  -4   1  -2   88.39   15.70
  -4   1  -2  140.79   13.20
   4  -1   2  125.49   13.90
   4  -1   2  121.39   12.70
   4  -1   2  117.99   13.70
   4  -1   2  105.19   12.80
   4  -1   2  123.39   12.70
   4  -1   2  101.69   15.50
   4  -1   2  122.59   13.60
   4  -1   2  125.19   13.50
  -5   1  -2   21.90    9.40
  -5   1  -2   14.50    5.90
  -5   1  -2   21.30    6.00
  -5   1  -2   14.00    3.30
  -5   1  -2   23.70    5.50
  -5   1  -2   25.90    6.90
  -5   1  -2   19.10    4.40
  -5   1  -2   21.20    4.70
   5  -1   2   24.30    6.30
   5  -1   2   18.40    8.00
   5  -1   2   13.40    4.50
   5  -1   2   16.90    6.50
   5  -1   2   24.90    7.30
   5  -1   2   17.80    5.30
   5  -1   2   11.80    5.30
   5  -1   2   19.70    4.80
  -6   1  -2   40.60    8.20
  -6   1  -2   45.50    9.90
  -6   1  -2   41.20    7.50
  -6   1  -2   33.40    5.30
  -6   1  -2   36.50    7.70
  -6   1  -2   36.50    6.20
  -6   1  -2   32.90    8.80
   6  -1   2   30.10    8.60
   6  -1   2   27.90    8.60
   6  -1   2   26.10    9.70
   6  -1   2   38.70    8.20
   6  -1   2   21.90   11.80
   6  -1   2   39.30    8.60
   6  -1   2   36.80    7.50
   6  -1   2   51.49   10.70
   7   0  -2   53.09   13.10
   7   0  -2   54.79   10.70
   7   0  -2   32.50   11.70
   7   0  -2   48.50   16.40
   7   0  -2   82.29   15.40
   7   0  -2   56.09   12.80
   7   0  -2   58.79   11.00
   7   0  -2   44.00    9.20
  -7   0   2   34.10    8.70
  -7   0   2   71.19   15.70
  -7   0   2   62.79    9.70
  -7   0   2   44.30    9.60
  -7   0   2   60.39    9.90
   6   0  -2  139.29   16.80
   6   0  -2  127.09   16.10
   6   0  -2  148.59   20.30
   6   0  -2  119.69   16.20
   6   0  -2  138.29   17.50
   6   0  -2  114.19   14.80
   6   0  -2  145.79   18.50
   6   0  -2  129.79   15.40
  -6   0   2  110.79   14.70
  -6   0   2  130.29   13.10
  -6   0   2  103.49   14.70
  -6   0   2  122.99   16.90
  -6   0   2  105.79   17.70
  -6   0   2  128.99   14.40
   5   0  -2   43.70    9.10
   5   0  -2   41.30    7.50
   5   0  -2   27.60    7.20
   5   0  -2   28.80    6.30
  -5   0   2   29.80    5.80
  -5   0   2   44.00    6.70
  -5   0   2   40.00    7.50
  -5   0   2   34.70    6.10
  -5   0   2   28.20    9.60
  -5   0   2   37.40    5.20
  -5   0   2   33.90    6.90
   4   0  -2    1.60    4.00
   4   0  -2    1.80    3.10
   4   0  -2    3.70    3.10
   4   0  -2    2.10    2.30
   4   0  -2   -0.80    2.00
   4   0  -2    2.50    2.40
   4   0  -2    1.40    2.80
  -4   0   2    3.20    1.70
  -4   0   2    3.30    1.80
  -4   0   2    5.60    2.50
  -4   0   2   -2.90    4.30
  -4   0   2   -0.80    3.00
  -4   0   2   -0.90    2.00
  -4   0   2    1.90    2.50
  -4   0   2    1.80    2.60
   3   0  -2   -0.30    1.70
   3   0  -2    2.60    1.60
   3   0  -2    5.80    2.00
   3   0  -2    2.20    2.80
   3   0  -2   -0.90    1.40
   3   0  -2    1.70    1.60
   3   0  -2    0.80    2.00
  -3   0   2    3.80    2.00
  -3   0   2    1.70    1.20
  -3   0   2    1.50    1.90
  -3   0   2    2.20    1.60
  -3   0   2    1.60    3.00
  -3   0   2    2.90    1.50
  -3   0   2    2.40    1.90
  -3   0   2    0.60    2.00
   2   0  -2  375.16   34.50
   2   0  -2  370.46   34.60
   2   0  -2  384.26   34.80
   2   0  -2  370.06   34.80
   2   0  -2  370.56   35.40
   2   0  -2  346.47   34.50
   2   0  -2  337.27   34.90
  -2   0   2  333.27   34.70
  -2   0   2  338.77   34.60
  -2   0   2  381.66   34.50
  -2   0   2  416.16   34.40
  -2   0   2  395.86   34.60
  -2   0   2  385.66   35.00
   1   0  -2 3069.19  292.07
   1   0  -2 3514.25  292.07
   1   0  -2 3194.48  291.97
   1   0  -2 3350.96  292.27
   1   0  -2 3116.69  291.97
   1   0  -2 3213.58  291.67
   1   0  -2 3218.98  291.77
  -1   0   2 3311.17  291.97
  -1   0   2 3196.58  291.37
  -1   0   2 2768.32  291.37
  -1   0   2 2941.11  291.67
  -1   0   2 3216.08  291.37
   0   0  -2  101.89    9.70
   0   0  -2   96.49    9.80
   0   0  -2   99.79    9.60
   0   0  -2  101.69    9.60
   0   0  -2  104.09    9.70
   0   0  -2  111.39    9.90
   0   0  -2  101.19   10.10
   0   0   2  111.19    9.90
   0   0   2  102.79    9.70
   0   0   2  101.99    9.70
   0   0   2   90.99    9.70
   0   0   2   89.79    9.70
   0   0   2  102.09    9.60
  -1   0  -2 1793.42  169.88
  -1   0  -2 1881.11  169.58
  -1   0  -2 1753.32  169.78
  -1   0  -2 1987.30  169.68
  -1   0  -2 1820.02  169.38
  -1   0  -2 1788.12  169.48
  -1   0  -2 1839.12  169.58
   1   0   2 1813.32  169.48
   1   0   2 1717.83  169.78
   1   0   2 1976.50  170.48
   1   0   2 1858.51  169.88
   1   0   2 1834.12  169.68
   1   0   2 1852.01  169.58
   1   0   2 1918.71  169.48
  -2   0  -2    4.90    2.80
  -2   0  -2   -0.20    3.10
  -2   0  -2    4.60    1.80
  -2   0  -2    3.20    1.90
  -2   0  -2    4.40    2.30
  -2   0  -2    4.70    2.20
  -2   0  -2    3.00    1.80
  -2   0  -2   10.40    3.00
   2   0   2    6.20    2.10
   2   0   2    3.50    2.50
   2   0   2    5.20    1.90
   2   0   2    7.30    2.20
   2   0   2    3.60    2.30
   2   0   2    4.00    2.80
   2   0   2    0.40    2.20
   2   0   2    6.30    3.90
   2   0   2    1.90    1.90
  -3   0  -2 1426.56  137.89
  -3   0  -2 1547.55  137.09
  -3   0  -2 1424.26  137.09
  -3   0  -2 1635.84  137.49
  -3   0  -2 1536.55  136.99
  -3   0  -2 1348.86  137.69
   3   0   2 1407.96  137.79
   3   0   2 1470.35  137.29
   3   0   2 1295.87  138.89
   3   0   2 1558.14  137.19
   3   0   2 1541.65  138.09
   3   0   2 1511.25  137.79
   3   0   2 1469.15  137.09
   3   0   2 1591.74  137.49
  -4   0  -2  629.14   55.79
  -4   0  -2  640.54   56.39
  -4   0  -2  627.84   55.89
  -4   0  -2  498.65   56.59
  -4   0  -2  534.45   56.89
  -4   0  -2  567.14   55.99
   4   0   2  599.74   56.29
   4   0   2  579.74   58.99
   4   0   2  604.04   55.99
   4   0   2  568.94   56.89
   4   0   2  605.54   56.39
   4   0   2  597.34   55.99
   4   0   2  607.54   57.09
   4   0   2  628.44   57.39
  -5   0  -2  271.37   31.20
  -5   0  -2  273.27   31.40
  -5   0  -2  327.57   29.80
  -5   0  -2  308.97   30.10
  -5   0  -2  293.07   29.30
   5   0   2  330.67   32.10
   5   0   2  312.87   30.10
   5   0   2  280.47   30.50
   5   0   2  304.37   30.80
   5   0   2  295.27   34.90
   5   0   2  317.97   31.90
   5   0   2  301.37   31.80
   5   0   2  294.97   30.30
  -6   0  -2   -3.40    5.40
  -6   0  -2   -5.80    4.20
  -6   0  -2   -3.20    7.70
  -6   0  -2   -6.00    4.00
  -6   0  -2   -1.90   13.40
  -6   0  -2   -5.50    9.00
  -6   0  -2    4.30    6.10
   6   0   2    1.20    7.10
   6   0   2    3.20   10.60
   6   0   2    5.90    5.50
   6   0   2    8.10    7.40
   6   0   2   -2.30    6.20
   6   0   2   10.40    7.00
   6   0   2    8.80    9.10
   6   0   2    2.60   11.90
   7  -1  -2   10.40   11.70
   7  -1  -2   10.80    6.10
   7  -1  -2   16.00    9.20
   7  -1  -2   31.50   10.40
   7  -1  -2   -1.00   13.50
   7  -1  -2   19.20    8.40
   7  -1  -2    9.50    7.80
   7  -1  -2   24.70    9.20
  -7   1   2    0.30   12.50
  -7   1   2    8.80   10.60
  -7   1   2    2.60    5.90
  -7   1   2    1.30    6.90
  -7   1   2    4.70    5.60
  -7   1   2   11.50   10.20
   6  -1  -2    5.50    8.50
   6  -1  -2    5.30    4.20
   6  -1  -2   13.20    5.00
   6  -1  -2   -5.20    7.20
   6  -1  -2    8.10    6.70
   6  -1  -2   16.80    6.20
   6  -1  -2   -1.50    5.00
  -6   1   2   12.00    6.20
  -6   1   2    8.10    7.80
  -6   1   2    9.10    5.00
  -6   1   2    9.50    5.30
  -6   1   2    8.50    4.20
  -6   1   2   16.80    4.60
  -6   1   2    5.50    3.10
   5  -1  -2   27.20    7.80
   5  -1  -2   21.40    4.30
   5  -1  -2   26.20    5.10
   5  -1  -2   20.80    6.10
   5  -1  -2   16.90    4.60
   5  -1  -2   12.20    6.00
   5  -1  -2   26.10    5.40
  -5   1   2   25.60    5.50
  -5   1   2   25.20    5.20
  -5   1   2   25.20    4.50
  -5   1   2   15.50    5.20
  -5   1   2   16.80    3.20
  -5   1   2   15.70    6.40
   4  -1  -2   60.19    6.90
   4  -1  -2   67.89    8.10
   4  -1  -2   57.09    7.30
   4  -1  -2   52.39    7.60
   4  -1  -2   65.09    7.60
   4  -1  -2   61.29    9.90
  -4   1   2   42.20    8.50
  -4   1   2   56.39    6.40
  -4   1   2   52.99    7.90
  -4   1   2   58.89    6.80
  -4   1   2   58.19    7.20
  -4   1   2   53.79    7.50
  -4   1   2   69.89    7.40
   3  -1  -2   -0.50    1.50
   3  -1  -2    0.60    1.10
   3  -1  -2    0.10    1.20
   3  -1  -2   -1.40    1.30
   3  -1  -2    2.00    1.70
   3  -1  -2    0.60    1.50
   3  -1  -2    0.30    2.30
  -3   1   2    0.50    1.50
  -3   1   2   -1.50    0.90
  -3   1   2    0.60    1.50
  -3   1   2    0.90    2.10
  -3   1   2    0.40    1.10
  -3   1   2    5.00    2.00
  -3   1   2    1.40    2.10
  -3   1   2   -0.60    1.40
   2  -1  -2  680.03   67.59
   2  -1  -2  725.93   68.09
   2  -1  -2  834.52   67.59
   2  -1  -2  656.63   67.79
   2  -1  -2  776.52   67.89
   2  -1  -2  736.23   67.69
   2  -1  -2  706.83   67.69
  -2   1   2  661.83   67.69
  -2   1   2  801.62   67.89
  -2   1   2  719.53   67.29
  -2   1   2  767.52   67.59
  -2   1   2  657.13   67.29
  -2   1   2  825.12   67.89
  -2   1   2  724.63   68.99
   1  -1  -2 8178.18  809.52
   1  -1  -2 9283.57  809.72
   1  -1  -2 9999.00  810.82
   1  -1  -2 8842.52  812.12
   1  -1  -2 9566.54  809.92
   1  -1  -2 7817.02  809.72
  -1   1   2 9180.48  810.62
  -1   1   2 8636.74  810.92
  -1   1   2 8544.54  810.02
  -1   1   2 8845.81  809.92
  -1   1   2 9603.64  810.22
  -1   1   2 7462.05  812.12
   0  -1  -2  352.06   29.90
   0  -1  -2  323.97   30.00
   0  -1  -2  306.27   30.30
   0  -1  -2  334.67   30.10
   0  -1  -2  302.87   30.30
   0  -1  -2  346.57   32.10
   0  -1  -2  324.07   30.30
   0   1   2  337.37   29.90
   0   1   2  334.47   30.00
   0   1   2  309.67   30.20
   0   1   2  345.57   30.10
   0   1   2  324.77   30.30
   0   1   2  303.67   31.70
   0   1   2  276.67   30.20
  -1  -1  -2  131.49   14.10
  -1  -1  -2  150.58   14.30
  -1  -1  -2  158.88   13.80
  -1  -1  -2  150.08   16.00
  -1  -1  -2  143.49   14.40
  -1  -1  -2  140.69   13.60
  -1  -1  -2  141.89   13.80
  -1  -1  -2  138.39   13.80
   1   1   2  136.49   14.20
   1   1   2  145.49   15.80
   1   1   2  147.09   13.60
   1   1   2  134.99   13.70
   1   1   2  136.09   13.80
   1   1   2  116.69   14.80
   1   1   2  145.59   14.30
   1   1   2  148.69   14.20
  -2  -1  -2  419.16   40.70
  -2  -1  -2  464.95   39.80
  -2  -1  -2  411.96   39.90
  -2  -1  -2  429.56   40.00
  -2  -1  -2  443.06   40.40
  -2  -1  -2  394.66   40.50
  -2  -1  -2  448.76   41.60
   2   1   2  425.66   40.50
   2   1   2  401.86   40.50
   2   1   2  408.56   40.00
   2   1   2  374.46   41.50
   2   1   2  408.36   39.80
   2   1   2  457.05   40.80
   2   1   2  435.06   39.80
  -3  -1  -2   -2.10    2.80
  -3  -1  -2   -2.50    3.00
  -3  -1  -2   -0.60    2.80
  -3  -1  -2    2.10    4.60
  -3  -1  -2    1.50    2.30
  -3  -1  -2    3.20    3.50
  -3  -1  -2    1.20    2.20
  -3  -1  -2    0.70    2.10
   3   1   2    3.60    4.30
   3   1   2   -0.20    3.10
   3   1   2    1.40    2.10
   3   1   2   -1.40    3.10
   3   1   2    0.70    2.20
   3   1   2   -0.70    2.40
   3   1   2    1.60    2.00
   3   1   2   -1.10    2.30
  -4  -1  -2  982.50  106.99
  -4  -1  -2 1087.79  106.39
  -4  -1  -2 1152.68  105.99
  -4  -1  -2 1265.57  106.09
  -4  -1  -2 1105.99  107.49
  -4  -1  -2 1181.68  106.79
   4   1   2 1136.99  106.19
   4   1   2 1167.48  107.39
   4   1   2 1204.48  106.49
   4   1   2 1100.69  109.39
   4   1   2 1087.69  107.19
   4   1   2 1197.98  107.69
   4   1   2 1124.39  106.49
   4   1   2 1138.79  106.19
  -5  -1  -2   -0.10    4.00
  -5  -1  -2    3.60    5.70
  -5  -1  -2   11.20    8.60
  -5  -1  -2    2.20    6.70
  -5  -1  -2    5.80    4.60
  -5  -1  -2   -4.00    5.40
  -5  -1  -2    3.50    4.00
   5   1   2   -0.10    5.30
   5   1   2    7.70    5.30
   5   1   2    9.70    4.50
   5   1   2    5.80    6.80
   5   1   2    6.60    5.30
   5   1   2    5.50    7.10
   5   1   2    8.90    5.40
   5   1   2   16.80    9.60
  -6  -1  -2   76.49   12.60
  -6  -1  -2   76.59   14.20
  -6  -1  -2   67.19   11.70
  -6  -1  -2   98.99   13.40
  -6  -1  -2   75.89   13.30
  -6  -1  -2   58.19   19.30
  -6  -1  -2   58.09   15.70
   6   1   2   81.49   13.00
   6   1   2   70.49   14.00
   6   1   2  121.19   18.70
   6   1   2   97.59   15.70
   6   1   2  118.79   15.50
   6   1   2   82.99   19.50
   6   1   2  124.99   18.90
   7  -2  -2  131.19   20.00
   7  -2  -2  118.39   15.50
   7  -2  -2   90.39   16.40
   7  -2  -2  107.69   15.60
   7  -2  -2   72.39   15.30
   7  -2  -2  123.99   14.40
   7  -2  -2  126.89   20.30
   7  -2  -2   85.59   15.00
  -7   2   2  114.49   14.40
  -7   2   2  121.39   14.70
  -7   2   2   97.59   15.70
  -7   2   2  108.19   16.10
  -7   2   2   95.29   15.20
   6  -2  -2   -6.40    4.80
   6  -2  -2    1.90    5.90
   6  -2  -2   -2.90    6.50
   6  -2  -2   -7.30    4.20
   6  -2  -2   -0.20    4.20
   6  -2  -2   -3.60    3.30
   6  -2  -2   -1.20    6.60
   6  -2  -2   -3.60    4.60
  -6   2   2    2.90    4.50
  -6   2   2    3.90    5.30
  -6   2   2   -0.30    3.90
  -6   2   2    7.20    7.10
  -6   2   2   -0.30    3.40
  -6   2   2   -3.40    4.30
   5  -2  -2  325.57   29.90
   5  -2  -2  333.27   31.80
   5  -2  -2  282.57   29.30
   5  -2  -2  304.67   30.60
   5  -2  -2  300.37   29.60
   5  -2  -2  287.87   29.80
  -5   2   2  308.37   30.20
  -5   2   2  329.07   30.20
  -5   2   2  329.37   30.00
  -5   2   2  313.27   29.30
  -5   2   2  251.87   29.80
   4  -2  -2    1.20    1.70
   4  -2  -2    0.70    3.00
   4  -2  -2   -0.10    2.40
   4  -2  -2    1.40    1.50
   4  -2  -2    1.80    1.80
   4  -2  -2    0.10    2.20
   4  -2  -2    2.90    2.10
  -4   2   2   -2.40    2.30
  -4   2   2    1.90    2.20
  -4   2   2    0.50    2.90
  -4   2   2    0.20    1.80
  -4   2   2    4.70    2.90
  -4   2   2   -0.10    1.30
   3  -2  -2   93.29    9.30
   3  -2  -2   80.39    9.70
   3  -2  -2   93.99   10.10
   3  -2  -2  102.29    9.90
   3  -2  -2  113.29   11.40
   3  -2  -2   79.19    9.30
   3  -2  -2   85.59    9.60
  -3   2   2  100.99   10.10
  -3   2   2  101.99    9.30
  -3   2   2  105.99    9.70
  -3   2   2  107.69   10.00
   2  -2  -2  187.78   16.00
   2  -2  -2  151.98   15.90
   2  -2  -2  168.58   15.70
   2  -2  -2  190.08   15.70
   2  -2  -2  154.48   15.70
   2  -2  -2  166.08   18.50
   2  -2  -2  155.58   15.70
   2  -2  -2  176.48   16.30
  -2   2   2  138.79   18.10
  -2   2   2  182.28   15.90
  -2   2   2  139.49   15.70
  -2   2   2  191.78   15.80
  -2   2   2  189.58   16.50
   1  -2  -2 1587.74  151.58
   1  -2  -2 1663.73  151.48
   1  -2  -2 1655.53  151.58
   1  -2  -2 1765.52  154.48
   1  -2  -2 1418.06  151.78
   1  -2  -2 1645.94  151.68
  -1   2   2 1486.05  151.48
  -1   2   2 1893.41  151.78
  -1   2   2 1756.22  154.48
   0  -2  -2 1450.45  142.49
   0  -2  -2 1572.24  142.29
   0  -2  -2 1620.44  145.29
   0  -2  -2 1587.14  142.49
   0  -2  -2 1522.75  142.59
   0  -2  -2 1592.44  141.79
   0  -2  -2 1462.05  142.19
   0   2   2 1283.27  142.89
   0   2   2 1690.63  145.39
   0   2   2 1500.05  142.59
   0   2   2 1603.34  142.19
   0   2   2 1492.75  142.19
   0   2   2 1520.25  142.49
   0   2   2 1623.34  142.49
   0   2   2 1689.93  142.09
  -1  -2  -2    6.60    4.30
  -1  -2  -2    6.20    2.70
  -1  -2  -2    7.20    2.10
  -1  -2  -2    7.60    2.10
  -1  -2  -2    4.70    3.50
  -1  -2  -2    8.30    2.70
   1   2   2    6.90    1.90
   1   2   2    6.20    2.60
   1   2   2    4.30    1.90
   1   2   2    6.50    2.20
   1   2   2    8.40    2.70
   1   2   2    5.40    3.30
   1   2   2    6.80    1.50
  -2  -2  -2  397.96   40.70
  -2  -2  -2  422.76   40.60
  -2  -2  -2  441.16   40.10
  -2  -2  -2  421.46   42.50
  -2  -2  -2  427.36   40.00
  -2  -2  -2  403.46   40.80
  -2  -2  -2  434.36   39.90
   2   2   2  434.76   40.80
   2   2   2  377.26   41.80
   2   2   2  389.76   40.60
   2   2   2  461.25   40.80
   2   2   2  421.16   39.90
   2   2   2  427.46   39.70
   2   2   2  433.26   40.10
  -3  -2  -2  515.45   50.49
  -3  -2  -2  462.25   51.19
  -3  -2  -2  512.35   51.09
  -3  -2  -2  521.75   51.59
  -3  -2  -2  572.74   53.19
  -3  -2  -2  565.94   50.29
  -3  -2  -2  551.34   50.59
   3   2   2  532.05   50.49
   3   2   2  484.25   51.29
   3   2   2  542.25   51.49
   3   2   2  551.54   50.39
   3   2   2  568.64   50.89
   3   2   2  497.05   53.09
   3   2   2  563.94   51.79
  -4  -2  -2  114.39   17.60
  -4  -2  -2  136.59   17.00
  -4  -2  -2  166.58   16.50
  -4  -2  -2  165.58   16.00
  -4  -2  -2  105.69   19.60
  -4  -2  -2  154.58   16.30
  -4  -2  -2  168.38   18.60
  -4  -2  -2  138.19   17.70
   4   2   2  124.99   20.30
   4   2   2  179.28   18.60
   4   2   2  143.39   17.60
   4   2   2  149.49   18.10
   4   2   2  143.89   16.20
  -5  -2  -2   18.20    8.00
  -5  -2  -2   15.90    5.30
  -5  -2  -2   -1.00    5.00
  -5  -2  -2    7.30    5.40
  -5  -2  -2   18.10    7.20
  -5  -2  -2    1.80    8.30
  -5  -2  -2    5.80    5.50
  -5  -2  -2    9.70   10.60
   5   2   2    6.20    6.20
   5   2   2    9.80    8.20
   5   2   2   11.50    6.10
   5   2   2   15.30    5.20
   5   2   2   20.20    9.90
   5   2   2   13.10    7.40
   5   2   2    6.70   10.30
  -6  -2  -2   10.40   10.30
  -6  -2  -2   19.50   11.10
  -6  -2  -2   17.80    7.80
  -6  -2  -2   19.00    8.20
  -6  -2  -2   13.50    7.80
  -6  -2  -2    6.30   16.60
  -6  -2  -2    9.80   12.60
   6   2   2   -8.70   11.40
   6   2   2   19.80    9.20
   6   2   2   22.30    7.70
   6   2   2    4.50   12.10
   6   2   2   -4.30    9.70
   6   2   2   11.10   16.80
   6   2   2   17.80    9.20
   7  -3  -2   25.40    9.70
   7  -3  -2   -1.20    6.50
   7  -3  -2    6.70    4.90
   7  -3  -2   -1.50    7.80
   7  -3  -2    7.00    6.70
   7  -3  -2   -7.50    6.20
   7  -3  -2   11.90    5.10
   7  -3  -2   13.60    9.00
  -7   3   2    2.50    5.30
  -7   3   2   -1.90    6.90
  -7   3   2    3.10    5.30
  -7   3   2    3.70    4.50
  -7   3   2   -8.60    9.00
   6  -3  -2   44.00    8.80
   6  -3  -2   61.29    9.90
   6  -3  -2   55.29    7.60
   6  -3  -2   48.10    9.70
   6  -3  -2   63.99   10.60
   6  -3  -2   59.69    9.10
   6  -3  -2   40.80    7.40
  -6   3   2   56.69    8.00
  -6   3   2   67.69    9.60
  -6   3   2   45.50    6.80
  -6   3   2   46.90    8.00
  -6   3   2   29.60    8.20
   5  -3  -2  121.59   13.30
   5  -3  -2  128.19   16.50
   5  -3  -2  120.09   14.00
   5  -3  -2  128.19   13.00
   5  -3  -2  123.89   14.50
   5  -3  -2  118.89   13.90
   5  -3  -2  141.49   14.60
  -5   3   2  103.59   13.50
  -5   3   2  144.89   14.20
  -5   3   2  140.89   12.90
  -5   3   2  146.29   14.00
  -5   3   2  133.39   14.30
   4  -3  -2    6.80    2.70
   4  -3  -2   10.50    2.70
   4  -3  -2   13.30    4.40
   4  -3  -2   11.20    2.20
   4  -3  -2    9.10    2.40
   4  -3  -2   11.10    2.80
   4  -3  -2   10.50    1.90
   4  -3  -2   12.00    2.00
  -4   3   2    7.50    2.10
  -4   3   2   11.90    1.80
  -4   3   2   11.50    2.10
  -4   3   2    6.20    2.50
  -4   3   2   12.70    3.60
   3  -3  -2   94.49   12.00
   3  -3  -2   92.59    7.60
   3  -3  -2   68.89    7.60
   3  -3  -2   87.89    8.60
   3  -3  -2   77.89    7.80
  -3   3   2   97.39    9.20
  -3   3   2   71.49    7.50
   2  -3  -2  137.79   13.10
   2  -3  -2  123.89   17.30
   2  -3  -2  159.48   13.30
   2  -3  -2  127.19   13.20
  -2   3   2  157.48   14.30
   1  -3  -2   29.70    3.70
   1  -3  -2   22.50    7.30
   1  -3  -2   25.30    4.50
   1  -3  -2   33.50    3.40
   1  -3  -2   34.20    4.00
  -1   3   2   31.50    3.80
  -1   3   2   26.60    3.50
  -1   3   2   28.20    4.30
  -1   3   2   30.40    4.20
  -1   3   2   33.50    3.70
   0  -3  -2   99.09   10.70
   0  -3  -2  101.09   10.80
   0  -3  -2   75.59   11.60
   0  -3  -2   97.39   10.60
   0  -3  -2   97.79   10.10
   0  -3  -2  101.99   10.20
   0  -3  -2  121.09   15.50
   0   3   2   97.09   10.60
   0   3   2  117.09   10.50
   0   3   2   97.49   10.60
   0   3   2   99.39   10.00
   0   3   2   84.79   11.50
   0   3   2  111.09   10.10
  -1  -3  -2  481.85   44.10
  -1  -3  -2  482.65   48.10
  -1  -3  -2  495.55   44.00
  -1  -3  -2  475.65   44.80
  -1  -3  -2  381.76   45.50
  -1  -3  -2  487.55   44.60
  -1  -3  -2  466.65   44.00
  -1  -3  -2  451.75   44.70
   1   3   2  491.35   43.30
   1   3   2  493.05   44.70
   1   3   2  516.45   44.60
   1   3   2  482.45   44.00
   1   3   2  422.36   44.40
   1   3   2  413.86   45.50
   1   3   2  449.95   43.80
  -2  -3  -2   33.90    6.60
  -2  -3  -2   38.10    6.60
  -2  -3  -2   35.10    5.80
  -2  -3  -2   33.00    5.50
  -2  -3  -2   51.79   11.10
  -2  -3  -2   38.30    5.50
  -2  -3  -2   24.30    7.50
  -2  -3  -2   39.10    6.90
   2   3   2   42.70    7.20
   2   3   2   38.20    5.80
   2   3   2   31.20    6.20
   2   3   2   36.90    6.10
   2   3   2   37.80    4.90
   2   3   2   44.70    5.60
   2   3   2   40.90    8.50
  -3  -3  -2  937.71   87.99
  -3  -3  -2  987.00   87.79
  -3  -3  -2  950.40   89.39
  -3  -3  -2  953.00   88.79
  -3  -3  -2  961.30   87.99
  -3  -3  -2  866.31   90.99
  -3  -3  -2  868.01   88.89
   3   3   2  866.61   88.89
   3   3   2  984.50   88.99
   3   3   2  912.71   91.09
   3   3   2  891.31   88.19
   3   3   2  961.50   87.49
   3   3   2  946.31   88.19
   3   3   2 1045.20   89.39
  -4  -3  -2  468.15   49.00
  -4  -3  -2  504.85   51.59
  -4  -3  -2  502.55   48.20
  -4  -3  -2  494.45   48.10
  -4  -3  -2  429.36   49.40
  -4  -3  -2  559.94   48.00
   4   3   2  488.95   52.49
   4   3   2  504.95   48.10
   4   3   2  488.55   48.50
   4   3   2  511.25   49.80
   4   3   2  453.35   49.40
   4   3   2  532.15   48.00
  -5  -3  -2   88.19   15.90
  -5  -3  -2   77.29   13.10
  -5  -3  -2   55.79   10.40
  -5  -3  -2   47.80   16.00
  -5  -3  -2   63.59   13.10
  -5  -3  -2   58.49   10.50
  -5  -3  -2   38.70   12.50
  -5  -3  -2   76.19   11.00
   5   3   2   74.19   11.30
   5   3   2   61.99   16.70
   5   3   2   64.79   11.90
   5   3   2   80.79   14.00
   5   3   2   65.89   13.10
   5   3   2   69.99   10.90
   5   3   2   46.70   12.40
   7  -4  -2   18.70    9.90
   7  -4  -2   24.40    7.30
   7  -4  -2   15.70    4.40
   7  -4  -2    3.20    9.50
   7  -4  -2   21.20    6.40
   7  -4  -2   19.00    7.60
   7  -4  -2   20.50    6.70
   7  -4  -2   26.50    4.60
  -7   4   2   22.50    4.50
  -7   4   2   20.20    4.00
  -7   4   2   13.30    6.60
  -7   4   2   15.50    5.30
   6  -4  -2  122.79   16.60
   6  -4  -2  118.89   12.70
   6  -4  -2  128.79   14.00
   6  -4  -2  136.49   15.90
   6  -4  -2  117.19   14.70
   6  -4  -2  140.59   13.90
   6  -4  -2  122.39   12.70
   6  -4  -2  108.59   13.80
  -6   4   2  120.99   14.80
  -6   4   2  137.39   12.40
   5  -4  -2   16.60    2.60
   5  -4  -2   19.40    3.70
   5  -4  -2   18.10    2.50
   5  -4  -2   13.40    3.30
   5  -4  -2   24.30    4.70
   5  -4  -2   22.20    4.60
   5  -4  -2   27.10    6.00
   5  -4  -2   13.70    3.10
   5  -4  -2    8.60    5.90
  -5   4   2   16.10    2.20
  -5   4   2   18.10    2.00
  -5   4   2   21.00    5.20
   4  -4  -2    2.00    1.10
   4  -4  -2    1.00    0.50
   4  -4  -2   -2.50    4.50
   4  -4  -2   -0.40    1.50
   4  -4  -2    4.80    2.20
   4  -4  -2   -1.10    2.90
  -4   4   2    5.80    3.10
   3  -4  -2  110.99   11.30
   3  -4  -2  114.49   16.80
   3  -4  -2  101.79   11.60
  -3   4   2  118.89   12.10
   2  -4  -2 1324.47  136.09
   2  -4  -2 1438.76  136.29
   2  -4  -2 1577.64  141.79
   2  -4  -2 1374.86  135.99
   2  -4  -2 1361.26  135.79
   2  -4  -2 1417.76  135.79
   2  -4  -2 1609.74  135.79
   2  -4  -2 1559.14  135.79
  -2   4   2 1419.16  135.69
  -2   4   2 1700.33  135.69
  -2   4   2 1519.65  136.99
   1  -4  -2  967.50   88.49
   1  -4  -2  947.61   88.19
   1  -4  -2  988.00   88.69
   1  -4  -2  926.41   88.69
   1  -4  -2 1077.39   94.39
   1  -4  -2  956.40   87.69
   1  -4  -2  962.80   88.19
  -1   4   2  938.61   88.39
  -1   4   2  939.21   88.09
  -1   4   2  964.90   88.49
  -1   4   2  842.82   88.89
  -1   4   2  982.80   88.79
   0  -4  -2   88.09    9.30
   0  -4  -2   90.59    9.50
   0  -4  -2  110.19   16.00
   0  -4  -2   68.99   10.90
   0  -4  -2   92.39   10.00
   0  -4  -2   93.59   10.20
   0  -4  -2   88.19   10.10
   0   4   2   85.89   11.10
   0   4   2   91.89    9.20
   0   4   2   90.29   10.00
   0   4   2   89.99   10.00
   0   4   2   80.79    9.20
   0   4   2   96.79    9.50
  -1  -4  -2   13.20    3.90
  -1  -4  -2    7.90    3.40
  -1  -4  -2   16.30    3.30
  -1  -4  -2   17.00    3.60
  -1  -4  -2    8.10    4.80
  -1  -4  -2    9.00    6.90
  -1  -4  -2   17.30    3.30
  -1  -4  -2    9.40    3.30
   1   4   2   10.70    3.60
   1   4   2    3.70    4.40
   1   4   2    9.20    3.70
   1   4   2   12.30    3.70
   1   4   2   15.10    3.10
   1   4   2   12.50    3.10
   1   4   2   12.60    2.00
  -2  -4  -2   16.30    5.30
  -2  -4  -2   15.00    6.70
  -2  -4  -2   17.70    4.20
  -2  -4  -2   13.50    8.00
  -2  -4  -2   15.00    4.90
  -2  -4  -2   20.10    4.10
  -2  -4  -2   22.10    5.60
  -2  -4  -2   18.10    4.30
   2   4   2   21.50    5.20
   2   4   2   20.20    6.90
   2   4   2   23.40    5.50
   2   4   2   16.70    4.40
   2   4   2   15.00    4.80
   2   4   2   17.90    4.00
   2   4   2   16.10    3.20
  -3  -4  -2  146.99   24.10
  -3  -4  -2  178.18   21.10
  -3  -4  -2  193.98   19.70
  -3  -4  -2  151.28   21.00
  -3  -4  -2  205.98   19.40
  -3  -4  -2  199.08   19.90
   3   4   2  147.99   26.30
   3   4   2  201.38   21.10
   3   4   2  174.28   20.80
   3   4   2  183.08   21.00
   3   4   2  175.08   23.80
   3   4   2  187.48   19.50
   3   4   2  198.88   18.80
  -4  -4  -2   69.69    9.20
  -4  -4  -2   62.19   14.30
  -4  -4  -2   47.00    9.10
  -4  -4  -2   53.59   14.10
  -4  -4  -2   39.80   10.40
  -4  -4  -2   56.39   11.80
  -4  -4  -2   55.29   11.50
  -4  -4  -2   56.39    9.30
   4   4   2   33.90   10.40
   4   4   2   57.69   10.20
   4   4   2   45.90   14.20
   4   4   2   44.40    8.50
   4   4   2   50.69   11.10
   4   4   2   50.49    8.30
   4   4   2   61.09   11.60
  -5  -4  -2   -3.40    6.80
  -5  -4  -2    2.80   11.80
  -5  -4  -2   -0.40   10.80
  -5  -4  -2   -0.90    9.80
  -5  -4  -2    8.80   13.10
  -5  -4  -2   10.60    6.80
  -5  -4  -2   -3.90   16.20
  -5  -4  -2    8.50    6.90
   5   4   2    1.80    7.20
   5   4   2    4.50    6.70
   5   4   2   -7.70    9.40
   5   4   2    8.20   14.90
   5   4   2   12.60    7.80
   5   4   2  -11.70   10.00
   7  -5  -2   21.70    9.50
   7  -5  -2   12.50    7.00
   7  -5  -2   10.80    6.40
   7  -5  -2   22.30   10.30
   7  -5  -2   14.40    2.60
   7  -5  -2   13.00    2.60
  -7   5   2    5.00    5.50
   6  -5  -2  180.78   18.80
   6  -5  -2  186.88   21.50
   6  -5  -2  213.68   20.30
   6  -5  -2  180.78   19.80
  -6   5   2  166.28   20.20
   5  -5  -2   47.60    9.40
   5  -5  -2   51.99    7.40
   5  -5  -2   59.79   12.60
   5  -5  -2   43.10    5.60
   5  -5  -2   50.29    6.70
  -5   5   2   37.20    7.80
   4  -5  -2  113.89   11.80
   4  -5  -2  116.59   12.50
   4  -5  -2  108.99   17.90
  -4   5   2  103.89   12.60
   3  -5  -2   12.60    2.70
   3  -5  -2   20.20    8.70
   3  -5  -2    9.30    2.70
  -3   5   2   13.50    3.90
   2  -5  -2  334.07   31.90
   2  -5  -2  329.17   31.80
   2  -5  -2  326.27   31.70
   2  -5  -2  337.97   31.50
   2  -5  -2  365.36   39.40
   2  -5  -2  322.37   31.60
   2  -5  -2  331.17   31.70
  -2   5   2  343.87   31.50
  -2   5   2  368.26   31.40
  -2   5   2  351.26   31.60
  -2   5   2  329.47   32.80
   1  -5  -2  124.99   12.70
   1  -5  -2  129.49   13.00
   1  -5  -2  123.49   12.10
   1  -5  -2  123.69   12.60
   1  -5  -2  122.89   20.10
   1  -5  -2  132.79   12.10
  -1   5   2  120.59   12.40
  -1   5   2  108.29   13.10
  -1   5   2  115.39   11.90
  -1   5   2  123.69   12.80
  -1   5   2   99.89   12.20
   0  -5  -2  174.28   16.60
   0  -5  -2  164.58   17.10
   0  -5  -2  159.68   17.50
   0  -5  -2  155.38   17.30
   0  -5  -2  181.58   23.30
   0  -5  -2  170.68   16.50
   0  -5  -2  139.49   18.70
   0   5   2  171.48   16.30
   0   5   2  168.68   17.10
   0   5   2  158.88   17.30
   0   5   2  181.38   16.60
   0   5   2  153.68   16.30
   0   5   2  154.68   18.50
  -1  -5  -2   73.19    9.70
  -1  -5  -2   69.59    8.70
  -1  -5  -2   73.89    9.90
  -1  -5  -2   74.29    8.90
  -1  -5  -2   78.79   10.20
  -1  -5  -2   73.79    8.60
  -1  -5  -2   72.19   15.70
  -1  -5  -2   49.80   11.20
   1   5   2   75.89    9.70
   1   5   2   69.39    9.40
   1   5   2   69.89    6.90
   1   5   2   60.89   11.30
   1   5   2   63.69    9.40
   1   5   2   71.29    8.40
   1   5   2   66.29    8.50
  -2  -5  -2  853.51   86.69
  -2  -5  -2  935.01   85.59
  -2  -5  -2  901.31   91.79
  -2  -5  -2  923.61   87.09
  -2  -5  -2  875.41   86.39
  -2  -5  -2  989.80   85.59
   2   5   2  950.40   84.39
   2   5   2  979.00   86.39
   2   5   2  872.11   85.29
   2   5   2  885.21   88.49
   2   5   2  823.52   86.39
   2   5   2  921.31   85.59
  -3  -5  -2  328.17   33.30
  -3  -5  -2  300.77   35.00
  -3  -5  -2  333.77   33.30
  -3  -5  -2  270.67   39.30
  -3  -5  -2  371.16   33.30
  -3  -5  -2  357.06   35.30
  -3  -5  -2  291.57   34.50
   3   5   2  328.57   33.50
   3   5   2  304.77   34.70
   3   5   2  337.47   32.20
   3   5   2  307.97   38.30
   3   5   2  386.46   35.30
   3   5   2  373.06   35.40
  -4  -5  -2   74.89   11.80
  -4  -5  -2   82.09   13.30
  -4  -5  -2   76.49   14.20
  -4  -5  -2   76.09   19.40
  -4  -5  -2   97.29   13.20
  -4  -5  -2   75.49   14.60
  -4  -5  -2   59.39   13.90
   4   5   2   68.69   14.00
   4   5   2  106.09   14.50
   4   5   2   80.19   15.60
   4   5   2   64.49   11.70
   4   5   2   81.19   17.80
   4   5   2   92.49   12.10
   4   5   2   79.89   15.10
  -5  -5  -2    4.30   19.30
  -5  -5  -2   28.70   14.30
  -5  -5  -2   24.30   13.60
  -5  -5  -2   39.90   10.40
  -5  -5  -2   44.80   22.70
  -5  -5  -2   30.80   12.80
   5   5   2   19.30   13.40
   5   5   2    6.40   11.00
   5   5   2   12.60    8.90
   5   5   2   22.30    9.20
   5   5   2    8.50   13.10
   5   5   2   24.60   18.50
   6  -6  -2   36.50    6.30
   6  -6  -2   31.50    9.30
   6  -6  -2   37.80    6.60
   6  -6  -2   29.20    6.60
   6  -6  -2   36.60    8.50
   5  -6  -2    1.50    9.80
   5  -6  -2    3.20    2.40
   5  -6  -2    4.20    5.80
   5  -6  -2    2.90    3.50
   5  -6  -2    4.40    1.80
  -5   6   2    9.60    4.50
   4  -6  -2   -3.90    3.10
   4  -6  -2   -0.80    9.00
   4  -6  -2    0.30    2.50
  -4   6   2   -0.60    3.30
   3  -6  -2  147.29   14.10
   3  -6  -2  134.49   13.10
   3  -6  -2  131.59   13.20
   3  -6  -2  147.89   14.00
   3  -6  -2  135.79   23.70
  -3   6   2  132.89   15.20
   2  -6  -2  149.19   15.10
   2  -6  -2  145.09   15.10
   2  -6  -2  151.88   24.70
   2  -6  -2  152.18   14.60
   2  -6  -2  142.79   15.20
   2  -6  -2  151.58   14.40
   2  -6  -2  140.59   14.80
  -2   6   2  157.78   14.90
  -2   6   2  152.28   16.20
  -2   6   2  162.58   14.70
  -2   6   2  149.09   14.40
  -2   6   2  160.18   14.60
   1  -6  -2  443.66   41.50
   1  -6  -2  449.36   40.60
   1  -6  -2  475.35   41.60
   1  -6  -2  433.26   41.20
   1  -6  -2  428.06   40.70
   1  -6  -2  350.46   42.30
   1  -6  -2  453.55   49.99
  -1   6   2  436.96   40.90
  -1   6   2  426.36   41.80
  -1   6   2  415.96   40.90
  -1   6   2  417.86   40.40
   0  -6  -2  220.78   22.50
   0  -6  -2  230.98   22.50
   0  -6  -2  216.28   23.70
   0  -6  -2  220.28   23.60
   0  -6  -2  247.78   32.50
   0  -6  -2  225.78   23.40
   0   6   2  224.48   22.00
   0   6   2  242.28   22.30
   0   6   2  205.48   23.20
   0   6   2  222.18   22.40
   0   6   2  253.47   23.40
   0   6   2  219.18   24.70
  -1  -6  -2   58.49    8.70
  -1  -6  -2   60.19   16.90
  -1  -6  -2   59.89    9.90
  -1  -6  -2   57.59   10.30
  -1  -6  -2   68.49    8.90
  -1  -6  -2   61.19   10.80
  -1  -6  -2   56.69   12.80
  -1  -6  -2   74.49    8.70
   1   6   2   66.79    9.70
   1   6   2   58.09    8.30
   1   6   2   68.99   12.00
   1   6   2   59.09    9.80
   1   6   2   76.49    8.70
   1   6   2   71.69   14.30
  -2  -6  -2   15.10    4.80
  -2  -6  -2   13.90    6.30
  -2  -6  -2    6.00    6.90
  -2  -6  -2    1.60   13.80
  -2  -6  -2   13.90    4.90
  -2  -6  -2   19.60    5.30
  -2  -6  -2   14.90    6.50
   2   6   2   18.60    6.40
   2   6   2    6.00    5.40
   2   6   2    8.80    4.40
   2   6   2   13.10    2.70
   2   6   2   19.60    8.60
   2   6   2    8.70    5.60
   2   6   2   14.70    6.90
  -3  -6  -2  146.19   20.90
  -3  -6  -2  166.18   19.40
  -3  -6  -2  195.38   19.10
  -3  -6  -2  118.99   25.70
  -3  -6  -2  181.48   22.10
  -3  -6  -2  162.78   21.80
  -3  -6  -2  130.09   29.70
   3   6   2  198.58   22.30
   3   6   2  143.89   21.40
   3   6   2  157.68   19.30
   3   6   2  176.88   20.00
   3   6   2  164.88   17.30
   3   6   2  190.48   26.20
   3   6   2  184.28   21.90
  -4  -6  -2   34.10   12.90
  -4  -6  -2   35.50   11.60
  -4  -6  -2   31.40   11.90
  -4  -6  -2   35.80    9.70
  -4  -6  -2   34.10    9.30
  -4  -6  -2   46.70   18.80
  -4  -6  -2   40.40    9.00
  -4  -6  -2   28.40   21.50
   4   6   2   37.10    9.00
   4   6   2   17.10   11.80
   4   6   2   29.40   16.20
   4   6   2   29.30    7.90
   4   6   2   35.90   10.60
   4   6   2   22.60   12.70
   4   6   2   29.40   12.50
   6  -7  -2  145.09   13.70
   6  -7  -2  117.69   24.80
   6  -7  -2  133.59   14.30
   6  -7  -2  134.49   15.90
   6  -7  -2  148.39   18.40
  -6   7   2  110.09   16.40
   5  -7  -2  273.27   36.30
   5  -7  -2  239.58   26.20
   5  -7  -2  244.98   24.10
  -5   7   2  216.48   25.20
   4  -7  -2   52.59    7.70
   4  -7  -2   57.09   19.10
   4  -7  -2   61.49    6.10
   4  -7  -2   69.29    8.30
   4  -7  -2   60.79    5.90
  -4   7   2   45.70    9.30
   3  -7  -2   28.10    4.80
   3  -7  -2   22.80    4.00
   3  -7  -2   48.50   16.20
   3  -7  -2   32.30    4.40
  -3   7   2   27.80    6.60
   2  -7  -2  369.66   35.40
   2  -7  -2  352.76   35.70
   2  -7  -2  391.76   35.00
   2  -7  -2  403.06   47.70
   2  -7  -2  388.46   35.70
   2  -7  -2  347.87   35.80
  -2   7   2  394.46   35.10
  -2   7   2  379.46   35.20
  -2   7   2  363.46   34.80
  -2   7   2  391.46   35.50
  -2   7   2  317.07   36.40
   1  -7  -2   55.79    6.80
   1  -7  -2   52.09    7.50
   1  -7  -2   43.70    9.80
   1  -7  -2   63.19    8.80
   1  -7  -2   53.29    8.70
   1  -7  -2   64.19   17.90
   1  -7  -2   61.79    8.50
  -1   7   2   51.09    6.90
  -1   7   2   52.69    7.70
  -1   7   2   48.90    7.90
  -1   7   2   51.49    9.30
   0  -7  -2  181.58   18.20
   0  -7  -2  183.38   18.10
   0  -7  -2  193.58   28.50
   0  -7  -2  185.78   18.40
   0  -7  -2  175.08   19.40
   0  -7  -2  170.68   21.50
   0  -7  -2  133.49   21.50
   0  -7  -2  174.88   19.50
   0   7   2  163.48   17.90
   0   7   2  170.78   17.30
   0   7   2  182.48   21.40
   0   7   2  180.98   18.90
   0   7   2  154.78   20.00
  -1  -7  -2  130.79   16.80
  -1  -7  -2  149.19   15.40
  -1  -7  -2  137.19   28.10
  -1  -7  -2  134.79   17.90
  -1  -7  -2   93.79   19.50
  -1  -7  -2  114.99   15.20
  -1  -7  -2  143.59   17.70
  -1  -7  -2  147.19   15.40
   1   7   2  119.79   16.50
   1   7   2  138.29   15.40
   1   7   2  132.89   15.20
   1   7   2  121.29   16.70
   1   7   2  173.48   16.40
   1   7   2  135.79   19.50
  -2  -7  -2  227.68   30.40
  -2  -7  -2  256.67   40.20
  -2  -7  -2  285.47   30.70
  -2  -7  -2  262.07   28.80
  -2  -7  -2  295.67   28.30
  -2  -7  -2  305.87   30.90
   2   7   2  276.27   30.60
   2   7   2  273.07   28.60
   2   7   2  271.97   28.50
   2   7   2  330.17   30.40
   2   7   2  274.57   25.90
   2   7   2  246.78   30.20
   2   7   2  258.07   33.30
  -3  -7  -2   66.09   23.90
  -3  -7  -2   56.49   11.20
  -3  -7  -2   51.79   13.00
  -3  -7  -2   68.09   14.70
  -3  -7  -2   75.09   11.60
  -3  -7  -2   39.70   17.90
  -3  -7  -2   59.39   10.60
  -3  -7  -2   70.99   13.90
   3   7   2   69.19    8.90
   3   7   2   66.99   19.20
   3   7   2   55.49   14.20
   3   7   2   64.89   13.90
   3   7   2   59.49   11.00
   3   7   2   61.79   12.20
   3   7   2   60.89   13.10
   5  -8  -2   48.00    7.40
   5  -8  -2   34.30   21.20
   5  -8  -2   46.50    8.00
  -5   8   2   35.00   13.40
   4  -8  -2  295.97   26.80
   4  -8  -2  285.47   27.30
   4  -8  -2  281.37   26.40
   4  -8  -2  265.27   27.40
   4  -8  -2  311.17   43.50
  -4   8   2  250.97   29.20
   3  -8  -2    2.60    1.20
   3  -8  -2   15.40   16.60
   3  -8  -2    1.70    2.00
   3  -8  -2    4.20    1.80
   3  -8  -2   -2.60    2.50
   3  -8  -2    0.10    3.60
  -3   8   2    5.00    4.70
   2  -8  -2    0.10    3.80
   2  -8  -2    6.60   15.60
   2  -8  -2    2.00    3.00
   2  -8  -2   -3.40    5.70
   2  -8  -2    0.60    3.20
   2  -8  -2    0.10    4.00
  -2   8   2    0.60    2.60
  -2   8   2    0.80    2.50
  -2   8   2    1.10    3.20
  -2   8   2    1.30    2.00
   1  -8  -2   14.40    5.10
   1  -8  -2   27.70   16.70
   1  -8  -2    5.40    6.20
   1  -8  -2   -1.60    7.40
   1  -8  -2   11.80    4.50
   1  -8  -2   11.50    3.60
   1  -8  -2   13.50    5.70
  -1   8   2   14.80    4.80
  -1   8   2    6.60    4.00
  -1   8   2   17.00    5.90
  -1   8   2   14.10    3.80
   0  -8  -2    9.40    4.20
   0  -8  -2  -11.20   13.60
   0  -8  -2   16.10    9.00
   0  -8  -2   11.90    7.20
   0  -8  -2    9.70    5.00
   0  -8  -2   11.30    9.20
   0  -8  -2   11.20    6.00
   0  -8  -2   10.20    4.90
   0   8   2   18.60    7.80
   0   8   2    4.50    3.00
   0   8   2    9.30    4.00
   0   8   2   17.20    6.40
   0   8   2    9.70    3.50
  -1  -8  -2  151.88   18.10
  -1  -8  -2  117.99   14.20
  -1  -8  -2  101.99   16.20
  -1  -8  -2  113.29   15.00
  -1  -8  -2   85.39   18.60
  -1  -8  -2  119.79   17.70
  -1  -8  -2  111.89   27.00
  -1  -8  -2  119.59   14.50
   1   8   2  110.49   14.30
   1   8   2  105.79   16.90
   1   8   2  104.89   14.10
   1   8   2  117.39   23.40
   1   8   2  134.89   15.40
  -2  -8  -2   55.99   13.00
  -2  -8  -2   41.80   17.50
  -2  -8  -2   75.39   13.60
  -2  -8  -2   33.80   22.70
  -2  -8  -2   79.29   11.50
  -2  -8  -2   47.00   12.60
  -2  -8  -2   66.29   10.60
  -2  -8  -2   70.09   11.30
   2   8   2   66.59   12.30
   2   8   2   47.70   15.30
   2   8   2   46.80   11.40
   2   8   2   47.20   10.60
   2   8   2   55.49   10.80
   2   8   2   53.39   13.10
  -3  -8  -2   16.20   13.30
  -3  -8  -2   44.80   27.20
  -3  -8  -2    5.40    9.00
  -3  -8  -2  -16.60   18.80
  -3  -8  -2   22.00   14.30
   3   8   2   -4.50   12.10
   3   8   2   -2.30    9.90
   3   8   2   -4.50    9.30
   3   8   2   -7.20   17.10
   3   8   2   -9.70   13.20
   5  -9  -2   20.30    5.80
   5  -9  -2   28.10    3.80
   5  -9  -2   18.40   24.20
   5  -9  -2   26.30    6.30
   5  -9  -2   23.80    4.60
  -5   9   2   23.80    8.00
   4  -9  -2   41.90    6.40
   4  -9  -2   42.60    7.00
   4  -9  -2   44.90    7.10
   4  -9  -2   44.60    6.80
   4  -9  -2   21.00   23.70
  -4   9   2   40.50   10.00
   3  -9  -2  119.89   14.70
   3  -9  -2  107.49   12.50
   3  -9  -2  126.69   13.30
   3  -9  -2  132.49   31.80
   3  -9  -2  135.29   12.00
  -3   9   2   87.79   14.70
   2  -9  -2   99.69   26.00
   2  -9  -2   69.59   10.60
   2  -9  -2   50.29    9.90
   2  -9  -2   56.69    8.70
   2  -9  -2   58.09    9.60
   2  -9  -2   50.79   10.90
  -2   9   2   63.49    7.50
  -2   9   2   67.29    8.50
  -2   9   2   61.09    8.70
  -2   9   2   61.49    9.10
   1  -9  -2   50.79    8.80
   1  -9  -2   44.20    9.40
   1  -9  -2   86.49   25.30
   1  -9  -2   46.90    8.30
   1  -9  -2   39.50   11.60
   1  -9  -2   46.30    9.80
   1  -9  -2   53.49    8.30
  -1   9   2   33.60    6.90
  -1   9   2   54.89    9.70
  -1   9   2   61.59    9.90
  -1   9   2   54.79   10.40
   0  -9  -2   90.29   13.60
   0  -9  -2   88.39   15.80
   0  -9  -2   91.99   13.20
   0  -9  -2  118.49   29.10
   0  -9  -2  111.89   13.30
   0  -9  -2   96.09   16.00
   0  -9  -2  104.09   17.10
   0  -9  -2   82.09   17.90
   0   9   2   86.29   12.80
   0   9   2   88.79   10.50
   0   9   2   88.99   10.40
   0   9   2   94.79   16.60
   0   9   2   83.59   14.50
  -1  -9  -2   48.00   16.90
  -1  -9  -2   65.59   10.10
  -1  -9  -2   54.69   12.40
  -1  -9  -2   49.30    9.70
  -1  -9  -2   65.89   13.00
  -1  -9  -2   49.80   13.30
  -1  -9  -2   50.89   10.80
  -1  -9  -2   46.60   25.80
   1   9   2   54.19   11.90
   1   9   2   52.69    9.20
   1   9   2   56.69   10.40
   1   9   2   35.40   15.00
   1   9   2   43.70   11.30
   1   9   2   42.40   11.30
   3 -10  -2   30.70    5.80
   3 -10  -2   40.80   27.30
   3 -10  -2   31.50    6.70
   3 -10  -2   16.10    8.20
   2 -10  -2  -20.30   26.10
   2 -10  -2  -12.10    6.00
   2 -10  -2    4.10    5.90
   2 -10  -2   -5.00    5.40
   2 -10  -2   -5.20    9.20
  -2  10   2   -5.50    3.30
  -2  10   2   -0.80    5.00
  -2  10   2    1.60    4.10
  -2  10   2   -9.00    4.30
   1 -10  -2   12.90    8.30
   1 -10  -2    2.00    5.00
   1 -10  -2    7.60    6.50
   1 -10  -2   13.00   26.70
   1 -10  -2   -2.40    6.70
   1 -10  -2  -15.20    8.50
   1 -10  -2   -3.80   11.70
   1 -10  -2    4.40    7.30
  -1  10   2   -2.00    8.50
  -1  10   2   12.80    6.90
  -1  10   2   12.50    6.90
  -1  10   2    4.30    5.40
   0 -10  -2   51.49   10.10
   0 -10  -2   64.39   11.30
   0 -10  -2   24.30   16.20
   0 -10  -2   87.49   15.20
   0 -10  -2   48.00   32.60
   0 -10  -2   57.59   10.40
   0 -10  -2   52.19   13.10
   0 -10  -2   32.40   12.80
   0  10   2   62.79   13.80
   0  10   2   73.99   12.70
   0  10   2   42.40   10.20
   1  10  -3    9.80   12.60
  -1 -10   3   24.50   10.50
  -1 -10   3   15.10    9.60
  -1 -10   3   17.10   14.40
  -1 -10   3   19.80    6.50
  -1 -10   3   22.40    8.90
  -1 -10   3   19.20   10.20
  -1 -10   3   20.90   11.20
   0  10  -3  317.47   33.60
   0  10  -3  389.26   38.00
   0  10  -3  371.16   36.20
   0 -10   3  413.06   35.60
   0 -10   3  293.07   37.00
   0 -10   3  337.67   34.90
   0 -10   3  410.86   37.90
   0 -10   3  292.87   36.80
   0 -10   3  345.97   35.80
  -1  10  -3   23.70    6.40
  -1  10  -3   22.90    7.60
   1 -10   3   23.70   10.30
   1 -10   3   28.50    7.60
   1 -10   3    8.30    6.10
   1 -10   3   11.30    7.10
   1 -10   3   20.60    4.30
   1 -10   3   19.90    7.50
   1 -10   3   16.80    5.30
  -2  10  -3   45.50    7.60
  -2  10  -3   38.70    7.10
   2 -10   3   43.60    7.20
   2 -10   3   39.30    5.60
   2 -10   3   33.10    5.90
   2 -10   3   26.00    9.70
   2 -10   3   26.50    7.70
   2 -10   3   39.70    8.10
  -3  10  -3   35.90    4.80
  -3  10  -3   34.10    9.40
   3 -10   3   50.39    7.70
   3 -10   3   30.20    8.20
   3 -10   3   32.70    6.90
   3 -10   3   38.80    6.60
   3 -10   3   24.40    5.00
   3 -10   3   20.10    6.00
   3 -10   3   21.20    5.90
   4 -10   3    1.40    5.40
   2   9  -3    4.30    7.70
   2   9  -3   -6.40    7.90
   2   9  -3   -1.60   12.10
   2   9  -3    0.60    4.00
   2   9  -3    4.00    9.20
  -2  -9   3  -10.80    8.90
  -2  -9   3    1.10    7.10
  -2  -9   3   -9.70    9.20
  -2  -9   3   -1.50    5.50
  -2  -9   3   -4.00    9.10
  -2  -9   3   15.10   14.40
  -2  -9   3   12.40    7.20
   1   9  -3  -12.00    5.30
   1   9  -3    6.70    5.80
   1   9  -3    1.40    6.50
   1   9  -3   11.20    6.40
   1   9  -3   -3.90    8.40
   1   9  -3   -2.20    8.70
   1   9  -3   -3.80    2.40
  -1  -9   3    0.10    7.00
  -1  -9   3    6.30   10.20
  -1  -9   3    3.90    7.40
  -1  -9   3  -11.80    8.90
  -1  -9   3    9.60    7.30
  -1  -9   3   -1.30    4.20
  -1  -9   3    5.80    5.30
   0   9  -3    3.50    2.30
   0   9  -3   -9.70   10.70
   0   9  -3    4.80    7.70
   0   9  -3    0.80    3.50
   0   9  -3    1.80    4.80
   0   9  -3   -1.30    5.10
   0   9  -3    0.90    3.30
   0  -9   3   -2.70    4.10
   0  -9   3   -5.20    4.50
   0  -9   3   -5.50    5.00
   0  -9   3   -2.10    6.40
   0  -9   3   -1.00    3.30
   0  -9   3   10.50    8.40
   0  -9   3   -5.00    5.20
  -1   9  -3    0.80    3.80
  -1   9  -3   11.90    5.50
  -1   9  -3   -4.40    4.50
  -1   9  -3    3.00    3.80
  -1   9  -3    3.30    2.70
   1  -9   3   -3.10    5.10
   1  -9   3    2.30    6.60
   1  -9   3    3.00    2.60
   1  -9   3    3.80    5.50
   1  -9   3    0.70    4.50
   1  -9   3   -7.50    3.10
  -2   9  -3   -1.80    2.80
  -2   9  -3    5.50    3.80
  -2   9  -3    0.30    3.60
   2  -9   3   -2.70    2.70
   2  -9   3    1.60    4.10
   2  -9   3   -3.30    3.40
   2  -9   3   -0.10    5.90
   2  -9   3   -3.20    1.90
   2  -9   3   -1.90    4.40
   2  -9   3    4.80    4.40
  -3   9  -3    6.60    5.70
  -3   9  -3    1.70    2.00
  -3   9  -3    5.10    1.90
   3  -9   3   -0.40    4.10
   3  -9   3    1.20    3.70
   3  -9   3   -3.50    3.60
   3  -9   3    4.80    3.30
   3  -9   3    8.90    5.30
   3  -9   3    1.50    3.20
   3  -9   3   -0.80    4.10
  -4   9  -3    1.90    6.60
   4  -9   3    0.10    3.70
   4  -9   3    1.50    5.40
   5  -9   3   17.90    5.00
   5  -9   3    7.90    4.50
   5  -9   3   36.60   23.40
   3   8  -3   26.20    8.80
   3   8  -3   18.60   14.20
   3   8  -3    9.10    9.20
   3   8  -3   29.30    9.70
   3   8  -3   13.40    6.80
  -3  -8   3   29.60    8.50
  -3  -8   3   -1.60   14.70
  -3  -8   3   11.00   10.10
  -3  -8   3    2.90    7.40
  -3  -8   3   23.80   10.80
  -3  -8   3    9.10   10.20
  -3  -8   3    9.90    6.60
   2   8  -3   21.60   10.20
   2   8  -3   19.60    4.80
   2   8  -3   17.70    6.60
   2   8  -3   26.30    7.50
   2   8  -3   17.50    7.30
   2   8  -3   18.50    8.00
   2   8  -3    6.50    8.00
  -2  -8   3   22.70   11.60
  -2  -8   3   16.90    6.10
  -2  -8   3   23.50    8.30
  -2  -8   3   16.70    8.20
  -2  -8   3   21.10    8.40
  -2  -8   3   12.70    5.10
   1   8  -3  209.78   22.00
   1   8  -3  221.88   24.40
   1   8  -3  200.68   23.30
   1   8  -3  230.28   21.50
   1   8  -3  183.48   21.00
   1   8  -3  175.48   21.20
  -1  -8   3  188.68   21.30
  -1  -8   3  215.98   23.10
  -1  -8   3  159.98   21.90
  -1  -8   3  196.58   20.10
  -1  -8   3  190.08   22.90
  -1  -8   3  216.68   21.20
   0   8  -3   68.69   12.90
   0   8  -3   64.59    9.10
   0   8  -3   83.79   12.10
   0   8  -3   76.69    8.30
   0   8  -3   84.29   10.50
   0  -8   3   73.89   11.40
   0  -8   3   54.29   12.00
   0  -8   3   67.89   10.60
   0  -8   3   96.79   11.70
   0  -8   3   79.09    8.90
   0  -8   3   65.89   11.30
   0  -8   3   90.49   10.00
  -1   8  -3  142.19   14.50
  -1   8  -3  113.49   12.20
  -1   8  -3  109.09   14.00
  -1   8  -3  108.99   12.90
   1  -8   3   80.79   14.70
   1  -8   3  109.69   11.90
   1  -8   3  114.09   13.10
   1  -8   3  147.69   14.60
   1  -8   3  135.89   12.80
   1  -8   3  113.69   13.90
  -2   8  -3  263.17   28.00
  -2   8  -3  283.27   27.40
  -2   8  -3  269.67   27.60
  -2   8  -3  275.07   29.00
   2  -8   3  321.87   27.30
   2  -8   3  275.27   26.50
   2  -8   3  244.28   27.80
   2  -8   3  291.77   28.00
   2  -8   3  307.57   27.50
   2  -8   3  294.07   27.60
  -3   8  -3   16.20    5.90
  -3   8  -3   16.40    2.80
  -3   8  -3   19.80    2.80
  -3   8  -3   14.70    2.80
   3  -8   3   20.60    3.60
   3  -8   3   15.60    4.60
   3  -8   3   12.60    4.30
   3  -8   3   14.30    3.70
   3  -8   3   14.60    4.00
   3  -8   3   17.50    2.10
   3  -8   3   16.10    2.00
   3  -8   3   12.40    4.90
   3  -8   3   13.30    3.30
  -4   8  -3   41.80    8.70
   4  -8   3   39.40    6.40
   4  -8   3   36.30    6.70
  -5   8  -3   -1.20    5.90
   5  -8   3    4.20    3.70
   5  -8   3   10.00    6.00
   5  -8   3   -1.50    4.30
   5  -8   3    2.40   18.80
   4   7  -3   34.40   12.60
   4   7  -3   26.40   18.40
   4   7  -3   30.10    9.90
   4   7  -3   29.60   11.20
  -4  -7   3   22.40   11.20
  -4  -7   3   38.20    9.30
  -4  -7   3   40.20   12.80
  -4  -7   3   26.60   16.70
  -4  -7   3   34.90    8.50
  -4  -7   3   10.40   11.10
  -4  -7   3   33.30    8.30
   3   7  -3    3.50   10.20
   3   7  -3   14.10    7.80
   3   7  -3   12.30    9.30
   3   7  -3    7.50    6.90
   3   7  -3   15.90    7.10
  -3  -7   3   18.50    5.90
  -3  -7   3   17.90   12.20
  -3  -7   3   12.10    7.40
  -3  -7   3    7.10    6.30
  -3  -7   3   11.70    5.20
  -3  -7   3   13.70    7.40
  -3  -7   3   14.50    8.00
   2   7  -3  407.06   40.90
   2   7  -3  405.16   36.50
   2   7  -3  356.66   39.20
   2   7  -3  311.97   38.30
   2   7  -3  354.26   37.40
   2   7  -3  392.76   38.20
   2   7  -3  431.46   37.90
  -2  -7   3  298.67   37.90
  -2  -7   3  421.16   37.50
  -2  -7   3  398.16   39.10
  -2  -7   3  393.06   37.30
  -2  -7   3  345.27   38.20
   1   7  -3  518.65   53.09
   1   7  -3  479.55   54.19
   1   7  -3  572.04   51.99
   1   7  -3  609.74   53.79
   1   7  -3  650.23   53.29
   1   7  -3  529.05   52.89
   1   7  -3  619.94   55.69
  -1  -7   3  626.54   54.79
  -1  -7   3  519.35   53.69
  -1  -7   3  452.65   53.39
  -1  -7   3  533.55   53.39
  -1  -7   3  545.85   52.29
  -1  -7   3  572.64   52.99
   0   7  -3    4.60    5.30
   0   7  -3    2.00    4.10
   0   7  -3    0.20    2.70
   0   7  -3    6.80    2.80
   0   7  -3    2.60    3.20
   0   7  -3    3.20    1.80
   0   7  -3    1.70    2.50
   0  -7   3    5.90    3.30
   0  -7   3    1.30    3.90
   0  -7   3    5.50    5.00
   0  -7   3   -0.10    1.90
   0  -7   3   -1.60    2.30
   0  -7   3    1.70    3.20
   0  -7   3    2.40    3.50
  -1   7  -3   20.40    5.70
  -1   7  -3   22.30    2.70
  -1   7  -3   22.20    4.60
  -1   7  -3   18.00    2.80
  -1   7  -3   30.90    4.70
  -1   7  -3   18.60    4.00
  -1   7  -3   21.40    3.60
   1  -7   3   24.20    4.80
   1  -7   3   18.70    4.40
   1  -7   3   18.70    3.50
   1  -7   3   19.20    3.20
   1  -7   3   17.20    4.00
   1  -7   3   20.30    4.60
   1  -7   3    8.50    5.00
  -2   7  -3   28.60    4.70
  -2   7  -3   22.60    4.50
  -2   7  -3   19.90    5.80
  -2   7  -3   27.70    4.80
  -2   7  -3   35.20    5.00
  -2   7  -3   26.60    4.00
   2  -7   3   22.20    3.90
   2  -7   3   25.40    3.00
   2  -7   3   28.30    4.60
   2  -7   3   22.10    3.00
   2  -7   3   32.60    4.80
   2  -7   3   27.50    5.10
   2  -7   3   20.00    5.30
   2  -7   3   21.90    3.90
   2  -7   3   21.70    4.40
  -3   7  -3   45.60    7.90
  -3   7  -3   41.60    4.70
  -3   7  -3   38.30    5.20
  -3   7  -3   33.50    5.00
  -3   7  -3   36.80    4.60
   3  -7   3   46.40    5.10
   3  -7   3   30.10    5.90
   3  -7   3   39.90    3.90
   3  -7   3   45.60    5.70
   3  -7   3   35.70    5.60
   3  -7   3   31.70    5.10
   3  -7   3   41.80    6.30
   3  -7   3   35.20    6.60
  -4   7  -3   17.30    5.40
   4  -7   3   15.70    3.00
   4  -7   3   13.40    3.60
   4  -7   3   16.50    3.40
   4  -7   3   10.20    4.40
   4  -7   3   13.10    2.50
   4  -7   3    9.70    4.70
   4  -7   3   16.80    3.50
   4  -7   3   17.10    2.70
  -5   7  -3   36.90    8.60
   5  -7   3   45.80    6.00
   5  -7   3   51.89    7.40
   5  -7   3   44.20    7.00
   5  -7   3   49.30    8.60
   5  -7   3   42.80    6.00
   5  -7   3   51.49    8.30
   5  -7   3   38.30   16.00
  -6   7  -3   11.50    5.70
   6  -7   3    1.40    8.30
   6  -7   3   21.50    7.90
   6  -7   3   11.60    5.40
   6  -7   3    9.90    4.30
   6  -7   3   -4.70   10.30
   6  -7   3    4.20    7.70
   5   6  -3   53.09   19.40
   5   6  -3   59.69   15.90
   5   6  -3   55.39   11.60
   5   6  -3   51.99   13.10
   5   6  -3   72.49   16.50
  -5  -6   3   49.20   11.20
  -5  -6   3   68.09   24.00
  -5  -6   3   61.89   15.20
  -5  -6   3   49.70   15.70
  -5  -6   3   57.19   11.40
  -5  -6   3   36.00   14.60
   4   6  -3    0.10   15.30
   4   6  -3    1.10    8.60
   4   6  -3   -3.40    6.60
   4   6  -3   -5.20   11.50
   4   6  -3    5.40    6.10
  -4  -6   3   18.10    8.60
  -4  -6   3   -3.50   13.50
  -4  -6   3   -0.50    6.10
  -4  -6   3    8.60    6.00
  -4  -6   3    1.30    6.50
  -4  -6   3    0.30    7.90
  -4  -6   3    3.80    7.50
   3   6  -3   95.29   17.20
   3   6  -3   85.19   14.90
   3   6  -3  113.09   14.50
   3   6  -3   79.59   12.70
   3   6  -3  111.39   14.90
   3   6  -3   84.09   12.70
  -3  -6   3   97.69   12.20
  -3  -6   3   78.39   13.60
  -3  -6   3  105.59   14.60
  -3  -6   3   66.49   15.90
  -3  -6   3   88.99   14.30
  -3  -6   3  107.09   11.80
  -3  -6   3   93.09   12.50
   2   6  -3    3.00    3.90
   2   6  -3    3.50    6.10
   2   6  -3    6.50    5.30
   2   6  -3    7.50    4.20
   2   6  -3   -0.20    4.20
   2   6  -3   -1.10    4.10
  -2  -6   3    3.30    3.20
  -2  -6   3    5.00    5.20
  -2  -6   3    1.00    4.90
  -2  -6   3   -5.40    6.10
  -2  -6   3    4.00    2.80
  -2  -6   3    3.20    3.70
  -2  -6   3   11.90    6.30
   1   6  -3  366.56   30.80
   1   6  -3  304.37   30.50
   1   6  -3  340.17   31.10
   1   6  -3  331.67   29.80
   1   6  -3  351.66   32.80
   1   6  -3  286.87   30.40
   1   6  -3  305.67   31.90
  -1  -6   3  281.77   30.90
  -1  -6   3  263.87   30.80
  -1  -6   3  322.47   30.40
  -1  -6   3  302.57   29.80
  -1  -6   3  319.47   31.60
  -1  -6   3  261.47   32.50
  -1  -6   3  326.57   30.60
   0   6  -3  366.96   34.70
   0   6  -3  353.76   35.10
   0   6  -3  407.76   35.70
   0   6  -3  350.96   35.30
   0   6  -3  338.47   36.30
   0   6  -3  406.46   36.80
   0  -6   3  381.06   35.40
   0  -6   3  400.96   35.30
   0  -6   3  341.57   35.60
   0  -6   3  410.96   36.30
   0  -6   3  368.26   34.70
   0  -6   3  300.67   35.50
  -1   6  -3  146.29   12.80
  -1   6  -3  110.19   11.90
  -1   6  -3  135.19   13.80
  -1   6  -3  117.09   12.70
  -1   6  -3  114.09   13.30
  -1   6  -3  116.69   12.40
  -1   6  -3  127.49   11.90
   1  -6   3  119.69   12.60
   1  -6   3  144.69   13.80
   1  -6   3  116.69   11.80
   1  -6   3   98.19   12.70
   1  -6   3  139.99   13.10
   1  -6   3  132.49   12.70
  -2   6  -3  115.19   11.90
  -2   6  -3  106.89   13.20
  -2   6  -3  143.49   11.90
  -2   6  -3  125.39   12.60
  -2   6  -3  114.79   12.40
   2  -6   3  141.99   13.00
   2  -6   3  104.09   12.80
   2  -6   3   99.89   11.90
   2  -6   3  117.19   11.10
   2  -6   3  108.99   11.10
   2  -6   3  116.19   11.80
   2  -6   3  120.19   11.90
   2  -6   3  107.39   12.20
   2  -6   3  136.99   12.30
  -3   6  -3   58.39    6.60
  -3   6  -3   59.19    6.50
  -3   6  -3   61.69    7.10
  -3   6  -3   61.69    8.30
  -3   6  -3   55.29    6.90
  -3   6  -3   64.09    8.60
   3  -6   3   59.19    7.50
   3  -6   3   70.69    7.20
   3  -6   3   51.89    7.50
   3  -6   3   61.69    6.70
   3  -6   3   64.19    7.70
   3  -6   3   62.39    6.10
  -4   6  -3    6.30    2.00
  -4   6  -3    9.50    2.00
  -4   6  -3    5.10    1.70
  -4   6  -3   11.70    4.40
   4  -6   3    7.80    3.10
   4  -6   3    3.50    2.50
   4  -6   3    8.70    2.00
   4  -6   3    7.40    2.00
   4  -6   3    8.40    2.70
   4  -6   3    8.60    3.20
   4  -6   3   16.20    4.20
   4  -6   3    4.00    4.30
  -5   6  -3   50.39    9.50
  -5   6  -3   52.39    5.90
  -5   6  -3   57.99    6.00
   5  -6   3   66.29   10.00
   5  -6   3   51.59    7.60
   5  -6   3   52.79    6.20
   5  -6   3   53.69   10.20
   5  -6   3   43.40    7.70
   5  -6   3   65.99    8.20
   5  -6   3   53.39    7.00
   5  -6   3   53.79    7.40
   5  -6   3   71.39   14.60
  -6   6  -3  160.28   15.90
  -6   6  -3  168.28   19.90
  -6   6  -3  172.98   15.90
   6  -6   3  151.58   20.00
   6  -6   3  184.18   20.60
   6  -6   3  176.08   17.60
   6  -6   3  151.88   17.60
   6  -6   3  207.48   21.50
   6  -6   3  143.09   17.00
   6  -6   3  178.58   18.90
   5   5  -3  146.89   20.20
   5   5  -3  132.29   17.30
   5   5  -3  137.69   25.70
   5   5  -3  120.19   17.30
  -5  -5   3  130.49   20.80
  -5  -5   3  107.59   15.90
  -5  -5   3   95.19   17.50
  -5  -5   3  107.49   15.80
  -5  -5   3   62.29   21.80
  -5  -5   3  115.79   15.50
   4   5  -3   99.49   16.80
   4   5  -3  121.99   19.30
   4   5  -3  105.19   13.70
   4   5  -3  121.69   15.70
   4   5  -3  119.29   14.10
   4   5  -3  103.19   13.90
   4   5  -3  132.19   16.20
  -4  -5   3   77.19   16.90
  -4  -5   3   63.89   14.30
  -4  -5   3   95.09   13.30
  -4  -5   3   85.39   15.00
  -4  -5   3   96.59   12.80
  -4  -5   3  107.39   13.50
  -4  -5   3   94.59   15.70
   3   5  -3   23.80    5.60
   3   5  -3   21.90    5.80
   3   5  -3   24.50    6.90
   3   5  -3   28.80    7.60
   3   5  -3   34.40    9.60
   3   5  -3   29.80    8.60
  -3  -5   3   26.90    7.30
  -3  -5   3   38.00    6.30
  -3  -5   3   31.50    6.20
  -3  -5   3   23.70    7.80
  -3  -5   3   35.50    7.20
  -3  -5   3   25.90    8.90
   2   5  -3    5.30    4.60
   2   5  -3    7.80    3.80
   2   5  -3    3.50    4.40
   2   5  -3    3.40    3.00
   2   5  -3    7.90    2.90
   2   5  -3    7.50    3.80
   2   5  -3    3.70    3.20
  -2  -5   3    4.10    3.10
  -2  -5   3    3.00    5.10
  -2  -5   3    3.20    2.60
  -2  -5   3    7.20    2.80
  -2  -5   3    2.00    3.90
  -2  -5   3   10.50    4.10
  -2  -5   3    6.30    3.80
   1   5  -3  562.14   55.49
   1   5  -3  590.74   57.09
   1   5  -3  531.45   55.39
   1   5  -3  637.54   55.69
   1   5  -3  644.74   55.19
   1   5  -3  586.44   55.89
   1   5  -3  565.54   56.59
  -1  -5   3  583.24   54.99
  -1  -5   3  629.34   55.59
  -1  -5   3  562.64   55.39
  -1  -5   3  622.64   56.59
  -1  -5   3  553.34   55.89
   0   5  -3   59.29    7.00
   0   5  -3   63.79    7.50
   0   5  -3   57.19    7.10
   0   5  -3   76.29    7.30
   0   5  -3   72.69    6.80
   0   5  -3   67.49    8.30
   0   5  -3   54.99    8.30
   0  -5   3   48.20    8.60
   0  -5   3   58.49    6.50
   0  -5   3   62.19    7.60
   0  -5   3   61.89    7.70
   0  -5   3   48.50    7.40
   0  -5   3   67.79    7.20
   0  -5   3   65.39    7.10
  -1   5  -3  240.78   25.40
  -1   5  -3  226.48   24.30
  -1   5  -3  263.07   25.40
  -1   5  -3  254.27   24.80
  -1   5  -3  257.87   24.70
  -1   5  -3  261.47   24.30
   1  -5   3  265.27   24.80
   1  -5   3  233.18   25.60
   1  -5   3  247.58   24.10
   1  -5   3  312.57   25.70
   1  -5   3  289.37   24.80
   1  -5   3  260.37   24.70
   1  -5   3  289.87   25.00
   1  -5   3  236.58   24.80
  -2   5  -3   39.40    5.60
  -2   5  -3   42.80    5.80
  -2   5  -3   42.10    5.30
  -2   5  -3   46.00    6.50
  -2   5  -3   42.70    5.50
  -2   5  -3   49.10    5.10
   2  -5   3   36.30    5.20
   2  -5   3   43.80    6.30
   2  -5   3   51.19    5.80
   2  -5   3   48.90    5.40
   2  -5   3   44.60    5.90
   2  -5   3   44.70    4.20
   2  -5   3   40.00    5.10
   2  -5   3   47.10    5.00
  -3   5  -3 1007.20   80.89
  -3   5  -3  791.72   80.69
  -3   5  -3  834.12   81.49
  -3   5  -3  827.12   80.39
  -3   5  -3  871.01   81.69
   3  -5   3  856.91   81.19
   3  -5   3  863.61   80.09
   3  -5   3  910.81   80.89
   3  -5   3  869.21   80.59
  -4   5  -3  157.08   14.70
  -4   5  -3  153.38   14.10
  -4   5  -3  127.69   15.50
   4  -5   3  131.59   14.00
   4  -5   3  107.69   16.40
   4  -5   3  145.79   13.90
   4  -5   3  145.79   14.70
   4  -5   3  139.99   14.60
   4  -5   3  153.08   14.70
   4  -5   3  144.59   15.50
  -5   5  -3  112.59   12.40
  -5   5  -3  145.09   13.50
  -5   5  -3  104.09   12.90
  -5   5  -3  141.69   12.70
  -5   5  -3  124.79   14.20
   5  -5   3  128.99   15.00
   5  -5   3   90.39   13.90
   5  -5   3  118.79   12.80
   5  -5   3  115.19   17.20
   5  -5   3  114.39   13.50
   5  -5   3   96.09   15.90
   5  -5   3  131.89   13.30
   5  -5   3  125.69   12.30
  -6   5  -3   63.19   10.00
  -6   5  -3   33.50    9.60
  -6   5  -3   42.10    7.50
  -6   5  -3   55.39    8.20
  -6   5  -3   57.89    8.60
   6  -5   3   67.19   10.60
   6  -5   3   46.20    8.70
   6  -5   3   48.00    8.00
   6  -5   3   39.20    7.50
   6  -5   3   50.89    7.10
   6  -5   3   46.20   11.00
   6   4  -3   -2.60   17.40
   6   4  -3   14.90   10.20
   6   4  -3   12.00    8.90
   6   4  -3   17.00   12.80
   6   4  -3   -3.60    9.40
   6   4  -3  -12.10   10.80
   6   4  -3   12.70    9.60
  -6  -4   3   -5.50    8.10
  -6  -4   3   -3.90   11.00
  -6  -4   3    6.90   11.50
  -6  -4   3   13.00   19.70
  -6  -4   3   -4.10    9.90
  -6  -4   3   11.20   13.70
  -6  -4   3   -1.30   14.20
   5   4  -3  160.68   19.40
   5   4  -3  202.08   26.50
   5   4  -3  167.58   22.50
   5   4  -3  145.29   19.70
   5   4  -3  215.38   22.80
  -5  -4   3  126.09   20.90
  -5  -4   3  185.88   22.20
  -5  -4   3  156.18   19.30
  -5  -4   3  168.88   18.60
  -5  -4   3  124.49   25.90
  -5  -4   3  127.99   21.80
  -5  -4   3  193.28   18.80
   4   4  -3   13.00    8.60
   4   4  -3   10.90    4.80
   4   4  -3   12.10    5.10
   4   4  -3    6.80    6.40
   4   4  -3    6.20    4.80
   4   4  -3   22.50    7.30
  -4  -4   3   11.90    6.50
  -4  -4   3   13.90    4.60
  -4  -4   3    6.90    6.20
  -4  -4   3   15.10    8.50
  -4  -4   3   11.00    4.60
  -4  -4   3   17.60    4.60
  -4  -4   3   -0.70    5.70
   3   4  -3  190.88   18.50
   3   4  -3  155.68   17.20
   3   4  -3  158.98   17.20
   3   4  -3  170.48   17.20
   3   4  -3  163.08   20.30
   3   4  -3  155.48   18.50
   3   4  -3  197.18   18.50
  -3  -4   3  158.88   17.00
  -3  -4   3  142.09   17.80
  -3  -4   3  118.39   19.20
  -3  -4   3  136.09   17.80
  -3  -4   3  175.08   17.00
  -3  -4   3  163.58   18.40
  -3  -4   3  164.98   16.60
   2   4  -3   32.60    5.80
   2   4  -3   35.70    5.70
   2   4  -3   32.50    6.90
   2   4  -3   40.80    5.70
   2   4  -3   42.00    6.80
   2   4  -3   57.49    7.10
   2   4  -3   40.90    8.20
  -2  -4   3   42.30    7.10
  -2  -4   3   31.30    5.10
  -2  -4   3   41.40    5.70
  -2  -4   3   33.10    6.30
  -2  -4   3   36.00    5.50
  -2  -4   3   39.10    6.70
  -2  -4   3   29.30    7.40
   1   4  -3  662.23   63.39
   1   4  -3  756.22   63.79
   1   4  -3  656.33   62.99
   1   4  -3  655.83   63.29
   1   4  -3  742.43   64.89
   1   4  -3  643.54   64.19
  -1  -4   3  597.94   63.59
  -1  -4   3  647.04   63.59
  -1  -4   3  686.83   64.09
  -1  -4   3  677.83   62.89
  -1  -4   3  703.03   63.29
  -1  -4   3  709.13   63.39
   0   4  -3    5.10    1.70
   0   4  -3    1.40    1.50
   0   4  -3    0.00    2.00
   0   4  -3    1.10    1.60
   0   4  -3    4.40    1.70
   0   4  -3    2.90    2.20
   0   4  -3    3.90    1.50
   0  -4   3    2.60    1.60
   0  -4   3    2.20    2.40
   0  -4   3    2.80    1.00
   0  -4   3    3.30    1.80
   0  -4   3    2.00    1.60
   0  -4   3    1.90    1.60
   0  -4   3    2.50    1.40
  -1   4  -3  192.48   18.50
  -1   4  -3  181.58   18.00
  -1   4  -3  164.88   17.50
  -1   4  -3  183.38   17.60
  -1   4  -3  196.88   17.90
  -1   4  -3  172.28   18.40
   1  -4   3  221.28   18.00
   1  -4   3  192.88   18.00
   1  -4   3  178.78   18.50
   1  -4   3  171.98   17.10
   1  -4   3  176.98   17.90
   1  -4   3  202.88   18.00
   1  -4   3  187.48   17.80
  -2   4  -3   63.69    7.80
  -2   4  -3   70.29    7.60
  -2   4  -3   67.89    8.10
  -2   4  -3   74.79    7.20
  -2   4  -3   81.69    7.90
  -2   4  -3   78.39    7.40
   2  -4   3   71.99    7.40
   2  -4   3   56.69    7.30
   2  -4   3   66.19    7.60
   2  -4   3   64.79    6.50
   2  -4   3   62.09    8.10
   2  -4   3   73.79    7.20
   2  -4   3   72.09    7.70
  -3   4  -3   99.89   10.50
  -3   4  -3  115.69   11.80
  -3   4  -3   93.19   11.70
  -3   4  -3   92.99   10.90
   3  -4   3   88.29   11.10
   3  -4   3  105.19   10.30
   3  -4   3  110.39   10.80
   3  -4   3  111.19   11.40
   3  -4   3  122.29   10.50
   3  -4   3  122.99   11.10
   3  -4   3   96.39   10.70
  -4   4  -3  186.38   17.50
  -4   4  -3  167.48   18.00
  -4   4  -3  178.28   16.90
   4  -4   3  169.58   17.40
   4  -4   3  150.28   17.50
   4  -4   3  177.78   18.20
   4  -4   3  166.48   16.90
   4  -4   3  180.68   17.50
   4  -4   3  160.38   17.90
   4  -4   3  185.18   16.90
  -5   4  -3  132.99   15.60
  -5   4  -3  141.69   14.70
  -5   4  -3  118.39   15.40
  -5   4  -3  170.88   16.70
  -5   4  -3  150.78   15.50
   5  -4   3  132.89   15.90
   5  -4   3  125.89   15.40
   5  -4   3  131.19   14.80
   5  -4   3  150.78   16.20
   5  -4   3  133.09   18.40
   5  -4   3  153.28   15.50
   5  -4   3  130.19   16.20
   5  -4   3  151.98   14.50
  -6   4  -3   45.10   10.30
  -6   4  -3   64.39   10.40
  -6   4  -3   45.30    9.80
  -6   4  -3   53.79    8.60
  -6   4  -3   31.50   11.70
  -6   4  -3   46.40    8.60
   6  -4   3   61.09    8.30
   6  -4   3   53.29   10.20
   6  -4   3   68.49   11.00
   6  -4   3   48.20   10.60
   6  -4   3   47.10    8.20
   6  -4   3   49.30   10.30
   6  -4   3   46.10   12.30
   6   3  -3  -12.50    7.30
   6   3  -3   -2.80   14.70
   6   3  -3    4.20    8.40
   6   3  -3   12.50   10.70
   6   3  -3   -0.20    9.40
   6   3  -3    7.40    6.70
   6   3  -3    9.50   10.50
  -6  -3   3   14.10   15.40
  -6  -3   3    7.60    9.10
  -6  -3   3   -5.90    8.50
  -6  -3   3   18.90   11.40
  -6  -3   3   -0.60    5.90
  -6  -3   3    3.70    9.70
  -6  -3   3    1.80    7.30
  -6  -3   3    3.50    6.90
  -6  -3   3   13.40    7.20
   5   3  -3  178.58   22.30
   5   3  -3  201.18   20.70
   5   3  -3  171.98   22.60
   5   3  -3  180.38   20.90
   5   3  -3  220.68   26.40
  -5  -3   3  190.08   20.10
  -5  -3   3  195.98   19.90
  -5  -3   3  151.38   21.30
  -5  -3   3  196.18   22.40
  -5  -3   3  147.79   24.80
  -5  -3   3  143.39   21.90
  -5  -3   3  200.88   19.90
   4   3  -3    0.10    4.80
   4   3  -3   -2.30    3.60
   4   3  -3   -5.50    6.20
   4   3  -3    1.70    3.50
   4   3  -3    3.50    4.90
   4   3  -3   -5.20    3.00
   4   3  -3    5.60    4.90
  -4  -3   3   -2.20    4.20
  -4  -3   3   -2.00    6.30
  -4  -3   3   -0.60    4.40
  -4  -3   3    0.20    3.30
  -4  -3   3   -5.40    2.90
  -4  -3   3   -1.70    3.30
  -4  -3   3   -3.70    4.20
   3   3  -3   17.20    4.70
   3   3  -3   10.80    3.30
   3   3  -3   10.30    4.40
   3   3  -3   13.70    4.60
   3   3  -3   10.60    3.60
   3   3  -3   13.90    3.50
   3   3  -3   12.20    5.60
  -3  -3   3   11.80    4.50
  -3  -3   3    5.30    5.30
  -3  -3   3   12.50    3.50
  -3  -3   3   10.10    4.00
  -3  -3   3   11.10    4.30
  -3  -3   3   13.10    3.60
  -3  -3   3   14.20    3.30
   2   3  -3  235.68   24.10
   2   3  -3  239.38   23.80
   2   3  -3  240.28   24.10
   2   3  -3  234.58   25.00
   2   3  -3  257.37   25.90
   2   3  -3  268.77   24.70
   2   3  -3  274.97   24.70
  -2  -3   3  259.87   25.10
  -2  -3   3  250.67   23.80
  -2  -3   3  263.37   24.10
  -2  -3   3  214.28   24.40
  -2  -3   3  218.98   24.40
  -2  -3   3  261.57   24.10
   1   3  -3  309.77   26.30
   1   3  -3  292.97   26.30
   1   3  -3  260.77   25.60
   1   3  -3  300.57   27.30
   1   3  -3  270.27   26.70
   1   3  -3  265.47   26.00
   1   3  -3  249.88   25.90
  -1  -3   3  289.47   26.00
  -1  -3   3  237.48   26.10
  -1  -3   3  250.47   26.20
  -1  -3   3  259.47   25.60
  -1  -3   3  243.28   27.00
  -1  -3   3  302.97   26.80
  -1  -3   3  274.07   25.90
   0   3  -3 1922.61  201.18
   0   3  -3 2437.76  201.88
   0   3  -3 2191.38  202.28
   0   3  -3 2062.69  201.58
   0   3  -3 2242.28  201.78
   0   3  -3 2434.06  201.78
   0   3  -3 2419.16  202.48
   0   3  -3 2148.19  201.68
   0  -3   3 2149.19  201.68
   0  -3   3 2327.97  201.68
   0  -3   3 1991.40  201.18
   0  -3   3 2256.17  201.78
   0  -3   3 1994.00  201.78
   0  -3   3 1995.20  202.28
   0  -3   3 2138.69  201.58
   0  -3   3 2404.26  202.28
  -1   3  -3  531.65   53.29
  -1   3  -3  647.64   53.29
  -1   3  -3  508.65   52.89
  -1   3  -3  510.75   52.99
  -1   3  -3  565.74   53.49
  -1   3  -3  646.14   53.19
   1  -3   3  601.04   53.69
   1  -3   3  561.84   53.19
   1  -3   3  528.15   53.29
   1  -3   3  612.84   53.29
   1  -3   3  576.74   53.09
   1  -3   3  590.54   53.19
  -2   3  -3  476.95   47.20
  -2   3  -3  515.35   46.40
  -2   3  -3  485.25   46.40
  -2   3  -3  479.15   47.30
  -2   3  -3  449.66   46.40
  -2   3  -3  549.35   47.40
  -2   3  -3  494.05   46.80
   2  -3   3  478.15   47.20
   2  -3   3  463.85   46.40
   2  -3   3  559.04   46.80
   2  -3   3  581.64   47.30
   2  -3   3  556.74   46.90
   2  -3   3  465.85   46.90
  -3   3  -3  476.65   46.20
  -3   3  -3  557.04   46.50
  -3   3  -3  522.15   46.00
  -3   3  -3  503.65   45.70
  -3   3  -3  415.66   45.70
  -3   3  -3  503.95   45.10
  -3   3  -3  443.46   45.30
   3  -3   3  512.65   45.30
   3  -3   3  448.56   45.90
   3  -3   3  471.35   45.60
   3  -3   3  465.75   45.50
   3  -3   3  488.65   45.20
   3  -3   3  457.25   45.90
   3  -3   3  510.25   45.80
  -4   3  -3    2.60    2.20
  -4   3  -3    8.40    3.40
  -4   3  -3    3.30    3.10
  -4   3  -3    7.30    3.80
  -4   3  -3    5.80    4.00
   4  -3   3   12.20    3.20
   4  -3   3    6.00    2.30
   4  -3   3   11.40    5.50
   4  -3   3    5.80    3.00
   4  -3   3   10.60    3.90
   4  -3   3    7.80    3.40
   4  -3   3    4.40    3.40
   4  -3   3    8.90    3.10
   4  -3   3    8.70    2.80
  -5   3  -3  389.16   40.80
  -5   3  -3  472.45   40.00
  -5   3  -3  438.56   40.90
  -5   3  -3  412.06   40.00
  -5   3  -3  348.37   41.60
   5  -3   3  454.55   41.40
   5  -3   3  454.15   41.10
   5  -3   3  456.15   41.50
   5  -3   3  383.86   41.10
   5  -3   3  358.26   42.90
   5  -3   3  396.86   40.40
   5  -3   3  440.76   40.10
  -6   3  -3   45.30    8.40
  -6   3  -3   31.00    6.60
  -6   3  -3   35.10    7.20
  -6   3  -3   19.20    9.80
  -6   3  -3   30.50    7.80
  -6   3  -3   41.60    9.30
   6  -3   3   31.60    7.00
   6  -3   3   26.20   11.90
   6  -3   3   30.90    8.30
   6  -3   3   38.00    6.50
   6  -3   3   42.80    8.70
   6  -3   3   26.80    7.90
   6  -3   3   43.40    9.20
   6  -3   3   30.70    9.50
   6   2  -3  205.48   25.60
   6   2  -3  222.98   23.70
   6   2  -3  194.28   24.50
   6   2  -3  191.78   22.30
   6   2  -3  220.58   23.00
   6   2  -3  259.97   30.80
  -6  -2   3  164.58   29.10
  -6  -2   3  217.48   24.80
  -6  -2   3  192.28   22.10
  -6  -2   3  172.08   25.50
  -6  -2   3  199.48   21.40
  -6  -2   3  201.78   22.10
  -6  -2   3  190.48   23.80
   5   2  -3  105.59   14.60
   5   2  -3  139.79   15.40
   5   2  -3  107.19   16.50
   5   2  -3  132.39   16.80
   5   2  -3  125.69   15.00
   5   2  -3  136.39   20.00
  -5  -2   3  137.39   16.60
  -5  -2   3   83.99   18.30
  -5  -2   3  137.29   14.80
  -5  -2   3  149.88   14.30
  -5  -2   3  137.69   14.50
  -5  -2   3  115.49   15.60
   4   2  -3   46.80    7.30
   4   2  -3   42.40    6.80
   4   2  -3   44.90    6.70
   4   2  -3   48.80    8.40
   4   2  -3   46.10    9.90
   4   2  -3   37.20    7.70
   4   2  -3   53.89    8.40
  -4  -2   3   42.00    6.80
  -4  -2   3   38.90    7.50
  -4  -2   3   38.40    7.20
  -4  -2   3   54.29    6.70
  -4  -2   3   41.10    8.10
  -4  -2   3   29.30    8.40
  -4  -2   3   43.60    6.60
   3   2  -3  656.73   68.99
   3   2  -3  685.03   68.09
   3   2  -3  729.03   68.29
   3   2  -3  774.92   68.89
   3   2  -3  738.23   68.09
   3   2  -3  831.32   69.09
  -3  -2   3  758.72   69.19
  -3  -2   3  628.34   68.49
  -3  -2   3  761.02   67.99
  -3  -2   3  680.73   68.49
  -3  -2   3  725.73   67.89
  -3  -2   3  768.52   68.19
   2   2  -3    4.00    2.40
   2   2  -3    6.80    2.60
   2   2  -3    7.20    2.50
   2   2  -3    2.40    1.60
   2   2  -3    6.40    2.20
   2   2  -3    6.50    2.40
   2   2  -3    6.90    2.10
  -2  -2   3    3.10    1.70
  -2  -2   3    6.30    2.00
  -2  -2   3    4.30    3.00
  -2  -2   3    5.20    2.20
  -2  -2   3    5.80    2.50
  -2  -2   3    2.50    2.10
  -2  -2   3    6.10    1.90
   1   2  -3  120.29   11.30
   1   2  -3  115.19   11.00
   1   2  -3  104.89   11.60
   1   2  -3  112.69   11.00
   1   2  -3  105.99   10.70
   1   2  -3  119.79   11.20
   1   2  -3  107.19   11.80
  -1  -2   3  109.19   10.70
  -1  -2   3   98.99   11.10
  -1  -2   3  101.49   11.10
  -1  -2   3   97.89   11.90
  -1  -2   3  116.09   10.90
  -1  -2   3  113.59   11.00
  -1  -2   3  115.99   11.60
   0   2  -3   24.40    3.90
   0   2  -3   41.80    4.60
   0   2  -3   33.10    3.90
   0   2  -3   26.30    3.70
   0   2  -3   31.00    3.90
   0   2  -3   22.80    3.90
   0   2  -3   38.00    3.90
   0   2  -3   29.80    4.40
   0  -2   3   29.20    3.20
   0  -2   3   33.10    4.00
   0  -2   3   36.00    3.90
   0  -2   3   32.30    3.70
   0  -2   3   38.30    4.60
   0  -2   3   31.60    4.10
   0  -2   3   36.60    4.40
   0  -2   3   32.30    3.90
  -1   2  -3   39.40    4.40
  -1   2  -3   41.50    4.40
  -1   2  -3   40.50    4.30
  -1   2  -3   40.00    4.80
  -1   2  -3   38.80    4.60
  -1   2  -3   48.20    6.00
  -1   2  -3   42.30    4.60
  -1   2  -3   48.00    4.70
  -1   2  -3   34.50    3.80
   1  -2   3   33.70    5.10
   1  -2   3   31.60    4.60
   1  -2   3   39.40    4.60
   1  -2   3   40.70    4.30
   1  -2   3   48.00    4.50
   1  -2   3   42.70    4.80
   1  -2   3   39.20    4.50
  -2   2  -3   21.10    3.50
  -2   2  -3   19.00    2.80
  -2   2  -3   17.20    2.60
  -2   2  -3   16.80    3.40
  -2   2  -3   19.00    2.40
  -2   2  -3   22.10    3.60
  -2   2  -3   15.20    3.30
   2  -2   3   20.70    3.20
   2  -2   3   16.10    3.20
   2  -2   3   20.70    3.20
   2  -2   3   20.80    2.80
   2  -2   3   15.30    2.90
   2  -2   3   18.50    3.00
   2  -2   3   10.00    3.70
  -3   2  -3  106.19   10.80
  -3   2  -3  117.09   11.00
  -3   2  -3   93.89   11.60
  -3   2  -3  110.49   12.00
  -3   2  -3  103.79   11.10
  -3   2  -3  129.39   11.70
  -3   2  -3  100.09   11.80
   3  -2   3  108.99   11.40
   3  -2   3  107.79   11.80
   3  -2   3   97.79   11.80
   3  -2   3  115.49   11.10
   3  -2   3  107.29   11.70
   3  -2   3  111.49   11.60
   3  -2   3  114.19   11.10
  -4   2  -3    5.20    3.40
  -4   2  -3   -0.40    4.40
  -4   2  -3    6.10    2.60
  -4   2  -3    5.90    3.30
  -4   2  -3    9.40    2.70
  -4   2  -3    6.70    3.80
  -4   2  -3    4.00    1.80
  -4   2  -3    8.30    2.10
   4  -2   3    3.10    3.70
   4  -2   3    6.60    3.40
   4  -2   3    4.20    5.50
   4  -2   3    2.80    3.40
   4  -2   3    0.70    2.90
   4  -2   3    1.20    2.50
   4  -2   3   10.80    3.50
   4  -2   3    4.30    2.50
  -5   2  -3   64.49   10.70
  -5   2  -3   73.79    9.40
  -5   2  -3   58.39   10.20
  -5   2  -3   53.79    9.00
  -5   2  -3   67.09    7.50
  -5   2  -3   81.39    7.90
  -5   2  -3   65.99    9.10
   5  -2   3   68.59   10.20
   5  -2   3   62.29   11.00
   5  -2   3   67.89   13.70
   5  -2   3   66.29    9.00
   5  -2   3   72.59   11.60
   5  -2   3   67.39    9.40
   5  -2   3   77.49   10.70
   5  -2   3   73.19   10.90
  -6   2  -3   -2.10    7.70
  -6   2  -3    9.20    8.70
  -6   2  -3   -0.90    5.10
  -6   2  -3   -5.00    4.90
  -6   2  -3   -6.20    6.50
  -6   2  -3   -0.20    1.70
  -6   2  -3   -8.50    9.30
   6  -2   3    9.50    4.90
   6  -2   3    1.90    6.00
   6  -2   3   -0.20    5.40
   6  -2   3    8.70    7.00
   6  -2   3    2.50    6.30
   6  -2   3   -3.70    7.90
   6  -2   3    5.50    7.60
   6   1  -3   53.79   10.50
   6   1  -3   47.80    9.50
   6   1  -3   58.69   10.10
   6   1  -3   56.99   14.10
   6   1  -3   62.29   11.60
   6   1  -3   73.59   12.10
   6   1  -3   56.89   11.70
  -6  -1   3   48.90   11.40
  -6  -1   3   68.59   13.10
  -6  -1   3   49.00    8.90
  -6  -1   3   32.30   13.10
  -6  -1   3   63.49    8.50
  -6  -1   3   65.39    9.70
  -6  -1   3   47.10    9.60
   5   1  -3    0.10    3.60
   5   1  -3    4.40    4.30
   5   1  -3    4.50    4.90
   5   1  -3    1.10    3.70
   5   1  -3    4.10    6.70
   5   1  -3    4.30    5.50
   5   1  -3    1.20    4.80
  -5  -1   3    3.00    7.40
  -5  -1   3    0.40    4.50
  -5  -1   3    2.30    3.60
  -5  -1   3   -2.30    2.60
  -5  -1   3   -4.10    3.30
  -5  -1   3    0.80    4.30
  -5  -1   3   -0.60    3.20
  -5  -1   3    4.90    4.60
   4   1  -3   62.89    7.70
   4   1  -3   58.69    8.60
   4   1  -3   43.90    8.30
   4   1  -3   57.39    7.50
   4   1  -3   77.79    9.30
   4   1  -3   56.39   10.00
   4   1  -3   68.09    7.80
  -4  -1   3   43.80    9.50
  -4  -1   3   66.19    9.10
  -4  -1   3   60.19    7.10
  -4  -1   3   59.69    7.30
  -4  -1   3   42.80    8.20
  -4  -1   3   63.49    7.50
  -4  -1   3   49.20    8.10
   3   1  -3   37.80    6.00
   3   1  -3   42.90    6.10
   3   1  -3   33.60    5.10
   3   1  -3   41.80    5.30
   3   1  -3   48.70    5.60
   3   1  -3   41.70    6.00
   3   1  -3   41.00    7.10
  -3  -1   3   45.90    5.20
  -3  -1   3   43.50    6.30
  -3  -1   3   39.10    5.80
  -3  -1   3   39.00    5.00
  -3  -1   3   35.90    5.80
  -3  -1   3   31.20    6.80
  -3  -1   3   39.30    5.30
   2   1  -3  495.55   47.80
   2   1  -3  532.55   47.10
   2   1  -3  481.25   46.80
   2   1  -3  502.35   46.80
   2   1  -3  490.55   47.40
   2   1  -3  500.15   46.80
   2   1  -3  540.25   47.20
  -2  -1   3  456.35   47.00
  -2  -1   3  551.64   47.50
  -2  -1   3  468.25   47.00
  -2  -1   3  504.35   46.70
  -2  -1   3  540.35   46.70
  -2  -1   3  524.45   46.80
  -2  -1   3  422.26   47.60
   1   1  -3 4463.35  427.56
   1   1  -3 4777.12  427.76
   1   1  -3 4760.22  428.26
   1   1  -3 4720.33  427.56
   1   1  -3 4715.13  427.66
   1   1  -3 4872.21  428.36
   1   1  -3 4885.71  428.26
  -1  -1   3 4130.79  427.56
  -1  -1   3 4896.51  427.96
  -1  -1   3 4151.58  427.16
  -1  -1   3 5172.98  429.16
  -1  -1   3 4840.72  428.06
  -1  -1   3 4251.47  427.16
  -1  -1   3 4606.94  427.76
   0   1  -3    5.10    1.30
   0   1  -3    4.70    1.40
   0   1  -3    6.60    1.90
   0   1  -3    4.40    1.10
   0   1  -3    4.70    1.20
   0   1  -3    5.80    1.60
   0   1  -3    2.70    1.30
   0   1  -3    5.10    1.50
   0  -1   3    3.80    1.40
   0  -1   3    5.60    1.60
   0  -1   3    6.60    1.90
   0  -1   3    4.70    1.30
   0  -1   3    6.60    1.60
   0  -1   3    9.80    2.80
   0  -1   3    4.40    1.20
   0  -1   3    4.90    1.40
  -1   1  -3 1174.98  104.39
  -1   1  -3 1100.49  104.59
  -1   1  -3 1154.08  104.59
  -1   1  -3 1121.49  104.29
  -1   1  -3 1062.29  104.29
  -1   1  -3 1104.79  105.09
   1  -1   3 1119.09  104.39
   1  -1   3 1149.19  104.39
   1  -1   3 1092.99  104.29
   1  -1   3 1210.28  104.59
   1  -1   3 1162.98  104.19
  -2   1  -3 1683.23  160.98
  -2   1  -3 1631.34  160.98
  -2   1  -3 1867.41  160.88
  -2   1  -3 1750.42  160.28
  -2   1  -3 1738.03  160.48
  -2   1  -3 1659.53  160.48
  -2   1  -3 1977.40  160.58
   2  -1   3 1722.93  160.58
   2  -1   3 1795.22  160.68
   2  -1   3 1797.32  160.98
   2  -1   3 1731.33  160.48
   2  -1   3 1685.43  160.78
   2  -1   3 1628.14  160.98
  -3   1  -3   92.89   11.20
  -3   1  -3   92.59   10.00
  -3   1  -3  102.79   10.00
  -3   1  -3  117.59   10.50
  -3   1  -3   72.79   12.10
  -3   1  -3  111.49   10.40
  -3   1  -3   84.39   10.00
  -3   1  -3   82.09   10.60
   3  -1   3  109.79   11.30
   3  -1   3   70.39   12.20
   3  -1   3   92.89   10.80
   3  -1   3   90.69   10.70
   3  -1   3   99.49   11.00
   3  -1   3   92.79   10.10
   3  -1   3   98.09   10.60
   3  -1   3   96.49   10.40
   3  -1   3  110.89   10.30
  -4   1  -3  525.75   55.49
  -4   1  -3  519.15   55.59
  -4   1  -3  576.24   54.79
  -4   1  -3  598.24   54.49
  -4   1  -3  631.24   55.09
  -4   1  -3  602.24   54.39
  -4   1  -3  669.33   54.79
   4  -1   3  621.14   56.09
   4  -1   3  567.04   54.59
   4  -1   3  575.14   54.69
   4  -1   3  597.74   55.79
   4  -1   3  568.64   54.99
   4  -1   3  492.95   56.99
   4  -1   3  604.14   55.29
   4  -1   3  530.35   55.39
  -5   1  -3  104.19   11.70
  -5   1  -3   87.19   11.70
  -5   1  -3   87.99   12.90
  -5   1  -3  102.19   10.80
  -5   1  -3  100.09   11.50
  -5   1  -3   78.49   15.80
  -5   1  -3   85.79   13.40
   5  -1   3  115.29   14.80
   5  -1   3  101.89   16.20
   5  -1   3   91.89   12.50
   5  -1   3   68.79   13.20
   5  -1   3   85.29   11.70
   5  -1   3  111.79   14.10
   5  -1   3   97.59   16.40
   5  -1   3  108.59   11.90
  -6   1  -3   35.50    8.20
  -6   1  -3   39.20    6.90
  -6   1  -3   45.00    7.10
  -6   1  -3   38.30    7.70
  -6   1  -3   27.00    7.30
  -6   1  -3   42.50   15.80
  -6   1  -3   31.40    9.80
  -6   1  -3   52.09   11.70
   6  -1   3   35.40    9.50
   6  -1   3   48.40   10.20
   6  -1   3   40.10   14.40
   6  -1   3   40.70   13.90
   6  -1   3   35.40    9.10
   6  -1   3   35.70    7.60
   6  -1   3   30.00    8.80
   7   0  -3   12.80    9.10
   7   0  -3   17.90    8.70
   7   0  -3   38.20   13.10
   7   0  -3   -0.50    9.50
   7   0  -3    0.30    9.40
   7   0  -3    4.90   12.90
   7   0  -3   23.60    8.70
   7   0  -3    9.00    6.50
  -7   0   3    4.30    4.90
  -7   0   3    3.70    5.10
  -7   0   3    8.10    7.50
  -7   0   3   -1.80    6.60
  -7   0   3  -12.30   10.90
   6   0  -3  231.28   26.20
   6   0  -3  187.78   21.60
   6   0  -3  168.38   22.30
   6   0  -3  237.38   22.80
   6   0  -3  217.58   24.10
   6   0  -3  178.08   20.60
   6   0  -3  193.78   21.60
  -6   0   3  155.48   22.40
  -6   0   3  195.48   20.70
  -6   0   3  199.68   21.00
   5   0  -3  654.73   61.09
   5   0  -3  655.43   59.39
   5   0  -3  563.24   58.09
   5   0  -3  678.93   58.99
   5   0  -3  508.55   58.89
  -5   0   3  604.84   57.89
  -5   0   3  626.04   58.09
  -5   0   3  601.24   58.99
  -5   0   3  638.34   57.19
   4   0  -3    2.90    2.60
   4   0  -3    3.70    2.20
   4   0  -3    3.30    2.90
   4   0  -3   -0.10    2.30
   4   0  -3   -3.20    2.90
   4   0  -3    0.90    2.40
   4   0  -3    1.30    3.90
  -4   0   3    1.50    1.90
  -4   0   3   -0.50    2.30
  -4   0   3    4.30    2.90
  -4   0   3    2.80    1.50
  -4   0   3    4.20    2.60
  -4   0   3    2.00    3.00
  -4   0   3    1.60    4.30
  -4   0   3    3.60    3.00
   3   0  -3   44.10    5.90
   3   0  -3   49.10    5.60
   3   0  -3   40.60    5.90
   3   0  -3   41.70    6.80
   3   0  -3   40.30    5.30
   3   0  -3   42.40    5.40
   3   0  -3   37.10    5.20
  -3   0   3   34.50    5.60
  -3   0   3   29.10    6.60
  -3   0   3   39.80    5.30
  -3   0   3   42.60    5.20
  -3   0   3   35.50    5.40
  -3   0   3   42.50    4.80
  -3   0   3   45.00    5.90
  -3   0   3   56.29    6.90
   2   0  -3  598.34   53.79
   2   0  -3  559.44   53.19
   2   0  -3  579.84   53.19
   2   0  -3  604.54   52.99
   2   0  -3  551.84   53.49
   2   0  -3  574.14   53.09
   2   0  -3  530.65   52.99
  -2   0   3  579.64   53.09
  -2   0   3  499.15   53.09
  -2   0   3  516.85   53.09
  -2   0   3  640.44   53.59
  -2   0   3  653.93   52.89
  -2   0   3  500.55   53.69
  -2   0   3  605.24   52.99
   1   0  -3 2286.87  203.48
   1   0  -3 2383.16  203.88
   1   0  -3 2182.58  203.48
   1   0  -3 2352.26  203.88
   1   0  -3 2107.49  203.48
   1   0  -3 2062.29  203.48
  -1   0   3 2053.59  203.48
  -1   0   3 2061.69  203.78
  -1   0   3 2288.77  203.48
  -1   0   3 2466.85  203.98
  -1   0   3 2144.29  203.38
   0   0  -3  280.17   25.30
   0   0  -3  269.57   24.50
   0   0  -3  263.27   24.40
   0   0  -3  272.87   24.80
   0   0  -3  254.17   24.70
   0   0  -3  262.67   24.50
   0   0  -3  253.07   24.50
   0   0   3  253.17   24.50
   0   0   3  300.47   26.10
   0   0   3  275.67   24.70
   0   0   3  240.08   24.50
   0   0   3  240.18   24.50
   0   0   3  273.27   24.40
   0   0   3  223.28   24.60
  -1   0  -3   99.29   12.20
  -1   0  -3  123.99   11.20
  -1   0  -3  106.29   11.50
  -1   0  -3  126.89   11.50
  -1   0  -3  103.29   11.20
  -1   0  -3  106.89   11.10
  -1   0  -3  104.09   11.60
   1   0   3  128.19   12.80
   1   0   3  115.69   11.10
   1   0   3  117.79   11.30
   1   0   3  110.99   11.40
   1   0   3  123.69   11.70
   1   0   3  115.19   11.10
   1   0   3   98.89   11.50
  -2   0  -3  993.70   83.99
  -2   0  -3  846.02   84.09
  -2   0  -3  881.01   83.59
  -2   0  -3  834.32   84.19
  -2   0  -3  924.31   83.79
  -2   0  -3  934.81   83.39
  -2   0  -3  921.11   83.69
   2   0   3  888.91   84.19
   2   0   3  973.40   83.69
   2   0   3  931.51   83.79
   2   0   3  832.52   84.19
   2   0   3  871.71   84.89
   2   0   3  906.31   83.59
   2   0   3  879.71   83.99
  -3   0  -3   -1.50    2.10
  -3   0  -3    3.80    4.60
  -3   0  -3   -0.10    2.40
  -3   0  -3    1.90    3.00
  -3   0  -3    0.60    1.90
  -3   0  -3    1.40    3.10
   3   0   3    2.90    1.90
   3   0   3    1.10    2.40
   3   0   3    0.60    2.20
   3   0   3    1.70    2.40
   3   0   3   -3.60    2.70
   3   0   3    5.80    4.40
   3   0   3    5.10    3.20
  -4   0  -3   37.50    5.60
  -4   0  -3   41.30    6.60
  -4   0  -3   29.30    5.60
  -4   0  -3   27.50    6.60
  -4   0  -3   30.30    6.90
  -4   0  -3   34.50    5.70
  -4   0  -3   18.70    8.20
   4   0   3   29.90    5.90
   4   0   3   34.60    5.80
   4   0   3   35.30    8.80
   4   0   3   33.30    6.80
   4   0   3   29.40    6.40
   4   0   3   38.80    6.40
   4   0   3   24.90    6.80
  -5   0  -3   14.10    6.80
  -5   0  -3    0.90    8.80
  -5   0  -3    8.00    4.50
  -5   0  -3    9.50    4.50
  -5   0  -3    7.80    5.30
  -5   0  -3    7.20    4.10
  -5   0  -3   14.40    6.20
   5   0   3    8.70    4.90
   5   0   3   -2.50    6.20
   5   0   3   14.10    5.60
   5   0   3    8.60    4.50
   5   0   3    4.30    8.80
   5   0   3    9.90    5.80
   5   0   3   24.80    7.40
  -6   0  -3   25.90    7.40
  -6   0  -3   11.60    9.10
  -6   0  -3   21.40    8.20
  -6   0  -3   17.50    7.80
  -6   0  -3   15.20   13.20
  -6   0  -3   30.10   11.40
  -6   0  -3   23.20    7.00
   6   0   3   36.20    9.20
   6   0   3   22.60   10.60
   6   0   3    2.60   10.50
   6   0   3   30.80    7.50
   6   0   3   17.80   14.60
   6   0   3   41.30    8.90
   6   0   3   33.50   10.30
   7  -1  -3   29.40    9.30
   7  -1  -3   39.50   12.90
   7  -1  -3   23.10    7.10
   7  -1  -3   23.10   12.20
   7  -1  -3   39.60   10.90
   7  -1  -3   22.50    8.70
   7  -1  -3   32.70    8.90
   7  -1  -3   21.70    8.30
  -7   1   3   23.60   10.80
  -7   1   3   29.10    7.00
  -7   1   3   33.10    8.60
  -7   1   3   17.10    7.20
  -7   1   3   31.80    8.60
  -7   1   3   10.00   12.10
   6  -1  -3   58.09    9.70
   6  -1  -3   52.59    8.30
   6  -1  -3   51.39    8.90
   6  -1  -3   56.89   10.30
   6  -1  -3   48.50   11.80
   6  -1  -3   42.40    9.30
   6  -1  -3   52.09   10.60
  -6   1   3   44.00    9.10
  -6   1   3   43.20    8.10
  -6   1   3   54.19    9.40
  -6   1   3   51.89    8.00
  -6   1   3   56.29    8.40
   5  -1  -3   36.00    5.80
   5  -1  -3   35.60    7.00
   5  -1  -3   28.10    5.50
   5  -1  -3   30.50    5.70
   5  -1  -3   34.20    8.30
  -5   1   3   24.20    4.00
  -5   1   3   32.10    5.90
  -5   1   3   24.10    6.80
  -5   1   3   35.10    6.60
  -5   1   3   25.50    5.80
  -5   1   3   25.90    6.20
  -5   1   3   24.70    3.40
  -5   1   3   23.50    4.60
   4  -1  -3  200.28   18.40
   4  -1  -3  162.78   18.50
   4  -1  -3  183.38   19.70
   4  -1  -3  165.28   17.80
   4  -1  -3  181.08   17.90
   4  -1  -3  201.08   18.20
   4  -1  -3  183.18   18.60
  -4   1   3  167.48   17.30
  -4   1   3  162.68   18.40
  -4   1   3  195.18   17.10
  -4   1   3  166.68   18.80
  -4   1   3  195.48   18.20
  -4   1   3  191.98   18.60
  -4   1   3  186.68   17.80
  -4   1   3  174.88   18.10
   3  -1  -3  842.52   77.09
   3  -1  -3  749.33   77.29
   3  -1  -3  845.52   76.79
   3  -1  -3  847.22   77.69
   3  -1  -3  845.02   77.19
   3  -1  -3  739.33   76.79
   3  -1  -3  878.31   76.99
  -3   1   3  752.42   76.49
  -3   1   3  718.83   76.99
  -3   1   3  912.81   77.39
  -3   1   3  895.31   77.19
  -3   1   3  874.71   77.09
  -3   1   3  801.52   78.49
  -3   1   3  884.61   76.79
  -3   1   3  873.71   76.39
   2  -1  -3  703.93   61.09
   2  -1  -3  755.72   60.69
   2  -1  -3  682.33   60.99
   2  -1  -3  605.44   60.69
   2  -1  -3  713.43   60.69
   2  -1  -3  634.24   60.59
   2  -1  -3  642.64   60.99
  -2   1   3  574.34   60.49
  -2   1   3  559.34   60.99
  -2   1   3  597.04   60.69
  -2   1   3  637.24   62.59
  -2   1   3  703.63   60.79
  -2   1   3  616.24   60.39
  -2   1   3  768.72   60.69
   1  -1  -3  267.77   25.40
   1  -1  -3  302.07   25.50
   1  -1  -3  285.67   25.30
   1  -1  -3  302.97   27.70
   1  -1  -3  284.17   25.40
  -1   1   3  251.17   25.50
  -1   1   3  232.18   25.80
  -1   1   3  241.28   27.50
  -1   1   3  255.37   25.30
  -1   1   3  292.37   25.40
  -1   1   3  275.57   25.30
   0  -1  -3  155.28   14.00
   0  -1  -3  148.19   14.50
   0  -1  -3  149.09   14.30
   0  -1  -3  176.78   17.00
   0  -1  -3  144.19   14.60
   0  -1  -3  142.59   14.50
   0  -1  -3  142.69   14.10
   0   1   3  157.08   14.30
   0   1   3  156.78   14.10
   0   1   3  148.99   14.10
   0   1   3  127.79   14.50
   0   1   3  143.79   16.40
   0   1   3  147.39   14.50
   0   1   3  135.19   14.40
  -1  -1  -3 1895.11  177.38
  -1  -1  -3 2113.59  177.88
  -1  -1  -3 1798.22  177.78
  -1  -1  -3 1977.40  177.58
  -1  -1  -3 1969.70  177.28
  -1  -1  -3 1851.31  177.98
   1   1   3 1912.01  179.58
   1   1   3 1880.11  177.78
   1   1   3 1965.80  177.48
   1   1   3 1942.61  177.38
   1   1   3 1874.81  177.88
   1   1   3 1989.00  177.18
   1   1   3 1894.61  177.88
  -2  -1  -3   72.59    8.50
  -2  -1  -3   72.59    8.70
  -2  -1  -3   82.09    9.70
  -2  -1  -3   89.49    8.60
  -2  -1  -3   88.29    9.50
  -2  -1  -3   60.49   10.20
  -2  -1  -3   95.69   11.40
   2   1   3   88.89   11.40
   2   1   3   71.19    9.30
   2   1   3   74.19    9.30
   2   1   3   85.79    9.70
   2   1   3   72.59    8.70
   2   1   3   84.29    8.60
   2   1   3   83.69    8.50
   2   1   3   58.49   10.40
  -3  -1  -3    6.20    2.70
  -3  -1  -3    4.90    3.90
  -3  -1  -3    1.00    4.20
  -3  -1  -3    7.20    3.50
  -3  -1  -3    1.50    3.00
  -3  -1  -3    0.80    2.10
  -3  -1  -3    4.70    3.00
  -3  -1  -3   -0.60    4.90
   3   1   3    4.40    3.00
   3   1   3    4.00    2.40
   3   1   3    3.90    3.60
   3   1   3    5.90    2.70
   3   1   3    4.60    4.90
   3   1   3    1.60    3.70
   3   1   3    4.70    3.20
  -4  -1  -3  298.87   29.40
  -4  -1  -3  284.37   30.20
  -4  -1  -3  313.57   28.50
  -4  -1  -3  256.37   29.80
  -4  -1  -3  265.47   28.70
  -4  -1  -3  296.97   28.70
   4   1   3  289.27   29.10
   4   1   3  286.77   28.80
   4   1   3  312.07   30.50
   4   1   3  288.37   30.10
   4   1   3  246.88   31.80
   4   1   3  313.57   29.00
  -5  -1  -3   -8.00    9.40
  -5  -1  -3   -4.20    5.90
  -5  -1  -3    4.80    4.90
  -5  -1  -3    4.10    7.30
  -5  -1  -3   -4.60    4.20
  -5  -1  -3    0.50    4.80
   5   1   3   -1.90    5.00
   5   1   3   -0.50    4.40
   5   1   3  -12.10    6.70
   5   1   3   -3.90    5.80
   5   1   3    3.80   10.20
   5   1   3    8.70    7.20
   5   1   3    4.90    5.60
  -6  -1  -3   21.10   17.20
  -6  -1  -3   25.80   11.70
  -6  -1  -3   41.70    8.80
  -6  -1  -3   39.40   14.50
  -6  -1  -3   35.60    8.40
  -6  -1  -3   44.00   11.10
  -6  -1  -3   38.90    9.20
   6   1   3   43.50   11.70
   6   1   3   70.59   17.60
   6   1   3   44.70    9.40
   6   1   3   40.70   10.30
   6   1   3   35.10   13.60
   6   1   3   72.19   14.10
   6   1   3   42.40   10.80
   7  -2  -3  144.89   21.20
   7  -2  -3  166.48   19.30
   7  -2  -3  149.49   20.60
   7  -2  -3  137.79   21.50
   7  -2  -3  171.08   23.20
   7  -2  -3  191.78   24.80
   7  -2  -3  184.98   24.00
   7  -2  -3  213.68   20.60
  -7   2   3  207.08   20.80
  -7   2   3  202.48   21.10
  -7   2   3  184.28   19.50
  -7   2   3  162.68   20.10
   6  -2  -3   78.59   10.20
   6  -2  -3   93.59   13.10
   6  -2  -3   86.79   10.60
   6  -2  -3   93.49   13.60
   6  -2  -3   86.09   11.60
   6  -2  -3  111.39   14.30
   6  -2  -3   81.29   10.90
   6  -2  -3   77.69   11.50
  -6   2   3   68.49   14.00
  -6   2   3   79.39   10.50
  -6   2   3   71.69   12.40
  -6   2   3   58.99   10.70
  -6   2   3   79.89   11.20
  -6   2   3   80.49   10.00
   5  -2  -3  160.18   17.70
   5  -2  -3  151.18   17.50
   5  -2  -3  184.88   18.90
   5  -2  -3  181.88   18.40
   5  -2  -3  184.48   19.60
   5  -2  -3  193.48   17.90
  -5   2   3  183.28   18.50
  -5   2   3  194.58   18.70
  -5   2   3  192.48   18.30
  -5   2   3  177.98   17.40
  -5   2   3  141.19   18.00
   4  -2  -3  149.79   13.50
   4  -2  -3  140.29   14.00
   4  -2  -3  136.39   13.80
   4  -2  -3  138.99   14.40
   4  -2  -3  119.09   13.90
   4  -2  -3  132.59   13.30
   4  -2  -3  118.49   13.20
  -4   2   3  111.19   13.80
  -4   2   3  139.39   14.00
  -4   2   3  147.29   13.80
  -4   2   3  136.39   13.80
  -4   2   3  138.79   13.20
   3  -2  -3   25.20    3.50
   3  -2  -3   32.50    3.60
   3  -2  -3   25.00    3.90
   3  -2  -3   25.40    4.00
   3  -2  -3   30.60    3.60
   3  -2  -3   33.00    4.20
   3  -2  -3   29.20    4.20
   3  -2  -3   36.60    6.30
  -3   2   3   36.50    4.10
  -3   2   3   29.00    6.80
  -3   2   3   36.00    4.40
  -3   2   3   34.20    3.60
   2  -2  -3  323.67   29.10
   2  -2  -3  327.87   32.10
   2  -2  -3  336.67   29.40
   2  -2  -3  318.87   29.10
   2  -2  -3  317.37   29.60
   2  -2  -3  299.57   29.10
  -2   2   3  298.47   32.40
  -2   2   3  349.47   29.60
  -2   2   3  274.67   29.40
  -2   2   3  288.87   29.30
  -2   2   3  312.77   29.20
   1  -2  -3  135.79   11.80
   1  -2  -3  113.09   11.90
   1  -2  -3  119.49   11.60
   1  -2  -3  122.19   11.90
   1  -2  -3  122.89   11.90
   1  -2  -3  120.29   15.20
   1  -2  -3  108.79   12.30
  -1   2   3  130.69   11.70
  -1   2   3  131.99   11.50
  -1   2   3  111.59   14.60
  -1   2   3  102.59   11.80
  -1   2   3  138.59   12.00
  -1   2   3  114.19   11.60
  -1   2   3  124.99   11.90
   0  -2  -3 2415.16  216.58
   0  -2  -3 2400.66  217.38
   0  -2  -3 2199.38  217.28
   0  -2  -3 2263.67  216.88
   0  -2  -3 2335.87  216.98
   0  -2  -3 2343.27  217.48
   0  -2  -3 2475.55  220.28
   0   2   3 2528.05  216.98
   0   2   3 2440.76  216.58
   0   2   3 2287.47  216.88
   0   2   3 2500.75  220.38
   0   2   3 2335.67  217.28
   0   2   3 2392.96  217.28
   0   2   3 2152.88  217.28
  -1  -2  -3   27.80    6.30
  -1  -2  -3   34.80    4.60
  -1  -2  -3   36.30    5.60
  -1  -2  -3   39.90    4.90
  -1  -2  -3   37.20    4.20
  -1  -2  -3   38.70    8.20
  -1  -2  -3   43.90    5.60
  -1  -2  -3   33.40    5.20
   1   2   3   30.90    5.10
   1   2   3   30.00    5.20
   1   2   3   33.10    5.40
   1   2   3   23.00    5.80
   1   2   3   40.40    8.70
   1   2   3   31.80    4.80
   1   2   3   37.90    4.60
   1   2   3   39.60    4.10
  -2  -2  -3  352.76   36.40
  -2  -2  -3  417.46   35.50
  -2  -2  -3  304.57   37.30
  -2  -2  -3  381.76   35.60
  -2  -2  -3  390.16   36.20
  -2  -2  -3  410.76   39.00
  -2  -2  -3  368.56   36.50
  -2  -2  -3  366.66   35.50
   2   2   3  383.86   35.10
   2   2   3  379.26   35.40
   2   2   3  367.46   36.30
   2   2   3  386.76   36.30
   2   2   3  312.67   37.40
   2   2   3  364.76   36.40
   2   2   3  367.06   35.60
  -3  -2  -3   25.30    7.80
  -3  -2  -3   29.30    6.40
  -3  -2  -3   25.40    6.50
  -3  -2  -3   23.40    5.10
  -3  -2  -3   21.90    5.90
  -3  -2  -3   23.80    7.70
  -3  -2  -3   29.10    5.00
  -3  -2  -3   36.10    5.80
   3   2   3   36.10    6.90
   3   2   3   25.30    6.20
   3   2   3   29.70    5.70
   3   2   3   28.60    5.00
   3   2   3   32.40    8.20
   3   2   3   29.10    5.00
   3   2   3   35.70    6.90
  -4  -2  -3  598.04   58.09
  -4  -2  -3  584.54   57.29
  -4  -2  -3  661.93   57.19
  -4  -2  -3  507.45   58.39
   4   2   3  614.24   57.79
   4   2   3  614.64   57.39
   4   2   3  617.04   57.19
   4   2   3  612.74   58.69
   4   2   3  580.64   58.59
   4   2   3  634.74   59.19
   4   2   3  557.24   61.09
  -5  -2  -3   72.39   12.00
  -5  -2  -3   71.89   11.40
  -5  -2  -3   44.20   15.30
  -5  -2  -3   66.99   10.40
  -5  -2  -3   51.29    9.90
  -5  -2  -3   45.30   11.70
  -5  -2  -3   49.20   19.90
   5   2   3   64.59   12.50
   5   2   3   75.49   11.10
   5   2   3   79.19   16.70
   5   2   3   66.69   13.00
   5   2   3   78.99   12.60
   5   2   3   60.29   10.20
   5   2   3   42.40   17.30
  -6  -2  -3   -7.70    9.80
  -6  -2  -3   -1.40   18.90
  -6  -2  -3   -8.70   11.20
  -6  -2  -3    5.30    9.00
  -6  -2  -3   14.20    8.30
  -6  -2  -3   18.30   14.00
   6   2   3   19.40   18.60
   6   2   3   -1.00    9.20
   6   2   3   -1.50   10.90
   6   2   3    1.70    7.60
   6   2   3   -5.20    9.40
   6   2   3    2.00   12.90
   7  -3  -3   11.10    9.30
   7  -3  -3   12.50    6.90
   7  -3  -3   15.40    5.20
   7  -3  -3   17.20    9.80
   7  -3  -3   18.60    7.50
   7  -3  -3   14.00    6.80
   7  -3  -3   15.40    5.20
   7  -3  -3   11.20    7.30
  -7   3   3   22.00    7.10
  -7   3   3   10.40    4.60
  -7   3   3   15.90    5.80
  -7   3   3   10.60    8.90
   6  -3  -3   93.39   10.50
   6  -3  -3   92.29   12.20
   6  -3  -3   97.29   13.90
   6  -3  -3   75.29   11.00
   6  -3  -3   78.39   11.60
   6  -3  -3  100.39   13.20
   6  -3  -3   90.19   12.00
  -6   3   3   63.89   12.10
  -6   3   3   85.59   11.30
  -6   3   3   93.09   10.80
   5  -3  -3  126.49   15.20
   5  -3  -3  156.78   15.80
   5  -3  -3  159.38   15.70
   5  -3  -3  145.29   14.60
   5  -3  -3  150.38   15.70
   5  -3  -3  141.39   14.50
   5  -3  -3  144.69   14.80
  -5   3   3  152.38   15.70
  -5   3   3  125.09   14.90
  -5   3   3  161.48   14.40
   4  -3  -3  559.24   53.89
   4  -3  -3  579.14   54.29
   4  -3  -3  582.44   53.79
   4  -3  -3  586.24   54.19
   4  -3  -3  558.24   54.59
  -4   3   3  638.94   53.79
  -4   3   3  557.94   54.79
   3  -3  -3  187.18   19.20
   3  -3  -3  229.38   19.90
   3  -3  -3  234.28   23.20
   3  -3  -3  193.88   19.00
   3  -3  -3  208.28   19.20
   3  -3  -3  227.38   18.90
  -3   3   3  207.08   20.00
  -3   3   3  179.68   18.90
  -3   3   3  179.88   19.00
   2  -3  -3   34.70    3.60
   2  -3  -3   25.20    3.10
   2  -3  -3   22.60    3.30
   2  -3  -3   31.90    3.10
   2  -3  -3   25.90    7.50
   2  -3  -3   32.80    3.10
   2  -3  -3   26.70    3.30
  -2   3   3   28.50    3.00
  -2   3   3   33.00    4.30
  -2   3   3   31.50    3.30
  -2   3   3   21.40    3.30
   1  -3  -3   72.09   12.30
   1  -3  -3   53.19    8.10
   1  -3  -3   68.49    7.60
   1  -3  -3   64.39    7.00
   1  -3  -3   63.39    7.50
   1  -3  -3   66.89    7.10
   1  -3  -3   75.29    7.60
  -1   3   3   70.79    7.60
  -1   3   3   74.69    6.70
  -1   3   3   72.99    7.40
  -1   3   3   69.89    7.00
  -1   3   3   81.79    6.70
  -1   3   3   61.79    7.40
   0  -3  -3  130.59   14.20
   0  -3  -3  117.29   15.40
   0  -3  -3  142.19   17.90
   0  -3  -3  142.79   14.30
   0  -3  -3  139.19   13.70
   0  -3  -3  136.79   13.80
   0  -3  -3  149.69   14.50
   0  -3  -3  144.09   13.00
   0   3   3  135.09   13.60
   0   3   3  143.69   14.40
   0   3   3  147.19   13.70
   0   3   3  116.99   15.10
   0   3   3  154.28   14.20
   0   3   3  134.89   14.20
  -1  -3  -3   15.30    4.10
  -1  -3  -3   19.70    7.30
  -1  -3  -3   15.80    4.10
  -1  -3  -3   18.50    3.40
  -1  -3  -3   22.00    4.20
  -1  -3  -3   13.90    5.40
  -1  -3  -3   21.00    3.90
   1   3   3   17.60    3.90
   1   3   3   17.90    2.50
   1   3   3   16.10    4.20
   1   3   3   15.20    3.40
   1   3   3    9.20    4.80
   1   3   3   19.00    4.20
   1   3   3   17.30    3.20
  -2  -3  -3   -1.00    2.90
  -2  -3  -3   -3.10    3.30
  -2  -3  -3    2.70    5.60
  -2  -3  -3    5.20    5.50
  -2  -3  -3    1.20    2.40
  -2  -3  -3   -2.70    2.30
  -2  -3  -3    0.30    3.10
  -2  -3  -3    1.90    2.40
   2   3   3    2.20    3.60
   2   3   3   -4.20    2.80
   2   3   3   -2.20    4.30
   2   3   3   -1.60    2.50
   2   3   3    1.60    3.60
   2   3   3   -1.80    1.90
   2   3   3   -0.20    1.60
  -3  -3  -3   37.10   10.70
  -3  -3  -3   47.70    7.60
  -3  -3  -3   43.60    8.40
  -3  -3  -3   52.49    7.10
  -3  -3  -3   22.90    9.30
  -3  -3  -3   42.00    7.10
  -3  -3  -3   41.80    8.70
  -3  -3  -3   45.30    8.20
   3   3   3   45.40   10.60
   3   3   3   39.80    7.30
   3   3   3   48.60    6.70
   3   3   3   44.00    8.50
   3   3   3   44.40    6.90
   3   3   3   46.60    8.80
   3   3   3   55.99    9.30
  -4  -3  -3   16.90   10.60
  -4  -3  -3   26.60    6.30
  -4  -3  -3   27.90    6.30
  -4  -3  -3   24.10    9.90
  -4  -3  -3   25.10    6.00
  -4  -3  -3   13.50    7.30
  -4  -3  -3   31.30    8.00
   4   3   3   27.30    6.00
   4   3   3   27.00    8.80
   4   3   3   30.90    6.30
   4   3   3   23.20    8.40
   4   3   3   21.20    7.70
   4   3   3    7.40   10.00
   4   3   3   21.30    6.60
  -5  -3  -3   25.70   10.00
  -5  -3  -3   46.30    8.60
  -5  -3  -3   40.30   12.60
  -5  -3  -3   35.40    8.70
  -5  -3  -3   58.39   12.40
  -5  -3  -3   18.30   16.20
   5   3   3   46.60   12.30
   5   3   3   41.10   14.90
   5   3   3   34.30   12.00
   5   3   3   33.60    8.40
   5   3   3   36.10   10.90
   5   3   3   37.60   10.40
   5   3   3   45.10    9.20
   7  -4  -3   19.00    3.90
   7  -4  -3   -3.60    9.60
   7  -4  -3   21.90    7.50
   7  -4  -3   19.90    5.80
   7  -4  -3   37.40   10.00
   7  -4  -3   19.80    7.00
   7  -4  -3   23.10    4.30
   7  -4  -3   21.60    5.80
  -7   4   3   21.70    7.70
  -7   4   3   21.80    4.70
   6  -4  -3    9.20    3.70
   6  -4  -3    6.60    2.10
   6  -4  -3    6.40    3.60
   6  -4  -3   10.30    2.60
   6  -4  -3    7.80    4.70
   6  -4  -3    6.10    3.20
   6  -4  -3   15.00    5.40
   6  -4  -3   10.90    6.70
  -6   4   3    7.50    2.50
  -6   4   3   10.20    4.70
  -6   4   3    7.70    1.90
   5  -4  -3   10.20    3.60
   5  -4  -3    9.40    5.00
   5  -4  -3    9.00    2.50
   5  -4  -3   14.20    5.70
   5  -4  -3    9.00    2.50
   5  -4  -3    8.80    1.60
   5  -4  -3    8.60    1.40
   5  -4  -3    9.10    2.10
   5  -4  -3   10.10    3.80
  -5   4   3   10.40    3.90
   4  -4  -3  147.59   13.40
   4  -4  -3  150.08   14.10
   4  -4  -3  128.59   13.40
   4  -4  -3  165.68   19.00
   4  -4  -3  149.29   13.70
   4  -4  -3  138.89   14.80
  -4   4   3  142.49   15.20
   3  -4  -3   18.90    2.40
   3  -4  -3   16.70    2.10
   3  -4  -3   23.40    7.70
   3  -4  -3   22.30    3.50
  -3   4   3   15.60    4.00
   2  -4  -3  357.16   31.20
   2  -4  -3  349.96   31.10
   2  -4  -3  331.67   36.90
   2  -4  -3  307.87   31.30
   2  -4  -3  341.17   31.60
  -2   4   3  380.16   31.00
  -2   4   3  291.87   31.10
  -2   4   3  310.17   32.00
   1  -4  -3    0.70    2.50
   1  -4  -3    3.10    0.70
   1  -4  -3    0.60    1.30
   1  -4  -3    2.70    1.90
   1  -4  -3    0.50    5.70
   1  -4  -3    1.70    1.90
  -1   4   3    3.50    2.30
  -1   4   3    1.00    1.10
  -1   4   3    2.50    1.70
  -1   4   3    2.10    0.60
  -1   4   3    0.80    1.40
  -1   4   3    2.90    0.70
  -1   4   3    1.60    2.20
   0  -4  -3 1268.77  113.19
   0  -4  -3 1203.68  112.29
   0  -4  -3 1221.78  113.09
   0  -4  -3 1225.98  117.89
   0  -4  -3 1247.28  112.89
   0  -4  -3 1214.58  112.29
   0   4   3 1180.78  112.09
   0   4   3 1177.88  112.79
   0   4   3 1293.77  112.09
   0   4   3 1153.48  112.69
   0   4   3 1299.17  112.49
   0   4   3 1070.19  113.59
  -1  -4  -3  401.76   39.40
  -1  -4  -3  410.66   40.40
  -1  -4  -3  425.96   39.50
  -1  -4  -3  415.36   40.20
  -1  -4  -3  422.46   39.40
  -1  -4  -3  413.06   45.00
  -1  -4  -3  408.46   40.50
   1   4   3  392.46   40.10
   1   4   3  447.06   38.30
   1   4   3  398.46   40.10
   1   4   3  401.76   39.20
   1   4   3  416.06   39.30
   1   4   3  454.25   40.10
   1   4   3  346.57   41.20
  -2  -4  -3   14.70    8.40
  -2  -4  -3   20.60    5.70
  -2  -4  -3   16.40    7.30
  -2  -4  -3   10.80    4.00
  -2  -4  -3   19.80    4.50
  -2  -4  -3   17.30    5.10
  -2  -4  -3   13.50    4.20
  -2  -4  -3   19.30    5.70
   2   4   3   17.90    3.20
   2   4   3   13.30    4.40
   2   4   3   11.80    6.90
   2   4   3    9.00    5.20
   2   4   3   13.40    3.60
   2   4   3   20.80    5.30
   2   4   3   14.00    4.60
  -3  -4  -3   71.89   11.00
  -3  -4  -3   65.99   12.20
  -3  -4  -3   63.39    9.70
  -3  -4  -3   65.49    9.90
  -3  -4  -3   89.49   17.20
  -3  -4  -3   63.39   11.30
  -3  -4  -3   63.09   10.90
   3   4   3   70.19   12.10
   3   4   3   62.99   11.40
   3   4   3   63.79    8.60
   3   4   3   63.69    9.50
   3   4   3   83.99   12.40
   3   4   3   72.59   10.40
   3   4   3   65.49   14.20
  -4  -4  -3    2.30    7.40
  -4  -4  -3   10.00    5.90
  -4  -4  -3    8.20    5.80
  -4  -4  -3    0.70   10.30
  -4  -4  -3    3.20    7.50
  -4  -4  -3    3.50    5.20
  -4  -4  -3    5.90    8.70
  -4  -4  -3   10.80   11.40
   4   4   3   12.70   11.20
   4   4   3    0.30    7.90
   4   4   3    4.80    5.00
   4   4   3    6.50    7.90
   4   4   3    6.80    5.90
   4   4   3    7.40    4.80
  -5  -4  -3   10.10    8.50
  -5  -4  -3   32.60   11.90
  -5  -4  -3   11.80   11.30
  -5  -4  -3   23.40   13.40
  -5  -4  -3   29.30    8.70
  -5  -4  -3   13.10   14.10
  -5  -4  -3   29.00    8.20
  -5  -4  -3    6.80   21.30
   5   4   3    8.70    7.60
   5   4   3    2.80   11.20
   5   4   3   13.60    9.30
   5   4   3   -2.00   16.00
   5   4   3   17.90   12.40
   5   4   3   20.90   11.60
   5   4   3    9.40    7.70
   7  -5  -3    7.40    5.60
   6  -5  -3  461.85   44.10
   6  -5  -3  414.66   41.40
   6  -5  -3  493.25   42.40
   6  -5  -3  425.06   42.50
  -6   5   3  393.56   42.90
   5  -5  -3   18.90    4.30
   5  -5  -3    3.90    5.30
   5  -5  -3   12.10    3.30
   5  -5  -3   23.70    8.30
   5  -5  -3   15.30    2.60
  -5   5   3    7.60    4.40
   4  -5  -3   42.10    4.20
   4  -5  -3   35.20    6.40
   4  -5  -3   33.30   11.40
   4  -5  -3   41.40    4.10
   4  -5  -3   29.30    5.50
  -4   5   3   39.50    6.40
   3  -5  -3  143.49   16.00
   3  -5  -3  154.88   15.10
   3  -5  -3  147.09   23.30
   3  -5  -3  175.88   14.90
   3  -5  -3  165.88   16.00
  -3   5   3  153.98   16.70
   2  -5  -3   43.30   12.20
   2  -5  -3   41.30    4.80
   2  -5  -3   37.40    4.50
   2  -5  -3   31.80    5.60
   2  -5  -3   34.30    4.50
   2  -5  -3   39.20    4.50
   2  -5  -3   34.60    4.90
   2  -5  -3   38.90    5.10
  -2   5   3   39.20    4.60
  -2   5   3   45.10    4.20
  -2   5   3   39.20    5.10
  -2   5   3   45.70    6.10
   1  -5  -3    2.60    2.30
   1  -5  -3   -1.30    3.30
   1  -5  -3    4.10    6.50
   1  -5  -3    2.30    2.40
   1  -5  -3    2.70    1.90
   1  -5  -3    0.70    2.60
   1  -5  -3    4.60    1.70
  -1   5   3    2.60    2.50
  -1   5   3    0.50    2.90
  -1   5   3    4.30    1.70
  -1   5   3    4.50    2.00
   0  -5  -3   75.09    9.40
   0  -5  -3   56.79   11.00
   0  -5  -3   71.89    8.50
   0  -5  -3   65.49    9.10
   0  -5  -3   70.29    9.90
   0  -5  -3   69.29   16.00
   0  -5  -3   72.29    8.50
   0   5   3   66.09   10.60
   0   5   3   86.69    9.80
   0   5   3   64.79    9.30
   0   5   3   86.09    8.30
   0   5   3   70.29    8.30
   0   5   3   94.39    9.00
  -1  -5  -3   60.89   13.20
  -1  -5  -3  102.99   10.70
  -1  -5  -3   79.49   11.90
  -1  -5  -3   90.09   11.50
  -1  -5  -3   82.59   10.10
  -1  -5  -3   82.09   11.20
  -1  -5  -3   92.89   18.60
  -1  -5  -3   91.39   10.40
   1   5   3   91.49   11.50
   1   5   3   82.59    9.90
   1   5   3   90.59   10.20
   1   5   3   77.39   11.10
   1   5   3   92.69    8.50
   1   5   3   82.09   13.40
   1   5   3   88.49   11.20
  -2  -5  -3   17.20    4.90
  -2  -5  -3   25.10    5.10
  -2  -5  -3   22.50    8.50
  -2  -5  -3    6.80   11.20
  -2  -5  -3   12.50    5.70
  -2  -5  -3    8.10    7.30
  -2  -5  -3   20.30    5.20
  -2  -5  -3   23.00    8.90
   2   5   3   18.80    6.50
   2   5   3   18.90    3.20
   2   5   3   15.60    4.70
   2   5   3   20.50    6.40
   2   5   3   10.30    6.00
   2   5   3   24.30    8.90
   2   5   3   20.60    5.30
  -3  -5  -3   80.69   17.00
  -3  -5  -3  110.19   12.00
  -3  -5  -3   66.89   18.80
  -3  -5  -3   91.39   12.20
  -3  -5  -3   76.39   13.80
  -3  -5  -3   98.49   12.50
  -3  -5  -3   72.69   14.00
  -3  -5  -3   77.59   14.20
   3   5   3   71.99   13.10
   3   5   3   96.49   14.30
   3   5   3   79.89   16.40
   3   5   3   97.79   12.20
   3   5   3  100.39   10.50
   3   5   3   69.09   14.20
   3   5   3   88.19   13.10
  -4  -5  -3  125.89   20.40
  -4  -5  -3  101.99   15.10
  -4  -5  -3  124.19   19.00
  -4  -5  -3  177.18   29.10
  -4  -5  -3   77.19   21.00
  -4  -5  -3   76.59   15.20
  -4  -5  -3  114.09   19.30
  -4  -5  -3  126.79   16.00
   4   5   3  103.49   17.20
   4   5   3  127.19   19.70
   4   5   3  133.69   22.80
   4   5   3   82.99   17.20
   4   5   3  125.89   14.40
   4   5   3  122.19   17.60
   4   5   3  116.79   15.60
   6  -6  -3   -9.40    8.40
   6  -6  -3    1.70    2.90
   6  -6  -3   -1.00    4.10
   6  -6  -3   11.80    5.30
   6  -6  -3   -5.00    6.60
   5  -6  -3  105.69   13.20
   5  -6  -3  115.39   10.50
   5  -6  -3  114.39   21.70
   5  -6  -3   91.19   12.10
   5  -6  -3  102.89   10.10
  -5   6   3   86.19   12.40
   4  -6  -3  332.67   29.90
   4  -6  -3  336.07   40.40
   4  -6  -3  299.07   32.60
   4  -6  -3  304.97   31.40
   4  -6  -3  350.46   29.70
  -4   6   3  291.87   31.90
   3  -6  -3    3.10    2.10
   3  -6  -3    1.70    1.30
   3  -6  -3    5.00    9.20
   3  -6  -3    2.50    2.30
  -3   6   3    2.40    3.70
   2  -6  -3   16.30    3.50
   2  -6  -3   27.30   10.80
   2  -6  -3   22.30    4.00
   2  -6  -3   18.20    2.90
   2  -6  -3   15.30    3.50
   2  -6  -3   18.50    2.40
   2  -6  -3   14.40    4.70
   2  -6  -3   16.00    3.00
  -2   6   3   16.10    2.90
  -2   6   3   16.90    3.50
  -2   6   3   15.20    4.90
  -2   6   3   16.60    3.30
  -2   6   3   16.20    2.70
   1  -6  -3  286.77   35.00
   1  -6  -3  353.46   34.00
   1  -6  -3  368.46   33.10
   1  -6  -3  341.07   33.10
   1  -6  -3  346.67   33.90
   1  -6  -3  355.96   42.70
   1  -6  -3  343.77   33.70
  -1   6   3  345.27   33.40
  -1   6   3  346.47   34.60
  -1   6   3  344.47   32.80
  -1   6   3  363.66   33.50
   0  -6  -3  675.23   63.29
   0  -6  -3  672.83   63.29
   0  -6  -3  670.63   62.09
   0  -6  -3  715.13   71.59
   0  -6  -3  659.83   62.89
   0  -6  -3  655.53   62.09
   0  -6  -3  554.04   64.49
   0   6   3  674.53   61.49
   0   6   3  619.04   62.69
   0   6   3  600.14   64.09
   0   6   3  676.23   62.79
   0   6   3  650.53   61.79
   0   6   3  723.93   61.89
  -1  -6  -3   11.90    5.20
  -1  -6  -3    9.00    7.40
  -1  -6  -3   14.20   12.10
  -1  -6  -3   13.00    4.40
  -1  -6  -3   19.60    6.20
   1   6   3   15.50    4.40
   1   6   3   24.70    8.30
   1   6   3   29.00    6.40
   1   6   3   20.10    4.70
   1   6   3   16.00    5.60
   1   6   3   17.30    5.80
  -2  -6  -3  186.48   23.60
  -2  -6  -3  206.68   22.00
  -2  -6  -3  190.58   31.90
  -2  -6  -3  199.18   23.60
  -2  -6  -3  228.98   22.00
  -2  -6  -3  212.68   22.30
  -2  -6  -3  193.38   24.30
  -2  -6  -3  175.38   27.20
   2   6   3  184.88   23.30
   2   6   3  214.88   22.50
   2   6   3  217.18   19.80
   2   6   3  179.68   26.50
   2   6   3  205.48   21.90
   2   6   3  234.78   23.90
   2   6   3  226.78   23.40
  -3  -6  -3  -12.50    7.40
  -3  -6  -3    8.70    6.50
  -3  -6  -3    9.10   13.30
  -3  -6  -3   20.70    9.90
  -3  -6  -3   15.40   15.90
  -3  -6  -3   13.40    7.00
  -3  -6  -3    9.30    8.60
  -3  -6  -3   18.40    6.60
   3   6   3    9.90    7.30
   3   6   3   -3.40    8.00
   3   6   3    5.40    3.80
   3   6   3   -1.60   11.60
   3   6   3    7.90    8.70
   3   6   3    8.60    6.20
   3   6   3   20.00    9.50
  -4  -6  -3   -7.80   10.70
  -4  -6  -3   18.20   18.50
  -4  -6  -3   14.10    9.10
  -4  -6  -3   24.40   21.10
  -4  -6  -3   27.20   11.80
  -4  -6  -3   -3.10    8.50
  -4  -6  -3   12.60    8.40
  -4  -6  -3    3.70   12.80
   4   6   3   15.50    6.80
   4   6   3   24.40   12.60
   4   6   3    6.40    9.60
   4   6   3   -3.00    7.90
   4   6   3    7.70   12.60
   4   6   3   10.00   12.30
   4   6   3  -28.90   18.30
   6  -7  -3   12.80    5.90
   6  -7  -3   23.30    3.70
   6  -7  -3   27.00    8.30
   6  -7  -3   -2.10   12.90
   6  -7  -3   18.10    3.50
  -6   7   3    5.60    6.40
   5  -7  -3   31.10    6.70
   5  -7  -3   18.80   16.20
  -5   7   3   19.00    6.30
   4  -7  -3   30.50    5.40
   4  -7  -3   31.80    3.80
   4  -7  -3   25.10    5.40
   4  -7  -3   47.10   16.30
   4  -7  -3   33.40    4.70
  -4   7   3   28.90    7.00
   3  -7  -3   -2.60    1.90
   3  -7  -3   -2.60   12.40
   3  -7  -3    1.00    1.80
   3  -7  -3    3.10    2.90
  -3   7   3    2.80    4.20
   2  -7  -3  296.97   29.10
   2  -7  -3  253.77   30.20
   2  -7  -3  286.47   29.60
   2  -7  -3  309.77   29.20
   2  -7  -3  287.97   28.70
   2  -7  -3  312.67   29.50
  -2   7   3  306.67   28.50
  -2   7   3  304.97   28.10
  -2   7   3  329.27   28.60
  -2   7   3  271.77   29.70
   1  -7  -3  549.74   51.79
   1  -7  -3  545.45   50.79
   1  -7  -3  575.84   50.69
   1  -7  -3  575.54   62.59
   1  -7  -3  448.56   53.29
   1  -7  -3  555.74   51.69
   1  -7  -3  536.55   51.69
  -1   7   3  513.45   52.19
  -1   7   3  563.34   51.09
  -1   7   3  513.15   50.99
  -1   7   3  513.05   50.29
   0  -7  -3    8.90    4.90
   0  -7  -3    0.80    4.90
   0  -7  -3    3.70    3.70
   0  -7  -3    9.00    6.20
   0  -7  -3   -3.60   13.30
   0  -7  -3    6.70    4.10
   0  -7  -3   14.10    7.90
   0   7   3    8.50    3.40
   0   7   3    8.50    5.40
   0   7   3    6.50    3.40
   0   7   3    8.90    5.20
   0   7   3    6.40    3.00
   0   7   3    2.50    6.10
  -1  -7  -3   22.90    6.20
  -1  -7  -3   16.40    5.30
  -1  -7  -3   19.10    6.50
  -1  -7  -3   13.60    8.10
  -1  -7  -3   21.90    5.80
  -1  -7  -3    4.90   15.70
  -1  -7  -3   10.20   10.10
  -1  -7  -3   -0.70    6.60
   1   7   3   16.90    6.20
   1   7   3    8.90    8.90
   1   7   3   18.00    6.90
   1   7   3   17.00    6.60
   1   7   3   24.30    5.30
   1   7   3   14.40    4.90
  -2  -7  -3   -5.50    8.00
  -2  -7  -3    1.40    5.40
  -2  -7  -3   -4.10    5.60
  -2  -7  -3   13.60    8.10
  -2  -7  -3    9.80   11.70
  -2  -7  -3   13.00    7.90
  -2  -7  -3   -1.60   16.10
   2   7   3   10.70    7.90
   2   7   3   -3.70    7.00
   2   7   3   12.40   10.70
   2   7   3    3.80    7.60
   2   7   3    0.70    6.10
   2   7   3   11.30    6.40
   2   7   3    0.10    1.80
  -3  -7  -3   58.89   14.50
  -3  -7  -3   50.29   13.10
  -3  -7  -3   54.39   14.00
  -3  -7  -3   25.10   17.40
  -3  -7  -3   81.89   16.90
  -3  -7  -3   48.00   10.70
  -3  -7  -3   66.29   10.80
  -3  -7  -3   58.69   23.80
   3   7   3   62.49   11.30
   3   7   3   65.49   12.10
   3   7   3   58.89   13.70
   3   7   3   51.49   17.20
   3   7   3   51.99   13.70
   3   7   3   55.19    8.30
   3   7   3   37.70   13.70
   5  -8  -3  130.99   28.40
   5  -8  -3  123.49   14.50
   5  -8  -3  105.89   13.80
  -5   8   3  107.49   21.30
   4  -8  -3   27.80    4.40
   4  -8  -3   24.70    5.40
   4  -8  -3   24.40    4.70
   4  -8  -3   20.80    4.60
   4  -8  -3   21.30   18.70
  -4   8   3   15.40    6.50
   3  -8  -3   -1.30   17.90
   3  -8  -3   16.50    5.10
   3  -8  -3   22.50    3.30
   3  -8  -3   16.90    2.80
   3  -8  -3   22.10    4.20
  -3   8   3   26.80    6.40
   2  -8  -3  175.28   19.40
   2  -8  -3  209.48   35.30
   2  -8  -3  147.19   21.10
   2  -8  -3  183.88   20.00
   2  -8  -3  197.08   19.40
   2  -8  -3  183.18   18.90
  -2   8   3  159.38   18.10
  -2   8   3  196.08   18.40
  -2   8   3  194.18   18.50
  -2   8   3  192.18   19.20
   1  -8  -3  121.09   14.80
   1  -8  -3  155.28   14.50
   1  -8  -3  124.19   16.40
   1  -8  -3  146.79   17.00
   1  -8  -3  148.19   27.70
   1  -8  -3  109.69   19.00
   1  -8  -3  126.69   16.10
  -1   8   3  144.59   17.50
  -1   8   3  116.19   14.90
  -1   8   3  134.29   15.50
  -1   8   3  121.69   14.00
   0  -8  -3   22.80   10.90
   0  -8  -3   53.99    8.00
   0  -8  -3   43.20    9.00
   0  -8  -3   34.20    7.10
   0  -8  -3   34.80    9.50
   0  -8  -3   18.00    8.40
   0  -8  -3   40.00    7.30
   0  -8  -3   43.50   17.60
   0   8   3   44.10    6.20
   0   8   3   43.40    7.00
   0   8   3   27.40    5.30
   0   8   3   37.00   10.30
   0   8   3   40.80    8.50
  -1  -8  -3   80.59   14.80
  -1  -8  -3  102.19   15.40
  -1  -8  -3   88.19   13.30
  -1  -8  -3  100.79   13.50
  -1  -8  -3   93.69   14.10
  -1  -8  -3  117.89   18.00
  -1  -8  -3   86.59   25.10
  -1  -8  -3   51.39   16.50
   1   8   3   90.39   13.80
   1   8   3   84.89   13.90
   1   8   3  107.89   20.50
   1   8   3   83.89   13.10
   1   8   3   91.09   12.50
   1   8   3   73.09   14.60
  -2  -8  -3   43.20    9.30
  -2  -8  -3   20.50   11.70
  -2  -8  -3   15.90   16.30
  -2  -8  -3   20.80   23.00
  -2  -8  -3   51.99    9.40
  -2  -8  -3   41.70    8.90
  -2  -8  -3   27.60   12.20
  -2  -8  -3   31.60   11.40
   2   8   3   27.40   11.20
   2   8   3   44.40   10.00
   2   8   3   19.80   11.90
   2   8   3   34.20    9.20
   2   8   3   34.40   10.50
   2   8   3   36.30   15.00
   4  -9  -3    4.00    3.50
   4  -9  -3   12.50   21.60
   4  -9  -3   15.10    5.40
   4  -9  -3    5.10    3.00
   4  -9  -3    2.30    4.70
  -4   9   3    1.40    6.20
   3  -9  -3    6.60    6.10
   3  -9  -3   15.60    3.20
   3  -9  -3   13.90    4.30
   3  -9  -3   19.50    5.00
   3  -9  -3   40.60   23.50
  -3   9   3    8.50    5.90
   2  -9  -3   -1.10    7.40
   2  -9  -3   -3.00    4.50
   2  -9  -3   12.00   21.40
   2  -9  -3    1.20    4.60
   2  -9  -3    0.80    5.60
   2  -9  -3  -13.10    5.90
  -2   9   3    5.20    3.90
  -2   9   3   -1.80    3.70
  -2   9   3   -1.90    3.10
  -2   9   3   -0.10    4.30
   1  -9  -3  130.39   31.90
   1  -9  -3  106.09   17.20
   1  -9  -3  138.39   14.40
   1  -9  -3  121.89   17.50
   1  -9  -3  124.29   15.40
   1  -9  -3   91.39   18.10
   1  -9  -3  125.29   16.80
  -1   9   3  115.79   15.10
  -1   9   3  129.59   18.00
  -1   9   3  109.59   14.00
  -1   9   3  127.19   15.60
   0  -9  -3  236.38   26.50
   0  -9  -3  191.28   26.80
   0  -9  -3  232.18   39.80
   0  -9  -3  194.58   26.80
   0  -9  -3  225.38   25.40
   0  -9  -3  252.67   24.70
   0  -9  -3  203.98   24.80
   0   9   3  232.18   22.30
   0   9   3  221.88   24.40
   0   9   3  231.18   29.40
   0   9   3  248.98   26.20
   0   9   3  228.68   22.40
  -1  -9  -3   37.00   26.00
  -1  -9  -3   50.39   11.00
  -1  -9  -3   45.00   18.50
  -1  -9  -3   67.09   10.60
  -1  -9  -3   53.79   13.00
  -1  -9  -3   36.90   13.00
  -1  -9  -3   81.19   14.70
   1   9   3   40.60   12.80
   1   9   3   57.49   11.40
   1   9   3   66.89   12.80
   1   9   3   20.70   14.30
   3 -10  -3  152.78   16.80
   3 -10  -3  144.29   15.90
   3 -10  -3  180.98   41.10
   3 -10  -3  156.38   20.30
   3 -10  -3  164.08   18.00
   2 -10  -3    8.10    9.10
   2 -10  -3   14.70   10.40
   2 -10  -3   21.30    7.20
   2 -10  -3   15.90    7.20
   2 -10  -3   11.90    6.60
   2 -10  -3   10.10   28.60
  -2  10   3   18.10    6.20
  -2  10   3   10.60    4.10
  -2  10   3   11.10    5.40
  -2  10   3   13.00    5.30
   1 -10  -3   18.40    9.60
   1 -10  -3   21.90   12.30
   1 -10  -3   17.90    6.20
   1 -10  -3   14.20    8.30
   1 -10  -3   12.40   29.20
   1 -10  -3   25.30   10.70
   1 -10  -3   24.20    9.00
   1 -10  -3    9.90   13.60
  -1  10   3   14.80    8.10
  -1  10   3   21.00    6.50
  -1  10   3   -1.70   12.80
  -1  10   3   12.10    7.60
   1  10  -4   -2.90   11.20
   1  10  -4   -3.00    9.40
   1  10  -4    3.40    9.50
   1  10  -4    1.50    7.50
   1  10  -4    4.70    3.80
  -1 -10   4    9.00    9.80
  -1 -10   4    5.80    5.70
  -1 -10   4   37.00   10.30
  -1 -10   4   25.30   14.10
  -1 -10   4   20.80   10.20
  -1 -10   4   14.30    7.40
  -1 -10   4   18.00    8.40
   0  10  -4    6.30    4.70
   0  10  -4    0.60    4.10
   0  10  -4   -0.50    6.60
   0  10  -4    3.20    8.60
   0  10  -4    6.00    3.50
   0  10  -4    7.80    7.40
   0 -10   4    2.40    7.20
   0 -10   4  -10.50    7.80
   0 -10   4   -1.70    5.50
   0 -10   4    2.80    9.60
   0 -10   4   -5.20    4.20
   0 -10   4    7.50    7.50
   0 -10   4   -1.30    6.50
  -1  10  -4   75.39   14.40
  -1  10  -4   81.19   12.00
  -1  10  -4   98.59   14.00
  -1  10  -4   80.89   10.10
  -1  10  -4   88.99   12.40
   1 -10   4   56.49   13.30
   1 -10   4   76.19   11.10
   1 -10   4   76.99   12.60
   1 -10   4   58.99   11.30
   1 -10   4   70.49   11.70
   1 -10   4   74.99    9.10
   1 -10   4  109.49   13.70
  -2  10  -4  140.79   13.30
  -2  10  -4   89.09   13.70
  -2  10  -4  140.59   14.60
   2 -10   4  120.29   13.20
   2 -10   4   93.39   17.10
   2 -10   4  127.29   15.70
   2 -10   4  106.59   13.90
   2 -10   4  109.59   15.00
   2 -10   4  106.29   10.80
   2 -10   4  102.39   11.00
   2 -10   4  104.59   15.70
  -3  10  -4  137.49   19.50
  -3  10  -4  180.08   15.80
  -3  10  -4  161.58   16.30
   3 -10   4  159.38   18.30
   3 -10   4  123.59   19.40
   3 -10   4  149.69   17.80
   3 -10   4  145.99   18.60
   3 -10   4  150.48   17.40
   3 -10   4  174.48   17.20
   3 -10   4  146.29   16.50
   2   9  -4   93.79   17.10
   2   9  -4   98.59   14.90
   2   9  -4   76.09   16.90
   2   9  -4   87.99   13.60
   2   9  -4  101.99   16.40
   2   9  -4   77.59   13.10
   2   9  -4   80.99   11.30
  -2  -9   4  103.89   18.20
  -2  -9   4   61.49   10.80
  -2  -9   4   71.09   15.00
  -2  -9   4   75.89   13.40
  -2  -9   4   64.49   14.30
  -2  -9   4  109.09   14.00
   1   9  -4   62.89   13.90
   1   9  -4   82.09    9.20
   1   9  -4   89.19   12.90
   1   9  -4   54.89   10.60
   1   9  -4   91.29   17.40
   1   9  -4  103.29   13.90
  -1  -9   4   69.09   11.90
  -1  -9   4   81.39   13.90
  -1  -9   4   55.59   14.20
  -1  -9   4   72.19   14.30
  -1  -9   4   70.09   12.10
  -1  -9   4   67.99   12.60
  -1  -9   4   75.39   14.60
   0   9  -4    1.60    5.00
   0   9  -4    5.00    2.90
   0   9  -4   -5.30    3.60
   0   9  -4    4.90    8.00
   0   9  -4    9.50    7.40
   0   9  -4    6.70    5.10
   0   9  -4    5.90    3.80
   0  -9   4   14.00    5.20
   0  -9   4   10.90    6.90
   0  -9   4    8.80    5.60
   0  -9   4    1.90    3.00
   0  -9   4    2.40    4.20
   0  -9   4   19.30    6.60
   0  -9   4    4.90    8.00
  -1   9  -4   21.30   11.40
  -1   9  -4   19.80    4.40
  -1   9  -4   20.70    5.50
  -1   9  -4   17.70    6.50
  -1   9  -4   16.20    5.00
   1  -9   4   29.10    7.30
   1  -9   4   30.80    5.60
   1  -9   4   17.30    4.70
   1  -9   4   27.90    4.30
   1  -9   4    1.70    7.00
   1  -9   4   25.60    6.50
  -2   9  -4   32.40    6.20
  -2   9  -4   32.10    6.80
  -2   9  -4   30.90    5.70
  -2   9  -4   25.80    6.00
   2  -9   4   38.40    6.20
   2  -9   4   25.50    6.30
   2  -9   4   20.40    7.70
   2  -9   4   45.40    6.30
   2  -9   4   36.40    7.40
   2  -9   4   39.10    7.00
  -3   9  -4   72.79   11.00
  -3   9  -4   67.29    7.70
  -3   9  -4   48.90    8.10
  -3   9  -4   52.69    7.20
   3  -9   4   61.29   10.00
   3  -9   4   37.20    8.80
   3  -9   4   58.09    8.00
   3  -9   4   51.99    8.30
   3  -9   4   57.39    9.40
   3  -9   4   63.59    9.20
  -4   9  -4  100.49   14.90
   4  -9   4   96.09   10.10
   4  -9   4   71.59   13.10
   4  -9   4  118.59   11.80
   4  -9   4  117.19   12.30
   4  -9   4   98.59   12.50
   4  -9   4   95.29   10.10
   4  -9   4   92.89   13.50
   3   8  -4  112.69   15.00
   3   8  -4   93.49   18.20
   3   8  -4  139.29   21.50
   3   8  -4  142.19   18.70
   3   8  -4   79.19   14.50
   3   8  -4   83.49   15.20
   3   8  -4   97.79   15.00
  -3  -8   4   71.69   18.80
  -3  -8   4  100.29   17.60
  -3  -8   4   97.79   15.70
  -3  -8   4   85.99   16.00
  -3  -8   4   69.09   15.30
  -3  -8   4   89.69   14.60
  -3  -8   4  107.79   15.30
   2   8  -4   33.30    8.50
   2   8  -4   31.10    6.20
   2   8  -4   24.00    7.90
   2   8  -4   23.90    9.20
   2   8  -4   51.89    9.20
   2   8  -4   37.10   11.70
  -2  -8   4   14.10    7.80
  -2  -8   4   32.40    9.00
  -2  -8   4   29.40    7.20
  -2  -8   4   31.00    6.60
  -2  -8   4   40.50    9.90
  -2  -8   4   39.70   12.10
  -2  -8   4   34.40    9.00
   1   8  -4   65.89   12.20
   1   8  -4   30.70    6.90
   1   8  -4   38.30    9.10
   1   8  -4   43.40    8.30
   1   8  -4   42.80    6.40
   1   8  -4   49.60    7.70
   1   8  -4   31.10    7.40
  -1  -8   4   41.40    6.30
  -1  -8   4   28.50    6.90
  -1  -8   4   38.80   11.00
  -1  -8   4   31.00    8.10
  -1  -8   4   40.00    7.40
  -1  -8   4   36.00    9.20
  -1  -8   4   42.40    8.50
   0   8  -4   19.70    5.10
   0   8  -4   23.40    3.90
   0   8  -4   25.00    5.20
   0   8  -4   12.50    4.10
   0   8  -4   23.10    4.60
   0   8  -4   19.20    6.90
   0   8  -4   15.30    6.50
   0  -8   4   13.80    4.70
   0  -8   4   32.10    6.50
   0  -8   4    6.50    6.70
   0  -8   4   25.70    6.70
   0  -8   4   16.90    3.60
   0  -8   4   26.50    4.90
   0  -8   4    9.30    5.20
  -1   8  -4  201.48   20.80
  -1   8  -4  209.48   19.10
  -1   8  -4  192.48   19.10
  -1   8  -4  203.08   20.30
  -1   8  -4  200.48   21.90
   1  -8   4  240.78   21.00
   1  -8   4  218.68   21.60
   1  -8   4  217.88   19.50
   1  -8   4  170.78   22.90
   1  -8   4  178.58   21.30
  -2   8  -4   52.29    7.30
  -2   8  -4   55.39    7.90
  -2   8  -4   55.09    8.70
  -2   8  -4   46.40    8.30
   2  -8   4   65.49    8.40
   2  -8   4   66.79    7.30
   2  -8   4   54.69    7.90
   2  -8   4   50.99    8.10
   2  -8   4   55.29    8.80
   2  -8   4   51.39    7.40
   2  -8   4   50.49    9.90
  -3   8  -4  155.78   15.20
  -3   8  -4  141.49   14.60
  -3   8  -4  165.08   14.70
  -3   8  -4  151.08   17.10
  -3   8  -4  143.59   16.50
  -3   8  -4  145.19   15.30
   3  -8   4  165.68   15.60
   3  -8   4  149.69   16.00
   3  -8   4  131.39   15.30
   3  -8   4  130.69   16.40
   3  -8   4  125.89   16.50
   3  -8   4  131.69   15.10
   3  -8   4  157.38   15.10
  -4   8  -4   -3.60    4.80
  -4   8  -4    0.00    1.40
   4  -8   4    6.90    4.20
   4  -8   4    7.00    3.40
   4  -8   4    2.00    2.50
   4  -8   4    6.70    4.90
   4  -8   4    1.70    5.10
   4  -8   4    1.20    3.50
   4  -8   4   -3.60    3.10
  -5   8  -4   61.99   12.20
   5  -8   4   63.09   10.70
   5  -8   4   72.69    9.80
   5  -8   4   56.29   10.40
   5  -8   4   67.19    8.30
   4   7  -4   20.40   14.00
   4   7  -4   48.00   11.40
   4   7  -4   47.50   12.20
   4   7  -4   49.90   19.20
   4   7  -4   55.39   13.30
   4   7  -4   39.60   10.80
  -4  -7   4   32.70    9.60
  -4  -7   4   49.40   18.40
  -4  -7   4   35.50    9.80
  -4  -7   4   39.80   12.00
  -4  -7   4   54.19   13.00
  -4  -7   4   73.79   14.00
  -4  -7   4   48.90    9.10
   3   7  -4    0.80    6.30
   3   7  -4   12.60   11.10
   3   7  -4   21.50    8.00
   3   7  -4    7.40    6.50
   3   7  -4    1.20    9.20
  -3  -7   4   14.70    8.10
  -3  -7   4    6.70   10.90
  -3  -7   4   11.00    7.60
  -3  -7   4   11.70    7.50
  -3  -7   4   10.60    6.20
  -3  -7   4   18.50    5.70
  -3  -7   4    5.70    5.80
   2   7  -4  397.66   34.30
   2   7  -4  316.47   36.60
   2   7  -4  318.27   34.90
   2   7  -4  375.66   38.20
   2   7  -4  314.57   35.00
   2   7  -4  408.16   36.00
  -2  -7   4  288.07   35.40
  -2  -7   4  310.47   35.70
  -2  -7   4  365.96   34.80
  -2  -7   4  357.46   34.10
  -2  -7   4  390.96   37.00
  -2  -7   4  350.86   34.80
   1   7  -4   20.10    5.30
   1   7  -4   14.20    6.30
   1   7  -4   18.20    5.00
   1   7  -4   23.50    4.40
   1   7  -4   32.20    6.00
   1   7  -4   25.70    7.40
   1   7  -4   30.30    6.00
  -1  -7   4   14.20    6.20
  -1  -7   4   32.10    5.40
  -1  -7   4   31.00    6.60
  -1  -7   4   25.90    5.20
  -1  -7   4   19.20    4.20
  -1  -7   4   15.50    5.60
   0   7  -4    1.90    4.30
   0   7  -4   -2.50    2.70
   0   7  -4    1.40    2.10
   0   7  -4    0.40    2.90
   0   7  -4    0.50    3.80
   0   7  -4   -1.40    2.40
   0  -7   4   -1.00    2.80
   0  -7   4   -2.10    3.00
   0  -7   4    0.80    1.80
   0  -7   4    0.40    2.40
   0  -7   4    1.90    3.90
   0  -7   4    2.60    3.70
   0  -7   4   -0.40    4.80
  -1   7  -4   35.80    4.80
  -1   7  -4   36.00    6.80
  -1   7  -4   17.20    3.20
  -1   7  -4   25.30    4.50
  -1   7  -4   26.70    3.60
  -1   7  -4   23.70    5.40
  -1   7  -4   32.50    5.10
   1  -7   4   32.20    5.90
   1  -7   4   29.20    5.50
   1  -7   4   24.80    3.10
   1  -7   4   28.60    4.60
   1  -7   4   22.10    4.20
   1  -7   4   14.30    5.40
   1  -7   4   20.00    4.80
  -2   7  -4  334.97   36.10
  -2   7  -4  356.66   34.80
  -2   7  -4  342.27   35.40
  -2   7  -4  363.16   35.20
   2  -7   4  392.16   35.20
   2  -7   4  386.76   35.20
   2  -7   4  435.26   36.10
   2  -7   4  392.36   34.90
   2  -7   4  383.36   34.80
   2  -7   4  308.97   36.30
   2  -7   4  326.47   34.90
  -3   7  -4  158.28   14.60
  -3   7  -4  153.18   15.10
  -3   7  -4  139.79   16.20
  -3   7  -4  150.48   16.80
  -3   7  -4  143.19   14.80
  -3   7  -4  142.19   15.10
   3  -7   4  171.98   15.30
   3  -7   4  161.28   15.80
   3  -7   4  127.89   15.70
   3  -7   4  142.59   14.90
   3  -7   4  118.69   16.00
  -4   7  -4   69.09    7.00
  -4   7  -4   66.09    7.30
  -4   7  -4   58.29    6.90
  -4   7  -4   53.59    9.30
   4  -7   4   55.49    7.30
   4  -7   4   76.19    8.50
   4  -7   4   57.39    8.50
   4  -7   4   67.49   10.10
   4  -7   4   73.39    8.40
   4  -7   4   67.99   10.90
   4  -7   4   58.59    8.50
  -5   7  -4  201.18   17.10
  -5   7  -4  167.38   20.60
  -5   7  -4  176.18   17.10
   5  -7   4  195.28   19.20
   5  -7   4  189.08   18.70
   5  -7   4  185.38   20.90
   5  -7   4  183.68   19.50
   5  -7   4  173.38   18.30
   5  -7   4  171.58   17.60
   5  -7   4  164.28   20.50
   5   6  -4   36.80   10.70
   5   6  -4   39.70   17.90
   5   6  -4   30.20   11.90
   5   6  -4   33.60   10.90
  -5  -6   4   31.50    9.00
  -5  -6   4   28.60   10.30
  -5  -6   4   32.00   21.10
  -5  -6   4   16.20   10.20
  -5  -6   4   39.70   14.10
  -5  -6   4   10.80   11.80
  -5  -6   4   24.70   12.90
   4   6  -4   49.90    9.40
   4   6  -4   49.50   13.90
   4   6  -4   41.30   11.00
   4   6  -4   33.00    8.80
   4   6  -4   31.80   12.60
   4   6  -4   33.10    8.70
  -4  -6   4   44.10   10.80
  -4  -6   4   44.10   10.80
  -4  -6   4   52.99   10.40
  -4  -6   4   48.90    8.60
  -4  -6   4   30.00   10.70
  -4  -6   4   14.50   15.30
   3   6  -4  129.59   16.40
   3   6  -4  122.69   14.90
   3   6  -4  114.79   21.30
   3   6  -4  111.29   16.20
   3   6  -4  134.09   16.10
   3   6  -4  122.19   14.30
   3   6  -4  107.29   14.70
  -3  -6   4  118.19   16.40
  -3  -6   4  145.59   14.60
  -3  -6   4   92.39   15.60
  -3  -6   4  124.19   15.90
  -3  -6   4   77.69   17.70
  -3  -6   4  122.29   14.50
  -3  -6   4  118.39   13.40
   2   6  -4  444.36   46.30
   2   6  -4  501.05   49.10
   2   6  -4  518.15   47.20
   2   6  -4  443.66   46.40
   2   6  -4  436.06   47.90
  -2  -6   4  473.85   46.30
  -2  -6   4  506.85   48.00
  -2  -6   4  493.45   45.70
  -2  -6   4  518.55   46.50
   1   6  -4   59.29    6.80
   1   6  -4   45.50    7.00
   1   6  -4   62.99    7.80
   1   6  -4   46.00    7.20
   1   6  -4   63.99    9.80
   1   6  -4   50.59    7.70
   1   6  -4   40.00    8.30
  -1  -6   4   49.90    7.10
  -1  -6   4   56.79    8.30
  -1  -6   4   37.00    9.20
  -1  -6   4   42.40    7.70
  -1  -6   4   49.00    8.20
  -1  -6   4   48.50    6.30
  -1  -6   4   54.59    7.10
   0   6  -4   18.00    4.90
   0   6  -4   17.10    3.90
   0   6  -4   26.00    5.40
   0   6  -4   13.20    3.50
   0   6  -4   15.60    3.20
   0   6  -4   21.70    4.10
   0   6  -4   19.10    3.80
   0  -6   4   20.40    4.40
   0  -6   4   22.00    4.70
   0  -6   4   20.60    3.90
   0  -6   4   18.60    3.80
   0  -6   4   20.10    3.00
   0  -6   4   22.20    5.50
   0  -6   4   16.60    3.90
  -1   6  -4  258.87   24.40
  -1   6  -4  247.88   24.90
  -1   6  -4  252.27   24.80
  -1   6  -4  301.37   25.00
  -1   6  -4  242.38   25.60
  -1   6  -4  247.98   25.80
  -1   6  -4  235.88   24.30
   1  -6   4  290.17   24.90
   1  -6   4  250.57   23.90
   1  -6   4  220.08   25.00
   1  -6   4  219.98   26.00
   1  -6   4  269.27   25.00
   1  -6   4  272.17   24.90
   1  -6   4  289.77   26.20
   1  -6   4  268.57   25.20
  -2   6  -4   12.30    3.00
  -2   6  -4    7.10    2.20
  -2   6  -4    8.60    4.00
  -2   6  -4    8.60    3.00
  -2   6  -4   12.50    2.50
  -2   6  -4    4.80    2.90
   2  -6   4    7.10    3.50
   2  -6   4    6.30    2.10
   2  -6   4    9.80    2.90
   2  -6   4   10.50    2.70
   2  -6   4    4.30    3.10
   2  -6   4   10.90    2.50
   2  -6   4    8.30    2.50
  -3   6  -4   17.50    3.00
  -3   6  -4   16.70    3.60
  -3   6  -4   17.80    5.10
  -3   6  -4   17.50    4.50
  -3   6  -4   17.80    3.60
   3  -6   4   20.00    3.60
   3  -6   4    6.70    4.40
   3  -6   4   23.40    3.50
   3  -6   4   10.80    3.40
   3  -6   4   12.20    2.80
   3  -6   4   19.10    4.20
   3  -6   4   14.60    3.90
  -4   6  -4  166.58   15.60
  -4   6  -4  185.28   16.30
  -4   6  -4  137.89   15.50
  -4   6  -4  155.88   17.40
   4  -6   4  154.18   15.50
   4  -6   4  156.18   16.30
   4  -6   4  133.79   17.50
   4  -6   4  167.38   16.30
   4  -6   4  158.78   16.40
  -5   6  -4   -0.20    4.50
  -5   6  -4    5.70    3.20
  -5   6  -4    3.00    2.50
  -5   6  -4    6.20    3.20
  -5   6  -4    7.00    3.40
   5  -6   4    6.30    5.20
   5  -6   4    7.00    3.60
   5  -6   4    3.00    4.80
   5  -6   4    3.20    2.60
   5  -6   4   11.60    4.80
   5  -6   4    4.00    7.10
   5  -6   4   19.50    6.90
   5  -6   4    7.20    4.30
  -6   6  -4   38.70    7.10
  -6   6  -4   44.70    7.00
  -6   6  -4   38.40    9.20
  -6   6  -4   31.50    5.60
   6  -6   4   47.70    9.80
   6  -6   4   48.70    6.50
   6  -6   4   43.30    7.40
   6  -6   4   37.90    7.00
   6  -6   4   47.00   10.20
   6  -6   4   33.80   10.10
   5   5  -4  170.08   23.10
   5   5  -4  236.48   24.00
   5   5  -4  248.18   25.90
   5   5  -4  190.18   27.00
   5   5  -4  176.78   22.90
   5   5  -4  231.38   31.90
  -5  -5   4  198.68   29.10
  -5  -5   4  167.88   25.60
  -5  -5   4  166.48   24.30
  -5  -5   4  198.28   21.90
  -5  -5   4  177.78   32.80
  -5  -5   4  215.38   22.80
  -5  -5   4  191.58   22.00
   4   5  -4   46.80    9.70
   4   5  -4   49.00   11.80
   4   5  -4   90.59   13.00
   4   5  -4   55.89    9.90
   4   5  -4   46.70    9.20
   4   5  -4   79.89   12.70
   4   5  -4   59.89   13.50
  -4  -5   4   51.39   13.60
  -4  -5   4   73.19   10.10
  -4  -5   4   65.89    9.80
  -4  -5   4   56.89    9.20
  -4  -5   4   64.69   12.00
  -4  -5   4   44.90   10.70
  -4  -5   4   59.89   11.40
   3   5  -4   53.09   10.50
   3   5  -4   58.49    8.50
   3   5  -4   56.69    9.80
   3   5  -4   51.79   11.80
   3   5  -4   63.59   10.10
   3   5  -4   47.20    8.60
  -3  -5   4   61.79   10.50
  -3  -5   4   60.49    9.70
  -3  -5   4   47.60    9.50
  -3  -5   4   41.30    9.20
  -3  -5   4   59.29    7.70
  -3  -5   4   54.09    8.30
  -3  -5   4   49.00   11.20
   2   5  -4  154.68   16.50
   2   5  -4  140.19   15.20
   2   5  -4  144.49   15.90
   2   5  -4  143.79   17.20
   2   5  -4  142.09   15.90
   2   5  -4  185.48   18.50
   2   5  -4  168.98   16.50
  -2  -5   4  121.39   16.10
  -2  -5   4  117.29   16.10
  -2  -5   4  140.49   15.00
  -2  -5   4  152.08   17.00
  -2  -5   4  154.98   15.80
  -2  -5   4  162.88   15.80
   1   5  -4   72.49    8.00
   1   5  -4   53.99    7.50
   1   5  -4   61.99    7.60
   1   5  -4   48.70    8.70
   1   5  -4   64.99    8.00
   1   5  -4   66.79    9.40
   1   5  -4   65.19    7.40
   1   5  -4   65.09    7.10
  -1  -5   4   49.40    9.50
  -1  -5   4   64.69    7.50
  -1  -5   4   49.60    7.90
  -1  -5   4   52.19    7.90
  -1  -5   4   58.99    8.40
  -1  -5   4   62.89    6.80
  -1  -5   4   64.59    7.50
   0   5  -4  747.73   64.39
   0   5  -4  676.33   62.99
   0   5  -4  664.03   63.29
   0   5  -4  616.24   62.99
   0   5  -4  622.64   63.99
   0   5  -4  775.32   63.29
   0   5  -4  741.53   63.39
   0  -5   4  577.44   64.19
   0  -5   4  665.13   63.49
   0  -5   4  744.13   63.19
   0  -5   4  642.14   62.49
   0  -5   4  681.03   63.09
   0  -5   4  730.53   64.09
   0  -5   4  587.34   63.29
  -1   5  -4   45.20    5.70
  -1   5  -4   36.60    6.80
  -1   5  -4   43.00    6.60
  -1   5  -4   43.80    5.30
  -1   5  -4   40.30    5.20
  -1   5  -4   59.69    5.70
  -1   5  -4   46.20    5.70
   1  -5   4   59.09    5.90
   1  -5   4   47.80    5.60
   1  -5   4   43.80    4.40
   1  -5   4   44.70    6.60
   1  -5   4   53.19    6.00
   1  -5   4   44.70    5.80
   1  -5   4   53.99    6.10
  -2   5  -4   78.69   10.20
  -2   5  -4   96.99   10.20
  -2   5  -4  107.39    9.90
  -2   5  -4   99.39    9.70
  -2   5  -4  102.19   10.90
  -2   5  -4   99.29   10.50
   2  -5   4   95.39    9.90
   2  -5   4  101.99    9.70
   2  -5   4   92.39    9.70
   2  -5   4   86.99   10.00
   2  -5   4   86.49   10.30
   2  -5   4   86.89   10.80
   2  -5   4   86.49    9.80
  -3   5  -4  932.71   94.69
  -3   5  -4 1157.68   94.99
  -3   5  -4  955.10   95.79
  -3   5  -4  997.90   95.89
  -3   5  -4  949.31   95.19
   3  -5   4  996.80   94.99
   3  -5   4 1003.00   95.49
   3  -5   4 1119.39   95.09
   3  -5   4 1020.80   94.79
   3  -5   4 1117.79   95.49
  -4   5  -4    4.70    3.20
  -4   5  -4    6.60    2.50
  -4   5  -4    7.20    3.40
  -4   5  -4    9.00    4.00
  -4   5  -4    5.80    3.00
   4  -5   4    7.10    3.10
   4  -5   4   13.60    3.80
   4  -5   4   11.50    3.40
   4  -5   4    9.90    2.40
   4  -5   4    2.50    3.80
   4  -5   4    0.80    5.00
   4  -5   4   10.60    3.60
   4  -5   4   21.70    6.40
  -5   5  -4   33.80    6.10
  -5   5  -4   23.40    5.30
  -5   5  -4   15.80    4.40
  -5   5  -4   23.60    6.40
   5  -5   4   18.10    6.00
   5  -5   4   27.20    5.60
   5  -5   4   14.70    5.70
   5  -5   4   27.20    8.40
   5  -5   4   26.80    6.70
   5  -5   4   36.00    6.50
  -6   5  -4  111.09   14.20
  -6   5  -4   67.79   10.60
  -6   5  -4   81.29   12.40
  -6   5  -4   88.19   12.10
   6  -5   4   86.19   13.10
   6  -5   4   80.69   10.10
   6  -5   4   54.09   13.60
   6  -5   4   93.79   13.10
   6  -5   4   78.49   13.00
   6  -5   4   82.49   12.20
   6  -5   4   71.39   13.00
   6   4  -4  -11.90    9.00
   6   4  -4   26.40   18.10
   6   4  -4   25.20   10.20
   6   4  -4   26.60   12.40
  -6  -4   4  -12.60   11.20
  -6  -4   4    8.90   13.40
  -6  -4   4   -5.90   11.10
  -6  -4   4    2.30   19.30
  -6  -4   4   -2.30    7.60
  -6  -4   4    8.60   16.00
  -6  -4   4   14.90   11.60
   5   4  -4   32.70   10.80
   5   4  -4   40.80    8.90
   5   4  -4   50.99    9.50
   5   4  -4   67.59   11.90
   5   4  -4   47.40   12.30
   5   4  -4   48.30    9.80
   5   4  -4   48.70   13.80
  -5  -4   4   56.89   10.60
  -5  -4   4   55.89    9.00
  -5  -4   4   33.00   11.00
  -5  -4   4   44.70    8.50
  -5  -4   4   48.60   11.30
  -5  -4   4   26.40   13.90
  -5  -4   4   54.19    8.90
   4   4  -4  241.08   26.10
   4   4  -4  263.27   25.70
   4   4  -4  219.58   25.70
   4   4  -4  247.78   27.50
   4   4  -4  285.87   27.30
   4   4  -4  244.48   29.60
  -4  -4   4  189.98   26.70
  -4  -4   4  283.87   25.80
  -4  -4   4  278.17   25.60
  -4  -4   4  266.27   25.40
  -4  -4   4  217.38   26.60
   3   4  -4  278.77   28.60
   3   4  -4  274.57   28.20
   3   4  -4  317.57   29.50
   3   4  -4  254.67   28.60
   3   4  -4  300.67   31.50
   3   4  -4  326.87   29.50
   3   4  -4  272.17   29.80
  -3  -4   4  300.07   28.40
  -3  -4   4  300.17   29.90
  -3  -4   4  300.47   28.50
  -3  -4   4  242.48   28.90
  -3  -4   4  287.67   28.00
   2   4  -4  419.86   37.60
   2   4  -4  370.06   35.00
   2   4  -4  402.66   35.80
   2   4  -4  366.26   35.40
   2   4  -4  395.36   35.90
   2   4  -4  351.26   36.50
   2   4  -4  342.37   35.30
  -2  -4   4  373.96   34.80
  -2  -4   4  320.37   35.60
  -2  -4   4  380.86   35.30
  -2  -4   4  388.06   35.20
  -2  -4   4  386.66   36.40
  -2  -4   4  330.97   35.60
  -2  -4   4  303.67   36.90
   1   4  -4  467.65   45.70
   1   4  -4  513.35   45.60
   1   4  -4  564.44   46.00
   1   4  -4  462.25   46.60
   1   4  -4  531.95   47.20
   1   4  -4  454.65   45.20
   1   4  -4  522.15   46.10
   1   4  -4  457.25   45.60
  -1  -4   4  531.75   46.70
  -1  -4   4  526.05   45.80
  -1  -4   4  481.35   45.60
  -1  -4   4  398.56   46.80
  -1  -4   4  425.16   45.90
  -1  -4   4  481.95   45.10
  -1  -4   4  452.25   45.90
   0   4  -4   79.39    8.50
   0   4  -4   60.59    7.30
   0   4  -4   68.69    7.40
   0   4  -4   72.09    7.60
   0   4  -4   68.99    8.30
   0   4  -4   60.69    7.40
   0   4  -4   81.19    7.70
   0  -4   4   69.19    7.70
   0  -4   4   65.79    7.30
   0  -4   4   59.79    6.60
   0  -4   4   71.69    8.10
   0  -4   4   57.99    8.40
   0  -4   4   74.29    7.40
  -1   4  -4  188.38   15.70
  -1   4  -4  169.38   15.70
  -1   4  -4  158.78   15.70
  -1   4  -4  146.09   15.30
  -1   4  -4  137.49   15.90
  -1   4  -4  150.48   15.40
   1  -4   4  150.38   16.20
   1  -4   4  161.98   15.50
   1  -4   4  147.09   15.60
   1  -4   4  180.08   16.50
   1  -4   4  164.18   15.70
   1  -4   4  175.08   15.70
   1  -4   4  142.39   15.70
  -2   4  -4  242.98   20.30
  -2   4  -4  179.08   19.50
  -2   4  -4  197.78   20.50
  -2   4  -4  197.28   20.60
  -2   4  -4  210.48   20.00
  -2   4  -4  197.58   19.50
  -2   4  -4  204.98   20.70
   2  -4   4  211.18   20.40
   2  -4   4  211.88   20.00
   2  -4   4  222.08   20.60
   2  -4   4  212.88   20.20
   2  -4   4  225.58   20.10
  -3   4  -4  400.06   39.90
  -3   4  -4  419.56   39.80
  -3   4  -4  477.55   39.30
  -3   4  -4  378.46   38.90
  -3   4  -4  365.76   39.40
  -3   4  -4  427.16   38.40
   3  -4   4  446.46   38.90
   3  -4   4  385.66   39.10
   3  -4   4  415.06   39.20
   3  -4   4  388.86   39.60
   3  -4   4  453.75   39.60
  -4   4  -4   45.70    7.80
  -4   4  -4   62.49    6.70
  -4   4  -4   78.69    9.10
  -4   4  -4   70.99    7.90
  -4   4  -4   54.49    7.90
  -4   4  -4   48.30    7.10
   4  -4   4   40.90    9.80
   4  -4   4   63.59    7.90
   4  -4   4   44.50    7.90
   4  -4   4   71.19    8.60
   4  -4   4   56.59    8.50
   4  -4   4   53.39    7.80
   4  -4   4   64.19    7.00
  -5   4  -4   16.00    6.20
  -5   4  -4   30.20    6.50
  -5   4  -4   21.90    4.60
  -5   4  -4   19.20    5.70
  -5   4  -4   22.90    6.00
  -5   4  -4   33.30    4.90
   5  -4   4   22.10    6.00
   5  -4   4   18.40    4.40
   5  -4   4   23.00    5.50
   5  -4   4   27.60    6.00
   5  -4   4   23.20    6.10
   5  -4   4   26.90    6.40
   5  -4   4   24.80    5.80
   5  -4   4   27.60    9.00
   5  -4   4   19.50    4.10
  -6   4  -4  104.19   14.60
  -6   4  -4   76.99   13.70
  -6   4  -4   84.19   12.10
   6  -4   4   79.39   14.00
   6  -4   4   95.19   14.60
   6  -4   4   98.99   11.70
   6  -4   4  124.09   14.10
   6  -4   4   95.99   15.20
   6  -4   4   94.09   15.10
   6  -4   4   63.29   15.70
   6   3  -4  104.39   16.20
   6   3  -4   73.89   19.30
   6   3  -4   79.39   13.40
   6   3  -4   90.79   14.90
   6   3  -4  104.29   14.40
  -6  -3   4   84.49   15.20
  -6  -3   4   66.09   10.90
  -6  -3   4   71.39   11.80
  -6  -3   4   71.29   15.90
  -6  -3   4   62.19   15.80
  -6  -3   4   77.69   20.30
  -6  -3   4   53.69   13.20
  -6  -3   4   71.89   14.90
  -6  -3   4   92.09   13.70
   5   3  -4   29.30    8.80
   5   3  -4   35.80   11.60
   5   3  -4   30.40    7.60
   5   3  -4   40.60    9.40
   5   3  -4   18.10    6.70
   5   3  -4   31.00    6.80
  -5  -3   4   20.00    7.70
  -5  -3   4   40.00    6.90
  -5  -3   4   22.40   10.90
  -5  -3   4   17.60    5.70
  -5  -3   4   20.80    8.10
  -5  -3   4   19.50    5.80
  -5  -3   4   27.50    8.40
   4   3  -4   11.60    5.10
   4   3  -4   16.70    5.70
   4   3  -4    6.70    6.80
   4   3  -4    3.90    4.80
   4   3  -4    4.70    4.20
   4   3  -4    7.60    4.60
   4   3  -4    9.40    4.40
  -4  -3   4   10.00    3.80
  -4  -3   4   13.70    4.10
  -4  -3   4    5.40    4.90
  -4  -3   4    5.80    6.60
  -4  -3   4    8.60    4.60
  -4  -3   4    4.20    4.60
  -4  -3   4   14.60    4.10
   3   3  -4   18.60    4.30
   3   3  -4   15.60    4.70
   3   3  -4    7.60    4.20
   3   3  -4   16.10    6.00
   3   3  -4   13.30    3.70
   3   3  -4   13.40    3.50
   3   3  -4   14.10    4.00
  -3  -3   4    9.10    4.70
  -3  -3   4   21.30    3.70
  -3  -3   4   13.00    4.30
  -3  -3   4   18.10    4.70
  -3  -3   4   15.50    3.50
  -3  -3   4   11.30    4.20
  -3  -3   4   17.80    3.70
   2   3  -4   57.29    7.10
   2   3  -4   52.39    6.20
   2   3  -4   53.29    7.00
   2   3  -4   50.29    7.70
   2   3  -4   49.50    6.40
   2   3  -4   51.29    6.50
   2   3  -4   55.69    8.30
  -2  -3   4   52.79    6.90
  -2  -3   4   57.49    6.50
  -2  -3   4   50.79    6.30
  -2  -3   4   43.20    8.20
  -2  -3   4   55.99    6.00
  -2  -3   4   52.99    7.00
  -2  -3   4   40.70    7.20
   1   3  -4    7.40    2.50
   1   3  -4    7.70    3.00
   1   3  -4    8.00    1.80
   1   3  -4    8.40    2.20
   1   3  -4    8.70    2.80
   1   3  -4    7.00    2.10
   1   3  -4   10.30    2.60
  -1  -3   4    6.90    2.50
  -1  -3   4    6.50    2.50
  -1  -3   4    5.80    2.00
  -1  -3   4    8.60    3.20
  -1  -3   4    6.10    2.10
  -1  -3   4    8.10    1.70
  -1  -3   4    8.80    2.20
   0   3  -4  527.05   43.40
   0   3  -4  491.55   43.40
   0   3  -4  491.35   43.30
   0   3  -4  462.05   43.30
   0   3  -4  494.45   44.10
   0   3  -4  407.36   42.70
   0   3  -4  436.56   43.20
   0  -3   4  477.25   43.40
   0  -3   4  506.25   43.40
   0  -3   4  426.96   44.00
   0  -3   4  441.66   43.30
   0  -3   4  441.16   43.40
   0  -3   4  428.06   42.60
   0  -3   4  453.25   43.20
  -1   3  -4    5.90    2.40
  -1   3  -4    9.40    1.80
  -1   3  -4    9.00    1.90
  -1   3  -4    9.10    2.20
  -1   3  -4    9.40    2.00
  -1   3  -4    8.20    2.40
  -1   3  -4   12.60    3.10
  -1   3  -4   11.00    2.20
   1  -3   4    8.80    2.70
   1  -3   4    9.00    2.10
   1  -3   4    9.20    2.40
   1  -3   4    6.20    2.00
   1  -3   4    6.10    1.80
   1  -3   4    7.80    1.90
  -2   3  -4  352.26   33.20
  -2   3  -4  380.46   33.50
  -2   3  -4  334.57   33.60
  -2   3  -4  346.57   34.30
  -2   3  -4  326.77   33.70
  -2   3  -4  397.26   34.20
  -2   3  -4  386.76   36.60
  -2   3  -4  324.97   34.20
   2  -3   4  340.07   34.10
   2  -3   4  404.06   34.00
   2  -3   4  345.17   33.90
   2  -3   4  380.46   33.70
  -3   3  -4    9.30    2.00
  -3   3  -4   11.00    3.70
  -3   3  -4   16.00    4.40
  -3   3  -4   10.80    2.50
  -3   3  -4   14.10    2.10
  -3   3  -4   14.40    3.40
  -3   3  -4   14.00    3.60
  -3   3  -4   13.10    2.30
  -3   3  -4   18.10    3.90
   3  -3   4   10.80    2.40
   3  -3   4   23.30    5.10
   3  -3   4    7.60    3.30
   3  -3   4   14.20    3.10
   3  -3   4    6.30    4.50
   3  -3   4   11.90    2.90
   3  -3   4   11.10    3.30
   3  -3   4   12.70    3.50
  -4   3  -4    7.00    3.50
  -4   3  -4    2.20    1.30
  -4   3  -4    4.40    2.50
  -4   3  -4    7.10    3.60
  -4   3  -4    4.60    1.40
  -4   3  -4    3.80    2.30
  -4   3  -4    2.30    3.80
   4  -3   4    4.90    3.00
   4  -3   4    0.30    3.10
   4  -3   4    1.60    3.30
   4  -3   4    1.60    3.20
   4  -3   4    5.00    2.50
   4  -3   4    0.20    3.50
   4  -3   4    4.90    6.40
   4  -3   4    4.20    3.90
  -5   3  -4   71.29   13.20
  -5   3  -4   86.49   11.90
  -5   3  -4   80.79   10.30
  -5   3  -4   87.19    9.90
  -5   3  -4   72.19   11.70
  -5   3  -4   86.79   10.80
   5  -3   4   66.29   14.10
   5  -3   4   75.19   11.70
   5  -3   4   89.49   11.80
   5  -3   4   86.39   11.30
   5  -3   4   75.09   12.50
   5  -3   4   86.69   10.00
   5  -3   4   78.69   11.20
  -6   3  -4    5.20    6.30
  -6   3  -4    6.00    5.40
  -6   3  -4   19.00   10.30
  -6   3  -4    7.20    7.80
  -6   3  -4    8.00    5.30
  -6   3  -4    2.80    6.50
   6  -3   4   14.80    6.90
   6  -3   4    4.60    7.90
   6  -3   4   -1.30   10.60
   6  -3   4   15.60    7.00
   6  -3   4    5.60    4.90
   6  -3   4   29.60    9.10
   6  -3   4   15.50    7.20
   6   2  -4  186.98   20.80
   6   2  -4  171.88   20.60
   6   2  -4  201.28   27.00
   6   2  -4  200.68   22.80
  -6  -2   4  168.68   18.20
  -6  -2   4  139.89   18.90
  -6  -2   4  104.19   24.10
  -6  -2   4  152.28   21.50
  -6  -2   4  193.68   18.90
  -6  -2   4  166.28   19.10
  -6  -2   4  111.89   22.10
   5   2  -4  135.89   16.10
   5   2  -4  102.79   13.80
   5   2  -4  105.19   13.30
   5   2  -4  140.09   15.10
   5   2  -4  110.49   17.80
   5   2  -4   85.39   12.80
   5   2  -4   97.69   15.10
  -5  -2   4  117.09   15.00
  -5  -2   4  108.39   12.90
  -5  -2   4  115.99   12.90
  -5  -2   4  113.79   12.40
  -5  -2   4   86.79   14.60
  -5  -2   4   84.29   16.90
  -5  -2   4  103.99   14.10
   4   2  -4    7.90    3.60
   4   2  -4    3.00    4.50
   4   2  -4   10.40    4.30
   4   2  -4    4.20    3.50
   4   2  -4    4.20    3.40
   4   2  -4    4.00    4.30
   4   2  -4    2.10    5.40
  -4  -2   4    8.60    3.10
  -4  -2   4   11.40    4.40
  -4  -2   4    4.80    2.90
  -4  -2   4    3.90    5.70
  -4  -2   4    4.90    4.00
  -4  -2   4   -0.70    3.00
  -4  -2   4    5.90    4.30
  -4  -2   4   15.10    5.40
   3   2  -4  999.90   83.89
   3   2  -4  799.82   83.99
   3   2  -4  940.41   83.79
   3   2  -4  968.70   85.29
   3   2  -4  877.81   83.19
   3   2  -4  810.82   83.09
   3   2  -4  877.31   82.99
  -3  -2   4  932.61   83.19
  -3  -2   4  744.13   83.39
  -3  -2   4  927.91   82.99
  -3  -2   4  957.90   82.99
  -3  -2   4  786.52   83.39
  -3  -2   4  978.80   84.29
   2   2  -4  446.26   37.70
   2   2  -4  407.86   38.50
   2   2  -4  426.56   37.70
   2   2  -4  388.06   37.20
   2   2  -4  360.66   37.90
   2   2  -4  388.86   37.10
   2   2  -4  375.36   37.20
  -2  -2   4  425.26   37.10
  -2  -2   4  436.06   38.20
  -2  -2   4  350.06   37.40
  -2  -2   4  405.46   37.00
  -2  -2   4  343.07   37.40
  -2  -2   4  419.36   37.30
  -2  -2   4  336.07   38.30
   1   2  -4  168.68   16.40
   1   2  -4  179.08   16.90
   1   2  -4  179.78   17.60
   1   2  -4  185.88   17.00
   1   2  -4  169.38   16.70
   1   2  -4  175.58   16.80
   1   2  -4  186.78   17.70
  -1  -2   4  168.98   16.90
  -1  -2   4  170.78   16.60
  -1  -2   4  177.28   16.80
  -1  -2   4  158.98   16.30
  -1  -2   4  179.38   17.40
  -1  -2   4  153.88   17.60
  -1  -2   4  155.68   16.90
   0   2  -4  323.67   26.80
   0   2  -4  307.07   26.30
   0   2  -4  254.27   25.90
   0   2  -4  269.87   26.10
   0   2  -4  258.27   26.00
   0   2  -4  243.78   26.10
   0   2  -4  303.57   26.20
   0   2  -4  308.67   26.90
   0   2  -4  247.88   25.60
   0  -2   4  247.08   26.10
   0  -2   4  271.67   26.10
   0  -2   4  308.87   26.90
   0  -2   4  241.68   26.10
   0  -2   4  270.77   26.00
   0  -2   4  270.97   26.70
   0  -2   4  303.37   26.30
  -1   2  -4   11.10    2.50
  -1   2  -4    7.90    1.90
  -1   2  -4    8.10    1.80
  -1   2  -4   10.70    2.20
  -1   2  -4    7.50    2.00
  -1   2  -4    7.30    2.10
  -1   2  -4   14.90    2.50
  -1   2  -4   10.00    3.00
   1  -2   4    9.90    1.90
   1  -2   4   11.40    2.40
   1  -2   4    9.40    2.40
   1  -2   4    7.60    2.00
   1  -2   4    8.70    2.20
   1  -2   4    7.90    2.60
   1  -2   4   12.80    2.20
  -2   2  -4 1208.58  113.89
  -2   2  -4 1227.78  114.69
  -2   2  -4 1306.97  114.79
  -2   2  -4 1198.38  114.29
  -2   2  -4 1352.96  115.69
  -2   2  -4 1182.48  114.29
  -2   2  -4 1156.98  114.79
   2  -2   4 1201.78  114.39
   2  -2   4 1291.37  114.29
   2  -2   4 1066.99  114.69
   2  -2   4 1353.26  114.89
   2  -2   4 1286.37  114.59
   2  -2   4 1269.87  114.59
  -3   2  -4   48.30    6.90
  -3   2  -4   37.60    5.70
  -3   2  -4   60.39    5.80
  -3   2  -4   44.00    5.70
  -3   2  -4   42.20    6.80
  -3   2  -4   58.59    6.40
  -3   2  -4   49.30    5.60
  -3   2  -4   44.00    7.00
  -3   2  -4   41.70    8.30
   3  -2   4   46.10    6.50
   3  -2   4   53.79    6.40
   3  -2   4   41.10    6.00
   3  -2   4   60.09    7.60
   3  -2   4   38.90    8.20
   3  -2   4   42.10    6.90
   3  -2   4   48.30    6.80
   3  -2   4   45.80    5.80
  -4   2  -4  304.27   30.40
  -4   2  -4  306.07   31.90
  -4   2  -4  350.46   30.80
  -4   2  -4  362.76   31.60
   4  -2   4  331.37   31.70
   4  -2   4  315.57   31.40
   4  -2   4  286.17   31.10
   4  -2   4  336.77   31.00
   4  -2   4  332.77   32.00
   4  -2   4  314.37   32.20
   4  -2   4  289.07   31.70
  -5   2  -4   10.00    5.70
  -5   2  -4    8.00    3.80
  -5   2  -4   -2.80    4.60
  -5   2  -4    1.60    3.90
  -5   2  -4    0.10    2.70
  -5   2  -4    4.30    3.80
  -5   2  -4    4.60    2.60
   5  -2   4    8.50    4.90
   5  -2   4    3.50    5.40
   5  -2   4    9.50    6.10
   5  -2   4   -0.70    4.60
   5  -2   4   -2.10    8.00
   5  -2   4    2.40    3.40
   5  -2   4   -6.10    5.80
  -6   2  -4  243.68   27.40
  -6   2  -4  240.48   29.40
  -6   2  -4  259.37   30.10
  -6   2  -4  221.88   33.90
  -6   2  -4  277.37   28.90
  -6   2  -4  277.27   27.30
   6  -2   4  266.07   33.50
   6  -2   4  276.67   28.90
   6  -2   4  272.27   28.70
   6  -2   4  300.37   31.10
   6  -2   4  292.47   29.50
   6  -2   4  227.68   30.70
   6  -2   4  282.97   27.60
   6   1  -4   66.69   14.10
   6   1  -4   54.49   10.70
   6   1  -4   47.60    9.20
   6   1  -4   38.30    8.70
   6   1  -4   47.50   11.20
  -6  -1   4   63.79    8.00
  -6  -1   4   27.40    8.00
  -6  -1   4   46.50   10.70
  -6  -1   4   24.50   17.00
  -6  -1   4   48.30    8.50
  -6  -1   4   54.59    9.10
   5   1  -4   12.00    7.20
   5   1  -4   12.60    4.90
   5   1  -4    3.40    5.70
   5   1  -4    9.10    4.10
   5   1  -4    7.50    5.40
   5   1  -4   12.40    4.80
   5   1  -4   13.80    4.60
  -5  -1   4    9.40    4.10
  -5  -1   4   13.60    5.00
  -5  -1   4    8.00    3.20
  -5  -1   4    4.10    4.80
  -5  -1   4    8.60    4.50
  -5  -1   4    6.60    3.80
  -5  -1   4    9.40    5.20
  -5  -1   4    6.30    6.90
   4   1  -4  109.69   13.40
   4   1  -4  103.09   12.20
   4   1  -4   79.29   10.60
   4   1  -4   95.99   10.90
   4   1  -4  107.69   11.70
   4   1  -4   81.79   11.70
   4   1  -4   99.49   11.20
  -4  -1   4   86.39   11.30
  -4  -1   4  100.19   10.40
  -4  -1   4   77.29   11.40
  -4  -1   4  110.49   12.30
  -4  -1   4  101.19   10.80
  -4  -1   4  115.29   11.00
   3   1  -4   23.20    4.40
   3   1  -4   25.80    4.00
   3   1  -4   24.20    3.80
   3   1  -4   22.20    3.80
   3   1  -4   19.30    4.40
   3   1  -4   22.80    5.10
   3   1  -4   21.20    4.10
  -3  -1   4   17.30    3.60
  -3  -1   4   18.00    4.10
  -3  -1   4   15.80    5.10
  -3  -1   4   19.00    4.10
  -3  -1   4   26.50    3.60
  -3  -1   4   22.90    3.90
  -3  -1   4   24.70    4.80
   2   1  -4  663.03   63.59
   2   1  -4  757.52   63.89
   2   1  -4  663.33   63.59
   2   1  -4  710.23   63.69
   2   1  -4  695.43   63.89
   2   1  -4  711.53   64.59
   2   1  -4  654.53   64.29
  -2  -1   4  609.24   64.59
  -2  -1   4  603.34   63.69
  -2  -1   4  617.74   63.79
  -2  -1   4  764.62   64.39
  -2  -1   4  728.53   63.69
  -2  -1   4  726.23   63.49
  -2  -1   4  674.93   63.49
   1   1  -4  108.59   10.30
   1   1  -4  100.09   10.30
   1   1  -4  101.39   10.30
   1   1  -4   96.79   10.00
   1   1  -4  104.49   10.30
   1   1  -4  113.59   11.00
   1   1  -4  103.99   10.80
  -1  -1   4   98.39   10.30
  -1  -1   4   95.79   10.00
  -1  -1   4   90.89   10.90
  -1  -1   4   88.09   10.30
  -1  -1   4  111.79   10.30
  -1  -1   4  124.79   11.00
   0   1  -4  993.50   85.99
   0   1  -4  840.72   85.89
   0   1  -4 1049.99   86.19
   0   1  -4  882.71   85.99
   0   1  -4 1026.30   86.39
   0  -1   4  944.51   85.89
   0  -1   4  871.21   85.89
   0  -1   4  893.21   85.89
   0  -1   4  791.22   85.89
   0  -1   4  985.90   86.79
   0  -1   4  900.01   86.09
   0  -1   4  993.00   86.39
  -1   1  -4    3.90    1.50
  -1   1  -4    1.30    1.70
  -1   1  -4    1.60    1.40
  -1   1  -4    1.20    1.90
  -1   1  -4   -1.90    2.50
  -1   1  -4    1.30    1.60
  -1   1  -4    1.90    1.80
  -1   1  -4    5.70    3.40
  -1   1  -4    3.40    1.70
   1  -1   4    1.20    1.80
   1  -1   4    2.70    1.80
   1  -1   4    2.10    1.70
   1  -1   4    3.60    2.70
   1  -1   4    2.30    1.50
   1  -1   4    2.90    1.40
   1  -1   4    6.70    3.40
   1  -1   4    2.50    2.10
  -2   1  -4  125.89   12.20
  -2   1  -4  134.49   12.20
  -2   1  -4  112.39   12.00
  -2   1  -4   96.79   13.40
  -2   1  -4  117.79   11.70
  -2   1  -4  107.89   12.60
  -2   1  -4  105.49   12.50
  -2   1  -4  142.69   12.10
  -2   1  -4  125.89   12.40
   2  -1   4  109.19   12.10
   2  -1   4  135.69   13.70
   2  -1   4   94.29   12.40
   2  -1   4  122.19   11.90
   2  -1   4  117.09   12.40
   2  -1   4  120.19   12.20
   2  -1   4  123.49   12.60
  -3   1  -4   -0.10    1.90
  -3   1  -4    5.90    4.50
  -3   1  -4    6.10    2.80
  -3   1  -4   -0.90    2.00
  -3   1  -4    1.10    2.40
  -3   1  -4    4.80    2.20
  -3   1  -4    3.70    2.60
  -3   1  -4    3.80    3.20
  -3   1  -4    0.40    1.70
   3  -1   4    1.60    2.90
   3  -1   4    1.00    2.80
   3  -1   4    0.00    3.00
   3  -1   4   -3.30    1.90
   3  -1   4    1.20    3.70
   3  -1   4    2.10    2.60
   3  -1   4   -0.20    2.20
  -4   1  -4  122.29   19.50
  -4   1  -4  168.48   16.50
  -4   1  -4  158.88   18.60
  -4   1  -4  160.98   16.60
  -4   1  -4  185.48   17.10
   4  -1   4  131.19   19.70
   4  -1   4  154.28   18.50
   4  -1   4  176.08   17.00
   4  -1   4  166.78   17.40
   4  -1   4  162.28   17.50
   4  -1   4  159.58   18.30
   4  -1   4  177.58   18.40
  -5   1  -4    7.20    5.70
  -5   1  -4    2.90    3.80
  -5   1  -4   -1.60    3.80
  -5   1  -4    6.70    3.60
  -5   1  -4    5.50    4.40
  -5   1  -4    7.30    6.70
  -5   1  -4    4.80    8.80
  -5   1  -4    6.70    4.40
   5  -1   4    3.00    5.10
   5  -1   4  -15.70    8.30
   5  -1   4   18.30    7.00
   5  -1   4   14.20    6.50
   5  -1   4    3.00    5.30
   5  -1   4    9.60    5.60
   5  -1   4    6.60    4.30
  -6   1  -4  114.89   15.30
  -6   1  -4  117.19   13.80
  -6   1  -4  104.59   17.50
  -6   1  -4  112.29   15.90
  -6   1  -4   83.39   20.30
  -6   1  -4  147.69   20.30
   6  -1   4  135.89   20.40
   6  -1   4  142.69   18.90
   6  -1   4  119.49   15.00
   6  -1   4  107.59   16.30
   6  -1   4  128.59   18.90
   6  -1   4  104.39   20.30
   6  -1   4  119.79   17.40
   7   0  -4   27.80   10.80
   7   0  -4    8.20    8.40
   7   0  -4   14.30    7.30
   7   0  -4    8.50    8.30
   7   0  -4   22.30   12.90
   7   0  -4   19.80   12.40
   7   0  -4    8.60    8.50
   7   0  -4    7.70    9.50
  -7   0   4   13.50    4.70
  -7   0   4   11.40   11.40
  -7   0   4   39.00   17.50
  -7   0   4    0.10    7.10
  -7   0   4   15.40    3.70
  -7   0   4   11.70    5.90
   6   0  -4   24.40   10.00
   6   0  -4   31.00    7.10
   6   0  -4   28.60    9.10
   6   0  -4   26.10    7.00
   6   0  -4   31.00    7.40
  -6   0   4   40.40    8.20
  -6   0   4   21.40    5.70
  -6   0   4   30.60    8.40
  -6   0   4   34.80    6.00
  -6   0   4   29.60    6.20
  -6   0   4   29.80    8.30
   5   0  -4    8.70    4.00
   5   0  -4    1.00    4.80
   5   0  -4    2.00    5.10
   5   0  -4    1.00    4.00
   5   0  -4    8.80    4.00
   5   0  -4    7.20    3.60
  -5   0   4    6.50    7.30
  -5   0   4    0.90    3.30
  -5   0   4   10.40    3.40
  -5   0   4    1.40    4.10
  -5   0   4    3.30    4.20
  -5   0   4    5.40    4.50
  -5   0   4    2.80    3.30
   4   0  -4  248.18   23.50
   4   0  -4  216.08   23.10
   4   0  -4  256.47   24.80
   4   0  -4  237.98   23.80
   4   0  -4  189.18   22.70
   4   0  -4  217.68   22.90
  -4   0   4  202.58   22.90
  -4   0   4  238.28   22.80
  -4   0   4  257.37   24.00
  -4   0   4  241.58   22.40
  -4   0   4  243.08   23.00
  -4   0   4  269.57   24.70
   3   0  -4    8.80    2.90
   3   0  -4   17.70    3.00
   3   0  -4   12.20    3.60
   3   0  -4   13.90    2.80
   3   0  -4   18.90    3.20
   3   0  -4   13.40    3.00
   3   0  -4   16.10    3.40
  -3   0   4   18.20    3.00
  -3   0   4    7.60    3.80
  -3   0   4   14.70    3.30
  -3   0   4   15.80    3.20
  -3   0   4   10.60    2.80
  -3   0   4   17.40    3.10
  -3   0   4   16.80    4.60
   2   0  -4 1902.21  174.38
   2   0  -4 1795.92  174.28
   2   0  -4 1995.30  174.28
   2   0  -4 1840.12  174.78
   2   0  -4 1910.31  174.48
   2   0  -4 2000.90  174.98
   2   0  -4 1962.80  174.38
  -2   0   4 1984.20  174.08
  -2   0   4 2075.49  174.88
  -2   0   4 1974.20  174.28
  -2   0   4 1686.83  174.28
  -2   0   4 1621.84  174.88
  -2   0   4 1883.21  174.28
   1   0  -4 1347.67  123.89
   1   0  -4 1296.87  123.89
   1   0  -4 1481.55  124.39
   1   0  -4 1354.66  123.89
   1   0  -4 1383.56  123.89
   1   0  -4 1278.57  123.79
   1   0  -4 1463.45  124.49
  -1   0   4 1473.95  124.59
  -1   0   4 1279.27  124.29
  -1   0   4 1259.37  123.79
  -1   0   4 1179.08  123.79
  -1   0   4 1354.76  123.99
   0   0  -4   46.90    5.60
   0   0  -4   49.90    5.40
   0   0  -4   57.39    6.60
   0   0  -4   52.49    5.70
   0   0  -4   53.09    5.40
   0   0  -4   47.60    5.80
   0   0  -4   52.99    4.70
   0   0  -4   50.09    5.90
   0   0   4   46.50    5.60
   0   0   4   49.70    5.30
   0   0   4   44.00    5.40
   0   0   4   50.49    5.80
   0   0   4   48.30    5.50
   0   0   4   52.69    7.60
   0   0   4   38.40    5.70
  -1   0  -4  171.78   17.20
  -1   0  -4  166.78   16.70
  -1   0  -4  163.08   18.00
  -1   0  -4  190.78   16.90
  -1   0  -4  178.78   16.60
  -1   0  -4  160.48   16.50
  -1   0  -4  162.18   17.00
   1   0   4  160.08   16.60
   1   0   4  158.88   16.80
   1   0   4  172.78   16.40
   1   0   4  143.69   16.90
   1   0   4  196.28   18.80
   1   0   4  171.18   16.40
   1   0   4  183.68   17.10
  -2   0  -4 1421.86  125.69
  -2   0  -4 1517.55  125.99
  -2   0  -4 1290.47  126.19
  -2   0  -4 1267.87  125.39
  -2   0  -4 1406.46  125.69
  -2   0  -4 1410.76  125.29
  -2   0  -4 1250.57  126.09
   2   0   4 1407.96  126.19
   2   0   4 1439.36  125.49
   2   0   4 1260.67  126.09
   2   0   4 1332.17  127.29
   2   0   4 1351.06  125.39
   2   0   4 1337.17  125.59
   2   0   4 1311.17  125.89
  -3   0  -4  102.69   15.80
  -3   0  -4  123.89   14.20
  -3   0  -4  124.79   14.50
  -3   0  -4  141.49   13.10
  -3   0  -4  142.29   13.60
  -3   0  -4  110.59   13.10
  -3   0  -4  137.89   14.00
   3   0   4  124.39   14.20
   3   0   4  126.59   13.30
   3   0   4  100.99   15.70
   3   0   4  130.49   15.50
   3   0   4  137.09   13.50
   3   0   4  141.89   14.80
   3   0   4  118.29   14.20
   3   0   4  118.79   13.50
  -4   0  -4  128.99   20.60
  -4   0  -4  188.88   18.10
  -4   0  -4  181.08   17.20
  -4   0  -4  144.29   18.70
  -4   0  -4  166.88   17.30
  -4   0  -4  148.99   17.40
   4   0   4  165.38   18.10
   4   0   4  165.78   19.10
   4   0   4  171.48   17.60
   4   0   4  170.58   17.70
   4   0   4  163.38   18.70
   4   0   4  168.78   19.50
  -5   0  -4  154.28   20.10
  -5   0  -4  192.88   18.90
  -5   0  -4  166.28   17.40
  -5   0  -4  157.48   17.30
  -5   0  -4  115.69   22.60
  -5   0  -4  158.98   18.00
  -5   0  -4  152.58   20.60
   5   0   4  180.78   21.10
   5   0   4  165.68   18.20
   5   0   4  168.88   19.00
   5   0   4  147.09   20.20
   5   0   4  151.68   17.50
   5   0   4  158.98   19.50
   5   0   4  120.59   23.40
  -6   0  -4  213.78   22.10
  -6   0  -4  229.28   23.70
  -6   0  -4  185.98   25.10
  -6   0  -4  197.58   22.80
  -6   0  -4  180.58   31.90
  -6   0  -4  195.88   28.70
  -6   0  -4  197.68   21.50
  -6   0  -4  166.78   21.50
   6   0   4  200.78   33.40
   6   0   4  186.78   22.90
   6   0   4  202.08   25.00
   6   0   4  196.28   22.40
   6   0   4  160.38   23.30
   6   0   4  191.78   26.30
   6   0   4  212.08   26.50
   7  -1  -4   11.90   10.40
   7  -1  -4   -3.40   12.60
   7  -1  -4    8.90    7.70
   7  -1  -4    5.70    7.70
   7  -1  -4   13.90    7.40
   7  -1  -4   -5.80    9.90
   7  -1  -4   10.80    7.80
   7  -1  -4   12.20    6.00
  -7   1   4   -1.30    9.00
  -7   1   4   -8.00   11.60
  -7   1   4    8.00    6.10
  -7   1   4   20.20    8.90
  -7   1   4    4.90    5.90
  -7   1   4   10.70    8.00
   6  -1  -4    1.70    3.70
   6  -1  -4    0.70    4.60
   6  -1  -4    7.50    6.80
   6  -1  -4   14.70    5.10
   6  -1  -4    4.20    7.70
  -6   1   4    4.10    5.60
  -6   1   4   -2.00    3.80
  -6   1   4    1.50    5.30
  -6   1   4    1.80    7.20
  -6   1   4   -1.70    3.80
  -6   1   4   -6.50    4.70
   5  -1  -4  172.38   18.10
   5  -1  -4  194.48   18.40
   5  -1  -4  157.08   21.40
   5  -1  -4  218.28   19.70
   5  -1  -4  200.58   20.80
   5  -1  -4  156.08   17.80
   5  -1  -4  161.68   19.20
  -5   1   4  166.48   18.10
  -5   1   4  210.48   19.00
  -5   1   4  198.18   17.90
  -5   1   4  189.18   18.50
  -5   1   4  137.39   19.70
  -5   1   4  140.59   18.50
  -5   1   4  181.18   16.50
  -5   1   4  158.48   18.50
  -5   1   4  167.28   16.60
   4  -1  -4   95.79   10.80
   4  -1  -4  102.39   11.20
   4  -1  -4   98.29   10.40
   4  -1  -4   86.89   10.90
   4  -1  -4  114.09   10.60
   4  -1  -4   90.89   10.30
   4  -1  -4  111.39   12.20
  -4   1   4  104.59   10.70
  -4   1   4  101.89    9.50
  -4   1   4   77.79   11.60
  -4   1   4   83.69   10.90
  -4   1   4  108.19   11.10
  -4   1   4  102.59   10.30
  -4   1   4   90.19   12.70
  -4   1   4   99.09   10.60
  -4   1   4   86.99    9.80
   3  -1  -4    9.90    3.00
   3  -1  -4    9.70    2.60
   3  -1  -4   20.60    4.90
   3  -1  -4   10.00    2.60
   3  -1  -4   11.50    2.30
   3  -1  -4   12.90    2.80
   3  -1  -4    9.10    2.10
   3  -1  -4   10.40    2.20
  -3   1   4   18.00    3.40
  -3   1   4   10.70    4.30
  -3   1   4   11.70    2.30
  -3   1   4    9.00    3.00
  -3   1   4   10.30    2.60
  -3   1   4   11.60    1.80
  -3   1   4   16.90    3.00
  -3   1   4    8.80    2.50
  -3   1   4   14.10    2.40
   2  -1  -4 1950.60  177.68
   2  -1  -4 1989.50  177.48
   2  -1  -4 2026.50  177.88
   2  -1  -4 2217.88  177.98
   2  -1  -4 1848.62  177.38
  -2   1   4 1721.23  177.78
  -2   1   4 2011.30  177.38
  -2   1   4 1644.84  177.18
  -2   1   4 2179.88  177.48
  -2   1   4 1780.12  177.38
  -2   1   4 1870.21  179.78
   1  -1  -4    1.80    1.30
   1  -1  -4    0.60    0.90
   1  -1  -4    1.00    1.70
   1  -1  -4    2.00    1.30
   1  -1  -4    0.40    1.00
   1  -1  -4    3.30    3.50
   1  -1  -4    1.30    1.30
  -1   1   4    0.70    1.10
  -1   1   4    0.70    1.20
  -1   1   4    0.30    0.90
  -1   1   4    0.70    0.90
  -1   1   4   -1.70    1.90
  -1   1   4    0.20    1.30
  -1   1   4    1.10    1.00
  -1   1   4    0.60    1.70
   0  -1  -4   83.19    9.00
   0  -1  -4   84.19    8.80
   0  -1  -4   86.49    8.90
   0  -1  -4   77.89    9.70
   0  -1  -4  102.09   11.90
   0  -1  -4   74.99    8.50
   0  -1  -4   93.79    8.40
   0  -1  -4   82.99    9.10
   0   1   4   86.39    8.50
   0   1   4   79.19    8.90
   0   1   4   89.49    8.50
   0   1   4   70.19    8.90
   0   1   4   86.29    8.70
   0   1   4   71.19   11.20
   0   1   4   91.79    9.00
  -1  -1  -4  849.52   78.89
  -1  -1  -4  897.21   79.39
  -1  -1  -4  832.82   78.99
  -1  -1  -4  879.51   78.69
  -1  -1  -4  829.82   79.49
  -1  -1  -4  790.32   79.49
   1   1   4  884.11   78.59
   1   1   4  845.12   79.29
   1   1   4  798.12   79.39
   1   1   4  848.92   79.39
   1   1   4  889.71   78.99
   1   1   4  854.11   78.79
   1   1   4  846.12   81.49
  -2  -1  -4   40.60    6.40
  -2  -1  -4   32.80    6.40
  -2  -1  -4   35.80    6.20
  -2  -1  -4   31.90    7.70
  -2  -1  -4   54.99    8.80
  -2  -1  -4   43.60    5.40
  -2  -1  -4   39.60    5.30
  -2  -1  -4   40.80    5.40
  -2  -1  -4   36.50    5.80
   2   1   4   38.00    6.60
   2   1   4   42.50    5.20
   2   1   4   43.40    6.40
   2   1   4   46.80    5.80
   2   1   4   26.30    7.20
   2   1   4   37.30    5.30
   2   1   4   51.59    9.30
   2   1   4   46.70    6.50
  -3  -1  -4   10.80    5.30
  -3  -1  -4   -0.60    3.40
  -3  -1  -4   11.90    6.50
  -3  -1  -4    6.90    3.30
  -3  -1  -4   14.00    4.70
  -3  -1  -4   11.30    3.10
  -3  -1  -4    7.00    3.30
   3   1   4    8.00    4.40
   3   1   4    7.50    3.00
   3   1   4    6.80    3.80
   3   1   4    9.20    3.50
   3   1   4   11.70    2.90
   3   1   4    6.90    4.70
   3   1   4    5.50    3.90
  -4  -1  -4   50.49    8.20
  -4  -1  -4   63.29    9.60
  -4  -1  -4   27.30    8.30
  -4  -1  -4   44.20    7.70
  -4  -1  -4   34.50   11.10
  -4  -1  -4   38.80    8.90
   4   1   4   36.40   10.60
   4   1   4   57.49    8.00
   4   1   4   47.90    8.90
   4   1   4   46.30    9.50
   4   1   4   43.20    9.20
   4   1   4   48.80    9.60
   4   1   4   49.60    7.80
  -5  -1  -4  207.48   26.40
  -5  -1  -4  205.58   23.10
  -5  -1  -4  229.78   24.90
  -5  -1  -4  231.38   22.90
  -5  -1  -4  232.08   25.70
   5   1   4  206.38   25.10
   5   1   4  151.48   29.40
   5   1   4  217.58   23.20
   5   1   4  231.08   24.50
   5   1   4  235.18   23.60
   5   1   4  210.38   25.50
  -6  -1  -4  117.89   18.50
  -6  -1  -4   77.59   12.80
  -6  -1  -4   64.69   11.90
  -6  -1  -4   83.29   23.30
  -6  -1  -4  101.59   18.70
  -6  -1  -4   92.69   18.50
   6   1   4  107.29   18.70
   6   1   4   87.99   13.50
   6   1   4   88.59   17.00
   6   1   4   88.19   21.40
   6   1   4   67.79   14.30
   6   1   4  111.39   15.80
   6   1   4   54.29   16.30
   7  -2  -4    6.80    8.40
   7  -2  -4  -12.70    6.90
   7  -2  -4   12.30    5.90
   7  -2  -4   18.60   10.70
   7  -2  -4   -8.70    6.30
   7  -2  -4    4.80    7.00
   7  -2  -4   15.00    9.90
   7  -2  -4   10.10    5.40
  -7   2   4   27.50    8.00
  -7   2   4    5.40    5.60
  -7   2   4   -4.70    6.60
  -7   2   4   29.00   10.70
  -7   2   4    5.20    8.60
  -7   2   4    6.00    5.30
   6  -2  -4    4.20    4.70
   6  -2  -4    3.00    3.80
   6  -2  -4    3.60    4.30
   6  -2  -4    1.50    5.60
   6  -2  -4    8.60    3.70
   6  -2  -4   11.70    6.50
   6  -2  -4    9.60    4.90
  -6   2   4    3.10    6.60
  -6   2   4    4.80    3.40
  -6   2   4   -0.20    5.00
  -6   2   4   -2.20    4.20
  -6   2   4    8.40    4.40
  -6   2   4    3.00    5.20
   5  -2  -4   41.20    6.20
   5  -2  -4   35.00    6.00
   5  -2  -4   48.10    5.90
   5  -2  -4   47.80    8.10
   5  -2  -4   38.20    6.90
   5  -2  -4   41.20    6.80
  -5   2   4   41.50    5.70
  -5   2   4   32.90    6.10
  -5   2   4   45.20    6.80
  -5   2   4   44.10    6.50
  -5   2   4   41.50    6.80
  -5   2   4   32.70    7.20
   4  -2  -4   79.49   10.00
   4  -2  -4   98.29    9.40
   4  -2  -4   98.19   10.50
   4  -2  -4   94.39    9.50
   4  -2  -4   95.89   10.20
   4  -2  -4  100.79   10.30
   4  -2  -4   79.99    9.40
  -4   2   4   74.39   10.00
  -4   2   4   97.39    9.40
  -4   2   4   81.19   13.00
  -4   2   4   98.29   10.30
   3  -2  -4   22.40    3.00
   3  -2  -4   22.60    3.70
   3  -2  -4   21.20    3.10
   3  -2  -4   29.10    4.00
   3  -2  -4   27.20    3.30
   3  -2  -4   25.30    3.60
   3  -2  -4   23.20    3.90
  -3   2   4   19.40    3.50
  -3   2   4   30.40    3.40
  -3   2   4   28.30    3.90
  -3   2   4   26.30    3.90
  -3   2   4   22.00    6.70
  -3   2   4   18.40    3.80
   2  -2  -4  188.28   17.60
   2  -2  -4  185.28   17.50
   2  -2  -4  194.58   17.60
   2  -2  -4  208.18   18.10
   2  -2  -4  208.28   21.10
   2  -2  -4  191.98   17.70
   2  -2  -4  202.08   17.90
  -2   2   4  192.68   17.90
  -2   2   4  175.98   17.50
  -2   2   4  155.28   17.60
  -2   2   4  146.89   20.70
  -2   2   4  168.88   17.90
   1  -2  -4  106.99   14.70
   1  -2  -4  109.19   11.80
   1  -2  -4  111.09   11.10
   1  -2  -4   97.79   10.60
   1  -2  -4  109.69   11.10
   1  -2  -4  113.19   10.80
  -1   2   4   93.69   10.80
  -1   2   4  107.39   10.70
  -1   2   4  122.59   10.60
  -1   2   4  101.79   14.90
  -1   2   4  117.99   10.60
   0  -2  -4   91.39   11.00
   0  -2  -4  110.19   11.10
   0  -2  -4   98.09   10.20
   0  -2  -4  106.09   10.50
   0  -2  -4  104.89   14.90
   0  -2  -4   84.49   10.60
   0  -2  -4   81.49   11.90
   0  -2  -4  112.39    9.90
   0   2   4  108.29    9.90
   0   2   4  112.19   10.40
   0   2   4   96.49   10.70
   0   2   4  102.19   10.20
   0   2   4   83.49   10.80
   0   2   4   96.49   13.80
   0   2   4  107.79   10.80
  -1  -2  -4   33.20    5.10
  -1  -2  -4   32.40    8.00
  -1  -2  -4   26.90    4.10
  -1  -2  -4   26.10    4.70
  -1  -2  -4   25.80    3.60
  -1  -2  -4   30.10    5.30
  -1  -2  -4   27.10    4.40
  -1  -2  -4   21.50    6.00
   1   2   4   18.80    4.60
   1   2   4   28.00    5.00
   1   2   4   24.80    7.50
   1   2   4   27.50    4.10
   1   2   4   27.40    4.20
   1   2   4   31.40    3.50
   1   2   4   23.10    4.70
   1   2   4   18.80    5.60
  -2  -2  -4   14.30    5.70
  -2  -2  -4   10.70    3.00
  -2  -2  -4   12.80    4.30
  -2  -2  -4    7.60    3.80
  -2  -2  -4    7.30    5.70
  -2  -2  -4    8.90    3.20
   2   2   4    8.30    2.80
   2   2   4    7.20    3.80
   2   2   4    8.20    4.40
   2   2   4    8.60    3.30
   2   2   4    9.60    2.30
   2   2   4    5.70    5.10
   2   2   4    7.80    3.60
  -3  -2  -4 1369.46  116.59
  -3  -2  -4 1185.68  117.79
  -3  -2  -4 1332.57  116.89
  -3  -2  -4 1235.98  116.79
  -3  -2  -4 1316.67  117.59
  -3  -2  -4 1214.28  118.09
   3   2   4 1258.47  116.59
   3   2   4 1231.48  116.89
   3   2   4 1065.39  119.29
   3   2   4 1249.38  117.69
   3   2   4 1206.48  117.69
   3   2   4 1246.28  117.89
   3   2   4 1353.46  116.39
  -4  -2  -4   72.39   12.80
  -4  -2  -4   70.19   11.80
  -4  -2  -4   90.39   11.00
  -4  -2  -4   49.70   14.10
  -4  -2  -4   66.49   12.30
  -4  -2  -4   99.59   14.50
  -4  -2  -4   78.59   10.30
  -4  -2  -4   85.29   10.90
   4   2   4   81.79   12.90
   4   2   4   65.39   10.30
   4   2   4   74.99   10.30
   4   2   4   77.19   13.40
   4   2   4   64.39   14.50
   4   2   4   64.99   11.20
   4   2   4   72.39   12.70
  -5  -2  -4   79.99   11.80
  -5  -2  -4   75.39   13.10
  -5  -2  -4   46.80   17.50
  -5  -2  -4   88.69   12.60
  -5  -2  -4   72.99   14.70
  -5  -2  -4   71.09   11.90
   5   2   4   58.39   11.80
   5   2   4   80.29   15.30
   5   2   4   89.79   12.30
   5   2   4   81.19   17.50
   5   2   4   64.39   14.50
   5   2   4   74.09   12.50
   5   2   4   76.19   14.50
   7  -3  -4   12.70    6.90
   7  -3  -4   19.10    7.20
   7  -3  -4   14.60    5.20
   7  -3  -4   13.00    9.80
   7  -3  -4   12.50    6.60
   7  -3  -4   18.30    6.90
   7  -3  -4   35.60    8.00
   7  -3  -4   14.70   10.10
  -7   3   4   20.50    7.30
  -7   3   4   20.40    5.10
  -7   3   4   12.20    9.00
  -7   3   4   12.50    7.40
  -7   3   4   12.00    5.90
   6  -3  -4    4.50    5.60
   6  -3  -4    7.40    5.00
   6  -3  -4    2.40    6.30
   6  -3  -4    4.10    4.10
   6  -3  -4    4.60    3.80
   6  -3  -4    3.80    4.30
  -6   3   4    0.40    3.40
  -6   3   4    4.50    4.10
  -6   3   4   -4.20    4.10
  -6   3   4    7.80    5.80
   5  -3  -4   54.59    8.80
   5  -3  -4   62.09    7.70
   5  -3  -4   61.89    8.20
   5  -3  -4   64.49    7.30
   5  -3  -4   71.29    8.90
  -5   3   4   74.39    7.30
  -5   3   4   57.79    8.00
  -5   3   4   66.09    8.50
   4  -3  -4   19.20    4.10
   4  -3  -4   19.80    2.90
   4  -3  -4   20.80    3.10
   4  -3  -4   20.90    3.50
   4  -3  -4   22.00    3.60
   4  -3  -4   14.80    3.30
   4  -3  -4   30.30    7.30
   4  -3  -4   17.10    2.90
  -4   3   4   15.60    2.90
  -4   3   4   11.90    3.50
  -4   3   4   17.30    3.10
  -4   3   4   24.50    4.60
  -4   3   4   19.30    3.00
   3  -3  -4  404.86   37.00
   3  -3  -4  401.86   32.50
   3  -3  -4  353.36   32.30
   3  -3  -4  398.56   32.70
   3  -3  -4  339.57   32.70
   3  -3  -4  335.17   32.30
   3  -3  -4  377.16   33.20
   3  -3  -4  366.06   32.50
  -3   3   4  288.97   32.30
  -3   3   4  327.37   37.20
  -3   3   4  286.57   32.60
  -3   3   4  366.66   33.30
  -3   3   4  299.27   32.30
   2  -3  -4  298.17   29.40
   2  -3  -4  282.87   29.40
   2  -3  -4  351.76   29.30
   2  -3  -4  281.27   29.10
   2  -3  -4  350.16   29.30
   2  -3  -4  312.27   33.70
  -2   3   4  300.57   29.70
  -2   3   4  345.27   29.50
  -2   3   4  278.27   33.80
   1  -3  -4  184.38   19.10
   1  -3  -4  201.88   19.70
   1  -3  -4  200.98   19.70
   1  -3  -4  171.18   20.20
   1  -3  -4  221.88   24.60
   1  -3  -4  212.38   19.40
   1  -3  -4  179.08   19.60
   1  -3  -4  216.28   19.00
  -1   3   4  228.38   19.00
  -1   3   4  194.08   19.30
  -1   3   4  198.18   24.30
  -1   3   4  190.38   19.10
  -1   3   4  176.28   19.60
  -1   3   4  214.58   19.10
  -1   3   4  222.48   19.60
   0  -3  -4   74.49   10.90
   0  -3  -4   86.29   10.00
   0  -3  -4   83.59    9.20
   0  -3  -4   84.79    9.00
   0  -3  -4   88.19    8.40
   0  -3  -4   91.89    9.90
   0  -3  -4   88.59   14.20
   0  -3  -4   77.69    9.60
   0   3   4   88.99    9.10
   0   3   4   87.99   14.40
   0   3   4   87.09    9.00
   0   3   4   87.99    9.60
   0   3   4   75.99    9.70
   0   3   4   90.39    8.50
   0   3   4   89.29    9.60
  -1  -3  -4   -3.30    2.70
  -1  -3  -4   -0.80    1.70
  -1  -3  -4   -3.10    5.30
  -1  -3  -4   -1.10    2.80
  -1  -3  -4   -3.00    4.10
  -1  -3  -4   -2.10    2.10
  -1  -3  -4   -0.60    2.10
   1   3   4    0.10    1.20
   1   3   4    0.20    3.40
   1   3   4   -3.60    2.60
   1   3   4   -2.60    2.70
   1   3   4   -0.40    2.30
   1   3   4   -0.30    1.80
   1   3   4   -0.70    1.90
  -2  -3  -4   17.30    7.80
  -2  -3  -4   15.70    4.20
  -2  -3  -4   18.80    5.20
  -2  -3  -4   12.10    5.00
  -2  -3  -4   18.90    4.60
  -2  -3  -4   15.10    5.20
  -2  -3  -4   16.80    7.10
  -2  -3  -4   26.30    4.80
   2   3   4   18.60    5.60
   2   3   4   18.80    5.10
   2   3   4   22.00    4.10
   2   3   4   23.50    3.70
   2   3   4   16.50    6.80
   2   3   4   19.90    4.60
   2   3   4   21.30    5.60
  -3  -3  -4  123.69   17.70
  -3  -3  -4  150.88   16.20
  -3  -3  -4  137.79   17.00
  -3  -3  -4  150.48   17.40
  -3  -3  -4  170.18   21.80
  -3  -3  -4  146.59   15.70
  -3  -3  -4  146.99   17.20
   3   3   4  157.98   15.30
   3   3   4  139.29   15.90
   3   3   4  136.09   17.20
   3   3   4  128.69   19.80
   3   3   4  143.49   20.70
   3   3   4  137.59   17.40
   3   3   4  129.79   17.50
  -4  -3  -4  123.29   15.20
  -4  -3  -4  110.69   17.10
  -4  -3  -4  152.08   16.40
  -4  -3  -4  117.99   18.00
  -4  -3  -4  135.29   15.60
  -4  -3  -4   97.29   20.50
  -4  -3  -4  162.88   21.20
  -4  -3  -4  105.09   18.50
   4   3   4  129.49   15.40
   4   3   4  131.69   16.20
   4   3   4  111.09   19.70
   4   3   4  110.29   21.90
   4   3   4  111.59   17.80
   4   3   4  142.39   15.20
   4   3   4  147.59   19.00
  -5  -3  -4   55.99   10.30
  -5  -3  -4   54.99   14.80
  -5  -3  -4   33.50   12.00
  -5  -3  -4   63.79   10.60
  -5  -3  -4   50.89   10.60
  -5  -3  -4   39.60   19.20
  -5  -3  -4   63.29   14.40
  -5  -3  -4   52.89   12.60
   5   3   4   34.20   17.50
   5   3   4   52.89   11.50
   5   3   4   61.69   13.60
   5   3   4   56.19    9.80
   5   3   4   38.70    9.60
   5   3   4   74.09   14.40
   5   3   4   62.99   14.10
   7  -4  -4   15.80    3.80
   7  -4  -4   16.90    5.70
   7  -4  -4   12.20    3.00
   7  -4  -4    6.60    9.40
   7  -4  -4    7.90    4.70
   7  -4  -4   15.20   10.50
   7  -4  -4   18.60    6.60
   7  -4  -4   20.50    7.30
  -7   4   4   15.40    4.00
  -7   4   4   15.40    7.00
   6  -4  -4   18.50    3.00
   6  -4  -4   14.90    5.70
   6  -4  -4   12.10    6.00
   6  -4  -4   13.40    2.50
   6  -4  -4   17.60    4.30
   6  -4  -4   11.70    7.40
   6  -4  -4   17.00    3.70
   6  -4  -4   17.70    4.20
  -6   4   4   12.90    5.00
  -6   4   4   11.20    2.20
  -6   4   4   12.50    2.60
   5  -4  -4    1.20    1.10
   5  -4  -4    1.00    1.60
   5  -4  -4    5.00    3.90
   5  -4  -4    1.20    2.00
   5  -4  -4    3.50    6.00
   5  -4  -4    2.30    2.10
   5  -4  -4    1.30    2.90
   5  -4  -4    1.20    1.00
  -5   4   4    2.60    3.30
   4  -4  -4   21.50    3.80
   4  -4  -4   26.90    2.70
   4  -4  -4   35.50    8.60
   4  -4  -4   26.30    3.20
   4  -4  -4   31.90    5.00
   4  -4  -4   23.30    3.50
  -4   4   4   26.70    5.50
   3  -4  -4    2.60    2.30
   3  -4  -4    1.90    1.50
   3  -4  -4    2.30    1.20
   3  -4  -4   -1.40    5.80
   3  -4  -4    1.30    1.10
   3  -4  -4    1.20    0.70
   3  -4  -4    3.10    1.10
   3  -4  -4    1.20    0.80
  -3   4   4    0.60    0.70
  -3   4   4    4.40    2.90
  -3   4   4    1.60    0.70
   2  -4  -4    3.90    1.50
   2  -4  -4    2.40    2.20
   2  -4  -4    6.10    6.40
   2  -4  -4    1.30    1.30
   2  -4  -4    3.00    1.70
   2  -4  -4    5.00    1.90
  -2   4   4    3.60    2.30
  -2   4   4    1.60    2.70
  -2   4   4    3.90    1.50
  -2   4   4    4.70    1.80
   1  -4  -4   60.09    7.30
   1  -4  -4   57.99    6.70
   1  -4  -4   54.99    6.40
   1  -4  -4   65.59    5.80
   1  -4  -4   51.19    8.40
   1  -4  -4   52.89    7.20
   1  -4  -4   63.69    7.50
   1  -4  -4   51.09   12.60
  -1   4   4   48.30    8.00
  -1   4   4   66.79    6.10
  -1   4   4   57.49    6.90
  -1   4   4   59.19    7.20
  -1   4   4   56.09    6.40
  -1   4   4   59.49    6.10
   0  -4  -4    4.40    4.40
   0  -4  -4    0.90    6.40
   0  -4  -4    5.30    2.40
   0  -4  -4    5.60    3.20
   0  -4  -4    4.70    3.30
   0   4   4    3.80    2.00
   0   4   4    1.90    2.60
   0   4   4    4.60    2.70
   0   4   4    6.50    2.90
   0   4   4    4.00    3.90
   0   4   4    5.30    2.20
  -1  -4  -4   33.60    6.60
  -1  -4  -4   38.20    7.10
  -1  -4  -4   41.90    5.80
  -1  -4  -4   37.90    5.90
  -1  -4  -4   38.00    6.80
  -1  -4  -4   20.90   10.00
  -1  -4  -4   34.10    8.70
   1   4   4   32.40    6.70
   1   4   4   41.70    5.60
   1   4   4   22.80    7.50
   1   4   4   40.50    4.30
   1   4   4   37.30    5.80
   1   4   4   32.50    6.50
   1   4   4   35.30    6.60
  -2  -4  -4  764.82   73.59
  -2  -4  -4  789.02   78.19
  -2  -4  -4  824.82   72.69
  -2  -4  -4  726.43   73.89
  -2  -4  -4  777.72   72.69
  -2  -4  -4  708.83   73.79
  -2  -4  -4  799.82   72.89
   2   4   4  754.82   72.59
   2   4   4  661.33   75.09
   2   4   4  809.12   71.59
   2   4   4  768.52   72.49
   2   4   4  806.72   73.59
   2   4   4  784.62   73.79
   2   4   4  777.52   73.79
  -3  -4  -4  219.28   22.90
  -3  -4  -4  211.38   23.90
  -3  -4  -4  224.48   24.50
  -3  -4  -4  185.48   24.40
  -3  -4  -4  152.88   26.90
  -3  -4  -4  245.68   22.60
  -3  -4  -4  190.58   22.40
  -3  -4  -4  230.78   29.40
   3   4   4  185.48   23.40
   3   4   4  226.88   24.30
   3   4   4  202.88   24.10
   3   4   4  222.78   23.10
   3   4   4  229.38   24.60
   3   4   4  242.78   21.50
   3   4   4  185.28   26.90
  -4  -4  -4   89.09   14.60
  -4  -4  -4   78.99   15.60
  -4  -4  -4   85.69   15.60
  -4  -4  -4   56.49   17.00
  -4  -4  -4   78.79   18.60
  -4  -4  -4   80.19   12.70
  -4  -4  -4  102.19   18.10
   4   4   4   96.09   19.80
   4   4   4  108.39   16.80
   4   4   4  107.99   15.60
   4   4   4   91.19   16.50
   4   4   4   82.09   15.30
   4   4   4   90.99   14.20
   4   4   4   91.59   13.00
  -5  -4  -4  191.88   32.00
  -5  -4  -4  202.28   41.30
  -5  -4  -4  229.18   33.50
  -5  -4  -4  286.57   35.70
  -5  -4  -4  220.38   30.30
  -5  -4  -4  214.58   28.70
   5   4   4  251.87   28.30
   5   4   4  234.68   25.70
   5   4   4  227.98   31.10
   5   4   4  180.18   37.90
   5   4   4  236.68   26.40
   5   4   4  187.88   30.20
   6  -5  -4   99.79   12.60
   6  -5  -4  101.29   12.20
   6  -5  -4  116.19   16.10
   6  -5  -4   90.19   10.80
  -6   5   4   86.59   12.10
   5  -5  -4   74.19   12.40
   5  -5  -4   61.49   10.30
   5  -5  -4   60.29    7.00
   5  -5  -4   77.69   15.00
   5  -5  -4   70.49    7.70
  -5   5   4   59.19    8.90
   4  -5  -4   10.90    1.90
   4  -5  -4    7.60    1.90
   4  -5  -4   10.10    3.40
   4  -5  -4   16.70    8.70
   4  -5  -4    6.50    3.80
  -4   5   4    9.00    4.00
   3  -5  -4  213.18   27.20
   3  -5  -4  187.08   18.70
   3  -5  -4  210.28   18.70
   3  -5  -4  185.98   18.20
   3  -5  -4  195.78   19.10
   3  -5  -4  195.98   18.20
   3  -5  -4  213.68   18.60
  -3   5   4  186.18   20.10
   2  -5  -4  444.86   43.80
   2  -5  -4  505.55   43.10
   2  -5  -4  498.25   50.99
   2  -5  -4  442.86   42.80
   2  -5  -4  458.85   43.30
  -2   5   4  432.16   42.90
  -2   5   4  435.06   43.60
   1  -5  -4   -0.60    2.70
   1  -5  -4   -6.70    6.70
   1  -5  -4   -1.20    2.60
   1  -5  -4    2.30    1.80
   1  -5  -4    4.10    2.10
   1  -5  -4   -3.00    3.70
   1  -5  -4    2.30    3.10
  -1   5   4    2.50    2.20
  -1   5   4    0.90    1.20
  -1   5   4    1.40    1.70
  -1   5   4    1.90    1.10
  -1   5   4    1.60    2.50
  -1   5   4   -1.60    3.00
   0  -5  -4   12.70    5.80
   0  -5  -4    6.30    3.30
   0  -5  -4    4.50    3.90
   0  -5  -4   10.40    4.00
   0  -5  -4    8.60    3.10
   0  -5  -4    1.00    2.30
   0  -5  -4    1.80    8.80
   0   5   4    9.90    4.00
   0   5   4    7.40    2.80
   0   5   4   10.20    3.70
   0   5   4    7.10    2.40
   0   5   4    4.90    4.50
   0   5   4   14.20    3.50
  -1  -5  -4  135.29   15.10
  -1  -5  -4  147.19   16.80
  -1  -5  -4  156.88   16.70
  -1  -5  -4  142.19   23.50
  -1  -5  -4  140.09   15.40
  -1  -5  -4  109.09   18.50
  -1  -5  -4  140.79   15.30
  -1  -5  -4  130.29   16.90
   1   5   4  149.59   15.10
   1   5   4  139.39   16.20
   1   5   4  130.59   16.50
   1   5   4  145.59   16.10
   1   5   4  130.79   14.80
   1   5   4  146.49   13.40
   1   5   4  129.59   18.50
  -2  -5  -4  196.78   20.20
  -2  -5  -4  183.08   21.30
  -2  -5  -4  179.58   21.40
  -2  -5  -4  202.98   28.50
  -2  -5  -4  166.98   21.80
  -2  -5  -4  189.48   19.90
  -2  -5  -4  135.29   24.00
  -2  -5  -4  182.28   19.80
   2   5   4  187.18   21.50
   2   5   4  187.18   21.20
   2   5   4  204.18   18.20
   2   5   4  174.08   21.10
   2   5   4  200.38   20.00
   2   5   4  180.98   19.70
  -3  -5  -4  285.37   29.00
  -3  -5  -4  265.07   28.60
  -3  -5  -4  229.78   30.50
  -3  -5  -4  275.87   30.90
  -3  -5  -4  264.87   37.40
  -3  -5  -4  307.97   28.70
  -3  -5  -4  267.97   30.20
   3   5   4  272.47   29.00
   3   5   4  275.17   28.80
   3   5   4  291.87   30.80
   3   5   4  250.87   34.00
   3   5   4  273.87   30.60
   3   5   4  286.77   27.10
   3   5   4  285.87   30.90
  -4  -5  -4  137.39   27.90
  -4  -5  -4  153.68   23.60
  -4  -5  -4  173.08   33.80
  -4  -5  -4  126.39   19.40
  -4  -5  -4  136.39   24.70
  -4  -5  -4  185.28   20.70
  -4  -5  -4  152.48   22.60
  -4  -5  -4  159.98   20.30
   4   5   4  181.78   24.20
   4   5   4  173.98   24.70
   4   5   4  162.78   21.60
   4   5   4  190.98   20.60
   4   5   4  149.49   24.00
   4   5   4  195.88   29.80
   6  -6  -4    7.10   10.80
   6  -6  -4   16.50    3.50
   6  -6  -4   29.70    8.30
   6  -6  -4    5.80    5.20
   6  -6  -4   12.30    4.00
   5  -6  -4   -1.80    3.80
   5  -6  -4   -0.30   11.00
   5  -6  -4    5.20    5.30
   5  -6  -4    1.30    1.60
   5  -6  -4    2.10    1.80
  -5   6   4   -0.10    3.70
   4  -6  -4   23.80    5.10
   4  -6  -4   34.10    3.70
   4  -6  -4   29.50    4.50
   4  -6  -4   23.00    5.30
   4  -6  -4   25.80   14.30
  -4   6   4   33.40    6.90
   3  -6  -4  136.49   13.20
   3  -6  -4  143.29   14.10
   3  -6  -4  131.09   13.40
   3  -6  -4  126.89   24.30
   3  -6  -4  142.39   14.00
  -3   6   4  132.79   15.10
   2  -6  -4  181.98   17.90
   2  -6  -4  159.68   19.30
   2  -6  -4  206.18   29.10
   2  -6  -4  186.08   18.30
   2  -6  -4  177.78   18.50
   2  -6  -4  185.78   17.00
   2  -6  -4  198.18   18.80
   2  -6  -4  175.38   18.80
  -2   6   4  169.88   18.70
  -2   6   4  190.78   19.00
  -2   6   4  180.18   18.00
   1  -6  -4   12.20    4.20
   1  -6  -4   13.30    4.50
   1  -6  -4   13.20    3.60
   1  -6  -4   11.90    3.00
   1  -6  -4   -4.40   10.40
   1  -6  -4   16.40    4.90
   1  -6  -4   15.20    6.10
  -1   6   4   11.90    4.00
  -1   6   4    9.70    5.10
  -1   6   4   12.60    3.60
  -1   6   4   12.00    3.00
   0  -6  -4    8.00    5.00
   0  -6  -4    1.50    2.80
   0  -6  -4   10.80    6.60
   0  -6  -4    4.80    3.60
   0  -6  -4    1.00    3.10
   0  -6  -4    7.10    4.70
   0  -6  -4   -7.50    8.10
   0   6   4    2.40    3.30
   0   6   4   -5.00    5.40
   0   6   4    0.80    4.00
   0   6   4   -0.20    2.30
   0   6   4    2.80    4.50
   0   6   4   -0.70    2.70
  -1  -6  -4  174.88   19.80
  -1  -6  -4  178.68   18.10
  -1  -6  -4  139.59   30.90
  -1  -6  -4  169.88   17.80
  -1  -6  -4  164.18   20.20
  -1  -6  -4  139.79   23.00
  -1  -6  -4  158.88   17.80
   1   6   4  163.28   21.70
   1   6   4  166.18   19.40
   1   6   4  162.18   19.20
   1   6   4  171.98   18.80
   1   6   4  167.08   17.60
   1   6   4  150.58   17.40
  -2  -6  -4  112.39   13.90
  -2  -6  -4   78.89   18.20
  -2  -6  -4  101.39   16.60
  -2  -6  -4   97.29   14.00
  -2  -6  -4  101.09   23.30
  -2  -6  -4  106.89   15.70
  -2  -6  -4   89.69   15.90
   2   6   4  116.59   15.60
   2   6   4  113.09   14.20
   2   6   4  106.09   19.70
   2   6   4   94.99   13.70
   2   6   4   95.49   14.90
   2   6   4  106.59   10.60
   2   6   4  111.89   15.60
  -3  -6  -4   -1.60    8.60
  -3  -6  -4   15.90    7.10
  -3  -6  -4    4.60   14.20
  -3  -6  -4   21.10    9.00
  -3  -6  -4   -6.30   16.70
  -3  -6  -4   -0.80    6.50
  -3  -6  -4    4.40    9.70
  -3  -6  -4   11.10    6.90
   3   6   4  -16.20    6.70
   3   6   4   -4.90    6.30
   3   6   4    0.90    9.10
   3   6   4    1.10    3.70
   3   6   4    1.50    8.90
   3   6   4    5.20   13.20
   3   6   4   -3.00    9.40
  -4  -6  -4    0.80   14.60
  -4  -6  -4   41.80   10.60
  -4  -6  -4   29.20   14.30
  -4  -6  -4   32.50   24.90
  -4  -6  -4   66.19   21.50
  -4  -6  -4   38.80   14.20
   4   6   4   45.70   15.80
   4   6   4   13.60   19.90
   4   6   4    3.60   11.20
   4   6   4   32.60   10.90
   6  -7  -4   33.70    4.50
   6  -7  -4   28.50    5.10
   6  -7  -4   32.60    9.60
   6  -7  -4   45.20   16.40
   6  -7  -4   36.80    7.60
  -6   7   4   24.30    7.70
   5  -7  -4   64.19    6.40
   5  -7  -4   56.99    9.70
   5  -7  -4   59.29    9.70
   5  -7  -4   88.39   22.10
  -5   7   4   45.10    9.50
   4  -7  -4   34.20    4.40
   4  -7  -4   39.10    5.60
   4  -7  -4   29.30    5.70
   4  -7  -4   31.50    6.20
  -4   7   4   24.30    7.00
   3  -7  -4    9.20    2.90
   3  -7  -4    9.90    1.40
   3  -7  -4    8.20    2.20
   3  -7  -4   13.90    2.70
   3  -7  -4   -3.50   14.30
   3  -7  -4   11.20    1.50
   3  -7  -4   10.80    2.50
   3  -7  -4   14.70    4.10
  -3   7   4   14.10    5.50
   2  -7  -4  542.45   52.09
   2  -7  -4  512.25   51.19
   2  -7  -4  530.15   51.89
   2  -7  -4  556.84   54.49
   2  -7  -4  526.85   61.39
   2  -7  -4  562.34   50.99
  -2   7   4  516.65   51.09
  -2   7   4  593.74   51.19
   1  -7  -4  187.18   20.50
   1  -7  -4  145.59   22.20
   1  -7  -4  188.08   18.70
   1  -7  -4  181.08   19.10
   1  -7  -4  222.28   32.70
   1  -7  -4  195.28   20.30
   1  -7  -4  201.98   20.60
  -1   7   4  167.08   21.10
  -1   7   4  184.58   19.20
  -1   7   4  175.28   18.40
   0  -7  -4    9.00    5.10
   0  -7  -4    8.60   14.20
   0  -7  -4    3.30    3.80
   0  -7  -4   15.00    6.90
   0  -7  -4   10.90    6.60
   0  -7  -4   15.60    8.90
   0  -7  -4   10.20    5.80
   0   7   4    7.90    3.10
   0   7   4   12.80    6.20
   0   7   4   12.10    7.60
   0   7   4    6.80    3.90
   0   7   4    4.40    5.60
   0   7   4    9.30    4.00
  -1  -7  -4  129.89   18.10
  -1  -7  -4  161.28   19.50
  -1  -7  -4  141.09   29.10
  -1  -7  -4  147.39   16.80
  -1  -7  -4  147.29   16.60
  -1  -7  -4  147.49   19.30
  -1  -7  -4  139.99   16.70
  -1  -7  -4  118.49   22.30
   1   7   4  142.59   16.40
   1   7   4  128.29   15.90
   1   7   4  176.48   17.80
   1   7   4  138.39   18.70
   1   7   4  138.29   18.00
   1   7   4  109.49   22.10
  -2  -7  -4  349.47   35.00
  -2  -7  -4  251.67   40.90
  -2  -7  -4  399.56   34.90
  -2  -7  -4  297.77   37.20
  -2  -7  -4  331.57   36.70
  -2  -7  -4  353.06   34.90
  -2  -7  -4  332.77   47.80
  -2  -7  -4  342.97   37.30
   2   7   4  268.07   42.10
   2   7   4  333.17   36.90
   2   7   4  333.97   34.80
   2   7   4  338.27   31.40
   2   7   4  372.46   36.50
   2   7   4  362.86   34.90
   2   7   4  337.77   36.80
  -3  -7  -4  403.96   48.20
  -3  -7  -4  382.86   42.50
  -3  -7  -4  339.67   48.60
  -3  -7  -4  438.16   42.30
  -3  -7  -4  420.66   57.99
  -3  -7  -4  397.56   46.00
  -3  -7  -4  412.26   44.70
   3   7   4  412.16   39.40
   3   7   4  439.36   47.00
   3   7   4  447.16   44.70
   3   7   4  423.66   50.19
   3   7   4  419.26   43.20
   3   7   4  415.86   42.90
   3   7   4  428.76   45.50
   5  -8  -4   57.09    6.60
   5  -8  -4   65.19    6.70
   5  -8  -4   52.79    8.70
   5  -8  -4   54.09    9.10
   5  -8  -4   83.49   25.70
  -5   8   4   55.89   14.90
   4  -8  -4    8.80    3.60
   4  -8  -4   26.20   20.40
   4  -8  -4   11.00    4.40
   4  -8  -4   12.80    3.40
   4  -8  -4    3.80    4.50
  -4   8   4   20.50    6.50
   3  -8  -4  154.88   15.00
   3  -8  -4  154.88   14.90
   3  -8  -4  151.78   16.40
   3  -8  -4  156.28   15.80
   3  -8  -4  174.88   17.90
   3  -8  -4  156.68   33.90
   3  -8  -4  166.08   15.00
   3  -8  -4  184.58   16.50
  -3   8   4  126.99   17.80
   2  -8  -4   70.79   10.20
   2  -8  -4   72.89   11.40
   2  -8  -4   72.39   21.00
   2  -8  -4   57.29    7.60
   2  -8  -4   55.89    9.50
   2  -8  -4   50.99    8.70
   2  -8  -4   51.29   10.70
  -2   8   4   67.69    8.20
  -2   8   4   53.69    9.70
   1  -8  -4   25.90    6.80
   1  -8  -4   27.10   10.10
   1  -8  -4   35.30    8.70
   1  -8  -4   33.80   16.20
   1  -8  -4   28.40    5.30
   1  -8  -4   26.00    7.40
  -1   8   4   13.80    7.60
  -1   8   4   17.70    4.50
  -1   8   4   28.50    6.10
  -1   8   4   28.30    6.40
   0  -8  -4    9.40    5.80
   0  -8  -4   19.00   17.80
   0  -8  -4   21.70   10.60
   0  -8  -4   13.10    7.00
   0  -8  -4   10.80    4.80
   0  -8  -4   15.10    8.00
   0  -8  -4   14.30    5.70
   0  -8  -4   -3.50    7.10
   0   8   4   -4.80    8.70
   0   8   4   10.20    5.20
   0   8   4    9.30    3.80
   0   8   4   -3.20    6.60
   0   8   4    8.90    8.00
   0   8   4    6.10    3.60
  -1  -8  -4    3.20    9.80
  -1  -8  -4   21.70    7.20
  -1  -8  -4   33.20    8.00
  -1  -8  -4   35.90    7.50
  -1  -8  -4   32.40   20.90
  -1  -8  -4   20.80    9.50
  -1  -8  -4   18.80    9.10
  -1  -8  -4    5.70   14.50
   1   8   4   21.60   12.70
   1   8   4   23.00    8.70
   1   8   4   20.60    7.00
   1   8   4   30.10    7.70
   1   8   4   36.30    9.60
  -2  -8  -4   24.60   18.00
  -2  -8  -4   20.70   23.80
  -2  -8  -4   24.60   12.20
  -2  -8  -4   24.40   12.30
  -2  -8  -4   27.00    9.10
  -2  -8  -4   25.80    8.70
  -2  -8  -4   13.40   11.30
  -2  -8  -4   28.80    9.40
   2   8   4    6.00   15.60
   2   8   4   30.90   11.40
   2   8   4   12.10   12.40
   2   8   4   24.50    9.40
   2   8   4   37.30    9.30
   2   8   4   21.00   13.60
   4  -9  -4   -8.30   23.20
   4  -9  -4    2.60    2.70
   4  -9  -4    8.40    5.30
   4  -9  -4    5.80    4.00
   4  -9  -4    5.30    5.70
  -4   9   4    0.90    6.30
   3  -9  -4    0.10    1.70
   3  -9  -4    0.00    1.30
   3  -9  -4    1.90    6.40
   3  -9  -4    3.20    4.50
   3  -9  -4    8.30   20.50
   3  -9  -4    0.10    2.80
   3  -9  -4    5.30    4.10
   2  -9  -4    2.90    5.90
   2  -9  -4   21.80   22.80
   2  -9  -4   -5.10    8.20
   2  -9  -4    5.40    5.20
   2  -9  -4    8.30    7.70
   2  -9  -4   -3.80    3.40
  -2   9   4   -2.80    5.20
  -2   9   4    1.10    4.30
  -2   9   4    0.40    3.90
   1  -9  -4   36.20   25.30
   1  -9  -4   21.40    8.80
   1  -9  -4   20.30   11.90
   1  -9  -4   34.20    9.00
   1  -9  -4   35.90    8.20
   1  -9  -4   40.20   11.00
   1  -9  -4   34.20    6.80
  -1   9   4   38.00   10.40
  -1   9   4   27.20    7.50
  -1   9   4   55.69    8.50
  -1   9   4   49.90    9.90
   0  -9  -4  151.08   22.90
   0  -9  -4  160.38   20.30
   0  -9  -4  157.58   23.00
   0  -9  -4  159.08   19.80
   0  -9  -4  124.59   26.00
   0  -9  -4  167.68   19.30
   0  -9  -4  168.48   22.60
   0  -9  -4  201.58   38.90
   0   9   4  172.98   21.50
   0   9   4  160.08   16.40
   0   9   4  165.38   19.20
   0   9   4  154.98   25.30
   0   9   4  145.99   16.30
  -1  -9  -4  160.68   26.00
  -1  -9  -4  138.39   25.90
  -1  -9  -4  167.18   22.70
  -1  -9  -4  198.68   22.50
  -1  -9  -4  204.88   22.50
  -1  -9  -4  160.98   25.80
  -1  -9  -4  156.78   37.80
   1   9   4  173.98   26.20
   1   9   4  173.48   22.40
   2 -10  -4    5.20    6.70
   2 -10  -4   -9.00    7.30
   2 -10  -4   10.20   10.60
   2 -10  -4   15.30   11.30
   2 -10  -4   -9.10   27.60
   2 -10  -4    4.30    7.30
  -2  10   4   12.60    6.90
  -2  10   4   10.60    5.30
  -2  10   4   -0.50    5.50
   1  10  -5   11.50    4.70
   1  10  -5   -9.30    7.70
   1  10  -5   -9.50    8.00
   1  10  -5   18.00   12.50
  -1 -10   5    5.30    9.70
  -1 -10   5   12.40   13.30
  -1 -10   5   13.10    8.30
  -1 -10   5    5.50    9.60
  -1 -10   5   11.90    8.30
  -1 -10   5   -0.20   10.40
  -1 -10   5   15.00    5.40
   0  10  -5   72.69   15.20
   0  10  -5   87.39   16.20
   0  10  -5   76.49    9.70
   0  10  -5   82.09   13.00
   0  10  -5   67.49   12.10
   0  10  -5   61.29   10.00
   0 -10   5   37.40   14.20
   0 -10   5   72.59   12.90
   0 -10   5   61.59   10.30
   0 -10   5   72.99    9.10
   0 -10   5   73.29   11.10
   0 -10   5   54.79   11.20
   0 -10   5   58.59   12.00
  -1  10  -5   14.00    5.50
  -1  10  -5    8.80    6.30
  -1  10  -5    3.20    7.60
  -1  10  -5   -7.40    6.60
  -1  10  -5    3.50    4.70
   1 -10   5    4.80    2.50
   1 -10   5    5.20    6.00
   1 -10   5   -5.10    7.00
   1 -10   5    9.50    7.30
   1 -10   5  -11.60    8.90
   1 -10   5    7.10    5.30
   1 -10   5   16.80    7.30
  -2  10  -5   11.80    6.00
  -2  10  -5   15.90    7.40
  -2  10  -5   29.30    6.70
  -2  10  -5   30.30    6.80
  -2  10  -5   37.20    6.70
   2 -10   5   21.40    6.10
   2 -10   5   19.30    7.30
   2 -10   5   21.50    6.80
   2 -10   5   13.90    5.30
   2 -10   5   15.10    7.10
   2 -10   5   19.20    9.10
  -3  10  -5   60.99    8.20
  -3  10  -5   48.60   11.40
  -3  10  -5   46.70    8.70
   3 -10   5   41.50    7.80
   3 -10   5   60.49    9.90
   3 -10   5   52.19    8.20
   3 -10   5   49.10    9.50
   3 -10   5   44.40    9.70
   3 -10   5   37.70   10.00
   2   9  -5   99.69   16.60
   2   9  -5  112.89   17.30
   2   9  -5  109.49   17.80
   2   9  -5  140.69   17.30
   2   9  -5   82.89   18.10
   2   9  -5  100.99   13.50
  -2  -9   5  122.89   13.30
  -2  -9   5   82.19   15.20
  -2  -9   5   97.59   19.40
  -2  -9   5  107.89   14.70
  -2  -9   5   68.89   18.80
  -2  -9   5   83.59   15.90
  -2  -9   5   83.89   16.30
   1   9  -5  184.08   23.60
   1   9  -5  256.57   23.40
   1   9  -5  176.98   25.70
   1   9  -5  236.98   24.10
   1   9  -5  263.57   27.50
  -1  -9   5  169.28   24.60
  -1  -9   5  195.58   22.50
  -1  -9   5  199.78   21.20
  -1  -9   5  149.09   26.80
  -1  -9   5  206.58   24.20
  -1  -9   5  239.58   23.30
  -1  -9   5  227.68   25.10
   0   9  -5   17.80    8.50
   0   9  -5   24.80    5.60
   0   9  -5   22.20    6.50
   0   9  -5   23.50    5.00
   0   9  -5   25.40    5.70
   0   9  -5   33.80    8.40
   0  -9   5   27.00    5.80
   0  -9   5   35.80    5.30
   0  -9   5   31.70    7.80
   0  -9   5   19.70    9.70
   0  -9   5   22.80    7.00
   0  -9   5   25.90    6.70
   0  -9   5   28.10    8.70
  -1   9  -5   16.40    7.80
  -1   9  -5   14.80    6.30
  -1   9  -5   13.70    5.10
  -1   9  -5   13.40    4.70
  -1   9  -5   19.90    4.60
   1  -9   5   17.30    2.70
   1  -9   5    2.80    5.70
   1  -9   5   15.00    4.40
   1  -9   5   12.60    6.20
   1  -9   5   23.40    5.70
   1  -9   5    2.30    7.60
   1  -9   5   25.30    7.10
  -2   9  -5   21.10    7.80
  -2   9  -5   32.50    5.30
  -2   9  -5   21.00    6.50
  -2   9  -5   32.40    8.20
  -2   9  -5   17.80    5.80
   2  -9   5   22.30    6.00
   2  -9   5   26.10    6.70
   2  -9   5   18.70    7.50
   2  -9   5   30.70    5.50
   2  -9   5   22.20    5.40
   2  -9   5   23.90    6.50
  -3   9  -5    7.60    4.40
  -3   9  -5   12.10    6.30
  -3   9  -5    5.90    3.10
  -3   9  -5    3.90    3.40
  -3   9  -5   12.80    6.20
   3  -9   5    2.50    5.70
   3  -9   5   -1.00    5.60
   3  -9   5   -6.50    3.80
   3  -9   5    5.80    4.20
   3  -9   5   -2.90    5.60
   3  -9   5    0.90    4.70
  -4   9  -5  169.78   21.50
  -4   9  -5  180.08   17.10
   4  -9   5  175.88   18.60
   4  -9   5  196.58   19.40
   4  -9   5  158.58   18.30
   4  -9   5  168.98   20.00
   4  -9   5  184.58   19.20
   4  -9   5  194.78   20.70
   3   8  -5    3.20    8.80
   3   8  -5   17.80    8.90
   3   8  -5    8.70    9.00
   3   8  -5   17.30    8.10
   3   8  -5   13.90    8.80
   3   8  -5    5.90   12.70
   3   8  -5   14.50   12.90
  -3  -8   5   13.20   10.40
  -3  -8   5   -2.80    8.40
  -3  -8   5   13.80    7.00
  -3  -8   5   29.40   10.90
  -3  -8   5   13.00   14.50
  -3  -8   5    2.90    7.10
  -3  -8   5   18.50    9.40
   2   8  -5   75.09   12.10
   2   8  -5   88.89   13.20
   2   8  -5   67.09   14.00
   2   8  -5   68.29   10.40
   2   8  -5   60.09   12.10
   2   8  -5   61.89   13.00
   2   8  -5   61.19   10.80
  -2  -8   5   63.69   10.60
  -2  -8   5   68.39   10.50
  -2  -8   5   71.89   12.50
  -2  -8   5   60.89   12.60
  -2  -8   5   50.29   14.20
  -2  -8   5   56.69   11.40
  -2  -8   5   69.89    9.40
   1   8  -5  165.08   19.60
   1   8  -5  106.99   18.30
   1   8  -5  121.89   15.80
   1   8  -5  145.09   14.60
   1   8  -5  157.08   16.30
   1   8  -5  149.49   16.80
   1   8  -5  131.39   16.10
  -1  -8   5  108.29   16.70
  -1  -8   5  125.89   14.20
  -1  -8   5  137.89   15.80
  -1  -8   5  126.39   17.60
  -1  -8   5  107.19   19.30
  -1  -8   5  155.98   15.90
  -1  -8   5  145.39   17.50
   0   8  -5   62.29    7.10
   0   8  -5   42.40    7.60
   0   8  -5   60.89    8.70
   0   8  -5   55.79   10.20
   0   8  -5   45.10    7.80
   0   8  -5   49.30    7.80
   0   8  -5   50.99    9.40
   0  -8   5   39.00   10.30
   0  -8   5   40.30   12.00
   0  -8   5   48.80    6.10
   0  -8   5   36.20    8.00
   0  -8   5   45.90    8.20
   0  -8   5   50.59    9.10
   0  -8   5   55.09    7.80
  -1   8  -5   86.09   13.10
  -1   8  -5   95.59   11.80
  -1   8  -5   94.99   10.30
  -1   8  -5   98.29   10.30
  -1   8  -5  111.99   11.50
   1  -8   5  128.29   11.90
   1  -8   5   88.99   12.60
   1  -8   5  105.29    9.80
   1  -8   5   89.89   14.50
   1  -8   5  120.29   15.30
   1  -8   5  109.29   11.70
   1  -8   5   84.19   12.20
  -2   8  -5    5.00    3.00
  -2   8  -5   -1.10    4.10
  -2   8  -5    3.70    4.00
  -2   8  -5   -5.40    4.00
  -2   8  -5    4.80    3.70
  -2   8  -5    0.60    3.20
   2  -8   5    9.80    3.20
   2  -8   5   -3.50    3.50
   2  -8   5   -1.60    4.40
   2  -8   5    3.60    3.20
   2  -8   5   -3.20    3.50
   2  -8   5    0.10    5.10
   2  -8   5    1.20    3.80
  -3   8  -5   30.00   12.70
  -3   8  -5   57.19    7.70
  -3   8  -5   61.69    8.30
  -3   8  -5   56.89   10.30
  -3   8  -5   55.59    8.70
   3  -8   5   59.79    8.40
   3  -8   5   58.39    8.90
   3  -8   5   51.59    9.70
   3  -8   5   50.09   10.20
   3  -8   5   49.60    8.20
  -4   8  -5   14.40    6.60
  -4   8  -5   18.00    3.60
  -4   8  -5   22.30    4.30
  -4   8  -5   22.20    3.70
   4  -8   5   11.70    4.80
   4  -8   5   27.50    7.40
   4  -8   5   23.30    5.00
   4  -8   5   21.50    4.90
   4  -8   5   20.20    5.60
   4  -8   5   22.00    6.50
  -5   8  -5   81.09   13.60
   5  -8   5   95.59   12.50
   5  -8   5   84.39   10.90
   5  -8   5   97.99   15.20
   5  -8   5  119.89   14.70
   5  -8   5   95.99   12.10
   5  -8   5   90.19   14.70
   4   7  -5   30.40   10.00
   4   7  -5   23.30   14.60
   4   7  -5   11.70   14.60
   4   7  -5   33.10   10.30
   4   7  -5   31.60   11.40
   4   7  -5   19.70    9.20
  -4  -7   5    5.60   10.80
  -4  -7   5   36.90   11.70
  -4  -7   5   21.50   15.80
  -4  -7   5    9.30    7.90
  -4  -7   5   17.90   11.40
  -4  -7   5   35.60    7.50
  -4  -7   5   17.40    8.00
   3   7  -5  198.78   25.80
   3   7  -5  168.28   20.80
   3   7  -5  194.68   21.30
   3   7  -5  211.58   22.40
   3   7  -5  152.28   23.60
  -3  -7   5  202.68   20.40
  -3  -7   5  182.78   18.90
  -3  -7   5  173.98   20.20
  -3  -7   5  166.28   23.00
  -3  -7   5  152.28   21.60
  -3  -7   5  141.69   21.50
   2   7  -5   42.70    9.40
   2   7  -5   48.90    8.50
   2   7  -5   39.90    8.20
   2   7  -5   25.60    7.20
   2   7  -5   41.50   10.50
   2   7  -5   37.00    7.60
   2   7  -5   41.20    7.00
  -2  -7   5   27.30   10.80
  -2  -7   5   27.90    8.10
  -2  -7   5   57.79   10.20
  -2  -7   5   36.00    7.20
  -2  -7   5   43.00    6.90
  -2  -7   5   38.60    7.10
  -2  -7   5   30.40    8.00
   1   7  -5   27.80    7.60
   1   7  -5   30.20    5.00
   1   7  -5   30.50    6.50
   1   7  -5   27.50    5.90
   1   7  -5   17.70    6.30
   1   7  -5   36.50    6.30
   1   7  -5   19.10    5.30
  -1  -7   5   26.80    4.40
  -1  -7   5   25.70    5.50
  -1  -7   5   17.80    6.10
  -1  -7   5   21.30    9.60
  -1  -7   5   31.40    5.60
  -1  -7   5   28.80    6.60
   0   7  -5   25.80    4.80
   0   7  -5   29.40    5.30
   0   7  -5   30.40    6.70
   0   7  -5   17.90    5.90
   0   7  -5   27.50    4.70
   0   7  -5   23.60    5.10
   0   7  -5   25.50    4.90
   0  -7   5   22.50    6.00
   0  -7   5   27.40    3.80
   0  -7   5   33.00    5.40
   0  -7   5   26.80    6.00
   0  -7   5   27.30    4.90
  -1   7  -5  131.99   14.70
  -1   7  -5  140.59   15.30
  -1   7  -5  145.39   15.60
  -1   7  -5  176.38   15.60
  -1   7  -5  174.78   16.90
  -1   7  -5  138.89   14.70
  -1   7  -5  132.49   16.50
   1  -7   5  159.38   15.50
   1  -7   5  156.98   17.90
   1  -7   5  143.99   13.90
   1  -7   5  162.18   15.50
   1  -7   5  155.78   16.10
   1  -7   5  133.79   15.70
  -2   7  -5  133.39   12.80
  -2   7  -5  131.09   14.30
  -2   7  -5  141.99   13.80
  -2   7  -5  119.79   13.80
  -2   7  -5  114.99   13.00
  -2   7  -5  118.39   13.60
   2  -7   5  127.99   14.40
   2  -7   5  134.19   13.40
   2  -7   5  114.09   12.80
   2  -7   5   94.49   12.90
   2  -7   5  128.19   12.80
   2  -7   5  107.59   13.30
  -3   7  -5   78.99    9.90
  -3   7  -5   84.89   10.70
  -3   7  -5   72.29   10.90
  -3   7  -5   75.89    8.90
  -3   7  -5   86.29    9.20
  -3   7  -5   83.89    9.90
   3  -7   5   83.39   10.40
   3  -7   5   76.49    9.50
   3  -7   5   58.39   11.10
   3  -7   5   86.19   10.40
   3  -7   5   64.79    9.30
   3  -7   5   73.29    9.00
   3  -7   5   85.39    9.20
  -4   7  -5   63.69    8.90
  -4   7  -5   73.79    8.00
  -4   7  -5   64.59    8.60
  -4   7  -5   55.29    9.70
  -4   7  -5   66.89    8.50
   4  -7   5   68.39    8.20
   4  -7   5   61.69    8.90
   4  -7   5   71.29    9.50
   4  -7   5   65.29    9.90
   4  -7   5   67.09    9.10
  -5   7  -5    4.10    2.80
  -5   7  -5    1.80    3.10
  -5   7  -5   11.10    5.20
   5  -7   5    5.00    4.20
   5  -7   5    3.50    6.00
   5  -7   5   -4.70    4.50
   5  -7   5   -6.80    9.60
   5  -7   5    4.80    4.80
   5  -7   5    1.50    3.10
   5  -7   5    5.70    5.60
   5  -7   5  -10.30    7.30
   5   6  -5    4.20    9.30
   5   6  -5   21.20    9.50
   5   6  -5   -3.40   11.90
   5   6  -5   -6.40   16.60
   5   6  -5   21.70   14.60
   5   6  -5   -1.50   10.00
  -5  -6   5   -3.10   11.50
  -5  -6   5   -8.00   19.50
  -5  -6   5   -9.80    9.80
  -5  -6   5   -8.00   11.80
  -5  -6   5   21.20   11.30
  -5  -6   5   15.10    8.40
  -5  -6   5   -2.30    8.30
   4   6  -5    4.50    8.50
   4   6  -5    5.40    7.20
   4   6  -5   15.00    7.40
   4   6  -5   26.80   12.30
   4   6  -5   17.00   10.50
   4   6  -5    8.50    6.50
  -4  -6   5    1.60    6.10
  -4  -6   5   -2.60   13.90
  -4  -6   5    6.70    6.30
  -4  -6   5   14.00    9.10
  -4  -6   5   18.10    8.80
  -4  -6   5   13.30    9.20
   3   6  -5  349.77   40.30
   3   6  -5  374.16   43.80
   3   6  -5  408.56   38.50
   3   6  -5  434.16   39.90
   3   6  -5  459.65   40.00
   3   6  -5  336.07   38.60
   3   6  -5  345.17   38.60
  -3  -6   5  352.56   39.40
  -3  -6   5  415.16   40.50
  -3  -6   5  417.36   38.70
  -3  -6   5  381.96   38.30
  -3  -6   5  404.36   37.80
   2   6  -5 1131.59  123.09
   2   6  -5 1445.66  121.79
   2   6  -5 1246.78  121.29
   2   6  -5 1186.98  121.79
   2   6  -5 1178.98  121.79
   2   6  -5 1426.96  122.59
   2   6  -5 1418.96  124.59
  -2  -6   5 1306.17  121.69
  -2  -6   5 1229.18  120.99
  -2  -6   5 1385.36  121.89
  -2  -6   5 1430.06  123.59
   1   6  -5   29.00    6.90
   1   6  -5   30.00    5.50
   1   6  -5   20.50    6.30
   1   6  -5   29.40    5.30
   1   6  -5   28.10    4.60
   1   6  -5   19.20    4.70
   1   6  -5   26.80    5.30
  -1  -6   5   21.00    5.40
  -1  -6   5   25.80    5.80
  -1  -6   5   25.20    4.00
  -1  -6   5   25.70    4.90
  -1  -6   5   19.70    7.00
  -1  -6   5   23.50    5.80
  -1  -6   5   32.20    5.20
   0   6  -5  135.99   13.50
   0   6  -5  121.39   15.10
   0   6  -5  149.59   14.10
   0   6  -5  121.89   13.80
   0   6  -5  145.69   13.80
   0   6  -5  119.99   13.50
   0  -6   5  109.39   13.90
   0  -6   5  123.39   12.60
   0  -6   5  138.59   13.80
   0  -6   5  149.69   14.90
   0  -6   5  147.09   13.70
   0  -6   5  101.49   15.20
   0  -6   5  129.19   14.30
  -1   6  -5    1.00    2.10
  -1   6  -5    0.40    1.80
  -1   6  -5    5.20    3.20
  -1   6  -5    1.90    2.00
  -1   6  -5    2.40    1.90
  -1   6  -5   -1.20    3.30
  -1   6  -5    4.80    2.40
   1  -6   5    2.60    2.90
   1  -6   5    1.60    2.40
   1  -6   5   -2.10    2.20
   1  -6   5    0.80    2.00
   1  -6   5    3.60    2.60
   1  -6   5   -0.30    3.00
   1  -6   5    5.00    2.30
  -2   6  -5  148.49   17.50
  -2   6  -5  171.08   17.90
  -2   6  -5  183.88   17.30
  -2   6  -5  163.88   18.10
  -2   6  -5  188.88   17.10
  -2   6  -5  193.08   17.90
   2  -6   5  163.18   17.10
   2  -6   5  181.48   17.10
   2  -6   5  160.88   17.40
   2  -6   5  185.58   18.50
   2  -6   5  146.19   17.80
   2  -6   5  160.58   17.20
   2  -6   5  171.68   17.30
  -3   6  -5   24.60    5.60
  -3   6  -5   13.50    4.90
  -3   6  -5   24.00    4.50
  -3   6  -5   15.30    3.40
  -3   6  -5   19.60    3.60
  -3   6  -5   20.20    4.40
   3  -6   5   23.30    4.70
   3  -6   5   17.80    3.40
   3  -6   5   19.60    4.10
   3  -6   5   11.70    5.30
   3  -6   5   15.30    3.90
   3  -6   5   18.90    4.00
  -4   6  -5  161.98   18.80
  -4   6  -5  182.78   18.20
  -4   6  -5  205.88   18.60
  -4   6  -5  161.78   18.20
  -4   6  -5  182.38   19.90
  -4   6  -5  172.28   17.60
   4  -6   5  177.48   18.40
   4  -6   5  133.49   20.20
   4  -6   5  181.98   18.30
   4  -6   5  186.98   19.10
   4  -6   5  172.68   18.30
   4  -6   5  180.48   17.50
  -5   6  -5    2.90    4.40
  -5   6  -5    1.60    4.30
  -5   6  -5    3.70    4.90
   5  -6   5    4.00    4.40
   5  -6   5    4.30    3.10
   5  -6   5    3.70    4.10
   5  -6   5   16.50    8.20
   5  -6   5    6.30    7.90
   5  -6   5   -8.80    5.00
   5  -6   5   -3.80    5.50
   5  -6   5    1.60    5.30
  -6   6  -5   58.09    9.70
  -6   6  -5   58.89   11.60
  -6   6  -5   57.19   10.70
   6  -6   5   68.89   12.30
   6  -6   5   72.49    9.00
   6  -6   5   68.29   12.70
   6  -6   5   31.00   13.00
   6  -6   5   67.19   11.50
   6  -6   5  102.79   13.40
   5   5  -5   30.30   12.80
   5   5  -5   68.79   12.80
   5   5  -5   63.29   10.90
   5   5  -5   -4.90   19.80
   5   5  -5   29.10    9.20
   5   5  -5   35.40    9.60
  -5  -5   5   32.90    8.90
  -5  -5   5   28.30    8.10
  -5  -5   5   40.50   17.00
  -5  -5   5   35.50    8.50
  -5  -5   5   44.20   11.40
  -5  -5   5   58.79   13.00
   4   5  -5  346.07   31.00
   4   5  -5  313.47   33.80
   4   5  -5  306.67   30.50
   4   5  -5  257.87   29.00
   4   5  -5  272.97   28.70
   4   5  -5  252.97   32.70
   4   5  -5  257.97   29.10
  -4  -5   5  230.38   29.50
  -4  -5   5  284.77   28.20
  -4  -5   5  278.07   31.00
  -4  -5   5  223.28   30.00
  -4  -5   5  307.07   28.70
  -4  -5   5  301.97   28.90
   3   5  -5   33.30    6.20
   3   5  -5   25.20    6.30
   3   5  -5   42.50   10.00
   3   5  -5   29.30    6.70
   3   5  -5   52.39    8.30
   3   5  -5   35.70    7.60
   3   5  -5   23.10    7.80
  -3  -5   5   40.50    8.20
  -3  -5   5   34.20    7.30
  -3  -5   5   28.80    7.30
  -3  -5   5   34.40    6.40
  -3  -5   5   34.20    9.40
  -3  -5   5   32.90    9.70
  -3  -5   5   38.00    6.10
   2   5  -5   19.70    5.80
   2   5  -5   21.70    4.90
   2   5  -5   16.50    4.40
   2   5  -5   20.20    4.20
   2   5  -5   12.20    4.40
   2   5  -5   23.00    5.10
   2   5  -5   19.90    6.00
  -2  -5   5   14.80    4.70
  -2  -5   5   16.50    4.90
  -2  -5   5   21.60    4.60
  -2  -5   5   11.70    3.80
  -2  -5   5   16.80    3.40
  -2  -5   5   24.50    5.70
  -2  -5   5   14.00    6.30
   1   5  -5   19.00    4.10
   1   5  -5   15.70    3.80
   1   5  -5   13.10    3.80
   1   5  -5   19.60    5.10
   1   5  -5   15.20    3.60
   1   5  -5   17.50    3.10
   1   5  -5   14.70    4.50
   1   5  -5   15.90    3.80
  -1  -5   5   10.10    3.20
  -1  -5   5    8.70    3.80
  -1  -5   5   21.60    3.90
  -1  -5   5   14.80    2.70
  -1  -5   5   14.50    4.00
  -1  -5   5   17.30    4.30
  -1  -5   5   10.90    5.10
   0   5  -5  109.39   10.90
   0   5  -5  103.19   12.20
   0   5  -5  106.09   10.70
   0   5  -5   99.29   10.90
   0   5  -5  122.39   11.10
   0   5  -5   90.99   10.60
   0   5  -5  116.19   12.20
   0  -5   5   90.39   10.50
   0  -5   5  104.89   10.80
   0  -5   5   90.59   10.90
   0  -5   5   88.19    9.70
   0  -5   5   85.79   10.90
   0  -5   5  107.69   11.70
  -1   5  -5    6.10    1.90
  -1   5  -5    7.00    2.90
  -1   5  -5    2.10    4.80
  -1   5  -5    9.30    3.50
  -1   5  -5    5.20    2.10
  -1   5  -5    5.90    2.10
  -1   5  -5    3.60    2.20
  -1   5  -5   10.00    2.60
   1  -5   5    4.10    2.40
   1  -5   5    1.60    1.70
   1  -5   5    2.00    2.80
   1  -5   5    7.50    2.40
   1  -5   5    5.30    3.00
   1  -5   5    5.10    2.10
   1  -5   5    4.20    2.00
  -2   5  -5  170.88   17.70
  -2   5  -5  198.88   19.10
  -2   5  -5  178.68   19.10
  -2   5  -5  184.28   19.00
  -2   5  -5  175.78   17.70
  -2   5  -5  220.68   19.50
  -2   5  -5  205.18   18.60
  -2   5  -5  207.78   18.40
   2  -5   5  206.28   18.50
   2  -5   5  158.38   18.40
   2  -5   5  170.98   19.70
   2  -5   5  184.28   19.20
   2  -5   5  164.18   18.60
   2  -5   5  198.78   18.60
   2  -5   5  188.88   18.40
  -3   5  -5   71.29    9.90
  -3   5  -5   82.89    9.30
  -3   5  -5  101.69   10.50
  -3   5  -5   83.59   10.20
  -3   5  -5   76.99   10.60
  -3   5  -5   93.89    9.60
   3  -5   5   88.19    9.60
   3  -5   5   85.49   10.00
   3  -5   5   74.29    9.50
   3  -5   5   89.89    9.20
   3  -5   5   65.89    9.80
   3  -5   5   94.89   10.10
  -4   5  -5  154.28   18.20
  -4   5  -5  141.29   16.20
  -4   5  -5  138.59   17.00
  -4   5  -5  192.28   16.70
  -4   5  -5  167.28   17.50
   4  -5   5  177.28   16.20
   4  -5   5  165.58   17.20
   4  -5   5  177.78   17.10
   4  -5   5  151.68   16.70
   4  -5   5  154.38   17.50
   4  -5   5  138.69   17.40
  -5   5  -5  156.18   15.90
  -5   5  -5  118.79   14.60
  -5   5  -5   96.49   14.60
  -5   5  -5  135.59   14.00
   5  -5   5  122.69   15.30
   5  -5   5  102.49   15.50
   5  -5   5  137.49   14.60
   5  -5   5  122.39   13.10
   5  -5   5  113.09   15.30
   5  -5   5  126.49   14.70
   5  -5   5   94.99   18.40
  -6   5  -5  101.59   14.80
  -6   5  -5  124.39   14.70
  -6   5  -5   84.29   15.60
   6  -5   5   87.69   15.20
   6  -5   5   95.39   12.10
   6  -5   5   86.09   17.20
   6  -5   5  113.69   14.60
   6  -5   5  123.09   16.10
   6  -5   5   85.59   14.40
   6  -5   5  104.19   17.90
   6   4  -5   50.09   17.20
   6   4  -5   67.39   20.60
   6   4  -5   64.79   16.10
   6   4  -5   52.19   13.10
   6   4  -5   59.79   13.00
  -6  -4   5   43.70   10.10
  -6  -4   5   59.59   16.30
  -6  -4   5   50.59   14.80
  -6  -4   5   91.69   16.80
  -6  -4   5   45.90   22.40
  -6  -4   5   72.69   15.10
   5   4  -5    0.50   11.30
   5   4  -5  -16.60    7.80
   5   4  -5   -4.10    5.70
   5   4  -5   10.20    8.70
   5   4  -5   15.50    8.60
   5   4  -5    9.20    5.80
   5   4  -5   10.80    6.90
  -5  -4   5   15.30   11.40
  -5  -4   5   -9.00    6.80
  -5  -4   5    9.60    9.50
  -5  -4   5   -3.90    8.10
  -5  -4   5    0.40    5.30
  -5  -4   5   -5.20    7.50
  -5  -4   5   -3.50    4.90
  -5  -4   5   -6.70    5.20
   4   4  -5    6.80    4.90
   4   4  -5    7.60    4.60
   4   4  -5   17.10    8.10
   4   4  -5   -1.00    5.80
   4   4  -5    0.30    4.50
   4   4  -5   -1.70    5.80
  -4  -4   5   -1.90    6.50
  -4  -4   5    6.20    8.20
  -4  -4   5   -7.10    5.40
  -4  -4   5    5.00    3.90
  -4  -4   5    1.50    3.30
  -4  -4   5   -4.90    3.80
  -4  -4   5    3.90    5.90
   3   4  -5   63.49   11.20
   3   4  -5   95.99   11.00
   3   4  -5  101.79   11.20
   3   4  -5   70.99    9.80
   3   4  -5   95.19   13.30
   3   4  -5   74.69    9.80
   3   4  -5   79.49    9.30
  -3  -4   5   60.69   10.40
  -3  -4   5   75.99    9.20
  -3  -4   5   65.39   10.40
  -3  -4   5   79.89    9.70
  -3  -4   5   79.89    9.60
  -3  -4   5   55.09   11.80
  -3  -4   5   79.69   11.30
   2   4  -5  213.08   24.00
   2   4  -5  266.77   23.30
   2   4  -5  212.48   22.70
   2   4  -5  229.98   22.30
   2   4  -5  224.68   22.90
   2   4  -5  264.17   23.50
   2   4  -5  251.77   24.80
  -2  -4   5  233.08   22.60
  -2  -4   5  256.87   24.10
  -2  -4   5  201.08   24.40
  -2  -4   5  187.98   23.00
  -2  -4   5  246.68   22.80
  -2  -4   5  185.08   22.90
  -2  -4   5  234.18   22.20
   1   4  -5  256.97   26.30
   1   4  -5  283.97   26.50
   1   4  -5  308.67   26.80
   1   4  -5  277.87   26.60
   1   4  -5  299.67   26.60
   1   4  -5  258.87   25.80
   1   4  -5  259.97   27.50
   1   4  -5  312.37   27.90
  -1  -4   5  274.37   26.30
  -1  -4   5  245.18   26.60
  -1  -4   5  227.68   27.50
  -1  -4   5  243.88   26.60
  -1  -4   5  294.07   26.50
  -1  -4   5  255.07   25.70
  -1  -4   5  296.37   27.40
   0   4  -5    2.90    1.70
   0   4  -5    1.40    2.50
   0   4  -5   -0.90    1.80
   0   4  -5    3.60    1.80
   0   4  -5   -1.50    1.40
   0   4  -5    2.30    1.00
   0   4  -5    0.90    1.70
   0   4  -5    0.50    2.10
   0  -4   5   -1.00    1.40
   0  -4   5    0.40    0.70
   0  -4   5    2.80    2.40
   0  -4   5    0.30    1.50
   0  -4   5   -2.90    1.80
   0  -4   5    1.20    1.80
   0  -4   5   -1.50    1.80
  -1   4  -5   92.59    8.80
  -1   4  -5   66.79    8.70
  -1   4  -5   82.19    9.80
  -1   4  -5   88.89    8.60
  -1   4  -5   96.39    9.30
  -1   4  -5   69.99    8.30
  -1   4  -5   69.69    8.50
  -1   4  -5   73.89    8.20
   1  -4   5   75.19    8.70
   1  -4   5   81.39    8.60
   1  -4   5   81.49    9.60
   1  -4   5   82.79    8.40
   1  -4   5   74.69    8.50
   1  -4   5   71.09    9.10
   1  -4   5   77.89    8.60
  -2   4  -5  499.35   48.40
  -2   4  -5  596.04   48.80
  -2   4  -5  448.86   48.20
  -2   4  -5  514.75   49.10
  -2   4  -5  484.15   48.90
  -2   4  -5  477.85   49.00
  -2   4  -5  604.04   50.59
   2  -4   5  482.45   48.80
   2  -4   5  501.95   48.60
   2  -4   5  545.65   49.20
   2  -4   5  523.55   48.40
   2  -4   5  548.75   48.60
  -3   4  -5   97.19   11.00
  -3   4  -5   96.19    9.50
  -3   4  -5  123.49   11.10
  -3   4  -5  108.79   11.70
  -3   4  -5   81.69    9.40
  -3   4  -5   88.19   11.10
  -3   4  -5   98.29   10.50
  -3   4  -5   97.29    9.40
   3  -4   5   68.39   12.90
   3  -4   5  110.59   10.20
   3  -4   5   96.19   10.90
   3  -4   5   96.09   10.60
   3  -4   5  108.29   10.90
   3  -4   5   92.49   10.70
  -4   4  -5   20.50    5.80
  -4   4  -5   10.30    4.20
  -4   4  -5    5.80    3.80
  -4   4  -5   17.60    3.00
  -4   4  -5   11.40    4.20
  -4   4  -5   15.80    5.10
  -4   4  -5   14.10    3.60
   4  -4   5    8.70    3.80
   4  -4   5   17.50    4.30
   4  -4   5   11.60    4.20
   4  -4   5   20.60    3.60
   4  -4   5   21.50    6.20
   4  -4   5   10.90    4.60
   4  -4   5    8.30    6.10
   4  -4   5   15.40    4.70
  -5   4  -5    6.20    5.10
  -5   4  -5    8.90    3.60
  -5   4  -5    4.90    6.00
  -5   4  -5    9.10    5.20
  -5   4  -5    8.80    4.20
   5  -4   5   10.30    5.20
   5  -4   5    5.30    8.50
   5  -4   5    2.40    4.80
   5  -4   5    9.80    4.70
   5  -4   5    4.50    4.50
   5  -4   5    1.20    5.90
   5  -4   5    9.60    3.70
  -6   4  -5   58.19   11.00
  -6   4  -5   53.89    9.00
  -6   4  -5   48.10   10.40
  -6   4  -5   94.19   16.80
  -6   4  -5   60.69   11.50
   6  -4   5   59.79    9.60
   6  -4   5   52.19   10.30
   6  -4   5   66.49   11.50
   6  -4   5   58.19   10.70
   6  -4   5   66.79   12.80
   6  -4   5   40.70   10.70
   6  -4   5   43.60   14.30
   6   3  -5  143.99   21.00
   6   3  -5  187.78   24.60
   6   3  -5  176.58   22.20
   6   3  -5  191.18   21.80
   6   3  -5  194.08   25.50
  -6  -3   5  164.78   23.30
  -6  -3   5  190.88   20.90
  -6  -3   5  157.68   25.30
  -6  -3   5  126.19   26.50
  -6  -3   5  176.38   21.30
  -6  -3   5  186.28   24.20
  -6  -3   5  205.38   20.20
   5   3  -5   41.80   10.70
   5   3  -5   49.30    9.50
   5   3  -5   65.59   11.20
   5   3  -5   59.39    9.50
   5   3  -5   35.70    8.50
   5   3  -5   70.69   14.00
  -5  -3   5   65.59    9.40
  -5  -3   5   42.00   12.20
  -5  -3   5   57.09    9.80
  -5  -3   5   53.29    8.70
  -5  -3   5   67.79   11.60
  -5  -3   5   52.39   10.30
  -5  -3   5   48.90   10.50
   4   3  -5  459.65   40.50
   4   3  -5  346.07   41.50
   4   3  -5  488.55   43.10
   4   3  -5  385.76   40.80
  -4  -3   5  389.06   38.70
  -4  -3   5  447.46   39.30
  -4  -3   5  343.67   39.40
  -4  -3   5  419.76   40.70
  -4  -3   5  412.26   38.70
  -4  -3   5  327.77   39.60
   3   3  -5   75.29   11.30
   3   3  -5   69.19    8.90
   3   3  -5   70.79    8.80
   3   3  -5   81.99    9.90
   3   3  -5   85.69   10.00
   3   3  -5   73.99    9.20
   3   3  -5   69.89   10.30
  -3  -3   5   74.79   10.20
  -3  -3   5   75.09    8.50
  -3  -3   5   81.09    9.00
  -3  -3   5   74.69    8.70
  -3  -3   5   60.89    9.50
  -3  -3   5   57.09   11.20
  -3  -3   5   65.09    9.40
   2   3  -5    4.90    2.20
   2   3  -5    3.80    2.20
   2   3  -5    7.30    2.80
   2   3  -5   10.40    3.90
   2   3  -5    3.10    2.90
   2   3  -5    2.60    1.80
   2   3  -5    5.00    2.80
  -2  -3   5    4.10    2.20
  -2  -3   5    4.60    1.90
  -2  -3   5    3.50    2.60
  -2  -3   5   -1.70    3.50
  -2  -3   5    3.80    2.60
  -2  -3   5    5.80    3.00
  -2  -3   5    5.10    2.30
   1   3  -5   47.20    6.40
   1   3  -5   32.60    4.20
   1   3  -5   29.70    4.60
   1   3  -5   38.80    5.10
   1   3  -5   35.80    6.00
   1   3  -5   33.00    4.90
   1   3  -5   42.80    5.30
   1   3  -5   30.00    4.80
  -1  -3   5   36.90    4.70
  -1  -3   5   35.60    4.10
  -1  -3   5   32.40    6.30
  -1  -3   5   36.20    4.70
  -1  -3   5   31.00    5.20
  -1  -3   5   35.90    5.10
  -1  -3   5   43.50    5.80
   0   3  -5   18.90    3.60
   0   3  -5   13.00    2.70
   0   3  -5   15.10    2.60
   0   3  -5   11.90    2.50
   0   3  -5    9.50    2.50
   0   3  -5    8.10    1.60
   0   3  -5   12.80    3.40
   0   3  -5   14.50    2.80
   0  -3   5   12.90    2.70
   0  -3   5   13.30    2.50
   0  -3   5    9.80    2.40
   0  -3   5    8.80    2.40
   0  -3   5    6.60    2.80
   0  -3   5   10.00    2.60
   0  -3   5   11.20    3.20
  -1   3  -5   72.59    7.20
  -1   3  -5   58.69    5.80
  -1   3  -5   57.09    7.00
  -1   3  -5   60.29    6.90
  -1   3  -5   64.29    6.70
  -1   3  -5   58.09    7.00
  -1   3  -5   72.49    6.90
  -1   3  -5   70.69    7.50
   1  -3   5   55.99    6.90
   1  -3   5   55.49    7.80
   1  -3   5   58.89    7.00
   1  -3   5   59.89    7.40
   1  -3   5   58.29    6.80
   1  -3   5   55.89    7.00
   1  -3   5   72.49    7.10
  -2   3  -5  317.67   33.70
  -2   3  -5  372.56   33.60
  -2   3  -5  343.57   33.10
  -2   3  -5  393.66   34.20
  -2   3  -5  332.07   33.80
  -2   3  -5  342.07   34.50
  -2   3  -5  411.36   34.30
  -2   3  -5  330.67   34.30
   2  -3   5  405.36   34.50
   2  -3   5  333.17   33.90
   2  -3   5  365.36   33.80
   2  -3   5  336.07   34.10
   2  -3   5  375.56   34.10
  -3   3  -5  271.57   22.80
  -3   3  -5  258.77   22.70
  -3   3  -5  216.78   24.00
  -3   3  -5  219.48   23.10
  -3   3  -5  257.27   24.20
  -3   3  -5  257.87   23.60
  -3   3  -5  270.97   24.00
  -3   3  -5  221.38   22.80
   3  -3   5  207.98   23.50
   3  -3   5  220.48   23.60
   3  -3   5  219.88   23.40
   3  -3   5  211.18   23.90
   3  -3   5  259.57   24.00
   3  -3   5  247.38   23.10
  -4   3  -5  360.76   32.30
  -4   3  -5  328.67   35.00
  -4   3  -5  369.46   35.20
  -4   3  -5  375.46   33.80
  -4   3  -5  311.47   32.00
  -4   3  -5  365.46   33.40
   4  -3   5  323.67   33.90
   4  -3   5  335.97   33.20
   4  -3   5  311.87   34.60
   4  -3   5  360.76   32.70
   4  -3   5  297.57   33.40
  -5   3  -5   27.50    5.80
  -5   3  -5   33.30    6.80
  -5   3  -5   20.90    3.90
  -5   3  -5   33.30    7.50
  -5   3  -5   27.90    7.20
  -5   3  -5   27.50    8.60
  -5   3  -5   29.90    5.50
  -5   3  -5   35.80    4.20
   5  -3   5   24.10    5.50
   5  -3   5   10.20    7.50
   5  -3   5   24.40    6.90
   5  -3   5   41.40    7.30
   5  -3   5   35.10    8.30
  -6   3  -5   -6.80    7.50
  -6   3  -5   10.00    9.80
  -6   3  -5    2.70   10.50
  -6   3  -5    5.50    6.00
  -6   3  -5   26.40    9.60
  -6   3  -5   14.00    6.10
   6  -3   5   12.50   13.40
   6  -3   5   10.80    7.50
   6  -3   5   12.40    7.90
   6  -3   5    7.00    5.60
   6  -3   5   28.30    8.40
   6  -3   5   18.90    9.50
   6   2  -5   -3.70    6.40
   6   2  -5   -7.00    5.80
   6   2  -5   12.10    9.30
   6   2  -5   -8.80   10.70
   6   2  -5    1.10    8.70
   6   2  -5    4.00    6.60
  -6  -2   5    3.80    7.60
  -6  -2   5    8.00    6.70
  -6  -2   5   -0.80   12.30
  -6  -2   5   -1.20    9.10
  -6  -2   5    1.20    7.70
  -6  -2   5    3.80    5.90
  -6  -2   5  -10.40    5.50
  -6  -2   5    3.50    4.70
   5   2  -5   59.99    9.30
   5   2  -5   55.09    9.40
   5   2  -5   73.59   11.60
   5   2  -5   63.09   10.40
   5   2  -5   61.29    9.30
   5   2  -5   50.39   10.30
  -5  -2   5   49.50   10.20
  -5  -2   5   44.50   11.60
  -5  -2   5   51.19    9.20
  -5  -2   5   61.59    8.30
  -5  -2   5   72.49    9.40
  -5  -2   5   35.70    8.00
  -5  -2   5   83.19   12.20
   4   2  -5   58.39   10.10
   4   2  -5   70.99   10.50
   4   2  -5   58.29    8.80
   4   2  -5   77.69    9.50
   4   2  -5   73.49    8.90
   4   2  -5   92.69   10.40
   4   2  -5   75.49   11.90
  -4  -2   5   61.19    8.80
  -4  -2   5   49.80    9.60
  -4  -2   5   62.19   12.10
  -4  -2   5   54.69    9.50
  -4  -2   5   76.89   10.50
  -4  -2   5   77.99    8.60
  -4  -2   5   71.99    8.90
   3   2  -5   26.50    5.10
   3   2  -5   20.40    5.00
   3   2  -5   24.20    4.20
   3   2  -5   24.30    4.40
   3   2  -5   31.10    5.10
   3   2  -5   21.70    5.80
   3   2  -5   16.70    3.80
  -3  -2   5   20.00    4.90
  -3  -2   5   17.20    3.80
  -3  -2   5   13.50    4.10
  -3  -2   5   17.40    5.80
  -3  -2   5   25.50    4.80
  -3  -2   5   15.20    3.60
  -3  -2   5   26.00    4.30
   2   2  -5  117.49   10.60
   2   2  -5  100.99   10.50
   2   2  -5   86.89   10.90
   2   2  -5   92.89   10.20
   2   2  -5   93.99    9.90
   2   2  -5   95.49   10.20
   2   2  -5  106.19   11.50
  -2  -2   5  101.29   10.00
  -2  -2   5   76.89   11.30
  -2  -2   5   84.29   10.30
  -2  -2   5  104.09   11.10
  -2  -2   5   97.19   10.10
  -2  -2   5   82.79   10.30
  -2  -2   5   94.79    9.80
   1   2  -5  219.48   19.20
   1   2  -5  185.58   18.30
   1   2  -5  202.98   18.40
   1   2  -5  190.48   18.20
   1   2  -5  198.78   19.10
   1   2  -5  183.98   18.20
   1   2  -5  174.98   17.70
   1   2  -5  177.88   18.10
  -1  -2   5  167.38   19.00
  -1  -2   5  208.38   19.00
  -1  -2   5  179.88   18.10
  -1  -2   5  167.38   17.60
  -1  -2   5  169.28   18.20
  -1  -2   5  198.28   18.10
  -1  -2   5  172.48   18.20
   0   2  -5  762.92   72.79
   0   2  -5  876.51   73.59
   0   2  -5  739.13   73.39
   0   2  -5  775.32   73.29
   0   2  -5  736.13   73.39
   0   2  -5  850.11   73.39
   0  -2   5  794.92   73.99
   0  -2   5  923.81   74.49
   0  -2   5  771.92   73.39
   0  -2   5  735.93   73.39
   0  -2   5  785.92   73.29
   0  -2   5  713.93   73.39
   0  -2   5  821.32   73.49
  -1   2  -5   55.79    6.60
  -1   2  -5   41.20    6.00
  -1   2  -5   51.59    5.90
  -1   2  -5   47.80    6.00
  -1   2  -5   57.39    6.50
  -1   2  -5   52.49    5.80
  -1   2  -5   65.39    7.40
   1  -2   5   47.60    6.00
   1  -2   5   56.29    6.50
   1  -2   5   53.89    6.10
   1  -2   5   42.30    6.90
   1  -2   5   44.80    6.30
   1  -2   5   58.19    5.90
   1  -2   5   57.59    6.20
  -2   2  -5    3.50    2.40
  -2   2  -5    3.00    2.20
  -2   2  -5    1.60    2.00
  -2   2  -5    5.90    2.30
  -2   2  -5    4.70    1.90
  -2   2  -5    1.90    1.20
  -2   2  -5    0.90    1.50
  -2   2  -5    0.30    1.80
  -2   2  -5   -1.10    2.80
   2  -2   5    2.70    2.20
   2  -2   5    0.80    1.40
   2  -2   5    2.60    1.90
   2  -2   5    2.90    2.00
   2  -2   5   -1.60    1.50
   2  -2   5    5.20    3.30
   2  -2   5    3.30    2.10
   2  -2   5    4.70    2.90
  -3   2  -5    0.80    2.50
  -3   2  -5   -2.60    2.70
  -3   2  -5    2.60    1.70
  -3   2  -5   -0.10    3.00
  -3   2  -5    2.90    2.00
  -3   2  -5    0.10    4.10
  -3   2  -5   -0.90    1.90
  -3   2  -5   -2.30    1.80
  -3   2  -5    1.40    2.70
   3  -2   5    4.80    2.60
   3  -2   5    0.70    3.30
   3  -2   5    1.20    2.30
   3  -2   5   -1.50    3.90
   3  -2   5   -0.20    1.80
   3  -2   5   -1.30    3.30
   3  -2   5    3.00    3.10
   3  -2   5    1.80    2.40
  -4   2  -5  274.27   31.50
  -4   2  -5  249.58   28.80
  -4   2  -5  269.67   29.50
  -4   2  -5  301.67   30.00
  -4   2  -5  327.47   28.30
  -4   2  -5  297.97   28.30
   4  -2   5  268.87   31.50
   4  -2   5  304.77   30.20
   4  -2   5  280.07   29.60
   4  -2   5  322.57   28.60
   4  -2   5  282.57   29.70
   4  -2   5  316.27   29.30
  -5   2  -5   66.59    8.10
  -5   2  -5   47.30   13.00
  -5   2  -5   39.70   10.00
  -5   2  -5   38.00    7.70
  -5   2  -5   48.20    8.40
  -5   2  -5   46.10    7.30
  -5   2  -5   64.59    7.70
  -5   2  -5   48.00    9.60
   5  -2   5   32.60    9.70
   5  -2   5   55.49   10.10
   5  -2   5   45.40    8.90
   5  -2   5   58.59    9.90
   5  -2   5   45.10    8.40
   5  -2   5   49.50    8.10
   5  -2   5   24.50   11.50
  -6   2  -5  118.19   14.20
  -6   2  -5  100.39   19.80
  -6   2  -5   84.59   12.30
  -6   2  -5   93.99   17.00
  -6   2  -5  100.69   16.20
   6  -2   5   72.39   17.70
   6  -2   5   88.09   16.40
   6  -2   5   91.49   16.30
   6  -2   5   78.39   13.50
   6  -2   5   75.79   14.80
   6  -2   5   87.29   13.10
   6  -2   5   94.59   15.20
   6   1  -5   57.99    9.90
   6   1  -5   73.09   13.90
   6   1  -5   65.49   11.30
   6   1  -5   49.30    9.70
   6   1  -5   55.59   11.50
   6   1  -5   65.59   12.30
   6   1  -5   60.89   10.30
  -6  -1   5   45.30    9.30
  -6  -1   5   47.50   15.20
  -6  -1   5   86.59   10.50
  -6  -1   5   52.09   11.00
  -6  -1   5   55.29    9.20
  -6  -1   5   69.39   13.00
  -6  -1   5   43.60   10.90
  -6  -1   5   57.39    8.60
   5   1  -5  111.39   14.90
   5   1  -5  100.99   12.80
   5   1  -5   85.09   14.10
   5   1  -5  102.79   14.00
   5   1  -5  128.29   16.80
   5   1  -5  116.69   13.90
   5   1  -5  103.99   13.10
  -5  -1   5  135.99   15.50
  -5  -1   5   72.89   16.30
  -5  -1   5  128.19   14.40
  -5  -1   5  102.09   11.90
  -5  -1   5  112.09   12.80
  -5  -1   5  120.89   12.70
   4   1  -5   94.29   11.30
   4   1  -5  128.19   13.80
   4   1  -5   97.79   12.70
   4   1  -5  100.89   11.50
   4   1  -5  104.19   11.90
   4   1  -5   88.29   11.20
   4   1  -5  116.59   12.60
  -4  -1   5  106.19   11.20
  -4  -1   5  109.99   10.70
  -4  -1   5   78.59   13.40
  -4  -1   5   90.29   11.00
  -4  -1   5   90.39   11.60
  -4  -1   5   82.59   11.90
  -4  -1   5  109.79   12.30
   3   1  -5   -2.20    1.90
   3   1  -5    3.70    2.40
   3   1  -5    1.50    2.10
   3   1  -5    0.30    1.90
   3   1  -5    1.80    2.30
   3   1  -5    4.40    2.80
   3   1  -5    0.10    2.80
  -3  -1   5    0.00    1.70
  -3  -1   5   -1.70    3.70
  -3  -1   5   -1.50    1.60
  -3  -1   5    0.20    2.30
  -3  -1   5    3.30    2.50
  -3  -1   5   -0.70    3.30
  -3  -1   5    1.50    2.50
  -3  -1   5    2.10    1.60
   2   1  -5  627.84   54.09
   2   1  -5  594.14   54.09
   2   1  -5  546.85   53.69
   2   1  -5  607.04   54.79
   2   1  -5  579.64   53.89
   2   1  -5  568.74   53.89
   2   1  -5  586.84   54.69
  -2  -1   5  551.94   53.69
  -2  -1   5  645.04   54.69
  -2  -1   5  498.05   54.79
  -2  -1   5  588.24   53.89
  -2  -1   5  525.35   53.99
   1   1  -5   31.60    4.40
   1   1  -5   29.70    4.20
   1   1  -5   29.00    4.00
   1   1  -5   34.70    4.60
   1   1  -5   31.00    4.00
   1   1  -5   32.20    3.90
   1   1  -5   33.30    5.10
   1   1  -5   35.40    4.70
  -1  -1   5   30.60    4.20
  -1  -1   5   26.60    4.90
  -1  -1   5   36.10    5.20
  -1  -1   5   25.30    4.10
  -1  -1   5   31.00    4.10
  -1  -1   5   32.30    4.30
   0   1  -5   54.19    6.80
   0   1  -5   63.59    6.70
   0   1  -5   57.99    6.60
   0   1  -5   58.49    5.90
   0   1  -5   59.59    7.20
   0   1  -5   58.89    6.80
   0   1  -5   71.49    8.10
   0   1  -5   76.09    7.20
   0  -1   5   58.69    6.50
   0  -1   5   81.49   10.30
   0  -1   5   58.59    7.00
   0  -1   5   54.79    7.90
   0  -1   5   53.69    6.70
   0  -1   5   48.60    6.60
   0  -1   5   65.29    7.30
   0  -1   5   56.09    6.80
  -1   1  -5 1524.65  148.59
  -1   1  -5 1748.43  148.79
  -1   1  -5 1814.92  148.29
  -1   1  -5 1560.04  148.79
  -1   1  -5 1491.15  149.19
  -1   1  -5 1762.22  150.18
  -1   1  -5 1710.93  149.19
  -1   1  -5 1490.55  148.79
   1  -1   5 1543.25  148.69
   1  -1   5 1554.74  148.49
   1  -1   5 1742.33  149.29
   1  -1   5 1545.85  148.69
   1  -1   5 1486.35  148.79
  -2   1  -5  571.14   53.89
  -2   1  -5  571.54   53.39
  -2   1  -5  560.64   54.39
  -2   1  -5  676.33   53.99
  -2   1  -5  524.35   54.39
  -2   1  -5  499.75   55.19
  -2   1  -5  536.65   53.69
  -2   1  -5  594.24   54.09
   2  -1   5  601.44   53.69
   2  -1   5  480.05   54.19
   2  -1   5  535.05   54.09
   2  -1   5  644.64   54.59
   2  -1   5  559.44   53.89
   2  -1   5  656.53   55.99
   2  -1   5  590.74   53.89
  -3   1  -5  145.69   15.30
  -3   1  -5  140.99   14.20
  -3   1  -5  151.18   14.80
  -3   1  -5  135.69   15.60
  -3   1  -5  133.59   14.60
  -3   1  -5  151.18   15.80
   3  -1   5  147.89   14.60
   3  -1   5  150.18   14.90
   3  -1   5  141.59   16.70
   3  -1   5  138.79   14.80
   3  -1   5  124.09   15.20
   3  -1   5  120.99   15.60
   3  -1   5  144.79   15.60
  -4   1  -5   26.90    9.20
  -4   1  -5   39.40    5.90
  -4   1  -5   47.50    7.20
  -4   1  -5   36.00    7.70
  -4   1  -5   36.60    6.00
  -4   1  -5   39.30    6.30
   4  -1   5   34.50    7.90
   4  -1   5   33.00    9.30
   4  -1   5   35.80    7.60
   4  -1   5   36.40    6.80
   4  -1   5   28.40    9.80
   4  -1   5   32.50    7.40
  -5   1  -5   -1.40    3.90
  -5   1  -5   -7.60    6.80
  -5   1  -5   10.30    4.30
  -5   1  -5    2.50    9.50
  -5   1  -5    3.60    4.40
  -5   1  -5   -1.20    6.00
  -5   1  -5   13.90    4.80
  -5   1  -5    5.10    4.70
   5  -1   5   -5.60    5.80
   5  -1   5    4.80    5.10
   5  -1   5   -5.20    4.00
   5  -1   5   -2.10    9.20
   5  -1   5   11.80    5.60
   5  -1   5   -1.50    6.60
   5  -1   5    4.50    6.80
  -6   1  -5   78.49   17.30
  -6   1  -5   84.09   12.10
  -6   1  -5   92.39   16.60
  -6   1  -5   57.59   19.30
  -6   1  -5  106.29   14.30
  -6   1  -5   86.89   14.60
  -6   1  -5   87.09   12.40
  -6   1  -5   67.69   16.60
   6  -1   5   68.69   11.80
   6  -1   5   88.49   16.40
   6  -1   5  102.09   16.10
   6  -1   5   89.19   16.30
   6  -1   5   75.59   16.20
   6  -1   5   89.99   14.60
   6  -1   5   64.49   17.90
   7   0  -5   31.90    9.20
   7   0  -5   16.10   13.90
   7   0  -5  -14.70   11.50
   7   0  -5   27.60    7.40
   7   0  -5   11.70    8.40
   7   0  -5    1.00    8.50
   7   0  -5   25.30    9.50
  -7   0   5    4.10    5.50
  -7   0   5    7.00    4.40
  -7   0   5    4.60    7.80
  -7   0   5   -2.80   15.20
  -7   0   5   10.40   10.90
   6   0  -5  278.47   31.50
   6   0  -5  258.47   28.20
   6   0  -5  261.47   29.20
   6   0  -5  319.87   28.80
   6   0  -5  247.18   27.60
   6   0  -5  296.47   30.00
   6   0  -5  273.17   28.20
  -6   0   5  267.87   28.60
  -6   0   5  285.57   26.10
  -6   0   5  234.38   27.20
  -6   0   5  281.37   27.60
  -6   0   5  253.07   28.80
   5   0  -5   83.29   11.00
   5   0  -5   74.19   10.00
   5   0  -5   70.99   10.10
   5   0  -5   78.49   12.70
   5   0  -5   75.79   10.10
   5   0  -5   69.49   10.20
   5   0  -5   60.69   10.50
  -5   0   5   90.99   10.70
  -5   0   5   82.89    9.80
  -5   0   5   49.90   15.70
  -5   0   5   67.09   10.70
  -5   0   5   87.59    9.70
  -5   0   5   69.79   12.00
   4   0  -5   85.69   10.70
   4   0  -5   99.89   11.00
   4   0  -5  118.99   11.20
   4   0  -5   92.59   11.70
   4   0  -5  111.99   12.80
   4   0  -5  104.59   11.60
   4   0  -5  109.49   11.30
  -4   0   5   95.09   10.90
  -4   0   5  114.49   10.90
  -4   0   5  108.89   11.80
  -4   0   5   71.09   12.60
  -4   0   5   83.59   10.80
  -4   0   5  117.59   14.00
  -4   0   5   74.39   11.30
   3   0  -5   11.00    2.50
   3   0  -5   13.00    2.80
   3   0  -5   12.30    2.90
   3   0  -5    9.40    3.10
   3   0  -5    8.30    2.80
   3   0  -5    5.60    2.80
   3   0  -5   10.30    2.40
  -3   0   5   12.00    2.70
  -3   0   5    9.10    2.50
  -3   0   5    8.70    4.20
  -3   0   5   10.60    2.20
  -3   0   5    7.30    2.90
  -3   0   5   11.60    4.30
  -3   0   5   14.10    2.60
  -3   0   5    8.30    2.80
   2   0  -5 1130.19   95.49
   2   0  -5 1032.40   94.79
   2   0  -5 1059.69   94.69
   2   0  -5  973.30   94.69
   2   0  -5 1048.40   94.89
   2   0  -5 1019.10   95.39
   2   0  -5 1082.39   94.79
  -2   0   5  885.81   95.29
  -2   0   5  923.01   94.69
  -2   0   5 1001.90   94.49
  -2   0   5 1112.39   94.79
   1   0  -5    4.30    1.80
   1   0  -5    0.60    1.80
   1   0  -5    2.20    1.40
   1   0  -5    1.60    1.70
   1   0  -5    6.40    3.60
   1   0  -5    2.60    1.60
   1   0  -5    3.30    1.70
   1   0  -5    2.00    2.00
  -1   0   5   -0.80    1.50
  -1   0   5    3.10    0.90
  -1   0   5    2.60    3.50
  -1   0   5    1.40    1.70
  -1   0   5    2.30    1.40
  -1   0   5    3.20    1.60
  -1   0   5    1.50    2.20
  -1   0   5    1.50    1.40
   0   0  -5   15.70    3.30
   0   0  -5   16.40    4.20
   0   0  -5   15.80    3.10
   0   0  -5   12.70    3.20
   0   0  -5   11.80    2.90
   0   0  -5   21.80    6.50
   0   0  -5   15.50    2.80
   0   0  -5   14.70    2.70
   0   0  -5   15.20    1.60
   0   0   5   14.40    3.10
   0   0   5   17.20    2.90
   0   0   5   13.70    3.70
   0   0   5   11.40    4.80
   0   0   5    9.70    3.10
   0   0   5   12.80    2.40
   0   0   5   15.40    3.20
   0   0   5   14.00    2.90
  -1   0  -5   18.00    3.40
  -1   0  -5   13.90    2.60
  -1   0  -5   11.80    2.60
  -1   0  -5   12.20    3.30
  -1   0  -5   12.00    2.90
  -1   0  -5   19.80    5.50
  -1   0  -5   10.30    3.30
  -1   0  -5   10.20    4.00
   1   0   5    9.00    3.00
   1   0   5   11.60    3.00
   1   0   5    8.50    3.40
   1   0   5   11.90    3.00
   1   0   5   13.40    2.50
   1   0   5   12.60    2.80
   1   0   5   13.20    2.60
   1   0   5   11.40    4.80
  -2   0  -5   18.50    3.20
  -2   0  -5   13.80    3.50
  -2   0  -5   11.70    4.00
  -2   0  -5   10.20    4.80
  -2   0  -5   11.00    3.60
  -2   0  -5    9.00    2.70
  -2   0  -5   14.80    3.20
  -2   0  -5   13.60    3.40
   2   0   5    6.40    3.50
   2   0   5   15.20    3.90
   2   0   5   12.10    2.80
   2   0   5   12.30    2.70
   2   0   5    7.70    4.40
   2   0   5   10.30    5.10
   2   0   5   18.90    4.10
   2   0   5   11.00    3.10
  -3   0  -5  664.23   65.99
  -3   0  -5  624.54   65.79
  -3   0  -5  731.43   65.19
  -3   0  -5  738.13   64.79
  -3   0  -5  700.13   65.29
  -3   0  -5  647.84   64.89
  -3   0  -5  788.92   65.59
   3   0   5  667.63   66.09
   3   0   5  570.94   67.19
   3   0   5  717.53   64.99
   3   0   5  703.63   65.99
   3   0   5  713.13   65.29
   3   0   5  667.43   67.29
   3   0   5  731.73   65.09
   3   0   5  683.03   65.89
  -4   0  -5  115.59   16.50
  -4   0  -5  150.28   15.60
  -4   0  -5  137.29   14.90
  -4   0  -5  138.69   14.30
  -4   0  -5  152.18   14.80
  -4   0  -5  123.39   16.30
  -4   0  -5  107.59   19.00
   4   0   5  137.39   16.30
   4   0   5  116.69   16.50
   4   0   5   99.19   18.60
   4   0   5  123.99   14.40
  -5   0  -5   55.59   16.60
  -5   0  -5   97.39   12.80
  -5   0  -5   73.79   15.60
  -5   0  -5   97.59   15.80
  -5   0  -5   98.19   12.30
  -5   0  -5  103.09   11.80
   5   0   5   77.09   17.00
   5   0   5   85.79   13.60
   5   0   5   96.09   12.90
   5   0   5  113.99   12.80
   5   0   5  113.29   15.00
   5   0   5   76.39   13.90
   5   0   5  101.19   16.20
  -6   0  -5   27.70    8.70
  -6   0  -5   23.30   18.20
  -6   0  -5   40.10    9.30
  -6   0  -5   42.80   15.60
  -6   0  -5   22.70    9.70
  -6   0  -5   20.30    7.70
   6   0   5   33.40   13.70
   6   0   5   11.30    8.00
   6   0   5   30.50   10.30
   6   0   5   42.70   13.60
   6   0   5   63.29   18.30
   6   0   5   31.40    9.50
   6   0   5   36.60   11.80
   7  -1  -5   -3.60    9.70
   7  -1  -5   -8.50    6.90
   7  -1  -5   -5.80    7.50
   7  -1  -5    6.10    8.20
   7  -1  -5    0.70    5.60
   7  -1  -5  -12.00   10.90
   7  -1  -5   13.50    7.20
  -7   1   5   23.20   12.50
  -7   1   5    6.50    6.20
  -7   1   5   -2.30    7.70
  -7   1   5  -13.10    5.90
  -7   1   5  -12.10    8.80
   6  -1  -5  628.34   55.69
   6  -1  -5  612.74   56.39
   6  -1  -5  564.34   54.39
   6  -1  -5  622.74   54.19
   6  -1  -5  468.65   54.69
  -6   1   5  493.95   53.69
  -6   1   5  573.74   53.39
  -6   1   5  548.15   53.89
   5  -1  -5   56.39    8.10
   5  -1  -5   57.39    8.90
   5  -1  -5   62.09    7.30
   5  -1  -5   71.69   10.50
   5  -1  -5   41.80    7.60
   5  -1  -5   43.10    7.00
   5  -1  -5   43.30    7.20
  -5   1   5   52.19    7.20
  -5   1   5   47.60    5.20
  -5   1   5   44.00    7.40
  -5   1   5   42.50    4.90
  -5   1   5   43.30    9.00
  -5   1   5   51.79    7.90
  -5   1   5   44.40    7.60
  -5   1   5   35.90    8.60
   4  -1  -5    1.70    1.80
   4  -1  -5   -0.40    2.90
   4  -1  -5    3.10    2.70
   4  -1  -5    4.30    2.60
   4  -1  -5   -1.50    2.60
   4  -1  -5   -0.90    1.80
   4  -1  -5    1.40    1.90
  -4   1   5    0.60    1.80
  -4   1   5   -1.40    1.70
  -4   1   5    4.60    2.70
  -4   1   5    3.10    3.40
  -4   1   5   -1.80    2.50
  -4   1   5    0.70    1.20
  -4   1   5   -0.30    2.40
  -4   1   5    1.00    2.50
  -4   1   5    0.90    5.10
   3  -1  -5   82.99    8.20
   3  -1  -5   84.39    8.70
   3  -1  -5   71.29    8.50
   3  -1  -5   76.49    8.10
   3  -1  -5   77.49    8.80
   3  -1  -5   87.19    9.20
   3  -1  -5   81.89    8.10
  -3   1   5   86.89    8.30
  -3   1   5   69.09    8.40
  -3   1   5   71.09    7.70
  -3   1   5   96.39    9.20
  -3   1   5   60.29    7.90
  -3   1   5   80.09    8.30
  -3   1   5   75.09   11.50
  -3   1   5   59.49    9.00
   2  -1  -5  708.23   61.29
   2  -1  -5  634.24   61.19
   2  -1  -5  693.33   61.89
   2  -1  -5  695.53   61.19
   2  -1  -5  631.94   61.39
   2  -1  -5  630.14   61.29
   2  -1  -5  710.73   61.89
  -2   1   5  676.83   61.29
  -2   1   5  690.73   61.99
  -2   1   5  593.64   61.19
  -2   1   5  628.04   60.99
  -2   1   5  618.24   63.99
   1  -1  -5  660.73   55.89
   1  -1  -5  570.44   55.49
   1  -1  -5  595.84   55.79
   1  -1  -5  600.84   55.99
   1  -1  -5  614.94   55.79
   1  -1  -5  585.94   55.69
  -1   1   5  617.14   55.59
  -1   1   5  525.45   58.19
  -1   1   5  552.94   55.49
  -1   1   5  654.23   56.09
   0  -1  -5  469.15   43.80
   0  -1  -5  433.96   45.00
   0  -1  -5  459.45   43.60
   0  -1  -5  481.95   44.20
   0  -1  -5  479.75   44.00
   0  -1  -5  507.35   43.50
   0  -1  -5  448.86   44.10
   0   1   5  496.35   43.70
   0   1   5  493.45   43.60
   0   1   5  524.45   44.20
   0   1   5  383.76   43.90
   0   1   5  444.86   46.70
   0   1   5  406.26   43.80
   0   1   5  484.35   43.60
  -1  -1  -5 1087.29  106.09
  -1  -1  -5 1139.49  105.39
  -1  -1  -5 1227.88  105.99
  -1  -1  -5 1180.68  105.69
  -1  -1  -5 1239.88  105.29
  -1  -1  -5 1137.49  106.19
  -1  -1  -5  951.10  106.89
   1   1   5 1156.38  105.29
   1   1   5 1157.78  105.59
   1   1   5 1225.48  105.19
   1   1   5 1023.80  105.99
   1   1   5 1097.19  105.89
   1   1   5 1096.59  108.39
   1   1   5 1200.68  106.09
  -2  -1  -5  519.55   52.59
  -2  -1  -5  603.04   52.49
  -2  -1  -5  576.64   51.69
  -2  -1  -5  549.05   51.69
  -2  -1  -5  555.04   51.99
  -2  -1  -5  580.54   51.69
  -2  -1  -5  506.45   52.59
   2   1   5  516.15   54.89
   2   1   5  502.25   52.49
   2   1   5  575.44   51.49
   2   1   5  552.14   51.89
   2   1   5  564.14   52.59
   2   1   5  556.54   51.69
   2   1   5  503.05   52.29
  -3  -1  -5  299.47   31.20
  -3  -1  -5  319.97   30.20
  -3  -1  -5  327.57   30.80
  -3  -1  -5  254.47   32.70
  -3  -1  -5  350.66   29.80
   3   1   5  325.47   29.70
   3   1   5  286.27   30.80
   3   1   5  240.58   32.60
   3   1   5  313.87   31.10
   3   1   5  284.27   31.10
   3   1   5  300.57   30.10
   3   1   5  307.37   29.70
  -4  -1  -5   59.19   10.90
  -4  -1  -5   67.89   10.50
  -4  -1  -5   56.99    9.00
  -4  -1  -5   53.39    8.50
  -4  -1  -5   57.89    9.10
  -4  -1  -5   60.29   13.70
  -4  -1  -5   41.40    9.70
   4   1   5   59.79   10.60
   4   1   5   56.39   13.20
   4   1   5   53.19    8.80
   4   1   5   59.39   10.90
   4   1   5   51.49    9.00
  -5  -1  -5   -1.30    5.70
  -5  -1  -5    5.20    7.10
  -5  -1  -5   -4.10   11.80
  -5  -1  -5   -3.70    5.10
  -5  -1  -5   -2.10    5.40
   5   1   5   -3.00    4.90
   5   1   5    0.60    9.20
   5   1   5    2.30    6.50
   5   1   5    4.90    8.80
   5   1   5    9.00   11.90
   5   1   5   -9.30    5.50
   5   1   5   -1.50    7.10
   7  -2  -5  148.99   18.00
   7  -2  -5  143.89   20.00
   7  -2  -5  180.78   20.10
   7  -2  -5  173.88   21.60
   7  -2  -5  162.28   22.50
   7  -2  -5  214.78   23.40
   7  -2  -5  162.38   18.00
   7  -2  -5  142.89   19.20
  -7   2   5  154.28   18.60
  -7   2   5  183.58   20.20
  -7   2   5  107.79   23.40
  -7   2   5  115.49   20.90
  -7   2   5  187.38   18.10
   6  -2  -5  247.38   27.30
   6  -2  -5  302.47   28.60
   6  -2  -5  270.47   26.10
   6  -2  -5  232.48   26.50
   6  -2  -5  258.07   27.90
  -6   2   5  304.97   27.30
  -6   2   5  240.58   26.70
  -6   2   5  257.27   25.90
   5  -2  -5   68.39    9.90
   5  -2  -5   59.69   13.00
   5  -2  -5   83.49    8.80
   5  -2  -5   87.99   10.50
   5  -2  -5   70.59    8.90
   5  -2  -5   79.49   10.50
   5  -2  -5   76.99    9.20
  -5   2   5   73.19    9.60
  -5   2   5   57.09    9.50
  -5   2   5   90.19   10.10
  -5   2   5   87.99    8.90
  -5   2   5   73.99   13.40
   4  -2  -5   50.79    7.50
   4  -2  -5   55.29    6.80
   4  -2  -5   60.09    6.90
   4  -2  -5   63.79    7.60
   4  -2  -5   66.19    7.90
   4  -2  -5   57.99    7.70
   4  -2  -5   64.19    6.70
  -4   2   5   61.69   12.20
  -4   2   5   73.79    7.90
  -4   2   5   60.29    7.30
  -4   2   5   54.29    7.40
  -4   2   5   66.39    6.90
  -4   2   5   47.90    8.20
   3  -2  -5  247.38   24.00
   3  -2  -5  237.08   23.30
   3  -2  -5  251.47   23.60
   3  -2  -5  236.18   23.90
   3  -2  -5  271.07   23.40
  -3   2   5  219.78   27.30
  -3   2   5  213.38   24.00
  -3   2   5  275.57   23.60
  -3   2   5  265.17   23.80
  -3   2   5  209.78   23.50
  -3   2   5  279.37   24.20
   2  -2  -5   15.20    2.60
   2  -2  -5   15.60    2.50
   2  -2  -5   13.00    2.20
   2  -2  -5   14.90    5.70
   2  -2  -5   17.30    3.30
   2  -2  -5   16.90    3.10
   2  -2  -5   14.60    2.40
  -2   2   5    9.90    1.90
  -2   2   5   11.00    2.50
  -2   2   5   12.00    2.60
  -2   2   5   14.00    3.00
  -2   2   5   11.10    2.00
  -2   2   5    5.20    5.20
  -2   2   5    8.50    2.90
  -2   2   5   14.30    2.40
   1  -2  -5  170.28   16.20
   1  -2  -5  150.58   15.30
   1  -2  -5  159.38   15.10
   1  -2  -5  147.89   15.40
   1  -2  -5  165.28   15.40
   1  -2  -5  136.79   14.80
   1  -2  -5  160.08   14.90
   1  -2  -5  158.78   19.00
  -1   2   5  144.49   18.70
  -1   2   5  136.69   15.00
  -1   2   5  135.79   14.60
  -1   2   5  160.88   14.80
  -1   2   5  167.48   14.90
   0  -2  -5    0.90    1.40
   0  -2  -5    1.60    2.10
   0  -2  -5   -1.20    1.60
   0  -2  -5    0.60    2.90
   0  -2  -5    1.90    1.80
   0  -2  -5   -1.30    2.00
   0  -2  -5    1.10    1.00
   0  -2  -5    0.60    4.90
   0   2   5   -1.50    1.90
   0   2   5   -0.40    1.30
   0   2   5    0.50    2.10
   0   2   5    1.40    4.80
   0   2   5   -0.90    2.80
   0   2   5    1.10    1.30
   0   2   5    1.90    2.00
   0   2   5    1.40    1.70
  -1  -2  -5  388.96   38.50
  -1  -2  -5  385.06   37.80
  -1  -2  -5  397.06   37.70
  -1  -2  -5  369.76   38.50
  -1  -2  -5  414.36   37.30
  -1  -2  -5  421.66   38.40
   1   2   5  371.86   38.40
   1   2   5  411.06   37.80
   1   2   5  395.56   38.30
   1   2   5  429.16   37.20
   1   2   5  370.86   41.50
   1   2   5  389.86   37.50
   1   2   5  387.96   38.20
  -2  -2  -5  241.68   25.00
  -2  -2  -5  274.77   24.40
  -2  -2  -5  293.87   28.60
  -2  -2  -5  201.68   26.90
  -2  -2  -5  256.97   24.50
  -2  -2  -5  223.68   25.20
  -2  -2  -5  244.08   23.80
  -2  -2  -5  244.78   24.20
  -2  -2  -5  218.28   25.00
   2   2   5  243.68   28.50
   2   2   5  246.48   24.40
   2   2   5  243.08   25.20
   2   2   5  232.48   24.00
   2   2   5  235.78   25.20
   2   2   5  240.68   25.10
   2   2   5  257.67   23.70
  -3  -2  -5  297.67   32.30
  -3  -2  -5  327.57   31.90
  -3  -2  -5  286.47   32.10
  -3  -2  -5  297.77   31.00
  -3  -2  -5  313.67   31.00
  -3  -2  -5  352.16   30.80
   3   2   5  319.57   32.30
   3   2   5  304.27   31.90
   3   2   5  325.77   30.30
   3   2   5  328.47   30.80
   3   2   5  302.67   32.20
   3   2   5  313.67   31.10
   3   2   5  244.28   33.70
  -4  -2  -5   16.80    8.70
  -4  -2  -5   19.40    9.80
  -4  -2  -5   16.50    7.50
  -4  -2  -5    8.70    5.00
  -4  -2  -5   23.30   10.70
  -4  -2  -5   15.30    5.80
  -4  -2  -5    7.50    6.60
  -4  -2  -5    5.20    5.10
   4   2   5   16.70    7.60
   4   2   5   17.30    5.50
   4   2   5   10.10    6.60
   4   2   5   15.00    5.90
   4   2   5    6.00    9.20
   4   2   5    4.70    7.20
   4   2   5   16.80    7.60
  -5  -2  -5   84.79   17.00
  -5  -2  -5   83.59   21.60
  -5  -2  -5   89.59   13.70
  -5  -2  -5   90.99   15.70
  -5  -2  -5  105.29   14.70
  -5  -2  -5  113.69   17.80
  -5  -2  -5   74.19   16.30
   5   2   5  108.89   14.30
   5   2   5   92.79   15.60
   5   2   5   91.99   14.60
   5   2   5  106.99   17.60
   5   2   5   75.59   16.60
   5   2   5   92.99   20.30
   5   2   5  114.89   18.60
   7  -3  -5    6.10   10.10
   7  -3  -5   21.50    6.70
   7  -3  -5   33.70    8.50
   7  -3  -5   14.20    9.40
   7  -3  -5   10.90    6.60
   7  -3  -5    8.50    6.70
   7  -3  -5    9.00    4.80
  -7   3   5    9.10    6.40
  -7   3   5    6.00    5.90
  -7   3   5    9.70    8.70
  -7   3   5   13.80    4.80
  -7   3   5   13.30    6.70
   6  -3  -5    0.70    3.90
   6  -3  -5    8.50    5.40
   6  -3  -5   -2.50    3.70
   6  -3  -5   -4.60    5.20
   6  -3  -5    2.80    5.20
  -6   3   5   -4.10    3.50
  -6   3   5    4.20    5.80
  -6   3   5    3.90    4.00
  -6   3   5   -2.70    3.00
  -6   3   5   -0.60    3.70
   5  -3  -5   56.89    8.50
   5  -3  -5   63.99    7.80
   5  -3  -5   68.29    8.10
   5  -3  -5   85.89    9.20
   5  -3  -5   61.49    8.80
   5  -3  -5   80.69    8.70
  -5   3   5   53.09    9.60
  -5   3   5   68.89    7.70
  -5   3   5   52.19    8.20
  -5   3   5   76.39    9.10
  -5   3   5   84.39    8.80
   4  -3  -5    9.00    2.40
   4  -3  -5    7.40    2.50
   4  -3  -5    4.00    1.80
   4  -3  -5    5.10    2.40
   4  -3  -5    7.50    2.10
   4  -3  -5    8.10    1.80
   4  -3  -5    8.60    3.00
   4  -3  -5   15.50    6.60
  -4   3   5    7.60    3.30
  -4   3   5    7.50    2.50
  -4   3   5    3.60    2.80
  -4   3   5    4.20    1.90
  -4   3   5    6.20    2.00
  -4   3   5    2.50    7.50
   3  -3  -5  210.48   19.40
   3  -3  -5  187.78   19.00
   3  -3  -5  193.98   19.50
   3  -3  -5  200.68   19.80
   3  -3  -5  224.08   24.00
   3  -3  -5  221.98   19.30
   3  -3  -5  212.48   19.20
  -3   3   5  206.98   19.80
  -3   3   5  182.18   24.40
  -3   3   5  168.58   19.40
   2  -3  -5   92.99   10.30
   2  -3  -5  111.19   10.20
   2  -3  -5  100.59   15.10
   2  -3  -5  112.39   10.20
   2  -3  -5   84.39    9.80
   2  -3  -5   93.49   10.30
  -2   3   5   85.49   15.50
  -2   3   5  113.29   10.40
  -2   3   5  102.59    9.90
  -2   3   5   93.79   10.40
   1  -3  -5 1020.80   93.19
   1  -3  -5 1046.80   92.89
   1  -3  -5  875.11   93.69
   1  -3  -5  922.71   93.99
   1  -3  -5 1104.59   92.49
   1  -3  -5 1078.89   97.99
   1  -3  -5  941.11   92.69
   1  -3  -5 1077.39   93.29
  -1   3   5  843.52   92.99
  -1   3   5  950.10   97.69
  -1   3   5 1116.99   92.49
  -1   3   5  973.30   92.79
  -1   3   5 1077.29   92.69
   0  -3  -5   21.00    2.70
   0  -3  -5   33.30    4.90
   0  -3  -5   17.50    4.30
   0  -3  -5   17.30    7.70
   0  -3  -5   15.60    3.20
   0  -3  -5   16.50    3.80
   0  -3  -5   15.60    5.30
   0  -3  -5   20.10    3.80
   0   3   5   16.00    3.80
   0   3   5   22.20    7.80
   0   3   5   19.30    3.30
   0   3   5   20.80    2.90
   0   3   5   15.70    4.90
   0   3   5   24.30    3.80
   0   3   5   13.50    3.70
   0   3   5   20.80    4.40
  -1  -3  -5  372.86   39.70
  -1  -3  -5  325.87   40.90
  -1  -3  -5  381.06   39.50
  -1  -3  -5  391.16   38.60
  -1  -3  -5  437.76   38.10
  -1  -3  -5  427.56   39.60
  -1  -3  -5  420.36   39.00
  -1  -3  -5  454.25   44.30
   1   3   5  428.86   39.60
   1   3   5  426.26   44.40
   1   3   5  425.46   39.50
   1   3   5  426.76   38.60
   1   3   5  386.86   39.60
   1   3   5  416.56   37.90
   1   3   5  407.36   38.70
   1   3   5  339.07   40.70
  -2  -3  -5   39.70   11.40
  -2  -3  -5   34.30    6.20
  -2  -3  -5   22.50    8.40
  -2  -3  -5   29.80    7.50
  -2  -3  -5   40.50    6.70
  -2  -3  -5   40.00    7.60
   2   3   5   39.60    7.50
   2   3   5   40.90    5.20
   2   3   5   28.10    5.70
   2   3   5   46.90    8.20
   2   3   5   36.60    6.40
   2   3   5   35.00    8.50
   2   3   5   33.80    7.00
  -3  -3  -5  322.47   31.40
  -3  -3  -5  366.36   36.90
  -3  -3  -5  304.07   31.00
  -3  -3  -5  338.07   31.00
  -3  -3  -5  306.17   32.30
  -3  -3  -5  277.27   32.60
  -3  -3  -5  314.87   32.90
   3   3   5  293.47   32.30
   3   3   5  286.67   34.50
   3   3   5  276.97   32.10
   3   3   5  314.27   32.70
   3   3   5  307.77   31.40
   3   3   5  309.17   30.20
  -4  -3  -5   10.40    5.90
  -4  -3  -5   -6.00    5.30
  -4  -3  -5   -3.60    9.40
  -4  -3  -5   -2.70    7.40
  -4  -3  -5    7.40    9.00
  -4  -3  -5   -6.50   12.30
  -4  -3  -5   15.10    7.50
  -4  -3  -5   12.50    6.30
   4   3   5    3.00    7.20
   4   3   5    5.40    5.00
   4   3   5    6.50    6.50
   4   3   5    3.90    8.20
   4   3   5   11.60    6.00
   4   3   5  -18.30    9.70
  -5  -3  -5   15.00   10.80
  -5  -3  -5   10.80    8.80
  -5  -3  -5    1.20   11.60
  -5  -3  -5   10.20    7.90
  -5  -3  -5    1.20   12.60
  -5  -3  -5   -5.40   10.70
  -5  -3  -5   -5.70    7.20
  -5  -3  -5   -6.30   18.10
   5   3   5  -26.20   11.40
   5   3   5   -7.00   16.30
   5   3   5   -2.40   11.80
   5   3   5    3.90    7.40
   5   3   5   -2.50   10.50
   5   3   5   10.00    9.00
   5   3   5    9.90    7.70
   7  -4  -5  344.47   31.50
   7  -4  -5  317.77   29.90
   7  -4  -5  310.67   29.60
   7  -4  -5  305.77   35.20
   7  -4  -5  385.96   34.10
   7  -4  -5  322.37   33.10
   7  -4  -5  289.47   31.70
   7  -4  -5  368.86   31.10
  -7   4   5  256.97   32.10
  -7   4   5  262.27   29.40
   6  -4  -5  126.59   12.90
   6  -4  -5   90.09   12.70
   6  -4  -5  108.79   10.70
   6  -4  -5  101.89   11.30
   6  -4  -5   86.19   11.20
   6  -4  -5  115.59   14.80
   6  -4  -5  100.59    9.60
   6  -4  -5   98.19    9.90
  -6   4   5   98.19   12.00
  -6   4   5   81.79    9.40
  -6   4   5   78.09    9.60
   5  -4  -5   24.00    3.80
   5  -4  -5   31.30    5.70
   5  -4  -5   35.60    9.70
   5  -4  -5   30.00    4.60
   5  -4  -5   24.50    2.90
   5  -4  -5   19.80    3.80
  -5   4   5   20.40    5.10
  -5   4   5   17.80    2.90
  -5   4   5   19.50    3.20
   4  -4  -5  282.07   26.00
   4  -4  -5  300.57   25.10
   4  -4  -5  257.37   24.50
   4  -4  -5  273.97   24.90
   4  -4  -5  263.97   24.50
   4  -4  -5  249.58   25.00
  -4   4   5  246.98   25.90
  -4   4   5  233.38   24.50
   3  -4  -5   37.80    5.60
   3  -4  -5   31.90    4.70
   3  -4  -5   39.10    4.20
   3  -4  -5   37.70    5.00
   3  -4  -5   47.10    4.70
   3  -4  -5   43.20    4.90
   3  -4  -5   33.30    4.30
   3  -4  -5   62.09   12.60
  -3   4   5   36.50    4.70
  -3   4   5   38.40    4.30
  -3   4   5   29.90    4.60
  -3   4   5   43.30    5.90
   2  -4  -5    2.20    6.30
   2  -4  -5    0.40    1.50
   2  -4  -5    0.10    1.40
   2  -4  -5   -1.90    1.10
   2  -4  -5    1.30    2.20
   2  -4  -5   -1.30    2.30
   2  -4  -5   -1.30    1.80
  -2   4   5    1.90    1.40
  -2   4   5    2.10    2.80
  -2   4   5   -0.70    1.50
  -2   4   5    1.00    1.90
  -2   4   5   -1.30    7.10
  -2   4   5   -0.10    2.50
   1  -4  -5  515.35   49.90
   1  -4  -5  585.64   49.40
   1  -4  -5  480.75   50.59
   1  -4  -5  447.26   51.39
   1  -4  -5  542.25   50.19
   1  -4  -5  559.94   50.69
   1  -4  -5  558.34   56.79
   1  -4  -5  545.55   50.69
  -1   4   5  575.84   50.49
  -1   4   5  606.74   49.60
  -1   4   5  509.85   55.99
  -1   4   5  442.76   50.29
  -1   4   5  550.84   49.90
   0  -4  -5  264.17   31.70
   0  -4  -5  257.07   24.90
   0  -4  -5  259.47   25.80
   0  -4  -5  261.37   24.00
   0  -4  -5  223.38   25.50
   0  -4  -5  257.17   26.10
   0  -4  -5  226.18   27.40
   0  -4  -5  265.97   25.30
   0   4   5  284.27   24.90
   0   4   5  276.07   25.50
   0   4   5  236.08   25.70
   0   4   5  251.07   24.80
   0   4   5  262.77   25.70
  -1  -4  -5  595.04   55.39
  -1  -4  -5  582.94   55.69
  -1  -4  -5  468.05   56.89
  -1  -4  -5  577.34   54.49
  -1  -4  -5  597.54   60.39
   1   4   5  591.44   54.19
   1   4   5  563.94   55.19
   1   4   5  479.85   56.49
   1   4   5  601.54   55.19
   1   4   5  565.44   55.29
   1   4   5  613.94   54.39
   1   4   5  614.84   53.19
  -2  -4  -5   13.50    8.20
  -2  -4  -5    9.60    5.20
  -2  -4  -5   11.30    6.00
  -2  -4  -5    6.60    4.00
  -2  -4  -5    0.40    5.80
  -2  -4  -5    3.90    4.30
  -2  -4  -5   11.10   10.20
  -2  -4  -5    9.50    3.90
   2   4   5    2.70    3.50
   2   4   5   10.80    4.80
   2   4   5   11.80    6.90
   2   4   5    5.90    5.60
   2   4   5   14.10    7.00
   2   4   5   13.60    2.80
   2   4   5    8.00    5.10
  -3  -4  -5   24.90    6.50
  -3  -4  -5    5.00    8.10
  -3  -4  -5    3.10   10.50
  -3  -4  -5   12.20    7.10
  -3  -4  -5    2.00   11.90
  -3  -4  -5   14.80    6.70
  -3  -4  -5   22.50    6.20
  -3  -4  -5    5.20    5.30
   3   4   5   22.10    8.10
   3   4   5   13.00    4.00
   3   4   5   18.50   12.00
   3   4   5   12.90    7.00
   3   4   5   10.50    5.70
   3   4   5   18.70    7.80
   3   4   5   17.30    5.80
  -4  -4  -5  120.99   19.30
  -4  -4  -5  106.19   17.90
  -4  -4  -5  105.99   14.20
  -4  -4  -5   84.09   13.80
  -4  -4  -5   76.19   14.80
  -4  -4  -5  118.09   22.30
  -4  -4  -5   75.49   14.10
   4   4   5   72.49   19.50
   4   4   5  102.79   18.40
   4   4   5   92.19   14.60
   4   4   5  100.19   13.50
   4   4   5   97.99   19.20
   4   4   5   96.39   16.50
   4   4   5  105.09   15.00
   6  -5  -5   31.90   10.60
   6  -5  -5   16.40    4.10
   6  -5  -5   18.60    6.10
   6  -5  -5   16.00    5.00
   6  -5  -5   13.50    7.80
  -6   5   5   23.20    6.10
   5  -5  -5  101.29   10.10
   5  -5  -5   88.99   11.40
   5  -5  -5   93.79    9.70
   5  -5  -5  104.79   18.20
  -5   5   5   78.89   11.50
   4  -5  -5   29.60    5.50
   4  -5  -5   31.20    4.30
   4  -5  -5   33.10   11.90
   4  -5  -5   30.50    4.10
  -4   5   5   22.40    5.50
   3  -5  -5  286.07   34.20
   3  -5  -5  246.68   25.60
   3  -5  -5  294.47   25.20
   3  -5  -5  298.37   26.00
   3  -5  -5  287.47   25.60
  -3   5   5  241.98   25.20
  -3   5   5  280.87   25.10
  -3   5   5  252.27   26.60
  -3   5   5  246.88   25.10
   2  -5  -5    7.80    2.70
   2  -5  -5    8.60    3.80
   2  -5  -5    1.70    2.30
   2  -5  -5    7.80    3.20
   2  -5  -5    7.30    2.80
   2  -5  -5   10.00    9.50
  -2   5   5   11.20    2.60
  -2   5   5    8.60    2.90
  -2   5   5    4.80    3.50
  -2   5   5   10.50    3.90
  -2   5   5    7.90    2.10
   1  -5  -5   66.19   11.30
   1  -5  -5   77.19    9.60
   1  -5  -5   74.19    8.80
   1  -5  -5   66.39    9.80
   1  -5  -5   77.39   15.50
   1  -5  -5   74.39    7.00
  -1   5   5   78.09    7.90
  -1   5   5   80.79    9.10
  -1   5   5   76.29    8.30
  -1   5   5   64.69   10.80
  -1   5   5   69.09    9.40
   0  -5  -5   72.29   16.70
   0  -5  -5   67.29   12.50
   0  -5  -5   63.49    8.90
   0  -5  -5   63.19   10.20
   0  -5  -5   58.89    9.20
   0  -5  -5   67.39    8.60
   0  -5  -5   73.19   10.60
   0   5   5   50.89   10.80
   0   5   5   68.29    8.40
   0   5   5   68.29   10.00
   0   5   5   82.09    9.30
   0   5   5   72.09    9.30
   0   5   5   82.79    8.30
  -1  -5  -5    2.00   10.60
  -1  -5  -5   13.60    5.20
  -1  -5  -5   12.00    6.10
  -1  -5  -5   14.60    5.90
  -1  -5  -5   12.50    5.90
  -1  -5  -5    6.20    3.50
  -1  -5  -5   14.00    8.20
   1   5   5    9.70    5.20
   1   5   5    7.30    5.00
   1   5   5    0.70    3.30
   1   5   5    5.30    7.60
   1   5   5    5.20    3.50
   1   5   5    8.70    2.00
   1   5   5    4.70    4.10
  -2  -5  -5   92.99   12.50
  -2  -5  -5  109.89   23.10
  -2  -5  -5   81.59   14.00
  -2  -5  -5   62.79   23.80
  -2  -5  -5   88.69   12.70
  -2  -5  -5  118.29   15.30
  -2  -5  -5  101.49   15.80
  -2  -5  -5   95.89   12.80
   2   5   5  109.69   14.80
   2   5   5  105.19   13.20
   2   5   5   77.69   16.10
   2   5   5   98.09   10.40
   2   5   5  100.69   14.30
   2   5   5  102.09   14.80
   2   5   5  102.89   12.60
  -3  -5  -5   32.00    9.00
  -3  -5  -5   35.20   16.10
  -3  -5  -5   30.20    9.10
  -3  -5  -5   19.30    6.80
  -3  -5  -5   14.90    9.30
  -3  -5  -5   22.10    8.20
  -3  -5  -5   28.60    7.40
  -3  -5  -5   31.20   14.60
   3   5   5   18.10    7.50
   3   5   5   25.60    7.30
   3   5   5   34.50   13.60
   3   5   5    1.70   12.20
   3   5   5   17.60    4.80
   3   5   5   16.50    9.10
   3   5   5   23.90    8.20
  -4  -5  -5   25.10    8.90
  -4  -5  -5   20.60   20.30
  -4  -5  -5   36.30   13.50
  -4  -5  -5   17.30    8.30
  -4  -5  -5    6.40   11.60
  -4  -5  -5   21.20   20.10
  -4  -5  -5   13.30    9.40
  -4  -5  -5   24.90   11.30
   4   5   5    7.30    6.70
   4   5   5   18.40    8.90
   4   5   5   14.30   17.30
   4   5   5   11.60   12.30
   4   5   5   29.20   12.70
   4   5   5   31.20    9.80
   4   5   5   14.00   11.40
   6  -6  -5   18.10    8.40
   6  -6  -5    6.60    3.60
   6  -6  -5    4.40    3.10
   6  -6  -5    6.00   11.70
   6  -6  -5    0.80    5.40
   5  -6  -5   -2.50    1.90
   5  -6  -5   -3.90    2.10
   5  -6  -5    7.70    5.70
   5  -6  -5   -0.80    4.40
   5  -6  -5   -1.10   12.00
  -5   6   5    0.90    4.00
   4  -6  -5    6.40    2.70
   4  -6  -5    3.10    4.10
   4  -6  -5    6.10    4.20
   4  -6  -5    6.60   12.50
   4  -6  -5    5.80    2.20
  -4   6   5   10.20    4.80
   3  -6  -5   21.40    4.00
   3  -6  -5   36.70   13.90
   3  -6  -5   21.20    3.70
   3  -6  -5   21.40    3.20
   3  -6  -5   23.70    3.90
   3  -6  -5   23.20    3.00
   3  -6  -5   25.10    4.50
   3  -6  -5   18.60    3.60
  -3   6   5   21.60    2.70
  -3   6   5   20.00    2.90
  -3   6   5   21.20    5.50
   2  -6  -5  575.54   49.90
   2  -6  -5  512.85   48.50
   2  -6  -5  514.25   49.40
   2  -6  -5  564.14   59.69
   2  -6  -5  505.75   50.89
   2  -6  -5  524.35   49.30
   2  -6  -5  529.25   50.19
   2  -6  -5  558.64   50.29
   2  -6  -5  570.14   48.50
  -2   6   5  495.35   49.60
  -2   6   5  485.05   49.99
  -2   6   5  532.65   49.10
  -2   6   5  461.35   50.49
   1  -6  -5  265.77   26.90
   1  -6  -5  251.17   26.60
   1  -6  -5  253.97   25.60
   1  -6  -5  234.08   36.20
   1  -6  -5  255.77   25.30
   1  -6  -5  274.37   26.70
   1  -6  -5  212.78   27.90
  -1   6   5  280.87   24.20
  -1   6   5  224.98   27.50
  -1   6   5  259.97   24.20
  -1   6   5  247.58   26.20
  -1   6   5  277.97   25.20
  -1   6   5  276.77   25.90
   0  -6  -5  120.39   19.70
   0  -6  -5  167.58   17.60
   0  -6  -5  131.39   16.50
   0  -6  -5  147.69   15.80
   0  -6  -5  119.49   26.20
   0  -6  -5  141.69   15.40
   0   6   5  134.39   16.50
   0   6   5  117.19   18.70
   0   6   5  140.09   15.70
   0   6   5  144.69   16.50
   0   6   5  157.88   15.40
   0   6   5  155.78   14.90
  -1  -6  -5  262.47   25.80
  -1  -6  -5  239.68   25.80
  -1  -6  -5  262.37   27.40
  -1  -6  -5  262.17   27.70
  -1  -6  -5  254.17   25.80
  -1  -6  -5  245.18   36.20
  -1  -6  -5  238.18   27.70
   1   6   5  214.48   28.90
   1   6   5  239.28   26.70
   1   6   5  282.77   26.90
   1   6   5  239.48   25.40
   1   6   5  270.67   25.50
   1   6   5  216.48   26.90
  -2  -6  -5   65.39   16.40
  -2  -6  -5   70.19   11.00
  -2  -6  -5   67.39   12.70
  -2  -6  -5   64.99   10.70
  -2  -6  -5   75.49   13.80
  -2  -6  -5   62.99   10.30
  -2  -6  -5   57.69   20.30
  -2  -6  -5   72.49   13.50
   2   6   5   54.69   11.60
   2   6   5   68.99   11.70
   2   6   5   43.20   12.30
   2   6   5   62.39    7.40
   2   6   5   53.59    9.80
  -3  -6  -5  153.68   21.10
  -3  -6  -5  120.89   29.60
  -3  -6  -5  160.48   30.70
  -3  -6  -5  141.99   18.40
  -3  -6  -5  124.19   21.00
  -3  -6  -5  144.19   23.50
  -3  -6  -5  144.19   19.60
   3   6   5  151.18   15.90
   3   6   5  156.08   19.50
   3   6   5  146.59   22.20
   3   6   5  142.59   23.00
   3   6   5  134.19   21.80
   3   6   5  155.68   19.20
   6  -7  -5   32.10    4.60
   6  -7  -5   31.40    7.80
   6  -7  -5   35.10    9.40
   6  -7  -5   32.10    4.70
  -6   7   5   25.30    8.20
   5  -7  -5  154.48   15.70
   5  -7  -5  192.58   18.90
   5  -7  -5  203.38   34.20
   5  -7  -5  162.28   18.10
  -5   7   5  138.09   18.40
   4  -7  -5   39.70   19.20
   4  -7  -5   31.90    6.50
   4  -7  -5   31.20    5.20
   4  -7  -5   33.30    5.90
   4  -7  -5   43.80    6.60
  -4   7   5   38.50    7.70
   3  -7  -5    7.30    2.30
   3  -7  -5    8.50    4.50
   3  -7  -5    9.40    2.10
   3  -7  -5    3.60    2.70
   3  -7  -5    9.30    3.30
   3  -7  -5    7.80    3.10
   3  -7  -5   10.90   16.20
   3  -7  -5    6.60    1.90
  -3   7   5    8.20    1.40
  -3   7   5    9.20    4.80
  -3   7   5    7.80    1.30
   2  -7  -5   15.70   14.80
   2  -7  -5    8.80    5.80
   2  -7  -5    7.10    4.20
   2  -7  -5    6.90    2.60
   2  -7  -5    5.90    5.20
   2  -7  -5    4.00    3.80
   2  -7  -5    5.40    3.40
  -2   7   5    4.50    3.50
  -2   7   5    4.80    4.70
  -2   7   5    6.80    3.00
  -2   7   5    6.50    3.10
   1  -7  -5    8.90    5.80
   1  -7  -5   -6.20   12.80
   1  -7  -5    7.60    5.80
   1  -7  -5   17.20    4.80
   1  -7  -5    7.50    7.50
   1  -7  -5   13.30    6.10
   1  -7  -5   12.00    3.80
  -1   7   5   13.10    4.40
  -1   7   5   18.70    5.60
  -1   7   5   15.80    3.90
  -1   7   5    4.60    6.70
   0  -7  -5   67.59   12.20
   0  -7  -5   56.79   11.00
   0  -7  -5   69.59   10.10
   0  -7  -5   68.49   12.30
   0  -7  -5   70.49   10.50
   0  -7  -5   84.79   21.10
   0  -7  -5   47.80   13.60
   0   7   5   72.99    9.70
   0   7   5   68.59   11.30
   0   7   5   70.89    8.80
   0   7   5   50.39   12.20
   0   7   5   82.09   10.00
   0   7   5   80.49   12.30
  -1  -7  -5   -0.40   11.30
  -1  -7  -5    8.00    6.70
  -1  -7  -5    7.30    6.00
  -1  -7  -5    2.30    5.70
  -1  -7  -5    6.50    5.30
  -1  -7  -5    9.50    7.90
  -1  -7  -5   -3.20   11.90
  -1  -7  -5    8.90    8.50
   1   7   5    4.30    6.60
   1   7   5    3.30    4.90
   1   7   5    3.00    5.20
   1   7   5   -1.30   14.10
  -2  -7  -5   32.50   11.40
  -2  -7  -5   26.00    9.90
  -2  -7  -5   25.40    8.00
  -2  -7  -5   11.90    7.40
  -2  -7  -5    5.00    9.30
  -2  -7  -5    3.70   19.20
  -2  -7  -5    6.70   15.30
  -2  -7  -5    2.30    6.80
   2   7   5    5.10    7.40
   2   7   5    7.70    9.40
   2   7   5    1.90   12.20
   2   7   5    5.50    2.10
   2   7   5    0.30    6.80
   2   7   5    7.70    8.70
   2   7   5    0.70    9.20
  -3  -7  -5   17.10   12.70
  -3  -7  -5   25.90   10.10
  -3  -7  -5   51.89   28.70
   3   7   5   -3.20   13.60
   3   7   5   31.80   13.40
   3   7   5   12.30   10.30
   3   7   5   28.40   10.70
   5  -8  -5   14.90   20.60
   5  -8  -5    7.70    5.90
   5  -8  -5    7.60    3.10
   5  -8  -5    2.50    3.00
   5  -8  -5    4.60    5.50
  -5   8   5    1.80    6.30
   4  -8  -5   16.80    5.00
   4  -8  -5   19.40   20.90
   4  -8  -5   14.60    4.00
   4  -8  -5   11.90    5.40
   4  -8  -5    8.00    3.40
  -4   8   5   11.60    6.70
   3  -8  -5    4.00    4.00
   3  -8  -5   -0.70    3.80
   3  -8  -5   12.50   19.70
   3  -8  -5    1.00    3.10
   3  -8  -5   -0.10    1.80
   3  -8  -5    1.30    2.10
   3  -8  -5   -8.50    5.10
  -3   8   5    3.50    4.70
  -3   8   5    2.60    0.90
   2  -8  -5  356.46   36.80
   2  -8  -5  369.96   36.10
   2  -8  -5  360.56   35.70
   2  -8  -5  333.47   35.20
   2  -8  -5  330.67   37.50
   2  -8  -5  428.66   52.49
   2  -8  -5  370.96   34.70
  -2   8   5  327.97   34.90
  -2   8   5  414.26   35.00
  -2   8   5  336.47   36.10
  -2   8   5  354.76   35.90
   1  -8  -5  148.59   23.00
   1  -8  -5  167.18   19.80
   1  -8  -5  158.08   18.30
   1  -8  -5  164.58   17.70
   1  -8  -5  164.38   20.30
   1  -8  -5  157.08   31.50
  -1   8   5  163.88   19.00
  -1   8   5  155.58   17.00
  -1   8   5  156.28   18.20
   0  -8  -5   20.30   20.30
   0  -8  -5    5.10    9.00
   0  -8  -5   18.80    8.60
   0  -8  -5   22.00    7.40
   0  -8  -5   25.30   14.30
   0  -8  -5   28.80    6.70
   0  -8  -5   26.00    7.80
   0   8   5   21.40    8.40
   0   8   5   24.70   11.00
   0   8   5   22.50    4.80
   0   8   5   15.20    8.10
   0   8   5   17.80    5.70
   0   8   5   18.90    5.20
  -1  -8  -5    6.90   10.10
  -1  -8  -5   35.30   16.20
  -1  -8  -5   18.10   10.70
  -1  -8  -5   36.00    9.00
  -1  -8  -5   -1.70   21.60
  -1  -8  -5   30.30   10.30
  -1  -8  -5   25.70    8.10
  -1  -8  -5   22.40   10.10
   1   8   5    2.50   13.50
   1   8   5   17.50    8.10
   1   8   5   43.80    8.60
   1   8   5   17.10    9.80
   1   8   5   13.60    9.30
   1   8   5   16.70    8.50
  -2  -8  -5   75.79   17.70
  -2  -8  -5   73.99   17.50
  -2  -8  -5  105.99   15.30
  -2  -8  -5   38.80   31.30
  -2  -8  -5   81.19   25.30
  -2  -8  -5  106.69   19.30
   2   8   5  125.59   18.30
   2   8   5  109.39   17.00
   2   8   5  124.29   22.80
   2   8   5   81.79   14.30
   4  -9  -5    6.30    6.30
   4  -9  -5   16.40   26.00
   4  -9  -5    2.80    2.10
   4  -9  -5    0.90    5.80
   4  -9  -5    5.20    4.70
  -4   9   5   -2.10    6.10
   3  -9  -5   40.70   27.10
   3  -9  -5   23.80    5.90
   3  -9  -5   10.80    4.30
   3  -9  -5   14.30    5.50
   3  -9  -5   10.20    2.40
   3  -9  -5   14.20    3.10
   3  -9  -5   -4.80    7.20
   2  -9  -5   66.69    8.40
   2  -9  -5   79.79   24.40
   2  -9  -5   49.40    9.20
   2  -9  -5   56.59    9.60
   2  -9  -5   43.90   11.60
   2  -9  -5   56.79    9.50
  -2   9   5   36.20    8.70
  -2   9   5   37.00    8.00
  -2   9   5   58.49    9.40
   1  -9  -5   56.39    9.00
   1  -9  -5   58.69   10.20
   1  -9  -5   42.80   10.90
   1  -9  -5   66.29   13.30
   1  -9  -5   62.89   12.60
   1  -9  -5   18.20   28.20
   1  -9  -5   33.10   14.50
  -1   9   5   58.39   10.30
  -1   9   5   38.30   12.20
  -1   9   5   61.29    9.90
  -1   9   5   46.00    9.30
   0  -9  -5  -10.30   10.60
   0  -9  -5    7.40    6.90
   0  -9  -5    8.90   15.40
   0  -9  -5   -3.20   25.60
   0  -9  -5    2.90    9.40
   0  -9  -5  -14.80    9.80
   0  -9  -5    6.60    8.10
   0  -9  -5  -16.30    8.10
   0   9   5    1.60    4.00
   0   9   5   -1.00    9.60
   0   9   5   -0.40    6.50
   0   9   5    3.00    4.00
   1  10  -6   71.09   17.60
   1  10  -6  121.89   16.60
   1  10  -6   71.09   15.60
   1  10  -6   66.89   13.50
   1  10  -6  116.79   13.20
  -1 -10   6  101.59   16.10
  -1 -10   6  133.39   19.10
  -1 -10   6   99.49   16.80
  -1 -10   6   93.59   16.20
  -1 -10   6  100.69   12.50
  -1 -10   6   79.49   16.70
   0  10  -6   -1.90   10.60
   0  10  -6   -1.40    9.70
   0  10  -6   -1.50    5.50
   0  10  -6   -6.40    4.90
   0  10  -6   13.00    8.10
   0  10  -6    9.10    5.10
   0  10  -6   -4.30    6.90
   0 -10   6    5.30    3.50
   0 -10   6   -5.50    6.30
   0 -10   6    1.40   10.30
   0 -10   6   -4.30    7.70
   0 -10   6  -13.50    7.30
   0 -10   6  -14.10    6.00
   0 -10   6    6.40    8.50
  -1  10  -6   45.10    9.10
  -1  10  -6   48.50    8.20
  -1  10  -6   77.49   14.00
  -1  10  -6   57.59   10.60
  -1  10  -6   49.99    8.60
   1 -10   6   45.20    8.40
   1 -10   6   24.40   11.70
   1 -10   6   46.10   10.50
   1 -10   6   38.20    9.10
   1 -10   6   61.09   11.30
  -2  10  -6  162.48   16.90
  -2  10  -6  156.88   18.20
  -2  10  -6  108.29   18.80
  -2  10  -6  166.18   19.50
  -2  10  -6  131.19   17.10
   2 -10   6  133.39   19.10
   2 -10   6  136.99   16.90
   2 -10   6  142.19   16.70
   2 -10   6  156.88   18.70
  -3  10  -6   24.40    7.10
  -3  10  -6   21.70    8.50
  -3  10  -6   23.30    8.40
  -3  10  -6   28.90    5.40
  -3  10  -6   24.70    6.60
   3 -10   6   21.40    9.10
   3 -10   6   20.40    8.30
   3 -10   6   19.70    7.70
   3 -10   6   18.60    8.40
   3 -10   6    3.30    7.30
   3 -10   6   18.60    6.20
   2   9  -6   19.10   12.50
   2   9  -6   15.70   10.20
   2   9  -6    9.70    8.40
   2   9  -6   35.50   12.30
   2   9  -6   12.20    9.00
   2   9  -6   15.20    9.10
  -2  -9   6   28.60    8.30
  -2  -9   6   27.60    8.20
  -2  -9   6   19.20   13.80
  -2  -9   6   24.20   10.90
  -2  -9   6   22.30   10.70
  -2  -9   6    9.10    5.90
  -2  -9   6   28.10   10.40
   1   9  -6   13.00   10.20
   1   9  -6   16.90    5.50
   1   9  -6    9.90    7.30
   1   9  -6    8.10    7.20
   1   9  -6   13.90    7.60
   1   9  -6   34.00   10.30
   1   9  -6   21.20    7.50
  -1  -9   6    7.70    7.70
  -1  -9   6   31.40   11.00
  -1  -9   6   31.60    7.00
  -1  -9   6   15.20   11.00
  -1  -9   6   11.80    8.00
  -1  -9   6   15.40    4.60
  -1  -9   6   16.90    8.00
   0   9  -6    5.70    5.90
   0   9  -6   25.50    8.80
   0   9  -6   21.30    5.70
   0   9  -6   17.50    5.50
   0   9  -6   11.70    4.90
   0   9  -6   24.60    6.60
   0   9  -6   23.20    8.00
   0  -9   6   16.30    7.40
   0  -9   6   23.20    7.20
   0  -9   6   17.30    9.70
   0  -9   6   20.00    6.50
   0  -9   6   16.00    5.70
   0  -9   6   20.90    3.60
   0  -9   6   18.10    5.80
  -1   9  -6  187.18   17.00
  -1   9  -6  138.99   14.50
  -1   9  -6  134.89   14.90
  -1   9  -6  154.18   17.30
  -1   9  -6  154.98   16.60
  -1   9  -6  123.29   18.50
   1  -9   6  126.69   17.00
   1  -9   6  175.98   16.90
   1  -9   6  137.49   20.00
   1  -9   6  157.68   17.00
   1  -9   6  175.38   18.60
  -2   9  -6   15.20    6.70
  -2   9  -6   14.30    6.30
  -2   9  -6   20.50    4.70
  -2   9  -6   16.80    5.10
   2  -9   6   11.00    5.40
   2  -9   6   17.40    4.80
   2  -9   6   17.50    6.90
   2  -9   6   16.00    4.80
   2  -9   6   27.40    7.30
   2  -9   6   16.70    7.30
   2  -9   6    6.00    5.60
  -3   9  -6   32.80    7.00
  -3   9  -6   46.60    6.90
  -3   9  -6   28.50    8.20
  -3   9  -6   31.30    6.40
  -3   9  -6   36.80    7.50
  -3   9  -6   50.39    9.60
   3  -9   6   24.30    6.00
   3  -9   6   25.20    8.40
   3  -9   6   29.20    8.30
   3  -9   6   23.10    6.00
   3  -9   6   30.70    7.70
  -4   9  -6    9.30    3.90
  -4   9  -6   21.10    9.20
  -4   9  -6   19.50    4.30
  -4   9  -6   12.40    4.10
   4  -9   6   23.80    6.10
   4  -9   6   15.90    6.80
   4  -9   6    4.40    7.90
   4  -9   6    4.20    4.60
   4  -9   6   18.30    5.60
   4  -9   6    8.90    7.20
   3   8  -6   17.40    9.10
   3   8  -6   23.40   13.30
   3   8  -6    7.00   10.00
   3   8  -6    3.50   12.40
   3   8  -6   14.40    9.70
   3   8  -6    4.00    8.30
   3   8  -6   20.10    8.50
  -3  -8   6    9.10   10.40
  -3  -8   6    6.20    8.10
  -3  -8   6   16.40    7.70
  -3  -8   6    4.30    9.20
  -3  -8   6   10.70   13.30
  -3  -8   6   10.20    6.10
   2   8  -6   44.70   11.30
   2   8  -6   31.90    9.10
   2   8  -6   21.10    7.10
   2   8  -6   34.10   13.30
   2   8  -6   46.60    9.50
   2   8  -6   40.10    9.00
   2   8  -6   38.60    8.70
  -2  -8   6   29.40    8.70
  -2  -8   6   45.20    8.00
  -2  -8   6   53.99   10.90
  -2  -8   6   24.60    9.20
  -2  -8   6   34.90   12.60
  -2  -8   6   27.60    7.70
  -2  -8   6   32.60    6.30
   1   8  -6   -1.00    4.10
   1   8  -6   -9.50    6.10
   1   8  -6   -5.10    5.10
   1   8  -6    8.20    6.80
   1   8  -6    6.60    5.10
   1   8  -6   10.50    5.20
  -1  -8   6   -3.20    4.30
  -1  -8   6    3.00    4.70
  -1  -8   6    1.60    5.70
  -1  -8   6   -0.50    5.50
  -1  -8   6    1.20    5.20
  -1  -8   6    0.60    2.90
  -1  -8   6    1.40    7.70
   0   8  -6   18.00    5.20
   0   8  -6   23.20    4.70
   0   8  -6   14.50    6.50
   0   8  -6    9.20    4.40
   0   8  -6   16.00    6.80
   0   8  -6   16.90    4.70
   0   8  -6   20.10    5.50
   0  -8   6   16.10    4.60
   0  -8   6   21.20    5.20
   0  -8   6   13.30    5.60
   0  -8   6   11.70    7.20
   0  -8   6   22.10    6.40
   0  -8   6   19.20    3.00
   0  -8   6   10.20    5.80
  -1   8  -6  306.67   31.40
  -1   8  -6  302.97   33.20
  -1   8  -6  287.17   30.50
  -1   8  -6  309.17   31.60
  -1   8  -6  311.47   30.60
   1  -8   6  348.57   31.80
   1  -8   6  339.57   32.60
   1  -8   6  266.37   31.80
   1  -8   6  387.76   33.30
   1  -8   6  371.36   31.80
  -2   8  -6  296.17   31.80
  -2   8  -6  328.57   30.70
  -2   8  -6  293.37   31.60
  -2   8  -6  374.66   30.70
  -2   8  -6  332.07   31.40
   2  -8   6  337.47   31.30
   2  -8   6  324.67   30.70
   2  -8   6  320.97   31.30
   2  -8   6  299.77   30.60
   2  -8   6  256.77   32.10
   2  -8   6  341.47   32.30
   2  -8   6  257.07   30.70
  -3   8  -6   30.30    8.00
  -3   8  -6   43.40    8.50
  -3   8  -6   45.10    7.30
  -3   8  -6   42.60    8.30
  -3   8  -6   38.50    8.70
  -3   8  -6   51.69    7.00
   3  -8   6   49.60    7.60
   3  -8   6   37.10    7.40
   3  -8   6   53.29    9.30
   3  -8   6   38.10    8.60
   3  -8   6   38.60    6.70
   3  -8   6   38.50    7.10
   3  -8   6   34.00    6.80
  -4   8  -6    9.90    3.80
  -4   8  -6    7.70    4.30
  -4   8  -6    3.60    6.90
  -4   8  -6   13.90    3.80
  -4   8  -6   14.80    6.90
  -4   8  -6   12.20    4.80
   4  -8   6   15.30    5.90
   4  -8   6    8.50    5.20
   4  -8   6   15.90    7.60
   4  -8   6    5.30    4.80
   4  -8   6   -0.70    3.60
  -5   8  -6   16.90    4.30
  -5   8  -6   18.00    3.80
  -5   8  -6   22.00    7.80
   5  -8   6   26.60    9.60
   5  -8   6   13.30    6.20
   5  -8   6   11.70    7.50
   5  -8   6   33.20    8.70
   5  -8   6   18.70    7.60
   5  -8   6   29.60    6.90
   5  -8   6   46.50   15.80
   5  -8   6   12.30    4.40
   4   7  -6   15.20    9.20
   4   7  -6  -13.30   14.50
   4   7  -6   23.10   11.40
   4   7  -6   23.70   13.60
   4   7  -6   26.80    9.40
   4   7  -6   16.60    9.50
   4   7  -6   21.30   11.20
  -4  -7   6    7.20   10.80
  -4  -7   6    0.70   10.40
  -4  -7   6   -2.10    7.40
  -4  -7   6   11.80    6.90
  -4  -7   6    6.80   15.80
  -4  -7   6   17.60   10.80
  -4  -7   6   11.40    8.20
   3   7  -6  159.28   18.30
   3   7  -6  122.69   16.70
   3   7  -6  118.89   16.30
   3   7  -6   98.49   16.30
   3   7  -6  121.59   16.20
   3   7  -6  147.09   17.30
   3   7  -6  129.79   21.50
   3   7  -6  116.69   20.10
  -3  -7   6  131.39   15.80
  -3  -7   6  129.49   18.60
  -3  -7   6  128.69   18.10
  -3  -7   6   84.29   19.70
  -3  -7   6  123.49   15.40
  -3  -7   6  108.29   18.40
  -3  -7   6  128.19   14.80
   2   7  -6    5.20    5.40
   2   7  -6    8.70    6.00
   2   7  -6    5.80    6.70
   2   7  -6   13.20    5.50
   2   7  -6   12.00    5.00
   2   7  -6   20.10    8.00
   2   7  -6    5.60    5.60
  -2  -7   6   -0.60    8.20
  -2  -7   6   14.40    4.80
  -2  -7   6   -8.30    7.50
  -2  -7   6    3.70    5.90
  -2  -7   6   12.30    3.80
  -2  -7   6    4.80    6.00
  -2  -7   6    6.40    6.20
   1   7  -6    9.30    4.00
   1   7  -6   11.40    4.80
   1   7  -6    8.10    5.70
   1   7  -6   12.70    4.70
   1   7  -6   11.20    4.90
   1   7  -6   10.60    6.20
   1   7  -6    7.20    4.60
  -1  -7   6    5.60    3.90
  -1  -7   6   13.90    5.50
  -1  -7   6    9.60    5.00
  -1  -7   6    3.30    4.50
  -1  -7   6    5.60    2.90
  -1  -7   6    6.60    7.00
  -1  -7   6    7.00    4.10
   0   7  -6  157.08   15.80
   0   7  -6  123.09   17.30
   0   7  -6  129.09   15.40
   0   7  -6  155.58   16.10
   0   7  -6  160.18   16.20
   0   7  -6  131.39   15.20
   0  -7   6  145.39   16.30
   0  -7   6  129.89   16.30
   0  -7   6  154.58   14.20
   0  -7   6  110.49   18.00
   0  -7   6  166.38   17.10
   0  -7   6  152.88   16.70
   0  -7   6  182.28   16.10
  -1   7  -6   48.20    7.40
  -1   7  -6   36.70    6.20
  -1   7  -6   31.50    5.20
  -1   7  -6   30.80    5.80
  -1   7  -6   36.00    6.20
  -1   7  -6   34.10    5.40
   1  -7   6   31.10    6.00
   1  -7   6   37.40    5.90
   1  -7   6   28.10    6.90
   1  -7   6   34.10    6.10
   1  -7   6   29.40    6.00
   1  -7   6   36.50    5.50
   1  -7   6   35.70    6.90
  -2   7  -6   82.09   10.00
  -2   7  -6   69.19    9.90
  -2   7  -6   71.19    8.90
  -2   7  -6   62.89    9.80
  -2   7  -6   90.79   10.00
  -2   7  -6   61.39   10.00
   2  -7   6   67.19   10.50
   2  -7   6   64.69    9.00
   2  -7   6   77.69   10.70
   2  -7   6   72.49    9.50
   2  -7   6   79.09    9.00
   2  -7   6   81.19    9.50
   2  -7   6   64.29    9.00
  -3   7  -6    6.40    5.10
  -3   7  -6    8.20    4.30
  -3   7  -6    1.90    2.90
  -3   7  -6    4.20    3.90
  -3   7  -6    5.00    4.00
  -3   7  -6    2.30    3.00
   3  -7   6    3.90    4.10
   3  -7   6    5.10    3.70
   3  -7   6    2.70    3.70
   3  -7   6    4.50    5.20
   3  -7   6    7.10    3.30
  -4   7  -6   38.70    6.80
  -4   7  -6   29.20    7.60
  -4   7  -6   45.40    9.20
  -4   7  -6   40.40    7.30
  -4   7  -6   35.60    6.70
  -4   7  -6   59.19    7.20
   4  -7   6   35.10    7.00
   4  -7   6   42.60    7.00
   4  -7   6   37.10    7.00
   4  -7   6   53.29    8.50
   4  -7   6   17.40    8.40
   4  -7   6   43.30    6.70
   4  -7   6   49.40    8.30
  -5   7  -6  193.88   19.10
  -5   7  -6  169.68   17.60
   5  -7   6  173.58   19.20
   5  -7   6  136.49   19.80
   5  -7   6  156.58   20.30
   5  -7   6  173.28   17.60
   5   6  -6   45.00   12.30
   5   6  -6   33.50   15.00
   5   6  -6   39.00   13.60
   5   6  -6   48.30   12.00
   5   6  -6   36.90   12.40
   5   6  -6   70.39   19.10
  -5  -6   6   51.89   10.40
  -5  -6   6   39.70   13.20
  -5  -6   6   52.89   22.40
  -5  -6   6   46.60   14.80
  -5  -6   6   68.89   14.60
  -5  -6   6   32.40    9.80
   4   6  -6   62.49   11.40
   4   6  -6   43.20    9.80
   4   6  -6   47.00   14.10
   4   6  -6   21.30   11.70
   4   6  -6   30.00    8.50
   4   6  -6   36.00    9.50
  -4  -6   6   38.50    8.90
  -4  -6   6   47.20   11.10
  -4  -6   6   62.49   16.60
  -4  -6   6   38.90   10.90
  -4  -6   6   70.29   10.50
  -4  -6   6   37.40   10.80
  -4  -6   6   43.40    8.90
   3   6  -6   22.30    7.70
   3   6  -6   24.60    8.90
   3   6  -6   15.30    9.20
   3   6  -6   30.00    7.80
   3   6  -6   23.70    6.60
   3   6  -6   27.40    7.10
   3   6  -6   29.60    7.10
  -3  -6   6   23.80    6.40
  -3  -6   6   29.50   11.10
  -3  -6   6   31.20    6.60
  -3  -6   6   34.90    8.10
  -3  -6   6   37.60    8.10
  -3  -6   6   12.50    6.90
  -3  -6   6   29.80    5.60
   2   6  -6   -7.00    5.50
   2   6  -6    2.90    4.30
   2   6  -6   -0.40    4.10
   2   6  -6   -1.40    3.10
   2   6  -6    8.60    6.60
   2   6  -6   -2.70    4.00
   2   6  -6   -1.60    3.90
   2   6  -6   -0.50    3.90
  -2  -6   6   10.10    4.70
  -2  -6   6   -2.30    6.60
  -2  -6   6    4.10    3.70
  -2  -6   6   -1.90    3.50
  -2  -6   6   -1.70    4.60
  -2  -6   6   -4.90    4.60
  -2  -6   6   -1.50    2.50
   1   6  -6    3.10    2.40
   1   6  -6    2.20    3.50
   1   6  -6   -3.10    4.10
   1   6  -6   -0.70    3.00
   1   6  -6    3.80    3.70
   1   6  -6    5.00    4.60
   1   6  -6    0.80    2.90
  -1  -6   6   -1.80    3.80
  -1  -6   6    4.00    4.00
  -1  -6   6   -5.80    3.30
  -1  -6   6    2.30    3.10
  -1  -6   6    0.20    2.80
  -1  -6   6    3.90    5.30
  -1  -6   6    1.10    1.80
   0   6  -6  497.75   43.60
   0   6  -6  412.16   43.30
   0   6  -6  461.15   43.40
   0   6  -6  446.96   43.80
   0   6  -6  541.15   44.00
   0   6  -6  422.96   44.90
   0  -6   6  397.06   43.80
   0  -6   6  533.85   45.00
   0  -6   6  436.26   42.40
   0  -6   6  377.86   44.90
   0  -6   6  481.45   43.50
   0  -6   6  505.35   43.70
   0  -6   6  431.56   43.90
  -1   6  -6  770.72   70.29
  -1   6  -6  731.33   71.19
  -1   6  -6  771.52   71.79
  -1   6  -6  760.92   70.69
  -1   6  -6  782.72   70.69
  -1   6  -6  685.63   70.09
   1  -6   6  649.54   70.49
   1  -6   6  754.92   70.79
   1  -6   6  671.53   71.59
   1  -6   6  773.52   70.89
   1  -6   6  815.32   70.69
   1  -6   6  775.62   70.39
   1  -6   6  861.71   71.89
  -2   6  -6  476.45   46.50
  -2   6  -6  498.95   47.00
  -2   6  -6  434.56   45.10
  -2   6  -6  442.86   45.10
  -2   6  -6  568.94   46.10
  -2   6  -6  520.55   47.80
  -2   6  -6  548.25   47.30
  -2   6  -6  528.25   46.20
   2  -6   6  469.35   47.30
   2  -6   6  465.45   46.00
   2  -6   6  460.55   46.90
   2  -6   6  424.16   46.00
   2  -6   6  483.75   46.50
   2  -6   6  505.95   46.20
  -3   6  -6   15.80    5.20
  -3   6  -6   10.90    4.90
  -3   6  -6   15.20    4.00
  -3   6  -6   13.70    3.80
  -3   6  -6   16.50    4.60
  -3   6  -6   12.40    4.30
   3  -6   6   13.80    3.50
   3  -6   6   14.10    3.90
   3  -6   6    5.90    3.90
   3  -6   6    6.70    5.30
   3  -6   6   12.20    4.50
   3  -6   6   13.30    4.50
   3  -6   6   14.50    4.00
  -4   6  -6   77.39   11.20
  -4   6  -6   97.79   13.10
  -4   6  -6   67.99   10.60
  -4   6  -6   82.69   10.00
  -4   6  -6   95.69   10.20
  -4   6  -6  109.99   11.80
   4  -6   6   88.39   11.50
   4  -6   6   55.49   12.20
   4  -6   6   84.29   11.20
   4  -6   6   91.89   11.00
   4  -6   6   86.09   11.10
   4  -6   6   84.69    9.80
   4  -6   6   69.09   11.30
  -5   6  -6    4.40    5.30
  -5   6  -6    7.90    5.80
  -5   6  -6    8.90    4.90
   5  -6   6   18.80    6.30
   5  -6   6   11.20    9.10
   5  -6   6    1.60    3.50
   5  -6   6    7.70    6.10
   5  -6   6   -0.50    8.70
   5  -6   6    8.40    6.30
   5  -6   6   13.40    5.20
   5   5  -6   -9.60   15.50
   5   5  -6    2.60    7.70
   5   5  -6    6.60    7.50
   5   5  -6    1.30   10.20
   5   5  -6    9.30    9.60
   5   5  -6   16.30    8.10
  -5  -5   6    9.30    6.60
  -5  -5   6   13.50    6.40
  -5  -5   6   10.40    9.90
  -5  -5   6    8.90    9.40
  -5  -5   6   -5.10    6.10
  -5  -5   6  -13.50    9.60
  -5  -5   6   14.50   13.20
  -5  -5   6    1.80   14.60
   4   5  -6   43.40    8.80
   4   5  -6   28.20    8.20
   4   5  -6   46.30   12.60
   4   5  -6   52.09   10.00
   4   5  -6   58.49    8.80
   4   5  -6   50.79   10.00
  -4  -5   6   43.30    8.00
  -4  -5   6   27.30    8.90
  -4  -5   6   37.20   13.00
  -4  -5   6   53.69   10.70
  -4  -5   6   39.10    7.40
  -4  -5   6   48.00    8.40
  -4  -5   6   47.90   10.30
   3   5  -6  133.89   14.50
   3   5  -6  126.79   16.90
   3   5  -6   94.89   12.50
   3   5  -6   92.99   15.40
   3   5  -6  104.59   13.60
   3   5  -6  130.79   14.20
   3   5  -6   83.69   14.20
  -3  -5   6   89.29   15.50
  -3  -5   6  137.89   15.10
  -3  -5   6  113.19   13.00
  -3  -5   6   85.59   16.30
  -3  -5   6   92.69   13.70
  -3  -5   6  111.59   12.30
  -3  -5   6  101.49   12.80
   2   5  -6  192.68   18.40
   2   5  -6  168.78   19.70
   2   5  -6  150.48   17.10
   2   5  -6  166.08   18.00
   2   5  -6  195.58   18.30
   2   5  -6  193.48   20.40
   2   5  -6  207.18   18.80
   2   5  -6  146.59   17.70
  -2  -5   6  172.08   17.60
  -2  -5   6  135.79   18.10
  -2  -5   6  138.19   18.20
  -2  -5   6  167.08   16.80
  -2  -5   6  184.38   17.80
  -2  -5   6  184.28   19.30
  -2  -5   6  143.49   20.20
   1   5  -6  123.39   13.10
   1   5  -6  153.78   15.90
   1   5  -6  141.59   14.30
   1   5  -6  121.79   15.30
   1   5  -6  132.79   14.20
   1   5  -6  128.29   14.00
   1   5  -6  147.79   14.10
   1   5  -6  136.99   14.10
  -1  -5   6  135.19   13.70
  -1  -5   6  139.49   13.90
  -1  -5   6  121.29   12.90
  -1  -5   6  104.69   15.50
  -1  -5   6  110.39   14.10
  -1  -5   6  157.68   15.30
  -1  -5   6  106.59   14.10
   0   5  -6   21.80    3.30
   0   5  -6   26.40    4.60
   0   5  -6   23.60    4.50
   0   5  -6   23.10    4.60
   0   5  -6   31.80    5.00
   0   5  -6   20.20    5.50
   0   5  -6   39.80    5.10
   0   5  -6   38.50    6.10
   0  -5   6   22.10    5.70
   0  -5   6   27.60    4.40
   0  -5   6   25.70    3.10
   0  -5   6   26.50    4.50
   0  -5   6   27.40    5.40
   0  -5   6   20.30    4.50
   0  -5   6   19.40    4.60
  -1   5  -6   58.29    6.70
  -1   5  -6   53.39    6.40
  -1   5  -6   50.49    7.90
  -1   5  -6   42.40    6.50
  -1   5  -6   48.70    6.40
  -1   5  -6   58.99    7.30
  -1   5  -6   43.00    7.00
  -1   5  -6   46.50    6.10
   1  -5   6   48.90    6.70
   1  -5   6   57.69    6.70
   1  -5   6   49.10    6.40
   1  -5   6   40.60    6.30
   1  -5   6   60.39    7.80
   1  -5   6   46.00    7.80
   1  -5   6   50.49    6.30
  -2   5  -6  226.18   21.90
  -2   5  -6  215.88   21.30
  -2   5  -6  222.58   24.00
  -2   5  -6  205.08   22.40
  -2   5  -6  210.98   21.50
  -2   5  -6  262.17   22.30
  -2   5  -6  223.38   22.60
  -2   5  -6  232.78   22.60
   2  -5   6  177.58   21.90
   2  -5   6  220.28   21.80
   2  -5   6  231.18   22.90
   2  -5   6  232.88   22.10
   2  -5   6  248.18   22.10
   2  -5   6  220.48   22.30
  -3   5  -6    0.80    3.30
  -3   5  -6    7.50    3.70
  -3   5  -6    1.10    2.50
  -3   5  -6   -1.50    2.30
  -3   5  -6   -0.90    3.00
  -3   5  -6   -0.60    1.10
  -3   5  -6    4.50    3.70
  -3   5  -6    0.20    0.90
   3  -5   6    0.50    4.90
   3  -5   6   -0.40    2.10
   3  -5   6   -1.80    3.00
   3  -5   6    0.90    3.20
   3  -5   6    2.10    2.90
   3  -5   6    2.40    5.80
   3  -5   6    3.50    3.20
  -4   5  -6  191.78   17.50
  -4   5  -6  168.28   19.10
  -4   5  -6  149.49   18.00
  -4   5  -6  164.88   17.00
  -4   5  -6  163.98   17.80
   4  -5   6  137.49   18.10
   4  -5   6  154.68   17.90
   4  -5   6  165.18   18.10
   4  -5   6  172.28   16.70
   4  -5   6  147.39   17.40
   4  -5   6  182.88   17.90
  -5   5  -6   93.19   12.50
  -5   5  -6  123.69   12.80
  -5   5  -6   93.99   10.50
  -5   5  -6  111.99   14.90
   5  -5   6   93.19   11.20
   5  -5   6   91.19   14.20
   5  -5   6   58.99   14.90
   5  -5   6   92.29   12.90
   5  -5   6  107.09   15.30
   5  -5   6   86.09   14.00
   5  -5   6   73.69   12.60
   5  -5   6   98.79   14.00
  -6   5  -6   51.89   10.90
  -6   5  -6   67.69   13.10
  -6   5  -6   78.79   15.90
  -6   5  -6   56.59    8.70
  -6   5  -6   45.30    9.10
   6  -5   6   71.39   17.30
   6  -5   6   78.99   13.00
   6  -5   6   60.89    8.80
   6  -5   6   53.39   15.10
   6  -5   6   46.90   11.40
   6   4  -6  166.18   22.90
   6   4  -6  204.78   23.80
   6   4  -6  130.39   27.10
   6   4  -6  166.78   32.70
   6   4  -6  190.08   29.50
  -6  -4   6  154.28   24.80
  -6  -4   6  148.39   29.90
  -6  -4   6  172.38   20.50
  -6  -4   6  200.18   26.10
   5   4  -6  112.89   17.10
   5   4  -6  114.69   16.30
   5   4  -6  107.99   21.10
   5   4  -6  103.69   14.90
   5   4  -6   93.59   14.60
   5   4  -6  111.69   16.00
  -5  -4   6   61.59   17.60
  -5  -4   6  119.09   13.90
  -5  -4   6   94.69   13.40
  -5  -4   6   97.49   17.30
  -5  -4   6  118.49   17.00
  -5  -4   6   90.39   15.40
  -5  -4   6  108.49   14.00
   4   4  -6   -3.00    4.60
   4   4  -6    1.70    6.00
   4   4  -6    4.50    6.90
   4   4  -6    0.70    5.90
   4   4  -6    1.90    4.10
   4   4  -6   -2.70    5.00
   4   4  -6    4.20    4.90
  -4  -4   6    4.30    4.30
  -4  -4   6   -5.00    5.50
  -4  -4   6   -6.30    3.60
  -4  -4   6   -5.50    5.20
  -4  -4   6   -2.20    8.40
  -4  -4   6    2.10    4.10
  -4  -4   6    1.70    8.00
  -4  -4   6   -2.00    5.20
   3   4  -6   -2.90    4.20
   3   4  -6    9.00    3.80
   3   4  -6    3.20    3.30
   3   4  -6    6.50    4.70
   3   4  -6    6.00    4.70
   3   4  -6   -1.70    3.30
  -3  -4   6    0.50    5.90
  -3  -4   6    3.50    3.20
  -3  -4   6    5.10    3.20
  -3  -4   6    1.20    4.10
  -3  -4   6    2.40    2.70
  -3  -4   6    1.00    4.00
  -3  -4   6    1.40    4.30
   2   4  -6   52.39    7.00
   2   4  -6   48.30    8.40
   2   4  -6   53.89    7.40
   2   4  -6   47.40    6.90
   2   4  -6   49.70    8.80
   2   4  -6   49.50    6.30
   2   4  -6   57.79    7.50
  -2  -4   6   56.89    6.70
  -2  -4   6   39.00    7.30
  -2  -4   6   46.40    7.90
  -2  -4   6   42.60    5.80
  -2  -4   6   42.30    7.30
  -2  -4   6   55.99    6.90
  -2  -4   6   37.20    8.40
   1   4  -6 1308.77  111.39
   1   4  -6 1095.69  110.39
   1   4  -6 1206.48  111.19
   1   4  -6 1168.18  111.19
   1   4  -6 1269.27  111.29
   1   4  -6 1129.19  110.99
   1   4  -6 1348.37  112.59
   1   4  -6 1171.78  112.29
  -1  -4   6 1335.17  112.29
  -1  -4   6 1143.99  110.29
  -1  -4   6 1196.98  110.89
  -1  -4   6 1062.09  111.19
  -1  -4   6 1304.37  111.19
  -1  -4   6 1034.90  111.19
   0   4  -6  464.65   48.30
   0   4  -6  487.85   49.00
   0   4  -6  540.65   50.39
   0   4  -6  551.94   49.40
   0   4  -6  508.25   49.20
   0   4  -6  540.95   49.30
   0   4  -6  616.54   49.40
   0  -4   6  562.14   49.30
   0  -4   6  500.05   49.30
   0  -4   6  473.55   50.09
   0  -4   6  500.75   49.00
   0  -4   6  589.44   50.39
   0  -4   6  471.15   49.20
  -1   4  -6  193.18   19.70
  -1   4  -6  193.08   19.90
  -1   4  -6  228.68   20.70
  -1   4  -6  217.78   19.80
  -1   4  -6  186.58   19.90
  -1   4  -6  179.98   19.40
  -1   4  -6  218.88   20.00
  -1   4  -6  223.78   21.00
   1  -4   6  189.38   20.50
   1  -4   6  181.48   19.80
   1  -4   6  205.68   19.90
   1  -4   6  213.98   19.80
   1  -4   6  193.88   19.90
   1  -4   6  176.18   19.60
   1  -4   6  214.38   20.90
  -2   4  -6  655.63   59.49
  -2   4  -6  620.24   60.49
  -2   4  -6  591.14   60.29
  -2   4  -6  712.53   61.49
  -2   4  -6  626.84   59.79
  -2   4  -6  662.13   60.19
  -2   4  -6  562.74   59.59
  -2   4  -6  734.33   60.19
   2  -4   6  640.94   59.69
   2  -4   6  635.54   59.99
   2  -4   6  575.84   59.99
   2  -4   6  627.64   59.89
   2  -4   6  674.73   60.59
  -3   4  -6   10.00    4.00
  -3   4  -6   11.80    1.80
  -3   4  -6    7.00    4.00
  -3   4  -6   11.70    3.90
  -3   4  -6    8.30    2.90
  -3   4  -6   10.80    4.90
  -3   4  -6    6.10    2.40
  -3   4  -6   10.60    3.70
  -3   4  -6    9.90    2.30
   3  -4   6   12.00    3.80
   3  -4   6    8.00    2.60
   3  -4   6   11.70    3.70
   3  -4   6    6.90    3.30
   3  -4   6    6.30    3.70
   3  -4   6    6.70    4.90
   3  -4   6   11.50    3.70
   3  -4   6   19.80    7.30
  -4   4  -6    1.80    1.60
  -4   4  -6    4.70    2.20
  -4   4  -6    5.60    5.10
  -4   4  -6    2.60    1.70
  -4   4  -6    5.00    3.90
  -4   4  -6    5.50    4.90
  -4   4  -6    9.20    4.00
  -4   4  -6    7.70    3.50
  -4   4  -6    5.60    4.00
   4  -4   6    5.60    4.40
   4  -4   6    1.10    4.90
   4  -4   6    6.60    7.60
   4  -4   6    4.10    5.60
   4  -4   6    2.10    3.70
   4  -4   6   -5.70    3.70
   4  -4   6    5.60    2.90
   4  -4   6    7.50    3.90
  -5   4  -6   33.60    7.30
  -5   4  -6   44.50    8.30
  -5   4  -6   46.80    9.50
  -5   4  -6   43.30    7.10
   5  -4   6   30.30    8.70
   5  -4   6   27.40    7.80
   5  -4   6   26.70   12.00
   5  -4   6   48.30    8.30
   5  -4   6   37.90    9.20
   5  -4   6   54.89    8.90
   5  -4   6   45.20    7.60
   5  -4   6   54.59    9.40
  -6   4  -6   53.19    9.50
  -6   4  -6   48.50   10.30
  -6   4  -6   64.59   11.60
   6  -4   6   35.10   12.80
   6  -4   6   53.89    8.60
   6  -4   6   43.40   10.70
   6  -4   6   51.79   10.60
   6  -4   6   39.10   14.80
   6  -4   6   55.69   10.70
   6  -4   6   51.09   11.70
   6   3  -6   10.50   10.30
   6   3  -6    4.60   11.30
   6   3  -6   10.20    8.30
   6   3  -6   10.10    9.90
   6   3  -6   -2.70   13.30
   6   3  -6   11.20    7.50
   6   3  -6    5.00    8.70
  -6  -3   6   11.50   10.60
  -6  -3   6    8.70    7.10
  -6  -3   6   13.10   12.00
  -6  -3   6    2.50    9.10
  -6  -3   6   12.10    7.50
  -6  -3   6   21.60   10.40
  -6  -3   6   23.30    6.40
  -6  -3   6   26.40   16.60
   5   3  -6    9.60    7.70
   5   3  -6   13.90    7.20
   5   3  -6   14.70    6.40
   5   3  -6   12.10    8.80
   5   3  -6    1.10    5.30
   5   3  -6    3.50    5.20
  -5  -3   6    8.80    7.40
  -5  -3   6   14.20    9.50
  -5  -3   6   15.90    9.10
  -5  -3   6   12.70    5.40
  -5  -3   6   12.10    4.90
  -5  -3   6    2.20    4.80
  -5  -3   6    3.80    6.40
  -5  -3   6    9.00    6.50
   4   3  -6  148.59   15.90
   4   3  -6  158.08   18.20
   4   3  -6  101.39   16.00
   4   3  -6  111.59   17.50
   4   3  -6  124.49   15.00
   4   3  -6  113.99   14.40
  -4  -3   6  141.99   14.50
  -4  -3   6  134.19   14.00
  -4  -3   6  124.69   15.40
  -4  -3   6  115.59   15.10
  -4  -3   6  133.49   14.00
  -4  -3   6   99.59   17.50
   3   3  -6   80.09   11.10
   3   3  -6   69.89    8.80
   3   3  -6   80.39    9.90
   3   3  -6   83.99   10.00
   3   3  -6   66.29    9.20
   3   3  -6   67.99    9.30
   3   3  -6   74.39   10.80
  -3  -3   6   69.59    8.70
  -3  -3   6   77.09    9.10
  -3  -3   6   61.29    9.50
  -3  -3   6   80.49   10.50
  -3  -3   6   65.99    9.60
  -3  -3   6   65.89    8.60
  -3  -3   6   57.09   11.70
   2   3  -6  280.67   29.40
   2   3  -6  275.97   28.20
   2   3  -6  282.67   27.80
   2   3  -6  322.27   28.60
   2   3  -6  288.67   28.30
   2   3  -6  318.87   29.80
   2   3  -6  322.37   28.60
  -2  -3   6  302.87   28.20
  -2  -3   6  289.17   27.90
  -2  -3   6  250.87   28.40
  -2  -3   6  311.47   29.30
  -2  -3   6  276.87   27.60
  -2  -3   6  251.67   28.40
   1   3  -6  575.74   54.59
   1   3  -6  595.74   53.69
   1   3  -6  612.54   53.69
   1   3  -6  532.65   52.89
   1   3  -6  635.24   54.69
   1   3  -6  618.14   53.69
   1   3  -6  531.15   53.39
   1   3  -6  545.05   53.59
  -1  -3   6  519.35   53.49
  -1  -3   6  609.34   53.59
  -1  -3   6  565.04   53.29
  -1  -3   6  512.15   53.59
  -1  -3   6  509.65   54.49
  -1  -3   6  642.44   54.59
  -1  -3   6  545.55   52.79
   0   3  -6  444.86   38.00
   0   3  -6  407.96   38.10
   0   3  -6  382.26   38.00
   0   3  -6  436.76   38.20
   0   3  -6  452.35   39.20
   0   3  -6  352.36   37.10
   0   3  -6  393.76   37.80
   0  -3   6  352.86   38.00
   0  -3   6  376.06   38.70
   0  -3   6  360.36   37.90
   0  -3   6  463.15   39.20
   0  -3   6  375.46   38.00
   0  -3   6  424.16   38.10
  -1   3  -6  529.65   46.60
  -1   3  -6  582.44   47.00
  -1   3  -6  447.96   46.50
  -1   3  -6  490.25   46.40
  -1   3  -6  480.05   46.70
  -1   3  -6  564.34   47.50
  -1   3  -6  509.55   46.50
   1  -3   6  514.75   47.20
   1  -3   6  430.06   46.70
   1  -3   6  483.85   46.60
   1  -3   6  506.35   46.60
   1  -3   6  422.76   47.40
   1  -3   6  457.45   46.70
   1  -3   6  513.95   46.50
  -2   3  -6  177.38   17.90
  -2   3  -6  171.78   17.00
  -2   3  -6  186.88   18.10
  -2   3  -6  163.88   17.90
  -2   3  -6  175.48   18.80
  -2   3  -6  190.78   18.60
  -2   3  -6  196.48   17.70
  -2   3  -6  218.38   19.70
   2  -3   6  196.58   18.60
   2  -3   6  193.18   17.80
   2  -3   6  169.38   18.10
   2  -3   6  149.88   18.30
   2  -3   6  171.88   18.10
   2  -3   6  175.58   18.10
  -3   3  -6  159.18   14.50
  -3   3  -6  157.28   15.70
  -3   3  -6  142.49   14.10
  -3   3  -6  145.69   15.90
  -3   3  -6  134.89   14.90
  -3   3  -6  131.99   15.70
  -3   3  -6  124.89   14.60
  -3   3  -6  153.78   15.10
  -3   3  -6  174.28   18.00
   3  -3   6  158.18   14.80
   3  -3   6  132.49   15.20
   3  -3   6  141.49   15.50
   3  -3   6  140.49   15.20
   3  -3   6  122.89   15.20
  -4   3  -6   11.80    3.00
  -4   3  -6   10.00    5.00
  -4   3  -6    8.60    3.90
  -4   3  -6    2.80    5.00
  -4   3  -6    8.60    3.00
  -4   3  -6    7.50    4.30
  -4   3  -6    7.20    3.70
   4  -3   6   10.90    7.20
   4  -3   6    9.20    4.90
   4  -3   6    8.60    4.20
   4  -3   6    2.00    4.50
   4  -3   6    1.00    3.90
   4  -3   6    6.80    4.30
   4  -3   6   12.40    5.60
   4  -3   6    9.80    3.30
  -5   3  -6  106.39   12.10
  -5   3  -6  121.89   13.30
  -5   3  -6  121.29   16.40
  -5   3  -6  149.09   16.40
  -5   3  -6  134.69   13.90
   5  -3   6   94.69   15.50
   5  -3   6  122.49   13.70
   5  -3   6  132.39   15.30
   5  -3   6   94.39   16.70
   5  -3   6  108.59   20.90
   5  -3   6  118.09   15.40
   5  -3   6  107.29   15.00
   5  -3   6  104.19   13.90
  -6   3  -6    1.80    6.20
  -6   3  -6   13.90    6.40
  -6   3  -6   -3.00   12.50
  -6   3  -6   27.20   10.70
  -6   3  -6   13.40    7.20
   6  -3   6   15.50    8.60
   6  -3   6   10.20    8.60
   6  -3   6    6.00    6.10
   6  -3   6    7.30   14.10
   6  -3   6    3.80   10.80
   6  -3   6    6.40    8.40
   6  -3   6   23.20   11.60
   6   2  -6   18.40    7.60
   6   2  -6    8.80    9.30
   6   2  -6   -7.50    5.80
   6   2  -6    2.70    8.20
   6   2  -6   11.40   11.60
   6   2  -6    2.60    6.70
  -6  -2   6    1.40    8.10
  -6  -2   6    4.40    5.00
  -6  -2   6    3.10    9.00
  -6  -2   6   -3.30    6.00
  -6  -2   6   20.50    6.50
  -6  -2   6    1.80   12.50
  -6  -2   6   21.80    8.60
  -6  -2   6   12.90    7.50
   5   2  -6    0.00    6.20
   5   2  -6   -9.00    7.10
   5   2  -6    9.10    4.70
   5   2  -6   -3.50    3.90
   5   2  -6    8.00    5.70
   5   2  -6    8.10    4.90
   5   2  -6   -0.50    5.10
  -5  -2   6    1.30    5.00
  -5  -2   6   -4.50    3.40
  -5  -2   6    2.00    6.80
  -5  -2   6   -7.40    5.20
  -5  -2   6    3.00    5.30
  -5  -2   6    2.00    4.40
  -5  -2   6   -5.40    6.80
  -5  -2   6    2.60    3.90
   4   2  -6   35.80    8.10
   4   2  -6   28.30    5.70
   4   2  -6   19.60    5.20
   4   2  -6   47.60    7.30
   4   2  -6   26.10    5.90
   4   2  -6   37.40    7.30
   4   2  -6   24.20    7.00
  -4  -2   6   36.10    6.80
  -4  -2   6   15.20    7.30
  -4  -2   6   27.40    6.10
  -4  -2   6   27.50    6.60
  -4  -2   6   40.10    5.60
  -4  -2   6   22.80    6.40
   3   2  -6   50.89    7.20
   3   2  -6   57.09    7.80
   3   2  -6   59.69    7.70
   3   2  -6   68.99    8.40
   3   2  -6   55.29    7.40
   3   2  -6   53.29    8.60
   3   2  -6   71.69    9.60
  -3  -2   6   49.60    7.80
  -3  -2   6   60.39    7.10
  -3  -2   6   58.89    8.50
  -3  -2   6   60.19    7.40
  -3  -2   6   48.50    7.90
  -3  -2   6   53.19    9.60
  -3  -2   6   60.29    7.00
   2   2  -6  593.84   51.19
   2   2  -6  591.74   52.09
   2   2  -6  544.75   50.89
   2   2  -6  524.45   50.59
   2   2  -6  583.24   51.09
   2   2  -6  540.75   51.89
   2   2  -6  544.25   50.99
  -2  -2   6  485.55   50.99
  -2  -2   6  521.15   50.39
  -2  -2   6  562.44   50.69
  -2  -2   6  574.24   50.89
  -2  -2   6  497.65   50.99
  -2  -2   6  461.35   51.89
   1   2  -6   39.20    4.90
   1   2  -6   35.40    5.20
   1   2  -6   37.40    5.20
   1   2  -6   27.30    4.30
   1   2  -6   28.90    3.90
   1   2  -6   37.20    4.60
   1   2  -6   24.90    4.50
   1   2  -6   28.50    5.50
  -1  -2   6   48.20    8.80
  -1  -2   6   26.20    4.50
  -1  -2   6   23.70    4.50
  -1  -2   6   33.20    4.60
  -1  -2   6   29.20    5.70
  -1  -2   6   35.50    5.20
   0   2  -6  425.96   39.70
   0   2  -6  469.35   40.60
   0   2  -6  402.56   40.30
   0   2  -6  471.45   40.40
   0   2  -6  412.06   40.40
   0   2  -6  497.85   41.20
   0   2  -6  427.16   40.20
   0  -2   6  457.25   41.50
   0  -2   6  410.86   40.20
   0  -2   6  357.56   40.20
   0  -2   6  432.76   41.00
   0  -2   6  396.66   40.30
   0  -2   6  416.86   40.50
   0  -2   6  408.76   40.20
  -1   2  -6  196.48   18.80
  -1   2  -6  211.28   18.50
  -1   2  -6  230.18   19.40
  -1   2  -6  175.08   18.90
  -1   2  -6  190.88   19.50
  -1   2  -6  187.08   18.90
   1  -2   6  199.18   18.70
   1  -2   6  201.68   19.40
   1  -2   6  179.38   18.90
   1  -2   6  183.78   18.90
   1  -2   6  167.78   19.10
   1  -2   6  180.68   18.90
  -2   2  -6   51.59    7.20
  -2   2  -6   41.80    6.20
  -2   2  -6   65.39    9.10
  -2   2  -6   49.90    7.20
  -2   2  -6   56.49    6.30
  -2   2  -6   44.80    5.50
  -2   2  -6   56.79    6.20
  -2   2  -6   46.90    6.60
  -2   2  -6   51.19    6.90
   2  -2   6   53.49    7.20
   2  -2   6   49.99    6.90
   2  -2   6   47.80    6.20
   2  -2   6   47.20    6.40
   2  -2   6   51.79    6.10
   2  -2   6   42.90    7.10
  -3   2  -6   74.59   10.20
  -3   2  -6   83.29    8.70
  -3   2  -6   67.59    8.70
  -3   2  -6   64.59    8.60
  -3   2  -6   76.79    9.90
  -3   2  -6   67.09    9.50
  -3   2  -6   74.69   11.50
  -3   2  -6   70.99    7.90
  -3   2  -6   85.69    8.70
   3  -2   6   65.29    9.60
   3  -2   6   79.69    8.50
   3  -2   6   64.49    9.00
   3  -2   6   79.39    9.60
   3  -2   6   64.79   10.20
   3  -2   6   60.39    8.40
   3  -2   6   51.89   10.80
   3  -2   6   82.99   11.70
  -4   2  -6    8.30    3.60
  -4   2  -6   11.10    7.20
  -4   2  -6   12.20    3.60
  -4   2  -6    9.40    5.40
  -4   2  -6    3.10    4.90
  -4   2  -6   15.00    4.30
  -4   2  -6   12.00    5.10
  -4   2  -6    8.60    3.20
  -4   2  -6   10.50    3.60
   4  -2   6   -0.10    3.90
   4  -2   6    8.40    4.80
   4  -2   6   -1.40    7.00
   4  -2   6   11.80    5.50
   4  -2   6    9.30    3.70
   4  -2   6   11.30    4.60
   4  -2   6    8.70    5.70
  -5   2  -6   33.30   11.10
  -5   2  -6   44.20    8.00
  -5   2  -6   51.99    9.00
  -5   2  -6   64.69    8.80
  -5   2  -6   53.29    8.70
  -5   2  -6   55.99   10.90
  -5   2  -6   47.50   13.00
   5  -2   6   64.79   12.10
   5  -2   6   67.19   10.50
   5  -2   6   53.99    9.20
   5  -2   6   71.69    9.40
   5  -2   6   41.50   10.10
   5  -2   6   50.29   10.50
   5  -2   6   27.60   11.80
  -6   2  -6  202.18   21.20
  -6   2  -6  186.98   20.30
  -6   2  -6  160.48   21.40
  -6   2  -6  159.18   26.30
  -6   2  -6  177.58   31.50
   6  -2   6  169.88   22.40
   6  -2   6  198.58   22.60
   6  -2   6  197.98   20.50
   6  -2   6  156.18   26.00
   6  -2   6  206.28   24.80
   6  -2   6  138.99   22.60
   6  -2   6  122.69   24.60
   6   1  -6   52.69    9.60
   6   1  -6   19.70    7.50
   6   1  -6   31.60    9.50
   6   1  -6   43.20    8.40
   6   1  -6   26.70    7.20
   6   1  -6   55.79   12.20
   6   1  -6   18.60    8.90
  -6  -1   6   31.90    8.80
  -6  -1   6   30.10    9.30
  -6  -1   6   41.20    7.50
  -6  -1   6   17.70    7.20
  -6  -1   6   38.10    7.70
  -6  -1   6   23.90   12.00
  -6  -1   6   27.00    9.30
   5   1  -6   30.20    6.40
   5   1  -6   24.20    8.00
   5   1  -6   20.10    5.60
   5   1  -6   28.10    6.50
   5   1  -6   34.50    8.30
   5   1  -6   41.90    7.80
   5   1  -6   21.30    7.40
  -5  -1   6    8.70    7.80
  -5  -1   6   36.40    8.60
  -5  -1   6   34.40    7.10
  -5  -1   6   22.00    6.70
  -5  -1   6   32.70    6.10
  -5  -1   6   26.40    5.40
  -5  -1   6   17.70    5.70
   4   1  -6  211.68   21.60
   4   1  -6  239.98   21.90
   4   1  -6  244.48   22.30
   4   1  -6  187.88   22.40
   4   1  -6  193.88   21.20
   4   1  -6  257.07   23.70
   4   1  -6  203.08   21.50
  -4  -1   6  236.78   22.50
  -4  -1   6  171.88   21.60
  -4  -1   6  165.98   21.30
  -4  -1   6  228.48   21.30
  -4  -1   6  213.28   21.20
   3   1  -6  218.18   22.90
   3   1  -6  227.78   23.90
   3   1  -6  264.67   23.20
   3   1  -6  257.57   23.40
   3   1  -6  262.37   24.30
   3   1  -6  237.58   23.00
   3   1  -6  219.88   22.90
  -3  -1   6  258.17   23.00
  -3  -1   6  195.78   23.00
  -3  -1   6  220.78   23.30
  -3  -1   6  233.28   22.70
  -3  -1   6  192.88   24.20
  -3  -1   6  246.68   23.90
   2   1  -6  190.18   18.70
   2   1  -6  185.28   18.80
   2   1  -6  213.08   19.80
   2   1  -6  196.68   19.00
   2   1  -6  194.08   18.80
   2   1  -6  190.88   19.70
   2   1  -6  203.98   18.90
  -2  -1   6  181.48   18.50
  -2  -1   6  173.68   18.90
  -2  -1   6  222.98   19.90
  -2  -1   6  165.58   19.80
  -2  -1   6  204.48   18.80
  -2  -1   6  165.08   18.80
   1   1  -6 2959.00  250.67
   1   1  -6 2704.13  250.77
   1   1  -6 3148.19  251.57
   1   1  -6 2859.91  250.87
   1   1  -6 2743.53  250.67
   1   1  -6 2623.14  250.37
   1   1  -6 2544.65  250.77
  -1  -1   6 2592.24  251.37
  -1  -1   6 2991.80  251.77
  -1  -1   6 2512.65  250.57
  -1  -1   6 2523.85  250.47
  -1  -1   6 2801.52  250.87
  -1  -1   6 2446.76  250.57
   0   1  -6    5.00    4.30
   0   1  -6    0.10    1.40
   0   1  -6    0.70    1.80
   0   1  -6   -0.60    1.80
   0   1  -6    1.90    2.10
   0   1  -6    3.10    1.70
   0   1  -6    3.20    2.00
   0   1  -6    2.30    1.60
   0  -1   6    2.40    1.70
   0  -1   6   -0.20    1.50
   0  -1   6    4.20    2.10
   0  -1   6    1.90    1.50
   0  -1   6    0.80    3.90
   0  -1   6    0.60    1.90
   0  -1   6    0.60    2.00
   0  -1   6    1.30    1.80
  -1   1  -6 1735.73  171.68
  -1   1  -6 2008.90  171.88
  -1   1  -6 2004.70  173.38
  -1   1  -6 1758.02  172.38
  -1   1  -6 1826.82  171.88
  -1   1  -6 1753.32  171.88
  -1   1  -6 2002.80  172.38
  -1   1  -6 2081.99  171.18
   1  -1   6 1732.43  171.78
   1  -1   6 1870.21  171.68
   1  -1   6 1866.81  171.88
   1  -1   6 1650.33  171.88
   1  -1   6 1933.91  172.28
  -2   1  -6    1.90    2.90
  -2   1  -6    2.30    2.60
  -2   1  -6   -0.10    2.30
  -2   1  -6    1.20    1.80
  -2   1  -6    1.30    3.90
  -2   1  -6    1.40    2.00
  -2   1  -6   -1.20    1.90
  -2   1  -6    1.70    2.80
  -2   1  -6   -0.40    2.10
  -2   1  -6    4.90    4.80
   2  -1   6    5.90    3.10
   2  -1   6    0.00    1.80
   2  -1   6   -1.70    2.00
   2  -1   6   -2.90    3.50
   2  -1   6    0.90    2.10
   2  -1   6    0.80    2.30
   2  -1   6   -1.40    4.00
   2  -1   6   -1.30    2.70
  -3   1  -6  257.17   22.70
  -3   1  -6  226.28   23.50
  -3   1  -6  187.78   24.70
  -3   1  -6  222.28   21.80
  -3   1  -6  211.08   23.30
  -3   1  -6  264.27   22.30
  -3   1  -6  234.28   22.90
  -3   1  -6  229.78   22.50
  -3   1  -6  216.18   22.30
   3  -1   6  232.38   22.20
   3  -1   6  187.48   22.90
   3  -1   6  236.48   23.60
   3  -1   6  188.68   23.20
   3  -1   6  205.38   24.80
   3  -1   6  235.68   22.50
   3  -1   6  220.88   22.60
  -4   1  -6    2.30    3.40
  -4   1  -6    4.00    4.00
  -4   1  -6    2.50    3.00
  -4   1  -6    0.70    5.30
  -4   1  -6    2.50    3.80
  -4   1  -6   -6.90    6.90
  -4   1  -6    6.90    3.50
   4  -1   6   -0.90    4.20
   4  -1   6    0.40    5.50
   4  -1   6   -6.20    3.80
   4  -1   6   -3.00    3.20
   4  -1   6    2.10    5.80
   4  -1   6   -4.00    6.60
   4  -1   6    1.50    5.70
  -5   1  -6    5.10    4.80
  -5   1  -6   24.40   11.40
  -5   1  -6   17.30    5.70
  -5   1  -6    4.40    6.00
  -5   1  -6    7.90    7.40
  -5   1  -6   15.70    8.80
  -5   1  -6    7.00    4.70
  -5   1  -6    5.50    5.20
   5  -1   6   11.50    6.20
   5  -1   6    3.00    5.70
   5  -1   6    0.00   10.20
   5  -1   6    0.60    7.80
   5  -1   6    7.20    4.80
   5  -1   6    4.00    6.40
   5  -1   6   -1.40    7.60
  -6   1  -6  107.49   15.50
  -6   1  -6  131.19   15.80
  -6   1  -6  118.09   24.50
  -6   1  -6  109.79   16.80
  -6   1  -6  104.49   20.60
   6  -1   6  131.39   20.90
   6  -1   6  101.59   22.70
   6  -1   6   82.19   18.10
   6  -1   6  114.59   17.40
   6  -1   6   98.29   16.60
   6  -1   6  112.99   15.90
   6  -1   6   75.39   17.50
   7   0  -6    2.20    8.70
   7   0  -6   34.50   12.40
   7   0  -6   19.80    9.30
   7   0  -6  -12.20    8.00
  -7   0   6   21.00   11.90
  -7   0   6   -2.70    5.30
  -7   0   6    5.10    6.70
   6   0  -6    2.50    6.30
   6   0  -6    4.70    5.50
   6   0  -6   12.30    7.50
   6   0  -6    1.90    5.40
   6   0  -6   -8.50    5.30
   6   0  -6    8.20    8.00
   6   0  -6    0.40    4.40
  -6   0   6    6.80    6.90
  -6   0   6    2.60    6.30
  -6   0   6    5.50    5.70
  -6   0   6    2.30    3.10
  -6   0   6   -2.60    5.10
  -6   0   6   -1.20    3.70
  -6   0   6    7.60    4.90
  -6   0   6   -0.90    4.10
   5   0  -6   66.89   10.70
   5   0  -6   47.40    8.10
   5   0  -6   58.89   10.00
   5   0  -6   51.99    8.60
   5   0  -6   70.59    8.90
   5   0  -6   69.09    8.70
  -5   0   6   58.89    8.00
  -5   0   6   51.19    8.20
  -5   0   6   58.69    8.40
  -5   0   6   37.60   11.40
  -5   0   6   76.49   10.10
  -5   0   6   53.19   11.10
  -5   0   6   60.69    7.10
  -5   0   6   40.90    8.40
   4   0  -6    7.30    3.80
   4   0  -6    4.90    3.30
   4   0  -6    6.10    2.60
   4   0  -6    6.80    2.90
   4   0  -6    6.80    3.90
   4   0  -6    8.80    3.80
   4   0  -6    6.40    3.20
  -4   0   6   12.00    3.10
  -4   0   6    4.90    5.70
  -4   0   6    6.70    4.80
  -4   0   6    3.30    3.00
  -4   0   6   11.00    3.20
  -4   0   6    9.50    3.60
  -4   0   6    1.40    3.10
  -4   0   6    7.80    2.40
   3   0  -6 2059.89  185.38
   3   0  -6 2120.09  186.08
   3   0  -6 2123.19  185.18
   3   0  -6 1983.70  185.18
   3   0  -6 2082.79  185.18
   3   0  -6 1761.42  184.88
   3   0  -6 1789.92  185.68
  -3   0   6 2275.67  188.28
  -3   0   6 1931.01  184.68
  -3   0   6 2050.39  185.08
  -3   0   6 1683.63  185.08
  -3   0   6 2192.48  185.98
   2   0  -6  668.83   57.19
   2   0  -6  621.04   57.19
   2   0  -6  643.84   56.39
   2   0  -6  573.84   56.39
   2   0  -6  614.44   56.49
   2   0  -6  616.64   56.39
   2   0  -6  569.94   56.39
  -2   0   6  534.55   56.09
  -2   0   6  661.13   57.39
  -2   0   6  640.24   56.49
  -2   0   6  524.45   56.29
  -2   0   6  675.13   59.59
  -2   0   6  521.35   56.99
   1   0  -6  358.86   31.50
   1   0  -6  382.36   32.60
   1   0  -6  353.26   31.50
   1   0  -6  321.57   31.40
   1   0  -6  373.06   32.10
   1   0  -6  291.57   31.40
   1   0  -6  336.27   31.30
  -1   0   6  309.47   32.30
  -1   0   6  353.26   34.20
  -1   0   6  277.77   31.20
  -1   0   6  340.17   32.00
  -1   0   6  302.97   31.20
  -1   0   6  308.37   31.50
  -1   0   6  330.07   31.30
   0   0  -6   36.70    5.60
   0   0  -6   41.00    5.30
   0   0  -6   39.80    5.60
   0   0  -6   40.40    5.40
   0   0  -6   42.80    5.10
   0   0  -6   41.30    6.60
   0   0  -6   39.10    4.90
   0   0  -6   43.60    3.80
   0   0   6   35.60    5.30
   0   0   6   27.00    6.10
   0   0   6   26.90    5.30
   0   0   6   43.40    4.90
   0   0   6   37.60    5.20
   0   0   6   45.00    5.70
   0   0   6   39.50    8.20
   0   0   6   40.70    5.20
  -1   0  -6   44.10    6.50
  -1   0  -6   45.90    5.50
  -1   0  -6   51.19    6.20
  -1   0  -6   42.70    7.70
  -1   0  -6   40.20    5.40
  -1   0  -6   45.50    6.30
  -1   0  -6   46.00    5.90
   1   0   6   42.70    5.60
   1   0   6   38.20    6.20
   1   0   6   40.90    8.60
   1   0   6   38.30    5.90
   1   0   6   43.60    6.10
   1   0   6   38.20    5.20
   1   0   6   38.40    5.30
  -2   0  -6   76.89    8.80
  -2   0  -6   73.89    8.50
  -2   0  -6   67.49    8.30
  -2   0  -6   75.39    9.00
  -2   0  -6   75.99    9.80
  -2   0  -6   76.69    8.30
  -2   0  -6   63.69   11.00
  -2   0  -6   70.39    9.20
   2   0   6   64.89    8.00
   2   0   6   61.29    9.00
   2   0   6   56.49    9.20
   2   0   6   79.19    9.30
   2   0   6   63.29    8.50
   2   0   6   78.49   12.10
   2   0   6   75.49    8.20
   2   0   6   52.99   10.60
  -3   0  -6    1.10    2.90
  -3   0  -6    2.70    3.50
  -3   0  -6    0.90    4.70
  -3   0  -6    3.10    4.00
  -3   0  -6   12.00    6.60
  -3   0  -6    2.30    3.00
  -3   0  -6    6.10    3.70
  -3   0  -6   -0.20    4.10
  -3   0  -6    1.90    6.20
   3   0   6    2.10    3.50
   3   0   6    5.20    3.10
   3   0   6    1.00    3.70
   3   0   6    2.00    6.10
   3   0   6    6.00    4.80
   3   0   6    0.80    2.80
   3   0   6   11.20    6.30
   3   0   6    4.40    4.40
  -4   0  -6   -2.10    8.10
  -4   0  -6   -1.90    5.20
  -4   0  -6    0.40    4.20
  -4   0  -6    4.50    6.50
  -4   0  -6    8.70    6.20
   4   0   6    4.50    4.20
   4   0   6    9.80    5.70
   4   0   6   -0.80    5.80
   4   0   6    3.10    8.50
   4   0   6    5.50    6.40
   4   0   6   -4.60    3.50
   4   0   6   10.30    5.00
  -5   0  -6  253.47   26.30
  -5   0  -6  201.28   29.30
  -5   0  -6  259.77   25.70
  -5   0  -6  237.58   26.30
  -5   0  -6  277.87   27.70
  -5   0  -6  229.88   28.70
  -5   0  -6  192.58   31.80
  -5   0  -6  272.57   26.00
   5   0   6  291.27   26.70
   5   0   6  239.18   28.60
   5   0   6  196.68   30.50
   5   0   6  244.08   28.40
   5   0   6  260.97   26.70
   5   0   6  288.57   27.80
   5   0   6  226.18   32.60
   7  -1  -6   15.10   10.20
   7  -1  -6   14.30    7.80
   7  -1  -6   52.79   12.20
   7  -1  -6   28.60    9.50
   7  -1  -6   20.30    7.70
  -7   1   6    5.90   12.60
  -7   1   6   33.10    7.10
  -7   1   6   30.30   10.30
  -7   1   6    8.50   13.40
  -7   1   6   21.10    7.70
   6  -1  -6    9.20    5.60
   6  -1  -6   -1.10    4.00
   6  -1  -6    0.20    5.10
   6  -1  -6   -3.10    6.20
   6  -1  -6    0.30    5.40
   6  -1  -6   -2.60    4.50
   6  -1  -6   10.90    7.00
  -6   1   6   11.70    4.60
  -6   1   6   10.50    4.00
  -6   1   6    8.00    6.20
  -6   1   6   -4.30    7.90
  -6   1   6    3.00    5.50
  -6   1   6    1.40    6.90
   5  -1  -6   17.10    3.90
   5  -1  -6   23.80    6.50
   5  -1  -6   26.10    5.80
   5  -1  -6   22.70    4.80
   5  -1  -6   22.60    5.40
   5  -1  -6   21.30    4.70
   5  -1  -6   14.30    5.20
  -5   1   6   20.20    6.40
  -5   1   6   14.90    2.70
  -5   1   6   14.30    4.80
  -5   1   6   29.50    8.70
  -5   1   6   24.00    5.80
  -5   1   6   24.10    4.60
  -5   1   6   13.00    2.70
  -5   1   6   15.30    4.30
  -5   1   6   25.40    5.30
   4  -1  -6   17.00    4.20
   4  -1  -6   21.20    4.80
   4  -1  -6   25.90    7.60
   4  -1  -6   14.90    3.80
   4  -1  -6   16.50    3.50
   4  -1  -6   15.10    3.20
   4  -1  -6   13.50    3.20
   4  -1  -6   11.40    3.80
  -4   1   6   12.80    2.40
  -4   1   6   19.20    7.80
  -4   1   6   18.50    3.70
  -4   1   6    8.60    4.10
  -4   1   6   14.30    3.20
  -4   1   6    8.40    2.50
  -4   1   6   14.00    3.50
  -4   1   6   15.70    3.90
   3  -1  -6    0.70    1.90
   3  -1  -6    2.10    1.60
   3  -1  -6   -1.30    2.10
   3  -1  -6    2.70    4.80
   3  -1  -6    2.70    2.30
   3  -1  -6    2.90    2.00
   3  -1  -6    3.10    1.50
  -3   1   6   -0.50    5.40
  -3   1   6    5.30    2.20
  -3   1   6    1.20    3.00
  -3   1   6    2.20    1.80
  -3   1   6    4.20    2.10
  -3   1   6   -0.10    1.40
  -3   1   6    2.40    2.70
  -3   1   6    0.60    1.80
   2  -1  -6 1195.98  113.09
   2  -1  -6 1323.87  113.09
   2  -1  -6 1258.37  112.99
   2  -1  -6 1394.66  113.59
   2  -1  -6 1373.06  113.89
   2  -1  -6 1293.77  112.89
   2  -1  -6 1268.07  113.09
  -2   1   6 1203.48  113.09
  -2   1   6 1114.79  116.09
  -2   1   6 1013.50  112.69
  -2   1   6 1138.59  112.89
  -2   1   6 1201.58  112.49
  -2   1   6 1186.58  113.79
  -2   1   6 1153.08  113.59
   1  -1  -6  326.87   31.20
   1  -1  -6  353.46   31.40
   1  -1  -6  316.97   31.20
   1  -1  -6  316.27   31.20
   1  -1  -6  309.67   31.00
   1  -1  -6  339.77   31.70
  -1   1   6  370.06   31.70
  -1   1   6  306.27   31.00
  -1   1   6  341.37   31.00
  -1   1   6  295.37   34.40
   0  -1  -6   47.80    6.60
   0  -1  -6   48.10    6.60
   0  -1  -6   47.20    6.40
   0  -1  -6   49.80    8.00
   0  -1  -6   48.70    6.30
   0  -1  -6   45.10    5.80
   0  -1  -6   52.69    5.70
   0   1   6   54.29    5.80
   0   1   6   55.49   10.40
   0   1   6   48.20    6.40
   0   1   6   43.00    6.40
   0   1   6   47.70    5.80
   0   1   6   51.59    6.10
  -1  -1  -6  408.36   36.90
  -1  -1  -6  356.56   36.20
  -1  -1  -6  336.17   38.10
  -1  -1  -6  396.76   36.10
  -1  -1  -6  387.96   37.20
  -1  -1  -6  363.66   37.10
  -1  -1  -6  392.46   36.60
   1   1   6  366.06   39.80
   1   1   6  391.06   36.50
   1   1   6  352.16   36.70
   1   1   6  404.66   36.10
   1   1   6  390.76   36.20
   1   1   6  396.16   37.00
  -2  -1  -6  274.07   26.30
  -2  -1  -6  260.47   26.70
  -2  -1  -6  265.57   26.40
  -2  -1  -6  294.27   26.50
  -2  -1  -6  292.37   27.30
  -2  -1  -6  252.17   27.40
  -2  -1  -6  259.87   27.60
   2   1   6  281.57   26.40
   2   1   6  276.87   27.40
   2   1   6  269.37   26.60
   2   1   6  250.77   27.20
   2   1   6  246.18   27.40
   2   1   6  253.97   30.10
   2   1   6  279.07   26.10
  -3  -1  -6    1.90    4.40
  -3  -1  -6    7.50    3.40
  -3  -1  -6    1.00    4.10
  -3  -1  -6    6.80    3.50
  -3  -1  -6    9.80    5.40
  -3  -1  -6   14.60    7.50
  -3  -1  -6   12.70    6.40
   3   1   6    2.70    5.80
   3   1   6    5.10    7.50
   3   1   6    2.30    2.80
   3   1   6    0.40    4.40
   3   1   6    0.10    3.70
   3   1   6   -0.50    3.90
   3   1   6    6.00    3.40
   3   1   6    0.60    6.60
  -4  -1  -6   10.90    4.90
  -4  -1  -6    5.60    7.90
  -4  -1  -6    4.00    6.60
  -4  -1  -6    4.70    9.90
  -4  -1  -6   13.90    8.00
  -4  -1  -6   10.10    6.70
  -4  -1  -6    8.10    5.30
  -4  -1  -6    3.20    4.60
   4   1   6   17.70    7.10
   4   1   6    6.40    6.20
   4   1   6    3.80    4.50
   4   1   6   11.70    5.70
   4   1   6    2.70    4.30
   4   1   6   18.60    9.70
  -5  -1  -6    4.50    6.30
  -5  -1  -6   12.80    6.90
  -5  -1  -6    6.30    8.80
  -5  -1  -6   14.60    7.60
  -5  -1  -6   -0.50    8.00
  -5  -1  -6   18.20   15.20
  -5  -1  -6   17.40   11.90
   5   1   6    9.50   13.50
   5   1   6    6.20    6.50
   5   1   6   11.20    8.90
   5   1   6   20.60   10.40
   5   1   6   18.60    7.70
   5   1   6    7.50    9.50
   5   1   6    6.70    5.90
   7  -2  -6    6.00    5.50
   7  -2  -6   11.20    7.80
   7  -2  -6   -8.70    4.70
   7  -2  -6   -5.80    7.40
   7  -2  -6   15.90   10.40
   7  -2  -6    5.00    6.70
  -7   2   6   -1.10    5.20
  -7   2   6    3.60    6.70
  -7   2   6    1.70    5.80
  -7   2   6   -1.20    8.30
  -7   2   6   13.20   11.00
   6  -2  -6   50.79    8.60
   6  -2  -6   41.00    6.10
   6  -2  -6   53.29    9.80
   6  -2  -6   28.90    7.20
   6  -2  -6   36.40    7.10
   6  -2  -6   42.00    6.70
  -6   2   6   30.90    9.20
  -6   2   6   47.00    7.80
  -6   2   6   26.60    5.80
  -6   2   6   32.30    7.40
   5  -2  -6  160.88   15.90
   5  -2  -6  141.79   14.70
   5  -2  -6  144.39   15.50
   5  -2  -6  122.19   14.40
   5  -2  -6  153.88   14.30
   5  -2  -6  161.18   15.90
   5  -2  -6  129.09   15.50
  -5   2   6  108.99   14.80
  -5   2   6  127.49   14.80
  -5   2   6  156.98   14.50
  -5   2   6  120.79   20.10
   4  -2  -6   19.90    3.80
   4  -2  -6   30.60    5.20
   4  -2  -6   36.20    5.60
   4  -2  -6   31.50    4.00
   4  -2  -6   27.30    4.40
   4  -2  -6   25.70    4.60
   4  -2  -6   29.90    5.30
  -4   2   6   28.00    4.80
  -4   2   6   19.80    5.30
  -4   2   6   30.40    5.60
  -4   2   6   21.90    4.70
  -4   2   6   27.20    4.50
  -4   2   6   16.30    8.10
   3  -2  -6  299.37   26.00
   3  -2  -6  299.37   26.30
   3  -2  -6  275.37   26.70
   3  -2  -6  257.37   26.00
   3  -2  -6  280.17   26.60
   3  -2  -6  321.17   26.70
  -3   2   6  274.27   26.20
  -3   2   6  244.98   26.10
  -3   2   6  266.67   26.90
  -3   2   6  246.58   26.70
  -3   2   6  256.47   30.60
  -3   2   6  255.47   26.10
   2  -2  -6   39.20    4.80
   2  -2  -6   46.20    4.70
   2  -2  -6   36.40    4.30
   2  -2  -6   39.00    4.80
   2  -2  -6   38.40    5.20
   2  -2  -6   42.00    5.70
   2  -2  -6   49.90    9.50
  -2   2   6   30.70    4.30
  -2   2   6   23.50    5.20
  -2   2   6   34.30    5.00
  -2   2   6   26.10    4.10
  -2   2   6   40.90    4.60
  -2   2   6   26.80    8.50
  -2   2   6   27.90    4.80
   1  -2  -6  142.89   13.30
   1  -2  -6  111.59   13.00
   1  -2  -6  146.39   17.00
   1  -2  -6  129.39   13.10
   1  -2  -6  120.99   12.90
   1  -2  -6  139.89   14.40
   1  -2  -6  121.99   12.60
   1  -2  -6  115.39   12.50
  -1   2   6  129.29   12.60
  -1   2   6  144.69   13.40
  -1   2   6  113.29   17.20
  -1   2   6  100.79   12.70
  -1   2   6  133.49   12.60
   0  -2  -6   10.00    2.90
   0  -2  -6    8.30    2.70
   0  -2  -6    8.30    1.90
   0  -2  -6    9.80    4.00
   0  -2  -6    2.70    5.50
   0  -2  -6    7.30    2.20
   0  -2  -6    8.10    3.10
   0  -2  -6    9.30    3.00
   0   2   6    8.10    2.10
   0   2   6    7.00    2.40
   0   2   6    5.20    3.90
   0   2   6   14.50    3.40
   0   2   6    7.10    2.10
   0   2   6    4.60    2.80
   0   2   6    9.90    3.00
   0   2   6   12.00    5.90
  -1  -2  -6    3.90    2.00
  -1  -2  -6    3.00    3.40
  -1  -2  -6    3.50    3.40
  -1  -2  -6    4.90    6.10
  -1  -2  -6    0.20    4.80
  -1  -2  -6    2.70    2.60
  -1  -2  -6    1.20    2.10
   1   2   6    2.80    3.60
   1   2   6    2.70    1.80
   1   2   6    2.00    2.60
   1   2   6   -2.50    1.80
   1   2   6    6.70    5.20
   1   2   6    1.50    3.30
   1   2   6    6.40    3.20
   1   2   6    5.60    3.60
  -2  -2  -6  231.68   22.80
  -2  -2  -6  232.68   22.20
  -2  -2  -6  207.38   21.60
  -2  -2  -6  238.08   21.90
  -2  -2  -6  198.58   22.70
  -2  -2  -6  230.78   21.50
  -2  -2  -6  210.98   23.20
   2   2   6  196.68   26.50
   2   2   6  212.68   21.50
   2   2   6  222.58   22.80
   2   2   6  228.08   21.10
   2   2   6  203.78   22.50
   2   2   6  200.68   22.90
   2   2   6  162.58   24.20
   2   2   6  209.68   21.80
  -3  -2  -6   35.50    8.70
  -3  -2  -6   51.59   11.30
  -3  -2  -6   29.00    5.90
  -3  -2  -6   23.30   10.00
  -3  -2  -6   27.70    6.30
   3   2   6   33.70    7.70
   3   2   6   26.40    5.40
   3   2   6   27.40    6.40
   3   2   6   31.50    7.50
   3   2   6   29.50    8.00
   3   2   6   23.30    9.30
  -4  -2  -6  121.49   18.50
  -4  -2  -6   88.19   19.60
  -4  -2  -6   93.29   14.10
  -4  -2  -6  127.49   15.00
  -4  -2  -6  111.89   17.60
  -4  -2  -6  110.09   16.40
  -4  -2  -6  100.79   14.10
   4   2   6  117.49   14.20
   4   2   6  117.99   17.30
   4   2   6  130.29   16.30
   4   2   6  119.39   15.60
   4   2   6   99.89   16.50
   4   2   6   86.79   18.90
   4   2   6  128.09   14.30
  -5  -2  -6   29.90   19.00
  -5  -2  -6   19.60   14.20
  -5  -2  -6   12.40   11.00
  -5  -2  -6   13.70   10.40
  -5  -2  -6   20.10    8.80
  -5  -2  -6   44.50    8.50
  -5  -2  -6   53.29   10.20
   5   2   6   23.10   16.10
   5   2   6   25.10   13.70
   5   2   6   21.10   10.10
   5   2   6   47.30   12.90
   5   2   6   32.60    8.70
   5   2   6   30.10    8.70
   5   2   6   32.20   11.60
   7  -3  -6    7.70    9.40
   7  -3  -6   14.20    6.70
   7  -3  -6   36.90    8.70
   7  -3  -6   13.50    6.90
   7  -3  -6    6.20    6.30
   7  -3  -6    7.60    5.00
  -7   3   6    3.20    6.00
  -7   3   6   18.50    7.30
  -7   3   6    5.60    9.30
  -7   3   6   15.40    9.20
  -7   3   6   22.70    5.20
   6  -3  -6    4.90    5.70
   6  -3  -6    4.10    4.00
   6  -3  -6    7.30    4.80
   6  -3  -6    2.90    4.10
   6  -3  -6   -0.30    5.50
  -6   3   6    5.30    3.40
  -6   3   6   -0.50    4.00
  -6   3   6   -2.80    4.10
  -6   3   6    2.10    4.40
  -6   3   6   -1.10    5.80
   5  -3  -6   22.10    4.90
   5  -3  -6   41.30    5.90
   5  -3  -6   25.10    5.20
   5  -3  -6   22.80    5.70
   5  -3  -6   23.80    4.20
   5  -3  -6   33.30    5.50
   5  -3  -6   25.50    4.40
  -5   3   6   27.10    5.00
  -5   3   6   24.90    4.20
  -5   3   6   15.70    5.40
  -5   3   6   25.90    5.50
   4  -3  -6  186.48   17.50
   4  -3  -6  202.88   18.20
   4  -3  -6  178.08   18.70
   4  -3  -6  168.88   17.60
   4  -3  -6  211.48   18.00
   4  -3  -6  170.18   18.30
  -4   3   6  171.78   25.00
  -4   3   6  167.18   17.80
  -4   3   6  177.38   18.50
   3  -3  -6  184.28   19.90
   3  -3  -6  207.48   20.90
   3  -3  -6  218.28   20.40
   3  -3  -6  210.38   20.80
   3  -3  -6  198.98   20.10
   3  -3  -6  182.28   20.50
   3  -3  -6  220.28   20.40
  -3   3   6  193.38   27.00
  -3   3   6  169.48   20.40
  -3   3   6  191.88   20.70
  -3   3   6  184.38   20.20
   2  -3  -6   15.20    3.00
   2  -3  -6   22.30    4.20
   2  -3  -6   20.00    3.40
   2  -3  -6   16.60    7.80
   2  -3  -6   15.50    3.40
   2  -3  -6   18.70    3.60
   2  -3  -6   16.70    2.90
  -2   3   6   14.20    4.20
  -2   3   6   14.60    8.30
  -2   3   6   17.90    2.30
  -2   3   6   14.80    3.40
  -2   3   6   20.30    3.80
  -2   3   6   18.10    2.30
  -2   3   6   24.10    3.90
  -2   3   6   20.10    3.20
   1  -3  -6  312.27   30.70
   1  -3  -6  309.67   32.10
   1  -3  -6  308.77   31.00
   1  -3  -6  340.97   31.20
   1  -3  -6  287.07   30.30
   1  -3  -6  360.46   36.70
   1  -3  -6  337.57   30.20
   1  -3  -6  278.37   30.90
  -1   3   6  282.67   35.40
  -1   3   6  287.87   30.50
  -1   3   6  348.87   30.30
  -1   3   6  341.77   30.40
  -1   3   6  364.86   31.40
   0  -3  -6   13.40    3.70
   0  -3  -6   13.60    4.20
   0  -3  -6   15.70    4.60
   0  -3  -6   14.60    8.90
   0  -3  -6   12.50    2.50
   0  -3  -6   17.30    3.90
   0  -3  -6   16.40    3.40
   0  -3  -6   11.40    5.80
   0   3   6   15.30    4.00
   0   3   6   20.90    3.80
   0   3   6   16.20    4.20
   0   3   6   14.30    3.20
   0   3   6    2.90    4.80
   0   3   6   17.70    7.80
   0   3   6    9.50    3.80
  -1  -3  -6   40.90    5.60
  -1  -3  -6   48.60    8.30
  -1  -3  -6   50.19    7.10
  -1  -3  -6   36.10    6.30
  -1  -3  -6   40.00    7.70
  -1  -3  -6   64.89   13.80
  -1  -3  -6   44.70    7.40
  -1  -3  -6   32.20    8.80
   1   3   6   47.40    8.00
   1   3   6   32.40    8.80
   1   3   6   51.09    5.70
   1   3   6   56.19    7.70
   1   3   6   44.40   12.40
   1   3   6   45.70    6.30
   1   3   6   46.50    6.50
   1   3   6   49.50    7.60
  -2  -3  -6   99.59   12.60
  -2  -3  -6   94.09   13.20
  -2  -3  -6   79.09   16.30
  -2  -3  -6   93.79   13.80
  -2  -3  -6  116.09   18.50
   2   3   6  101.69   13.70
   2   3   6  105.49   11.70
   2   3   6  101.89   12.70
   2   3   6   88.99   12.00
   2   3   6   84.49   15.70
   2   3   6  104.09   10.70
   2   3   6  100.99   12.90
  -3  -3  -6   37.50    9.00
  -3  -3  -6   43.80    7.90
  -3  -3  -6   44.50    8.20
  -3  -3  -6   44.30    9.80
  -3  -3  -6   28.70    9.40
  -3  -3  -6   60.39   14.30
  -3  -3  -6   38.80    7.50
  -3  -3  -6   30.10   11.60
   3   3   6   41.40    6.80
   3   3   6   29.30   11.50
   3   3   6   55.39    8.40
   3   3   6   34.20    8.80
   3   3   6   25.30    8.90
   3   3   6   39.50    8.00
   3   3   6   47.00    9.50
  -4  -3  -6   45.70   14.80
  -4  -3  -6   44.80   16.80
  -4  -3  -6   49.60    9.50
  -4  -3  -6   21.50    9.70
  -4  -3  -6   47.80   10.70
  -4  -3  -6   36.00    8.90
  -4  -3  -6   35.70   10.30
  -4  -3  -6   18.70   11.50
   4   3   6   26.90   10.70
   4   3   6   38.10    9.80
   4   3   6   46.50    8.60
   4   3   6   36.50   11.20
   4   3   6   39.70    9.60
   4   3   6   45.70    8.30
  -5  -3  -6  168.28   24.40
  -5  -3  -6  102.49   18.00
  -5  -3  -6  134.09   21.10
  -5  -3  -6  178.98   29.20
  -5  -3  -6  147.09   23.60
   5   3   6  126.89   19.10
   5   3   6  141.19   21.80
   5   3   6  101.99   26.20
   5   3   6  118.89   21.70
   5   3   6  122.59   18.30
   5   3   6  155.08   24.70
   6  -4  -6   36.50    7.20
   6  -4  -6   32.90    4.40
   6  -4  -6   39.20    6.10
   6  -4  -6   32.70    5.20
   6  -4  -6   38.40    6.10
   6  -4  -6   42.00    7.40
  -6   4   6   22.10    4.50
  -6   4   6   33.80    7.10
  -6   4   6   29.10    4.70
   5  -4  -6    7.10    3.40
   5  -4  -6    5.40    3.00
   5  -4  -6   14.80    9.30
   5  -4  -6    9.50    2.10
   5  -4  -6   17.20    3.20
   5  -4  -6   17.00    4.70
   5  -4  -6    6.50    2.50
   5  -4  -6    8.40    2.30
  -5   4   6   12.30    2.50
  -5   4   6    3.60    3.70
  -5   4   6    6.50    2.50
   4  -4  -6  117.29   11.50
   4  -4  -6  132.49   13.20
   4  -4  -6  120.19   12.20
   4  -4  -6  116.79   11.60
   4  -4  -6  136.69   12.20
   4  -4  -6  127.39   12.10
  -4   4   6  104.29   12.10
  -4   4   6  108.29   11.60
  -4   4   6  123.79   13.00
  -4   4   6  101.89   11.70
   3  -4  -6   29.80    3.80
   3  -4  -6   29.70    4.70
   3  -4  -6   37.20    4.90
   3  -4  -6   31.20   10.70
   3  -4  -6   25.40    4.50
   3  -4  -6   32.50    4.30
  -3   4   6   16.30    4.50
  -3   4   6   33.40    5.50
  -3   4   6   21.60    4.10
  -3   4   6   21.30    4.00
  -3   4   6   27.90   11.70
  -3   4   6   30.00    4.70
   2  -4  -6    7.00    2.50
   2  -4  -6    3.90    2.50
   2  -4  -6    7.20    3.40
   2  -4  -6    8.50    2.10
   2  -4  -6    9.80    2.60
   2  -4  -6    4.80    6.30
   2  -4  -6    8.20    3.00
  -2   4   6    7.20    2.40
  -2   4   6    7.00    8.80
  -2   4   6    2.40    3.40
  -2   4   6    7.80    3.30
  -2   4   6    9.50    2.10
  -2   4   6    5.10    2.70
   1  -4  -6   30.00    5.40
   1  -4  -6   23.20    6.20
   1  -4  -6   26.20    4.90
   1  -4  -6   19.80    3.70
   1  -4  -6   27.00    5.20
   1  -4  -6   26.50    4.40
   1  -4  -6   27.70    9.30
   1  -4  -6   27.10    3.30
  -1   4   6   28.30    3.80
  -1   4   6   21.30    9.20
  -1   4   6   22.70    3.90
  -1   4   6   22.30    3.80
  -1   4   6   15.20    5.40
  -1   4   6   16.10    4.40
   0  -4  -6    4.00    4.80
   0  -4  -6    0.70    2.20
   0  -4  -6   -1.20    7.40
   0  -4  -6    2.00    3.80
   0  -4  -6   -3.30    2.70
   0  -4  -6   -1.60    3.60
   0  -4  -6   -1.40    1.20
   0  -4  -6    1.60    2.90
   0   4   6    0.40    3.00
   0   4   6   -3.00    2.00
   0   4   6    0.00    2.30
   0   4   6    8.30    7.80
   0   4   6   -1.80    3.40
   0   4   6   -3.20    3.00
   0   4   6   -6.10    4.00
  -1  -4  -6   84.59   11.70
  -1  -4  -6   68.99   15.70
  -1  -4  -6   59.69   12.70
  -1  -4  -6   67.39    9.40
  -1  -4  -6   74.09   10.90
   1   4   6   60.89   10.40
   1   4   6   71.49    7.60
   1   4   6   85.69   11.00
   1   4   6   72.49    8.90
   1   4   6   74.79   10.20
   1   4   6   54.89    8.60
   1   4   6   49.40   11.50
  -2  -4  -6   95.29   14.50
  -2  -4  -6   90.39   14.90
  -2  -4  -6   88.79   17.70
  -2  -4  -6  123.89   21.60
  -2  -4  -6  114.79   12.90
  -2  -4  -6   90.89   12.80
  -2  -4  -6  117.89   14.70
  -2  -4  -6   96.19   12.60
   2   4   6   85.79   13.40
   2   4   6   86.09   17.30
   2   4   6  105.39   13.90
   2   4   6   89.99   14.30
   2   4   6  106.99   14.80
   2   4   6  106.39   12.60
   2   4   6  108.39   11.00
  -3  -4  -6  106.69   18.40
  -3  -4  -6  118.49   15.70
  -3  -4  -6  155.78   26.10
  -3  -4  -6  141.59   15.80
  -3  -4  -6  107.49   17.90
  -3  -4  -6  117.09   15.40
  -3  -4  -6  105.99   16.90
  -3  -4  -6   95.89   21.70
   3   4   6  132.09   18.00
   3   4   6  115.39   17.50
   3   4   6  128.69   13.90
   3   4   6  118.19   17.70
   3   4   6  135.89   22.30
   3   4   6  124.09   16.20
   3   4   6  121.89   15.20
  -4  -4  -6   47.20   10.40
  -4  -4  -6   66.19   13.90
  -4  -4  -6   39.20   13.80
  -4  -4  -6   64.89   11.20
  -4  -4  -6   65.69   13.10
  -4  -4  -6   71.29   12.00
  -4  -4  -6   39.60   20.20
   4   4   6   64.59   14.20
   4   4   6   42.00   13.10
   4   4   6   41.30   17.40
   4   4   6   38.80   11.20
   4   4   6   51.79   10.50
   4   4   6   64.09   13.60
   4   4   6   55.89    9.50
   6  -5  -6    6.90    5.40
   6  -5  -6    7.80    7.60
   6  -5  -6   -1.80    4.00
   6  -5  -6    4.80    3.30
   6  -5  -6   -3.10   10.20
  -6   5   6    2.50    4.50
   5  -5  -6   62.39   14.10
   5  -5  -6   38.40    7.20
   5  -5  -6   31.30    5.20
   5  -5  -6   38.30    5.70
  -5   5   6   30.80    7.00
   4  -5  -6   51.29   14.00
   4  -5  -6   34.10    3.90
   4  -5  -6   42.20    4.80
   4  -5  -6   41.50    5.20
   4  -5  -6   29.10    3.90
   4  -5  -6   28.90    4.70
   4  -5  -6   46.60    5.40
  -4   5   6   30.90    6.40
   3  -5  -6   60.29    7.40
   3  -5  -6   66.39    6.20
   3  -5  -6   46.00    6.10
   3  -5  -6   60.89    7.20
   3  -5  -6   62.49    6.70
   3  -5  -6   80.09   16.70
   3  -5  -6   43.80    6.80
  -3   5   6   46.10    8.00
  -3   5   6   41.40    7.40
  -3   5   6   56.49    5.90
  -3   5   6   39.10    6.60
  -3   5   6   58.09    6.50
   2  -5  -6   42.90    5.90
   2  -5  -6   52.99    7.10
   2  -5  -6   38.00    6.90
   2  -5  -6   59.99    7.70
   2  -5  -6   51.49    5.70
   2  -5  -6   50.29   14.20
   2  -5  -6   65.19    9.20
   2  -5  -6   43.90    6.50
  -2   5   6   39.40    7.00
  -2   5   6   50.79    5.80
  -2   5   6   34.00    7.40
  -2   5   6   40.80    6.60
  -2   5   6   62.09    6.70
   1  -5  -6   48.60    8.40
   1  -5  -6   53.09    5.50
   1  -5  -6   55.39   10.80
   1  -5  -6   51.79   16.50
   1  -5  -6   51.69    8.50
   1  -5  -6   55.49    7.50
   1  -5  -6   55.79    6.90
  -1   5   6   51.09    6.60
  -1   5   6   56.19    6.70
  -1   5   6   47.00    9.60
  -1   5   6   60.99    6.30
  -1   5   6   54.59    7.60
  -1   5   6   46.20    8.30
   0  -5  -6   10.90    9.50
   0  -5  -6    9.20    4.80
   0  -5  -6   -2.20    3.30
   0  -5  -6   -1.90    4.60
   0  -5  -6   11.50    7.00
   0   5   6    2.90    2.80
   0   5   6    7.00    4.10
   0   5   6    5.70    2.90
   0   5   6    2.80    4.00
  -1  -5  -6   71.59   12.20
  -1  -5  -6   96.29   25.00
  -1  -5  -6   74.39   16.30
  -1  -5  -6   71.49   10.80
  -1  -5  -6   88.59   13.50
  -1  -5  -6   86.39   11.50
   1   5   6   91.49   10.80
   1   5   6   96.59   11.00
   1   5   6   64.29   12.20
   1   5   6   89.89   12.20
   1   5   6   76.89   12.40
   1   5   6   87.09    8.80
  -2  -5  -6   47.10    8.30
  -2  -5  -6   45.50   10.20
  -2  -5  -6   49.10   14.90
  -2  -5  -6   39.00    9.60
  -2  -5  -6   49.10    8.50
  -2  -5  -6   52.09    9.10
  -2  -5  -6   58.69   17.30
   2   5   6   38.50    9.40
   2   5   6   52.39   10.50
   2   5   6   47.10    8.30
   2   5   6   43.20    6.30
   2   5   6   45.10   10.00
   2   5   6   38.00    8.10
   2   5   6   44.10   12.40
  -3  -5  -6   12.90   15.50
  -3  -5  -6   14.60    7.10
  -3  -5  -6    4.50    9.50
  -3  -5  -6    5.30    9.00
  -3  -5  -6   26.70   16.80
  -3  -5  -6   -0.50    6.40
  -3  -5  -6   22.30    7.20
   3   5   6    3.30    8.50
   3   5   6    7.20    4.50
   3   5   6   -2.40    9.30
   3   5   6    9.00    9.40
   3   5   6   22.50    8.00
   3   5   6    9.10   12.30
   3   5   6   14.20    6.20
  -4  -5  -6  226.18   27.40
  -4  -5  -6  174.68   36.20
  -4  -5  -6  180.08   29.80
  -4  -5  -6  299.37   43.60
  -4  -5  -6  269.37   36.50
  -4  -5  -6  214.58   30.70
   4   5   6  230.78   28.70
   4   5   6  256.77   38.60
   4   5   6  261.37   25.60
   4   5   6  221.18   31.20
   4   5   6  232.08   32.20
   4   5   6  202.28   26.90
   6  -6  -6   16.80    8.70
   6  -6  -6   41.70   15.20
   6  -6  -6   16.40    6.70
   6  -6  -6   11.60    3.70
   6  -6  -6   12.50    4.10
   5  -6  -6   40.80    6.00
   5  -6  -6   40.00   15.00
   5  -6  -6   43.80   10.20
   5  -6  -6   45.40    7.70
  -5   6   6   36.10    7.90
   4  -6  -6  105.89   11.20
   4  -6  -6  133.99   29.30
   4  -6  -6  102.49   12.50
   4  -6  -6  115.39   11.70
  -4   6   6   95.59   12.70
   3  -6  -6  119.09   10.50
   3  -6  -6   94.39   10.50
   3  -6  -6  104.29   14.90
   3  -6  -6   99.29   11.90
   3  -6  -6   98.99   11.00
  -3   6   6  100.49   10.10
  -3   6   6   83.99   11.80
  -3   6   6   78.49   10.60
  -3   6   6  108.39   10.50
   2  -6  -6  116.79   15.30
   2  -6  -6  122.39   11.20
   2  -6  -6  117.29   13.30
   2  -6  -6  106.59   12.70
   2  -6  -6  106.49   24.40
   2  -6  -6  114.09   13.80
   2  -6  -6  110.69   12.30
  -2   6   6   97.79   12.90
  -2   6   6  123.29   12.00
  -2   6   6  131.79   12.70
  -2   6   6  105.19   14.30
   1  -6  -6   33.40    7.50
   1  -6  -6   36.50    9.20
   1  -6  -6   32.00    7.00
   1  -6  -6   32.80    5.90
   1  -6  -6   48.40    7.80
   1  -6  -6   54.39   15.70
   1  -6  -6   27.80    5.20
  -1   6   6   28.20    7.70
  -1   6   6   24.60    4.40
  -1   6   6   34.10    6.00
  -1   6   6   31.60    4.20
  -1   6   6   30.70    7.70
  -1   6   6   22.90    4.60
   0  -6  -6   40.30    9.50
   0  -6  -6   46.50    7.90
   0  -6  -6   38.40    8.10
   0  -6  -6   49.90    9.90
   0  -6  -6   43.10   18.00
   0  -6  -6   49.90    9.30
   0  -6  -6   33.60   11.60
   0   6   6   49.90    7.60
   0   6   6   52.89    9.30
   0   6   6   46.10    8.70
   0   6   6   56.79    8.80
   0   6   6   36.60    9.80
   0   6   6   42.80    7.20
  -1  -6  -6  264.07   26.50
  -1  -6  -6  240.48   37.80
  -1  -6  -6  195.68   32.00
  -1  -6  -6  255.27   26.70
  -1  -6  -6  252.17   26.50
  -1  -6  -6  244.28   28.00
  -1  -6  -6  289.07   28.90
  -1  -6  -6  282.97   29.20
   1   6   6  310.77   29.40
   1   6   6  187.58   29.90
   1   6   6  230.38   25.80
   1   6   6  255.97   28.20
   1   6   6  256.97   26.10
   1   6   6  268.07   27.90
  -2  -6  -6  113.39   18.50
  -2  -6  -6   88.59   15.40
  -2  -6  -6   81.79   15.70
  -2  -6  -6   99.19   13.90
  -2  -6  -6  109.29   26.30
  -2  -6  -6   93.39   14.60
  -2  -6  -6  108.89   14.40
  -2  -6  -6   91.99   20.40
   2   6   6   83.09   13.80
   2   6   6   79.29   15.00
   2   6   6   89.99   10.20
   2   6   6   92.69   16.30
   2   6   6   72.79   12.70
   2   6   6  127.49   16.80
   2   6   6   88.59   18.50
  -3  -6  -6   23.80    8.70
  -3  -6  -6   33.40   11.70
  -3  -6  -6    2.50    8.30
  -3  -6  -6   15.20    8.60
  -3  -6  -6    0.30   21.10
  -3  -6  -6   -3.90   10.30
  -3  -6  -6   -4.90   18.20
  -3  -6  -6   -5.80   11.70
   3   6   6   -0.10    4.80
   3   6   6   14.70   16.40
   3   6   6    0.00   10.90
   3   6   6   19.80   11.40
   3   6   6    5.30    7.90
   3   6   6    7.80   11.90
   3   6   6    3.40    8.70
   5  -7  -6   21.80    6.40
   5  -7  -6   27.70    4.20
   5  -7  -6   22.80    4.10
   5  -7  -6   26.40    7.30
   5  -7  -6   19.30   17.70
  -5   7   6   16.40    6.40
   4  -7  -6   15.30    4.60
   4  -7  -6   20.30    4.10
   4  -7  -6   16.50    5.60
   4  -7  -6   23.90    4.80
   4  -7  -6   10.90   17.10
  -4   7   6   17.20    6.00
   3  -7  -6  283.97   29.70
   3  -7  -6  295.17   29.00
   3  -7  -6  369.66   45.80
   3  -7  -6  324.67   29.10
   3  -7  -6  327.27   30.90
   3  -7  -6  352.66   29.20
   3  -7  -6  287.87   30.00
   3  -7  -6  298.97   29.10
  -3   7   6  317.47   28.80
  -3   7   6  273.27   29.00
  -3   7   6  268.77   30.70
  -3   7   6  317.27   28.80
   2  -7  -6    7.40    4.90
   2  -7  -6    0.30    3.90
   2  -7  -6    6.00    6.50
   2  -7  -6    1.90   16.70
   2  -7  -6    3.50    4.50
   2  -7  -6    8.60    5.70
   2  -7  -6    5.60    3.00
  -2   7   6    1.90    5.50
  -2   7   6    5.90    4.60
  -2   7   6    4.70    2.80
  -2   7   6    7.50    3.40
   1  -7  -6    8.10    6.10
   1  -7  -6   19.40    4.90
   1  -7  -6   12.60    7.10
   1  -7  -6   25.00   17.60
   1  -7  -6    5.00    8.30
   1  -7  -6   20.50    7.40
  -1   7   6   14.80    4.00
  -1   7   6   15.10    6.50
  -1   7   6    4.40    7.60
  -1   7   6   20.90    5.30
   0  -7  -6   11.80   18.30
   0  -7  -6   18.40   11.90
   0  -7  -6   21.30    7.20
   0  -7  -6   20.60    5.80
   0  -7  -6   23.10    9.10
   0  -7  -6   39.50    7.50
   0  -7  -6   22.50    8.40
   0   7   6   23.80    6.00
   0   7   6   16.90    9.40
   0   7   6   20.70    6.90
   0   7   6   23.60    8.00
   0   7   6   29.00    5.80
   0   7   6   26.30    5.20
  -1  -7  -6   30.00   14.10
  -1  -7  -6    5.90    8.30
  -1  -7  -6   16.70    6.20
  -1  -7  -6   14.50   18.50
  -1  -7  -6   17.50    7.10
  -1  -7  -6   18.30    9.20
  -1  -7  -6  -10.10    8.70
  -1  -7  -6    2.90   10.50
   1   7   6   -1.00    7.50
   1   7   6    9.40    6.10
   1   7   6   11.60    8.20
   1   7   6   16.80   11.00
   1   7   6   12.40    7.50
   1   7   6   11.20    6.60
  -2  -7  -6   59.39   26.90
  -2  -7  -6   55.49   13.80
  -2  -7  -6   57.29   11.60
  -2  -7  -6   47.50   14.90
  -2  -7  -6   77.59   12.00
  -2  -7  -6   83.99   15.10
  -2  -7  -6   45.10   11.30
  -2  -7  -6   77.29   21.30
   2   7   6   54.69   11.10
   2   7   6   58.59   13.80
   2   7   6   54.69   14.80
   2   7   6   97.59   19.00
   2   7   6   63.49   11.80
   5  -8  -6   56.99   22.90
   5  -8  -6    4.10    6.70
   5  -8  -6   11.70    4.30
   5  -8  -6   20.70    6.10
   5  -8  -6   15.30    4.30
  -5   8   6   13.20    7.70
   4  -8  -6   22.60   21.90
   4  -8  -6    6.10    3.40
   4  -8  -6    6.20    4.20
   4  -8  -6    2.70    5.20
   4  -8  -6   11.60    5.90
  -4   8   6    1.90    5.20
   3  -8  -6   28.10    7.50
   3  -8  -6    4.20   22.10
   3  -8  -6   28.80    4.50
   3  -8  -6   33.80    6.30
   3  -8  -6   26.70    5.70
   3  -8  -6   23.00    3.90
   3  -8  -6   26.70    5.60
  -3   8   6   20.20    3.70
  -3   8   6   25.30    3.90
   2  -8  -6   70.59   11.20
   2  -8  -6   59.09   11.00
   2  -8  -6   51.79    8.10
   2  -8  -6   43.30   10.70
   2  -8  -6   52.79    9.50
   2  -8  -6   53.09   24.00
  -2   8   6   27.40   10.80
  -2   8   6   39.50    8.10
  -2   8   6   65.19    9.00
  -2   8   6   56.39    8.00
   1  -8  -6    8.10    8.20
   1  -8  -6   27.90   20.10
   1  -8  -6    6.40   10.70
   1  -8  -6    5.50    5.80
   1  -8  -6   17.30    8.20
   1  -8  -6    0.50    4.70
   1  -8  -6   12.20    6.70
  -1   8   6   -4.00    8.30
  -1   8   6    0.80    4.10
  -1   8   6    0.50    6.60
  -1   8   6    3.50    5.60
   0  -8  -6   71.69   11.90
   0  -8  -6   60.49   17.80
   0  -8  -6   84.79   14.40
   0  -8  -6   62.79   12.10
   0  -8  -6   73.79   13.60
   0  -8  -6   49.99   22.80
   0   8   6   68.69   11.80
   0   8   6   87.09   14.30
   0   8   6   57.99   16.40
   0   8   6   61.69    9.60
   0   8   6   63.59   12.70
  -1  -8  -6   94.09   29.40
  -1  -8  -6   61.19   12.70
  -1  -8  -6   76.89   21.40
  -1  -8  -6  103.49   16.40
  -1  -8  -6   67.39   15.70
  -1  -8  -6   61.09   13.90
  -1  -8  -6   79.29   12.90
  -1  -8  -6   94.79   14.80
   1   8   6   83.09   18.00
   1   8   6   46.80   12.00
   1   8   6   59.09   13.80
   1   8   6   82.09   14.50
   1   8   6   85.39   13.40
   1   8   6   57.69   14.60
   3  -9  -6    7.70   29.20
   3  -9  -6   56.89   11.60
   3  -9  -6   57.19    9.60
   3  -9  -6   58.59    8.10
   3  -9  -6   66.59   11.40
  -3   9   6   53.29    6.20
   2  -9  -6   73.49   11.70
   2  -9  -6   77.79   13.00
   2  -9  -6   66.79   13.90
   2  -9  -6   57.09   14.20
   2  -9  -6   75.29   14.10
   2  -9  -6   74.19   10.40
   2  -9  -6   47.00   30.10
  -2   9   6   60.09   10.50
  -2   9   6   83.69   12.60
  -2   9   6   62.19   11.80
  -2   9   6   95.29   11.70
   1  -9  -6   -3.30    8.40
   1  -9  -6   11.00    6.10
   1  -9  -6   28.10   11.30
   1  -9  -6   31.90   13.70
   1  -9  -6   22.10    9.80
   1  -9  -6   50.49   27.00
  -1   9   6   -5.80   11.40
  -1   9   6   -1.80    6.80
  -1   9   6   13.10    5.90
  -1   9   6    2.20    8.10
   0  -9  -6    3.20    7.40
   0  -9  -6  -17.30   11.50
   0  -9  -6   13.70    9.10
   0  -9  -6   17.00    9.20
   0  -9  -6  -45.00   29.70
   0   9   6   -3.30    4.60
   0   9   6    8.20    8.00
   0  10  -7  124.39   16.40
   0  10  -7  137.49   16.00
   0  10  -7  105.29   19.50
   0  10  -7  106.89   19.30
   0  10  -7  160.28   18.20
   0 -10   7  129.29   22.70
   0 -10   7  114.29   18.60
   0 -10   7  126.69   13.20
   0 -10   7  135.69   19.40
   0 -10   7  103.09   17.20
   0 -10   7  171.68   17.70
  -1  10  -7    6.60    8.70
  -1  10  -7    4.80    6.50
  -1  10  -7    3.90   11.50
  -1  10  -7    4.60    6.30
  -1  10  -7   -0.70    7.40
   1 -10   7   -1.90    7.90
   1 -10   7    5.40    5.90
   1 -10   7   -3.60    5.80
   1 -10   7    5.20    6.80
  -2  10  -7  109.39   20.20
  -2  10  -7   78.99   12.50
  -2  10  -7   65.99    9.40
  -2  10  -7   55.99   10.30
  -2  10  -7   53.69   11.60
   2 -10   7   97.39   14.00
   2 -10   7   43.30   12.20
   2 -10   7   59.39    9.50
   2 -10   7   50.49    9.60
   2 -10   7   50.49   11.40
   2   9  -7  168.48   26.10
   2   9  -7  126.19   25.00
   2   9  -7  178.28   20.50
   2   9  -7  121.09   19.90
   2   9  -7  151.68   18.10
   2   9  -7  121.09   20.80
  -2  -9   7  110.29   19.50
  -2  -9   7  162.48   18.80
  -2  -9   7  115.29   18.40
  -2  -9   7  150.58   15.80
  -2  -9   7  132.99   21.70
  -2  -9   7   91.59   22.50
   1   9  -7  415.36   36.90
   1   9  -7  306.67   36.00
   1   9  -7  331.37   37.20
   1   9  -7  333.27   39.40
  -1  -9   7  373.66   36.20
  -1  -9   7  341.67   34.00
  -1  -9   7  422.16   36.50
  -1  -9   7  317.27   37.30
  -1  -9   7  426.26   38.80
  -1  -9   7  265.87   40.10
   0   9  -7  190.28   18.10
   0   9  -7  155.68   19.20
   0   9  -7  169.08   17.60
   0   9  -7  142.49   21.70
   0   9  -7  182.78   18.90
   0   9  -7  157.78   18.00
   0  -9   7  146.09   15.50
   0  -9   7  128.29   21.80
   0  -9   7  191.38   20.70
   0  -9   7  163.58   18.10
   0  -9   7  125.69   18.60
   0  -9   7  150.08   20.00
  -1   9  -7   20.90    6.80
  -1   9  -7   27.80    6.30
  -1   9  -7   16.30    6.80
  -1   9  -7    8.30    3.50
  -1   9  -7   12.50    7.80
  -1   9  -7    9.90    3.60
  -1   9  -7   12.80   10.30
   1  -9   7   18.80    7.60
   1  -9   7   29.80    5.90
   1  -9   7   19.00    5.40
   1  -9   7   15.80    6.00
   1  -9   7   13.10    8.00
   1  -9   7   30.80    7.70
  -2   9  -7   47.70    7.20
  -2   9  -7   55.19    9.90
  -2   9  -7   40.80    7.80
  -2   9  -7   38.70    7.40
  -2   9  -7   37.70    8.70
   2  -9   7   29.10    7.20
   2  -9   7   19.50    7.50
   2  -9   7   46.00    8.90
   2  -9   7   19.70    7.60
   2  -9   7   39.90    7.40
   2  -9   7   35.40    9.50
   2  -9   7   41.60    7.00
  -3   9  -7   -1.70    7.20
  -3   9  -7    5.30    4.70
  -3   9  -7    1.50    6.10
  -3   9  -7    9.10    4.50
   3  -9   7   -0.20    7.30
   3  -9   7    6.00    6.80
   3  -9   7    8.00    5.80
   3  -9   7   -3.30    6.10
   3  -9   7   21.60    5.60
   3  -9   7   -3.80    5.20
   3  -9   7    7.40    4.90
  -4   9  -7   36.60   10.00
  -4   9  -7   33.70    6.00
  -4   9  -7   23.20    6.60
   4  -9   7   35.40    7.90
   4  -9   7   17.30    6.20
   4  -9   7   39.10    9.00
   4  -9   7   28.20    7.40
   4  -9   7   30.80    8.50
   3   8  -7   62.19   13.30
   3   8  -7   61.09   11.60
   3   8  -7   61.39   12.60
   3   8  -7   57.79   16.90
   3   8  -7   78.39   13.60
   3   8  -7   72.79   16.70
   3   8  -7   88.59   14.20
  -3  -8   7   44.40   17.90
  -3  -8   7   88.09   11.70
  -3  -8   7   65.79   14.70
  -3  -8   7   58.79   14.00
  -3  -8   7   77.79   12.00
  -3  -8   7   44.10   13.50
  -3  -8   7   62.59   11.60
   2   8  -7   33.90    8.40
   2   8  -7   27.60    9.20
   2   8  -7   27.10   11.00
   2   8  -7   47.30    9.60
   2   8  -7   52.89    9.30
   2   8  -7   35.40    8.90
  -2  -8   7   55.29   10.60
  -2  -8   7   50.79    9.00
  -2  -8   7   44.50   14.10
  -2  -8   7   42.60    9.70
  -2  -8   7   40.30    6.80
  -2  -8   7   34.60   10.00
  -2  -8   7   43.10    8.70
   1   8  -7    1.90    7.80
   1   8  -7   -8.30    5.30
   1   8  -7    3.80    4.80
   1   8  -7    2.90    5.10
   1   8  -7    3.80    5.70
   1   8  -7    3.40    7.20
  -1  -8   7    3.10    4.50
  -1  -8   7   13.70    5.10
  -1  -8   7    7.40    3.00
  -1  -8   7   10.00    6.10
  -1  -8   7   -1.10    6.30
  -1  -8   7    5.70    6.60
  -1  -8   7    3.90    8.20
   0   8  -7   13.50    5.00
   0   8  -7   22.40    7.10
   0   8  -7   11.20    4.70
   0   8  -7   17.10    5.40
   0   8  -7   16.70    4.50
   0   8  -7   13.50    5.50
   0   8  -7   18.20    7.40
   0  -8   7    8.80    2.40
   0  -8   7   10.20    5.30
   0  -8   7   15.90    5.80
   0  -8   7   14.50    6.30
   0  -8   7   13.60    7.90
   0  -8   7   24.40    5.20
   0  -8   7   15.90    4.80
  -1   8  -7   10.40    4.30
  -1   8  -7    8.80    3.60
  -1   8  -7   22.30    6.30
  -1   8  -7    7.60    4.40
  -1   8  -7   12.40    3.60
  -1   8  -7   10.90    4.50
   1  -8   7   13.70    4.40
   1  -8   7   -1.30    4.30
   1  -8   7    8.30    5.40
   1  -8   7    9.90    4.30
   1  -8   7    4.30    6.30
   1  -8   7   10.20    5.70
  -2   8  -7   13.00    5.00
  -2   8  -7    3.40    3.80
  -2   8  -7    4.10    4.80
  -2   8  -7   10.60    5.50
  -2   8  -7   13.20    4.20
  -2   8  -7    1.20    5.50
   2  -8   7    7.30    6.20
   2  -8   7    1.20    4.30
   2  -8   7    0.60    5.60
   2  -8   7    3.50    3.90
   2  -8   7   10.90    6.10
  -3   8  -7  328.07   31.60
  -3   8  -7  313.27   29.60
  -3   8  -7  307.27   31.10
  -3   8  -7  278.77   31.20
  -3   8  -7  320.17   30.80
   3  -8   7  271.57   30.00
   3  -8   7  279.57   29.60
   3  -8   7  270.07   31.00
   3  -8   7  330.37   31.00
   3  -8   7  349.57   30.20
   3  -8   7  271.27   31.00
  -4   8  -7   88.89   13.70
  -4   8  -7   77.39   10.50
  -4   8  -7   89.79   13.50
  -4   8  -7   69.69   12.00
  -4   8  -7   75.09   13.10
  -4   8  -7   72.09   12.40
   4  -8   7   66.69   13.00
   4  -8   7   83.89   12.00
   4  -8   7   75.59   10.40
   4  -8   7  123.19   24.60
   4  -8   7   68.19   12.50
   4  -8   7   68.09   11.90
   4  -8   7   89.19   11.90
   4  -8   7   66.99   12.20
   4   7  -7   13.00   13.10
   4   7  -7   19.40   10.70
   4   7  -7   -5.90    8.40
   4   7  -7   -6.90    8.70
   4   7  -7   -6.80    8.60
   4   7  -7   17.30   10.60
  -4  -7   7    0.00   16.60
  -4  -7   7   -3.10   10.30
  -4  -7   7  -12.70   10.40
  -4  -7   7    7.20   10.90
  -4  -7   7    6.90    6.70
  -4  -7   7   12.80    7.60
  -4  -7   7   -8.00    7.40
   3   7  -7  704.33   59.59
   3   7  -7  587.84   57.79
   3   7  -7  579.24   58.49
   3   7  -7  665.33   58.49
   3   7  -7  708.93   62.89
   3   7  -7  548.65   58.49
   3   7  -7  525.85   60.99
  -3  -7   7  662.13   61.09
  -3  -7   7  640.74   58.19
  -3  -7   7  490.05   58.89
  -3  -7   7  601.54   57.69
  -3  -7   7  484.35   58.69
  -3  -7   7  593.94   56.79
   2   7  -7  315.07   33.50
   2   7  -7  289.37   36.30
   2   7  -7  400.36   35.10
   2   7  -7  325.87   34.20
   2   7  -7  378.86   37.40
   2   7  -7  372.56   35.00
  -2  -7   7  261.37   34.80
  -2  -7   7  330.97   32.80
  -2  -7   7  364.56   34.30
  -2  -7   7  370.66   36.10
  -2  -7   7  340.27   33.90
   1   7  -7  172.68   19.20
   1   7  -7  199.58   19.60
   1   7  -7  169.98   21.80
   1   7  -7  149.09   19.20
   1   7  -7  197.38   19.10
   1   7  -7  222.38   20.10
   1   7  -7  206.38   21.70
  -1  -7   7  163.78   18.80
  -1  -7   7  150.08   19.60
  -1  -7   7  188.98   19.00
  -1  -7   7  179.48   17.60
  -1  -7   7  201.18   20.90
  -1  -7   7  139.99   21.90
  -1  -7   7  149.39   20.00
   0   7  -7  515.25   48.00
   0   7  -7  465.85   48.00
   0   7  -7  549.85   48.20
   0   7  -7  517.35   48.60
   0   7  -7  484.75   49.90
   0  -7   7  537.05   48.20
   0  -7   7  490.85   46.70
   0  -7   7  612.84   50.09
   0  -7   7  445.86   49.90
   0  -7   7  554.84   48.40
   0  -7   7  423.76   50.19
   0  -7   7  438.86   48.50
  -1   7  -7   37.20    8.30
  -1   7  -7   45.70    6.50
  -1   7  -7   35.20    6.20
  -1   7  -7   31.00    6.20
  -1   7  -7   46.20    7.90
  -1   7  -7   36.60    5.90
  -1   7  -7   34.30    6.40
   1  -7   7   44.30    6.60
   1  -7   7   37.60    7.00
   1  -7   7   29.20    7.40
   1  -7   7   29.00    6.40
   1  -7   7   39.40    6.50
   1  -7   7   27.40    6.10
   1  -7   7   47.60    8.50
  -2   7  -7    7.10    4.30
  -2   7  -7    8.50    4.60
  -2   7  -7    2.80    3.40
  -2   7  -7    3.60    2.00
  -2   7  -7   10.20    4.80
  -2   7  -7    9.00    3.40
   2  -7   7   10.40    4.00
   2  -7   7    5.80    4.00
   2  -7   7    9.10    3.60
   2  -7   7   11.90    4.40
   2  -7   7    1.10    4.40
   2  -7   7    4.60    5.70
  -3   7  -7   40.10    6.30
  -3   7  -7   25.90    7.00
  -3   7  -7   37.40    7.60
  -3   7  -7   44.50    8.40
  -3   7  -7   47.70    7.00
  -3   7  -7   47.70    8.40
   3  -7   7   34.20    7.40
   3  -7   7   41.50    6.90
   3  -7   7   31.90    5.90
   3  -7   7   24.90    7.90
   3  -7   7   34.10    6.80
   3  -7   7   26.40    6.80
   3  -7   7   44.80    7.40
  -4   7  -7    8.80    4.40
  -4   7  -7    8.10    8.10
  -4   7  -7    8.40    4.40
  -4   7  -7    6.10    5.20
  -4   7  -7    9.20    5.10
  -4   7  -7   15.40    5.60
   4  -7   7    5.20    4.90
   4  -7   7    7.50    5.30
   4  -7   7   11.80    3.90
   4  -7   7   -9.30   14.30
   4  -7   7    5.90    5.50
   4  -7   7   -3.20    5.60
   4  -7   7   14.70    8.40
  -5   7  -7  146.19   16.90
  -5   7  -7  113.79   15.80
  -5   7  -7  151.58   16.60
  -5   7  -7  142.19   20.00
   5  -7   7  110.09   16.70
   5  -7   7   87.39   17.60
   5  -7   7  120.59   13.80
   5  -7   7   98.19   15.50
   5  -7   7  139.59   16.10
   5  -7   7   98.69   16.20
   5  -7   7  107.79   15.80
   5   6  -7    7.10   11.00
   5   6  -7   -5.90   12.60
  -5  -6   7   -9.50   12.90
  -5  -6   7   -1.40   12.00
   4   6  -7  217.88   23.70
   4   6  -7  243.88   29.30
   4   6  -7  201.28   23.50
   4   6  -7  164.48   26.80
   4   6  -7  166.18   22.50
   4   6  -7  205.78   22.10
   4   6  -7  239.58   24.90
  -4  -6   7  192.38   24.60
  -4  -6   7  148.99   24.00
  -4  -6   7  165.18   24.10
  -4  -6   7  195.48   22.20
  -4  -6   7  196.68   21.90
  -4  -6   7  199.98   23.40
  -4  -6   7  153.98   29.50
   3   6  -7   55.39   12.90
   3   6  -7   78.29   11.70
   3   6  -7   67.59   11.40
   3   6  -7   56.29   10.10
   3   6  -7   64.49   11.10
   3   6  -7   55.59    9.40
   3   6  -7   52.69   12.10
  -3  -6   7   65.19   12.50
  -3  -6   7   50.69   10.80
  -3  -6   7   53.19   11.10
  -3  -6   7   40.90   13.50
  -3  -6   7   75.79   10.40
  -3  -6   7   64.39    9.70
  -3  -6   7   75.99    8.80
   2   6  -7   24.40    6.00
   2   6  -7   21.80    5.90
   2   6  -7   32.80    6.50
   2   6  -7   20.40    4.90
   2   6  -7   29.50    7.70
   2   6  -7   14.70    5.50
   2   6  -7   19.30    5.70
  -2  -6   7   13.90    4.00
  -2  -6   7   12.40    6.10
  -2  -6   7   26.90    6.70
  -2  -6   7   30.30    5.70
  -2  -6   7   16.20    8.40
  -2  -6   7   24.00    6.90
  -2  -6   7   21.40    5.00
   1   6  -7  486.05   48.50
   1   6  -7  574.34   49.00
   1   6  -7  462.75   46.70
   1   6  -7  463.55   45.80
   1   6  -7  468.95   46.90
   1   6  -7  578.54   47.20
   1   6  -7  530.65   47.20
   1   6  -7  520.65   46.80
  -1  -6   7  542.75   48.30
  -1  -6   7  531.45   46.80
  -1  -6   7  398.66   48.10
  -1  -6   7  448.16   47.20
  -1  -6   7  402.86   48.60
  -1  -6   7  436.56   46.90
  -1  -6   7  465.35   45.60
   0   6  -7  171.08   19.70
   0   6  -7  165.58   17.90
   0   6  -7  194.58   18.20
   0   6  -7  185.48   18.20
   0   6  -7  168.98   18.20
   0  -6   7  145.99   18.30
   0  -6   7  140.39   19.60
   0  -6   7  166.38   18.40
   0  -6   7  176.38   17.80
   0  -6   7  196.18   19.50
   0  -6   7  206.78   18.30
  -1   6  -7  107.79   12.10
  -1   6  -7  105.29   13.40
  -1   6  -7  103.09   11.80
  -1   6  -7   99.19   11.20
  -1   6  -7  101.29   11.50
  -1   6  -7  128.69   12.00
  -1   6  -7  118.19   13.80
  -1   6  -7   99.49   12.30
   1  -6   7   89.39   11.70
   1  -6   7  106.79   12.80
   1  -6   7  105.69   12.10
   1  -6   7  105.59   11.80
   1  -6   7  103.59   12.00
   1  -6   7  115.19   11.70
   1  -6   7   81.39   12.90
  -2   6  -7   98.99   10.40
  -2   6  -7   83.79   11.60
  -2   6  -7   98.49   11.90
  -2   6  -7  117.69   12.40
  -2   6  -7   93.79   13.40
  -2   6  -7  113.19   11.50
  -2   6  -7   93.89   10.20
   2  -6   7   95.79   12.40
   2  -6   7   74.09   12.50
   2  -6   7  105.39   11.70
   2  -6   7  119.99   11.40
   2  -6   7   91.39   11.00
   2  -6   7   82.89   11.10
   2  -6   7   99.49   11.40
  -3   6  -7  275.07   27.50
  -3   6  -7  277.27   28.70
  -3   6  -7  270.57   28.40
  -3   6  -7  260.67   28.20
  -3   6  -7  312.97   28.90
  -3   6  -7  312.07   27.80
   3  -6   7  273.47   27.70
   3  -6   7  275.17   27.40
   3  -6   7  298.67   27.90
   3  -6   7  255.87   28.30
   3  -6   7  269.07   28.10
  -4   6  -7    6.90    3.80
  -4   6  -7   -0.50    4.90
  -4   6  -7   -3.70    6.00
  -4   6  -7   -2.30    3.80
  -4   6  -7    1.90    6.20
  -4   6  -7   -0.30    4.00
   4  -6   7   -0.70    4.50
   4  -6   7   -2.80    7.70
   4  -6   7   -2.10    3.10
   4  -6   7    2.90    4.90
   4  -6   7   -4.50    3.90
   4  -6   7   -4.50    4.80
   4  -6   7   -3.70    8.60
   4  -6   7   -9.00    5.00
  -5   6  -7   22.10    7.80
  -5   6  -7   19.20    6.40
  -5   6  -7   15.30    6.60
   5  -6   7   19.10    7.60
   5  -6   7   25.30    7.60
   5  -6   7   18.70    6.50
   5  -6   7    3.40   10.50
   5  -6   7    7.90    7.50
   5  -6   7   22.70   10.80
   5  -6   7   16.70    4.80
   5  -6   7   17.90    7.70
   5   5  -7  123.69   22.50
   5   5  -7  153.18   21.60
   5   5  -7  150.58   20.50
   5   5  -7  116.59   18.20
   5   5  -7  127.49   19.60
   5   5  -7  130.29   18.60
   5   5  -7  158.18   25.90
  -5  -5   7  150.58   17.70
  -5  -5   7  146.79   20.80
  -5  -5   7  113.09   20.60
  -5  -5   7  141.59   16.60
  -5  -5   7   93.09   16.80
  -5  -5   7  110.29   19.40
   4   5  -7   15.80    5.80
   4   5  -7   15.80    8.70
   4   5  -7   -0.60    5.90
   4   5  -7    5.80    9.30
   4   5  -7    8.90    5.60
   4   5  -7    9.40    6.60
  -4  -5   7   -4.40    4.50
  -4  -5   7    4.20    5.20
  -4  -5   7   10.00    7.20
  -4  -5   7    1.60   10.70
  -4  -5   7    5.90    7.30
  -4  -5   7   -4.20    6.90
  -4  -5   7    3.80   10.50
  -4  -5   7   -9.40    4.70
   3   5  -7  890.21   85.19
   3   5  -7  820.12   85.99
   3   5  -7  835.32   87.49
   3   5  -7  902.41   85.89
  -3  -5   7  808.12   86.49
  -3  -5   7 1009.80   85.79
  -3  -5   7  955.90   85.39
  -3  -5   7 1032.50   87.69
   2   5  -7  278.17   25.90
   2   5  -7  278.87   27.70
   2   5  -7  248.18   25.80
   2   5  -7  293.07   26.50
   2   5  -7  249.58   27.40
   2   5  -7  236.58   24.80
   2   5  -7  300.67   26.50
   2   5  -7  212.18   25.40
  -2  -5   7  247.48   24.50
  -2  -5   7  216.08   25.90
  -2  -5   7  273.27   25.60
  -2  -5   7  243.88   26.20
  -2  -5   7  207.68   27.80
  -2  -5   7  271.77   26.80
   1   5  -7  248.18   25.20
   1   5  -7  317.47   28.00
   1   5  -7  259.47   26.30
   1   5  -7  249.38   27.50
   1   5  -7  294.67   26.40
   1   5  -7  239.88   25.90
   1   5  -7  299.87   26.40
   1   5  -7  269.17   26.10
  -1  -5   7  212.68   27.50
  -1  -5   7  253.77   25.70
  -1  -5   7  298.67   26.20
  -1  -5   7  301.87   27.60
  -1  -5   7  221.08   26.20
  -1  -5   7  237.38   26.40
  -1  -5   7  252.77   25.00
   0   5  -7    2.30    2.60
   0   5  -7   10.00    3.80
   0   5  -7    4.20    3.80
   0   5  -7    1.70    2.60
   0   5  -7    5.70    2.80
   0   5  -7    6.30    2.80
   0   5  -7    2.30    1.40
   0   5  -7    3.40    2.50
   0  -5   7    5.30    2.60
   0  -5   7   -0.20    2.70
   0  -5   7    3.40    3.30
   0  -5   7    3.60    2.40
   0  -5   7    2.80    3.70
   0  -5   7    3.70    3.00
  -1   5  -7  331.47   28.30
  -1   5  -7  298.37   28.40
  -1   5  -7  288.27   27.30
  -1   5  -7  306.07   27.00
  -1   5  -7  259.27   27.10
  -1   5  -7  253.77   26.80
  -1   5  -7  268.37   27.20
  -1   5  -7  249.38   26.60
   1  -5   7  277.67   27.10
   1  -5   7  276.37   27.20
   1  -5   7  279.87   28.20
   1  -5   7  263.67   27.20
   1  -5   7  255.87   27.00
   1  -5   7  268.57   28.10
  -2   5  -7  734.83   68.69
  -2   5  -7  735.83   69.59
  -2   5  -7  756.42   70.29
  -2   5  -7  825.82   69.49
  -2   5  -7  732.93   69.69
  -2   5  -7  678.23   68.79
  -2   5  -7  767.02   69.19
   2  -5   7  727.63   69.99
   2  -5   7  669.53   69.39
   2  -5   7  748.73   69.39
   2  -5   7  771.22   69.29
   2  -5   7  716.93   69.09
  -3   5  -7    5.80    2.20
  -3   5  -7   -2.20    4.30
  -3   5  -7    2.90    3.90
  -3   5  -7   11.20    3.50
  -3   5  -7    5.90    5.00
  -3   5  -7    6.70    2.30
  -3   5  -7    8.50    3.70
  -3   5  -7    6.70    4.00
   3  -5   7   10.30    4.70
   3  -5   7   18.40    7.90
   3  -5   7    9.20    3.70
   3  -5   7   11.20    3.20
   3  -5   7    7.70    3.90
   3  -5   7    4.20    3.70
   3  -5   7    5.20    3.80
  -4   5  -7   71.79    9.90
  -4   5  -7   60.39    9.30
  -4   5  -7   93.09   12.30
  -4   5  -7   89.79   12.10
  -4   5  -7   71.29    9.40
  -4   5  -7   59.39   10.90
   4  -5   7   56.29    9.60
   4  -5   7   41.30    9.30
   4  -5   7   80.29    8.90
   4  -5   7   76.89   12.50
   4  -5   7   66.09   10.10
   4  -5   7   56.39   12.60
  -5   5  -7  154.38   17.80
  -5   5  -7  150.08   15.60
  -5   5  -7  116.29   22.00
  -5   5  -7  182.98   20.90
  -5   5  -7  179.98   18.60
   5  -5   7  115.09   21.60
   5  -5   7  162.68   16.80
   5  -5   7  142.59   18.10
   5  -5   7  168.48   18.70
   5  -5   7  125.99   19.60
   5  -5   7  155.68   19.80
   5  -5   7  165.08   19.00
   5  -5   7  160.88   21.30
   5   4  -7   44.20   10.50
   5   4  -7   52.29   12.80
   5   4  -7   50.99   10.30
   5   4  -7   43.30    9.40
   5   4  -7   59.79   14.90
   5   4  -7   69.39   12.50
   5   4  -7   63.39   12.30
  -5  -4   7   33.70   10.70
  -5  -4   7   61.99   14.00
  -5  -4   7   41.10   11.60
  -5  -4   7   68.09   10.20
  -5  -4   7   42.90   14.60
  -5  -4   7   57.59    9.10
  -5  -4   7   63.29    9.90
   4   4  -7   11.60    5.50
   4   4  -7    8.30    4.50
   4   4  -7    3.30    5.60
   4   4  -7    8.80    6.00
   4   4  -7    1.70    4.50
   4   4  -7    1.70    8.70
  -4  -4   7    5.00    4.30
  -4  -4   7   17.40    8.30
  -4  -4   7   11.30    6.50
  -4  -4   7   10.40    7.40
  -4  -4   7   10.80    6.20
  -4  -4   7    0.40    4.30
  -4  -4   7   15.20    9.90
  -4  -4   7    7.30    4.50
   3   4  -7  570.74   48.60
   3   4  -7  458.85   49.40
   3   4  -7  469.95   47.90
   3   4  -7  580.44   48.60
   3   4  -7  491.35   47.30
  -3  -4   7  488.95   48.20
  -3  -4   7  500.75   47.00
  -3  -4   7  561.54   49.50
  -3  -4   7  424.06   48.10
  -3  -4   7  422.56   47.90
   2   4  -7  743.33   73.59
   2   4  -7  702.23   71.49
   2   4  -7  740.43   72.09
   2   4  -7  864.41   72.59
   2   4  -7  836.62   72.59
   2   4  -7  856.81   72.59
   2   4  -7  745.93   72.29
   2   4  -7  884.11   74.19
  -2  -4   7  631.94   72.19
  -2  -4   7  635.54   72.29
  -2  -4   7  738.23   71.29
  -2  -4   7  790.62   72.09
  -2  -4   7  834.92   73.39
  -2  -4   7  752.72   71.79
   1   4  -7   25.40    4.90
   1   4  -7   30.60    6.20
   1   4  -7   35.00    6.10
   1   4  -7   29.70    5.10
   1   4  -7   22.50    3.90
   1   4  -7   38.70    5.40
   1   4  -7   32.80    5.00
   1   4  -7   27.10    5.10
  -1  -4   7   21.40    6.10
  -1  -4   7   21.20    3.60
  -1  -4   7   20.30    4.90
  -1  -4   7   22.40    5.00
  -1  -4   7   30.00    4.70
  -1  -4   7   26.20    4.60
  -1  -4   7   27.90    5.80
   0   4  -7   16.40    3.80
   0   4  -7   15.20    3.30
   0   4  -7   16.10    4.60
   0   4  -7   10.10    3.20
   0   4  -7   15.00    3.60
   0   4  -7    9.30    2.00
   0   4  -7   16.40    4.20
   0   4  -7   14.80    3.40
   0  -4   7    8.70    2.90
   0  -4   7   13.50    3.40
   0  -4   7   14.30    3.50
   0  -4   7   11.70    4.10
   0  -4   7   12.50    4.10
  -1   4  -7  246.38   25.00
  -1   4  -7  256.17   26.30
  -1   4  -7  244.38   26.40
  -1   4  -7  309.27   27.40
  -1   4  -7  261.47   26.40
  -1   4  -7  319.37   28.10
  -1   4  -7  314.87   26.80
  -1   4  -7  295.77   26.40
  -1   4  -7  268.37   26.10
   1  -4   7  266.17   26.40
   1  -4   7  260.87   27.60
   1  -4   7  280.47   27.30
   1  -4   7  260.97   26.30
   1  -4   7  232.18   26.40
   1  -4   7  263.67   26.60
   1  -4   7  275.57   26.30
  -2   4  -7   11.80    3.40
  -2   4  -7   14.80    4.00
  -2   4  -7   20.20    5.20
  -2   4  -7    9.10    3.10
  -2   4  -7   12.00    4.00
  -2   4  -7   10.50    2.70
  -2   4  -7   14.10    3.80
  -2   4  -7   15.10    3.90
   2  -4   7    6.50    3.10
   2  -4   7   11.30    3.60
   2  -4   7    8.50    2.70
   2  -4   7    3.60    3.90
   2  -4   7   22.40    7.40
   2  -4   7   10.60    3.60
   2  -4   7    6.00    3.10
   2  -4   7   11.00    3.80
  -3   4  -7   28.90    4.70
  -3   4  -7   28.20    6.30
  -3   4  -7   32.40    3.80
  -3   4  -7   44.40    6.60
  -3   4  -7   42.90    8.40
  -3   4  -7   33.00    6.00
  -3   4  -7   22.70    5.80
  -3   4  -7   40.90    5.40
   3  -4   7   30.60    6.20
   3  -4   7   31.30    5.40
   3  -4   7   18.60    7.40
   3  -4   7   31.60    5.70
   3  -4   7   25.00    6.40
   3  -4   7   19.10    5.60
  -4   4  -7   30.60    5.30
  -4   4  -7   52.29    8.30
  -4   4  -7   41.00    9.80
  -4   4  -7   36.50    6.90
  -4   4  -7   35.00    5.20
  -4   4  -7   41.70    8.50
  -4   4  -7   37.00    5.30
  -4   4  -7   36.30    7.60
  -4   4  -7   37.40    6.50
   4  -4   7   30.70    6.70
   4  -4   7   46.00   10.30
   4  -4   7   30.40    7.80
   4  -4   7   35.00    6.90
   4  -4   7   28.60    9.80
   4  -4   7   40.50    6.80
   4  -4   7   43.70    8.10
   4  -4   7   34.40    6.80
  -5   4  -7    1.00    3.30
  -5   4  -7   11.10    6.20
  -5   4  -7    1.40    4.10
  -5   4  -7  -10.00    6.20
  -5   4  -7    1.30    3.80
  -5   4  -7   -9.80    7.80
   5  -4   7   -8.50    7.30
   5  -4   7    1.30    4.10
   5  -4   7   -3.00    5.70
   5  -4   7   14.00    6.00
   5  -4   7    4.40    5.80
   5  -4   7   16.80    7.80
   5  -4   7   11.60    7.50
   6   3  -7   14.10    8.90
   6   3  -7   14.30   15.10
   6   3  -7   -7.40   11.00
   6   3  -7   22.60   10.60
   6   3  -7   19.50    7.90
   6   3  -7   30.90    9.20
   6   3  -7   18.70   10.60
  -6  -3   7   25.30    7.30
  -6  -3   7   26.20    7.60
  -6  -3   7    8.60   11.30
  -6  -3   7   24.80    7.70
  -6  -3   7   10.90   10.20
  -6  -3   7    3.70   12.30
  -6  -3   7   -6.40   10.10
  -6  -3   7   19.40   15.50
   5   3  -7   90.19   16.90
   5   3  -7  101.79   15.00
   5   3  -7   99.89   16.30
   5   3  -7   94.19   12.70
   5   3  -7   79.69   14.80
   5   3  -7   77.49   11.90
   5   3  -7   76.89   12.50
  -5  -3   7   72.79   12.90
  -5  -3   7   83.89   12.40
  -5  -3   7   83.09   11.30
  -5  -3   7   68.09   13.90
  -5  -3   7   64.29   13.10
  -5  -3   7   47.40   14.50
  -5  -3   7   78.69   15.30
   4   3  -7  150.58   15.90
   4   3  -7  139.99   15.60
   4   3  -7  122.09   14.40
   4   3  -7  104.49   14.40
   4   3  -7   98.19   16.40
   4   3  -7  129.09   17.60
   4   3  -7  141.89   15.40
  -4  -3   7  113.59   15.70
  -4  -3   7  139.39   14.60
  -4  -3   7  144.29   16.50
  -4  -3   7  136.99   14.20
  -4  -3   7  112.49   15.40
  -4  -3   7  102.49   17.60
   3   3  -7  119.99   14.00
   3   3  -7  118.69   15.60
   3   3  -7  120.19   14.40
   3   3  -7  150.58   16.80
   3   3  -7  158.38   15.10
   3   3  -7  158.78   15.30
   3   3  -7  130.19   14.60
  -3  -3   7  112.79   14.90
  -3  -3   7  147.19   14.50
  -3  -3   7  104.99   14.60
  -3  -3   7  104.49   16.80
  -3  -3   7  140.69   14.00
  -3  -3   7  152.78   16.10
  -3  -3   7  135.49   13.80
   2   3  -7   74.39    8.90
   2   3  -7   94.59   10.00
   2   3  -7   64.29    9.20
   2   3  -7  105.79   11.30
   2   3  -7   94.79   11.20
   2   3  -7   83.09    9.60
   2   3  -7   77.29    9.40
  -2  -3   7   89.99   10.70
  -2  -3   7   72.19   11.10
  -2  -3   7   86.69    9.40
  -2  -3   7   63.19    9.50
  -2  -3   7   75.49    8.60
  -2  -3   7   68.99    9.60
  -2  -3   7   84.29    9.10
   1   3  -7   65.39    7.70
   1   3  -7   61.19    8.00
   1   3  -7   68.69    7.80
   1   3  -7   59.69    7.80
   1   3  -7   77.09    8.90
   1   3  -7   66.79    8.10
   1   3  -7   59.49    7.00
   1   3  -7   70.39    9.20
  -1  -3   7   62.49    7.80
  -1  -3   7   62.19    9.20
  -1  -3   7   60.59    7.90
  -1  -3   7   71.89    9.00
  -1  -3   7   58.49    7.80
   0   3  -7  436.16   43.10
   0   3  -7  440.46   44.00
   0   3  -7  453.05   43.80
   0   3  -7  452.55   44.00
   0   3  -7  525.75   44.30
   0   3  -7  530.95   44.10
   0  -3   7  478.85   45.10
   0  -3   7  477.15   45.00
   0  -3   7  442.26   44.10
   0  -3   7  451.95   44.10
   0  -3   7  465.15   43.80
   0  -3   7  440.36   43.90
   0  -3   7  445.86   43.90
  -1   3  -7   27.70    4.80
  -1   3  -7   48.90    7.30
  -1   3  -7   43.10    5.70
  -1   3  -7   28.90    4.60
  -1   3  -7   33.40    6.00
  -1   3  -7   27.10    5.10
  -1   3  -7   36.80    4.90
  -1   3  -7   33.70    5.20
   1  -3   7   35.70    5.30
   1  -3   7   28.60    4.60
   1  -3   7   37.20    5.50
   1  -3   7   23.60    5.10
   1  -3   7   28.30    6.20
   1  -3   7   35.90    5.90
   1  -3   7   25.50    4.90
  -2   3  -7  219.58   20.40
  -2   3  -7  249.68   22.90
  -2   3  -7  232.38   21.20
  -2   3  -7  192.48   21.00
  -2   3  -7  188.98   20.60
  -2   3  -7  190.78   21.40
  -2   3  -7  187.98   19.50
  -2   3  -7  198.28   20.60
  -2   3  -7  223.58   20.50
   2  -3   7  203.18   20.30
   2  -3   7  200.28   20.80
   2  -3   7  196.98   20.90
   2  -3   7  225.28   21.40
   2  -3   7  207.18   20.80
  -3   3  -7  347.27   30.60
  -3   3  -7  284.37   30.50
  -3   3  -7  296.77   29.60
  -3   3  -7  278.77   31.50
  -3   3  -7  351.56   29.50
  -3   3  -7  303.47   28.80
  -3   3  -7  368.26   32.50
  -3   3  -7  317.67   29.80
   3  -3   7  274.97   30.10
   3  -3   7  278.87   29.90
   3  -3   7  289.47   30.00
   3  -3   7  242.68   30.20
   3  -3   7  317.17   30.60
   3  -3   7  309.07   29.50
  -4   3  -7   -6.70    7.20
  -4   3  -7   -2.00    3.30
  -4   3  -7    5.90    3.70
  -4   3  -7    3.50    5.30
  -4   3  -7    4.70    2.90
  -4   3  -7   -1.80    4.70
  -4   3  -7   -1.90    3.10
  -4   3  -7    2.60    4.80
   4  -3   7  -12.00    5.00
   4  -3   7    1.10    4.40
   4  -3   7   -2.80    5.30
   4  -3   7    2.70    3.10
   4  -3   7    6.10    6.20
   4  -3   7    3.10    7.50
   4  -3   7    3.60    4.20
  -5   3  -7  167.38   17.50
  -5   3  -7  196.58   26.50
  -5   3  -7  198.58   18.60
  -5   3  -7  162.48   17.00
   5  -3   7  116.89   23.40
   5  -3   7  165.78   19.70
   5  -3   7  117.99   21.00
   5  -3   7  179.98   21.60
   5  -3   7  151.08   19.40
   5  -3   7  152.08   20.20
   5  -3   7  185.18   18.30
   6   2  -7    9.00    8.80
   6   2  -7   12.60    7.90
   6   2  -7   15.60    6.80
   6   2  -7   13.30   13.90
   6   2  -7   11.60    9.70
   6   2  -7   11.60   11.60
   6   2  -7   10.60    7.60
  -6  -2   7   14.10    6.50
  -6  -2   7    4.00   12.70
  -6  -2   7    2.10    8.50
  -6  -2   7   19.30    6.60
  -6  -2   7   24.80   10.50
  -6  -2   7    8.90    8.50
  -6  -2   7   27.10   10.50
   5   2  -7   70.09   10.60
   5   2  -7   54.49   11.50
   5   2  -7   67.89   10.40
   5   2  -7   45.70    8.00
   5   2  -7   45.90    8.80
   5   2  -7   44.00    8.40
   5   2  -7   39.80    9.50
  -5  -2   7   37.00    8.90
  -5  -2   7   54.69    8.80
  -5  -2   7   53.79   10.00
  -5  -2   7   68.39   12.90
  -5  -2   7   50.69    8.20
  -5  -2   7   43.70    9.40
  -5  -2   7   44.60    8.00
  -5  -2   7   31.10   10.80
   4   2  -7  677.73   60.69
   4   2  -7  581.14   60.29
   4   2  -7  663.33   59.29
   4   2  -7  608.24   59.09
  -4  -2   7  531.15   58.99
  -4  -2   7  681.23   58.89
  -4  -2   7  634.74   58.59
  -4  -2   7  672.33   58.39
  -4  -2   7  526.25   59.19
   3   2  -7  594.94   52.69
   3   2  -7  491.45   52.09
   3   2  -7  528.05   51.09
   3   2  -7  527.65   50.79
   3   2  -7  563.74   51.39
   3   2  -7  486.65   50.89
   3   2  -7  600.04   51.39
  -3  -2   7  541.45   50.59
  -3  -2   7  571.54   50.99
  -3  -2   7  437.46   51.09
  -3  -2   7  514.15   50.59
  -3  -2   7  598.44   52.29
   2   2  -7  272.27   25.60
   2   2  -7  262.67   25.50
   2   2  -7  254.77   26.50
   2   2  -7  299.67   26.70
   2   2  -7  248.18   25.00
   2   2  -7  264.97   25.40
   2   2  -7  291.17   25.60
  -2  -2   7  244.08   24.80
  -2  -2   7  223.18   25.40
  -2  -2   7  301.17   26.60
  -2  -2   7  213.48   26.40
  -2  -2   7  272.87   25.30
  -2  -2   7  225.28   25.40
   1   2  -7  169.48   17.80
   1   2  -7  202.88   19.70
   1   2  -7  168.08   18.40
   1   2  -7  184.58   18.50
   1   2  -7  210.58   19.50
   1   2  -7  201.28   18.60
   1   2  -7  210.88   18.50
   1   2  -7  176.38   18.20
  -1  -2   7  182.88   18.40
  -1  -2   7  173.38   18.30
  -1  -2   7  176.58   18.10
  -1  -2   7  191.28   19.50
  -1  -2   7  168.38   19.20
  -1  -2   7  167.68   18.30
   0   2  -7   83.39   10.00
   0   2  -7  110.09   10.40
   0   2  -7  107.39   11.40
   0   2  -7  109.09   11.00
   0   2  -7   81.09    9.90
   0   2  -7   95.49    9.90
   0   2  -7  100.89   10.00
   0  -2   7   86.29    9.90
   0  -2   7   81.49   10.90
   0  -2   7   91.79    9.80
   0  -2   7   83.99   10.00
   0  -2   7   90.39   10.70
   0  -2   7   91.49   10.30
   0  -2   7   81.39   10.00
  -1   2  -7   22.60    4.40
  -1   2  -7   26.70    5.20
  -1   2  -7   25.00    4.30
  -1   2  -7   29.10    5.90
  -1   2  -7   23.80    4.40
  -1   2  -7   34.50    5.20
  -1   2  -7   21.60    3.70
   1  -2   7   23.00    4.20
   1  -2   7   24.40    4.80
   1  -2   7   27.20    4.50
   1  -2   7   18.20    5.20
   1  -2   7   28.60    4.10
   1  -2   7   34.40    5.10
   1  -2   7   24.50    4.60
  -2   2  -7    1.70    2.00
  -2   2  -7    2.60    2.60
  -2   2  -7    6.20    4.40
  -2   2  -7    3.30    2.90
  -2   2  -7    4.80    2.50
  -2   2  -7    1.90    1.60
  -2   2  -7    3.50    2.40
  -2   2  -7   -2.60    2.70
  -2   2  -7    1.20    3.10
   2  -2   7    1.60    1.90
   2  -2   7    2.90    3.10
   2  -2   7    5.20    3.10
   2  -2   7    0.90    2.50
   2  -2   7   -1.70    4.60
   2  -2   7    5.00    4.30
   2  -2   7    0.70    1.70
   2  -2   7   -0.90    2.50
  -3   2  -7   43.40    5.40
  -3   2  -7   43.90    7.40
  -3   2  -7   38.70    7.60
  -3   2  -7   41.20    7.20
  -3   2  -7   46.80    6.80
  -3   2  -7   40.70    6.40
  -3   2  -7   38.80    6.50
  -3   2  -7   34.20    9.00
   3  -2   7   37.60    6.40
   3  -2   7   40.90    6.00
   3  -2   7   38.20    6.40
   3  -2   7   25.20    6.90
   3  -2   7   23.90    6.40
   3  -2   7   38.00    7.20
   3  -2   7   20.40    7.40
   3  -2   7   59.79   10.70
  -4   2  -7   21.50    5.00
  -4   2  -7   15.00    3.90
  -4   2  -7   20.20    6.70
  -4   2  -7   16.90    5.00
  -4   2  -7    3.80    5.80
  -4   2  -7   10.60    4.30
  -4   2  -7   12.30    4.90
  -4   2  -7    9.40    6.00
  -4   2  -7    7.50    8.00
   4  -2   7   15.70    7.40
   4  -2   7   13.00    5.60
   4  -2   7   18.60    5.90
   4  -2   7    7.00    6.10
   4  -2   7   14.90    5.00
   4  -2   7   15.70    4.30
   4  -2   7    9.70    6.50
   4  -2   7    9.00    8.60
  -5   2  -7   21.90    6.20
  -5   2  -7   22.30    5.70
  -5   2  -7    9.00    5.70
  -5   2  -7    5.40    8.90
  -5   2  -7   23.40    8.30
  -5   2  -7   23.00   13.40
   5  -2   7   12.40    7.40
   5  -2   7   27.40   11.60
   5  -2   7   22.60    7.00
   5  -2   7   34.00   15.20
   5  -2   7   22.30    7.00
   5  -2   7   17.00    5.70
   5  -2   7   18.30    9.10
   6   1  -7   46.70   11.90
   6   1  -7   83.39   14.60
   6   1  -7   82.19   11.70
   6   1  -7   52.09   10.90
   6   1  -7   72.89   11.60
   6   1  -7   75.69   11.50
  -6  -1   7   55.69   12.00
  -6  -1   7   42.10    9.80
  -6  -1   7   79.59   13.90
  -6  -1   7   72.39   10.30
  -6  -1   7   66.69    9.40
  -6  -1   7   66.59   10.30
  -6  -1   7   47.70   13.10
  -6  -1   7   52.59   14.50
   5   1  -7  126.99   16.20
   5   1  -7   88.99   12.90
   5   1  -7   84.09   14.10
   5   1  -7   95.59   13.40
   5   1  -7  127.29   13.40
   5   1  -7  124.09   15.00
   5   1  -7   96.39   12.80
  -5  -1   7  123.89   12.60
  -5  -1   7   74.59   13.50
  -5  -1   7  122.49   17.10
  -5  -1   7  112.89   14.20
  -5  -1   7   70.29   14.90
  -5  -1   7  114.79   12.60
  -5  -1   7   98.79   11.70
   4   1  -7   -4.90    3.10
   4   1  -7   -1.10    3.20
   4   1  -7    1.10    3.60
   4   1  -7   -1.60    3.00
   4   1  -7   -4.10    3.70
   4   1  -7    1.80    3.10
   4   1  -7    1.90    4.20
  -4  -1   7   -2.30    3.20
  -4  -1   7    0.70    2.40
  -4  -1   7   -0.10    5.10
  -4  -1   7    3.70    4.70
  -4  -1   7    2.20    3.70
  -4  -1   7   -3.50    5.90
   3   1  -7   43.50    6.20
   3   1  -7   47.10    6.30
   3   1  -7   51.79    6.80
   3   1  -7   46.80    6.30
   3   1  -7   38.30    6.30
   3   1  -7   53.59    7.50
   3   1  -7   43.10    7.50
  -3  -1   7   53.69    7.50
  -3  -1   7   42.30    6.20
  -3  -1   7   45.60    6.00
  -3  -1   7   64.49   11.10
  -3  -1   7   42.20    6.60
  -3  -1   7   42.20    8.50
  -3  -1   7   45.50    6.10
  -3  -1   7   33.30    6.30
   2   1  -7   66.59    7.90
   2   1  -7   63.59    8.00
   2   1  -7   74.59    8.50
   2   1  -7   69.79    8.10
   2   1  -7   76.69    8.10
   2   1  -7   80.69    9.10
   2   1  -7   63.99    9.00
  -2  -1   7   57.69    8.10
  -2  -1   7   72.79    8.20
  -2  -1   7   84.59    9.50
  -2  -1   7   66.09    8.20
  -2  -1   7   54.69    9.00
  -2  -1   7   74.09    8.00
  -2  -1   7   94.59   12.40
   1   1  -7  942.91   89.09
   1   1  -7 1096.59   90.09
   1   1  -7  941.51   88.89
   1   1  -7 1102.59   90.59
   1   1  -7 1017.20   89.39
   1   1  -7  890.21   89.19
   1   1  -7  956.80   89.29
   1   1  -7 1016.40   89.19
  -1  -1   7  907.21   89.09
  -1  -1   7  839.32   88.99
  -1  -1   7  863.81   89.09
  -1  -1   7  954.70   89.99
  -1  -1   7  922.71   89.29
  -1  -1   7 1001.50   90.39
   0   1  -7    1.10    2.30
   0   1  -7    3.60    4.80
   0   1  -7   -0.20    1.80
   0   1  -7   -1.50    1.80
   0   1  -7    2.30    2.00
   0   1  -7   -0.50    1.60
   0   1  -7    0.00    2.10
   0   1  -7    1.60    1.90
   0  -1   7    0.10    1.90
   0  -1   7    0.20    2.00
   0  -1   7    0.30    4.10
   0  -1   7   -2.80    1.90
   0  -1   7   -0.90    1.70
   0  -1   7    2.80    2.00
   0  -1   7   -0.50    3.00
   0  -1   7    1.70    1.60
  -1   1  -7  397.96   36.50
  -1   1  -7  419.06   35.60
  -1   1  -7  363.36   36.30
  -1   1  -7  377.36   36.40
  -1   1  -7  363.56   37.20
  -1   1  -7  444.66   38.60
  -1   1  -7  418.16   37.10
  -1   1  -7  350.26   36.50
   1  -1   7  313.57   36.50
   1  -1   7  401.86   37.10
   1  -1   7  449.16   39.90
   1  -1   7  355.66   36.40
   1  -1   7  371.16   36.10
   1  -1   7  333.77   36.20
  -2   1  -7   95.19    8.50
  -2   1  -7   67.19    9.10
  -2   1  -7   77.99    9.20
  -2   1  -7   76.89   10.10
  -2   1  -7   74.19   10.00
  -2   1  -7   78.69    9.50
  -2   1  -7   76.59    8.50
  -2   1  -7   70.59    9.00
  -2   1  -7   68.89   11.50
   2  -1   7   52.99    9.60
   2  -1   7   69.19    9.50
   2  -1   7   77.79    9.50
   2  -1   7   84.89    9.00
   2  -1   7   78.29   12.30
   2  -1   7   68.79    9.00
   2  -1   7   77.89    8.70
  -3   1  -7  102.39   17.00
  -3   1  -7  120.89   13.80
  -3   1  -7  122.59   12.40
  -3   1  -7  124.79   13.40
  -3   1  -7  110.49   14.30
  -3   1  -7  133.69   12.70
  -3   1  -7  128.39   14.80
   3  -1   7  101.19   14.30
   3  -1   7  103.89   13.40
   3  -1   7  112.49   12.80
   3  -1   7  115.19   17.20
   3  -1   7  111.29   14.00
   3  -1   7   96.89   14.30
   3  -1   7  122.49   13.10
  -4   1  -7  107.89   12.20
  -4   1  -7  101.19   15.70
  -4   1  -7  132.99   12.70
  -4   1  -7  105.79   18.00
  -4   1  -7  118.19   13.60
  -4   1  -7  101.79   14.50
  -4   1  -7   94.89   12.90
  -4   1  -7   91.29   12.70
   4  -1   7   99.09   13.70
   4  -1   7  118.69   14.70
   4  -1   7   83.99   14.40
   4  -1   7  106.69   13.00
   4  -1   7   96.09   12.30
   4  -1   7  102.89   17.10
   4  -1   7   91.69   14.50
  -5   1  -7  200.18   25.30
  -5   1  -7  185.18   21.70
  -5   1  -7  199.68   22.60
  -5   1  -7  181.58   29.00
  -5   1  -7  225.18   21.60
  -5   1  -7  180.18   26.30
  -5   1  -7  188.38   21.10
   5  -1   7  154.08   30.20
   5  -1   7  215.98   22.10
   5  -1   7  209.98   23.40
   5  -1   7  215.98   25.00
   5  -1   7  216.88   22.50
   5  -1   7  166.88   25.10
   5  -1   7  176.08   25.20
   6   0  -7   21.10    6.30
   6   0  -7   17.60    5.60
   6   0  -7    8.90    6.40
   6   0  -7    9.00    8.50
   6   0  -7   14.70    7.50
   6   0  -7   10.30    6.80
   6   0  -7   17.40    6.70
  -6   0   7   14.50    6.30
  -6   0   7   18.20    5.10
  -6   0   7   16.20    4.80
  -6   0   7   17.80    6.20
  -6   0   7   20.40    7.00
  -6   0   7   14.50    3.70
  -6   0   7   13.40    7.50
  -6   0   7   21.60    9.80
   5   0  -7  154.58   18.70
   5   0  -7  143.69   16.80
   5   0  -7  169.48   17.40
   5   0  -7  173.18   16.70
   5   0  -7  143.69   17.80
   5   0  -7  190.08   19.00
   5   0  -7  127.89   16.30
  -5   0   7  146.79   21.20
  -5   0   7  185.28   16.60
  -5   0   7  169.58   17.90
  -5   0   7  116.79   16.80
  -5   0   7  144.69   16.00
  -5   0   7  149.49   15.40
  -5   0   7  108.49   20.20
  -5   0   7  146.09   16.60
   4   0  -7   -2.00    2.90
   4   0  -7    6.80    3.10
   4   0  -7    3.50    3.50
   4   0  -7   -0.10    3.30
   4   0  -7    2.90    3.50
   4   0  -7    2.40    2.50
   4   0  -7   -0.20    2.50
  -4   0   7    1.10    2.30
  -4   0   7    3.80    2.60
  -4   0   7   -2.00    3.30
  -4   0   7   -5.90    4.70
  -4   0   7    2.40    2.90
  -4   0   7   -0.80    5.90
  -4   0   7    6.30    2.90
   3   0  -7 1939.21  191.28
   3   0  -7 2084.89  191.58
   3   0  -7 1982.30  192.18
   3   0  -7 2315.67  192.48
   3   0  -7 2240.48  191.38
   3   0  -7 2203.68  191.48
   3   0  -7 1996.30  191.48
  -3   0   7 1774.52  191.38
  -3   0   7 2342.07  192.48
  -3   0   7 1910.21  190.98
  -3   0   7 1781.82  190.78
  -3   0   7 2195.88  194.88
  -3   0   7 2232.48  191.48
   2   0  -7    4.20    2.10
   2   0  -7    0.90    2.30
   2   0  -7    3.20    2.00
   2   0  -7    2.90    2.00
   2   0  -7    1.90    1.60
   2   0  -7    4.60    4.70
   2   0  -7    2.50    2.00
   2   0  -7    1.40    2.10
  -2   0   7    0.70    2.60
  -2   0   7    1.30    2.80
  -2   0   7    1.90    2.20
  -2   0   7    1.20    1.80
  -2   0   7    3.20    4.70
  -2   0   7    4.20    2.10
  -2   0   7    4.80    1.60
  -2   0   7    1.70    1.80
   1   0  -7  599.44   53.69
   1   0  -7  567.84   53.89
   1   0  -7  625.94   54.59
   1   0  -7  542.45   53.79
   1   0  -7  592.54   53.79
   1   0  -7  633.74   54.09
  -1   0   7  480.95   54.69
  -1   0   7  546.35   53.59
  -1   0   7  531.25   53.59
  -1   0   7  572.54   56.99
  -1   0   7  615.44   54.59
   0   0  -7  299.47   27.50
   0   0  -7  299.37   26.40
   0   0  -7  242.08   25.80
   0   0  -7  256.77   26.40
   0   0  -7  249.97   25.60
   0   0  -7  255.27   25.60
   0   0  -7  262.17   25.80
   0   0   7  262.87   28.70
   0   0   7  270.67   25.60
   0   0   7  253.87   25.70
   0   0   7  250.47   25.70
   0   0   7  298.67   26.50
  -1   0  -7   78.69   10.80
  -1   0  -7   53.99    8.60
  -1   0  -7   72.59    6.90
  -1   0  -7   63.89    7.70
  -1   0  -7   68.99    8.20
  -1   0  -7   68.39    7.80
  -1   0  -7   68.89    8.80
  -1   0  -7   63.29    8.30
   1   0   7   53.29    8.40
   1   0   7   51.59    8.30
   1   0   7   70.49    8.60
   1   0   7   65.59    7.60
   1   0   7   61.79    7.90
   1   0   7   71.59    7.90
   1   0   7   65.49   11.70
  -2   0  -7   79.59   12.90
  -2   0  -7   72.09   10.10
  -2   0  -7   90.09   10.10
  -2   0  -7   84.39    9.70
  -2   0  -7   83.49    9.10
  -2   0  -7   71.79    9.30
  -2   0  -7   77.69   10.70
  -2   0  -7   77.59    9.70
   2   0   7   81.59    9.10
   2   0   7   58.39   11.90
   2   0   7   81.49    9.10
   2   0   7   75.59   10.40
   2   0   7   71.29   13.20
   2   0   7   85.59   10.40
   2   0   7   73.39   10.60
   2   0   7   82.39    9.60
  -3   0  -7    4.10    6.80
  -3   0  -7   -1.40    4.70
  -3   0  -7   -1.80    4.00
  -3   0  -7    6.60    3.90
  -3   0  -7    5.20    3.50
  -3   0  -7    6.40    3.50
  -3   0  -7   -2.00    3.70
  -3   0  -7    3.10    4.00
  -3   0  -7    1.10    6.50
   3   0   7    0.70    2.90
   3   0   7    2.00    3.70
   3   0   7    4.40    4.10
   3   0   7    3.10    7.30
   3   0   7    3.30    6.80
   3   0   7    1.90    5.00
   3   0   7   -1.90    4.60
   3   0   7    4.00    3.70
  -4   0  -7   90.39   12.20
  -4   0  -7   83.49   13.80
  -4   0  -7   87.39   12.90
  -4   0  -7   76.39   15.80
  -4   0  -7   82.19   10.00
  -4   0  -7   87.19   10.80
   4   0   7   72.09   10.60
   4   0   7   60.69   10.80
   4   0   7   57.39   14.60
   4   0   7   76.29   12.90
   4   0   7   91.49   12.30
   4   0   7   80.49   13.10
   4   0   7   64.59   12.70
   4   0   7   78.19   16.60
  -5   0  -7   32.60    7.50
  -5   0  -7   31.70   13.00
  -5   0  -7   42.50    8.40
  -5   0  -7   32.80   10.20
  -5   0  -7   45.50   11.90
  -5   0  -7   53.29   16.90
  -5   0  -7   29.30    8.80
  -5   0  -7   37.60    8.50
   5   0   7   40.10    9.00
   5   0   7   58.19   10.60
   5   0   7   32.30    8.00
   5   0   7   41.80   10.70
   5   0   7   29.20   11.60
   5   0   7   47.30   11.30
   5   0   7   29.20   15.40
   7  -1  -7  226.68   25.50
   7  -1  -7  172.68   21.10
   7  -1  -7  211.78   22.60
   7  -1  -7  204.18   22.00
   7  -1  -7  139.39   22.90
  -7   1   7  135.59   23.50
  -7   1   7  147.09   19.30
  -7   1   7  161.68   19.70
   6  -1  -7   11.90    6.20
   6  -1  -7    2.90    5.10
   6  -1  -7   11.30    7.00
   6  -1  -7   -7.20    6.50
   6  -1  -7   -7.10    4.30
   6  -1  -7   -1.50    4.50
   6  -1  -7   12.10    6.30
  -6   1   7  -12.10    7.40
  -6   1   7    6.70    6.00
  -6   1   7    1.00    3.60
  -6   1   7   -5.30    5.20
  -6   1   7    5.50    9.20
  -6   1   7    3.60    4.20
   5  -1  -7    7.70    3.30
   5  -1  -7    4.90    3.90
   5  -1  -7    2.80    4.30
   5  -1  -7   -0.10    4.00
   5  -1  -7    7.50    3.50
   5  -1  -7    4.00    4.40
   5  -1  -7    7.90    5.40
  -5   1   7    3.70    1.60
  -5   1   7    3.60    2.10
  -5   1   7    4.00    4.00
  -5   1   7    3.30    5.70
  -5   1   7    9.70    3.30
  -5   1   7    2.30    8.30
  -5   1   7    4.90    4.20
  -5   1   7    8.80    3.90
   4  -1  -7  242.88   24.30
   4  -1  -7  259.17   26.00
   4  -1  -7  264.07   24.00
   4  -1  -7  275.07   24.40
   4  -1  -7  217.78   23.60
   4  -1  -7  237.48   24.80
   4  -1  -7  271.17   23.80
  -4   1   7  280.17   24.00
  -4   1   7  229.38   28.80
  -4   1   7  214.28   24.00
  -4   1   7  215.08   23.00
  -4   1   7  213.28   25.20
  -4   1   7  235.98   23.60
   3  -1  -7   31.50    5.00
   3  -1  -7   29.50    4.30
   3  -1  -7   29.80    4.50
   3  -1  -7   30.80    4.00
   3  -1  -7   23.00    4.40
   3  -1  -7   20.80    4.60
   3  -1  -7   26.20    4.50
  -3   1   7   29.30    4.70
  -3   1   7   22.00    4.20
  -3   1   7   24.10    8.60
  -3   1   7   25.90    5.20
  -3   1   7   24.20    4.00
  -3   1   7   21.20    3.90
  -3   1   7   22.30    3.90
   2  -1  -7   21.90    4.60
   2  -1  -7   19.40    3.90
   2  -1  -7   23.10    3.80
   2  -1  -7   28.20    8.00
   2  -1  -7   18.80    3.60
   2  -1  -7   23.10    4.00
   2  -1  -7   18.20    3.20
   2  -1  -7   17.20    3.40
  -2   1   7   19.80    3.10
  -2   1   7   19.60    4.40
  -2   1   7   25.40    7.30
  -2   1   7   16.20    3.20
  -2   1   7   18.20    3.30
  -2   1   7   20.20    4.00
  -2   1   7   21.50    3.60
  -2   1   7   16.90    4.50
   1  -1  -7   88.19   11.80
   1  -1  -7   59.69    7.50
   1  -1  -7   73.89    8.90
   1  -1  -7   65.69    7.40
   1  -1  -7   62.39    7.20
   1  -1  -7   70.19    7.70
   1  -1  -7   62.69    7.80
   1  -1  -7   70.59    7.70
  -1   1   7   61.59    7.30
  -1   1   7   72.09    8.10
  -1   1   7   47.80   10.30
  -1   1   7   47.60    7.30
  -1   1   7   71.69    7.20
  -1   1   7   51.79    7.60
   0  -1  -7  348.67   33.80
   0  -1  -7  371.66   34.20
   0  -1  -7  334.37   34.20
   0  -1  -7  361.16   35.50
   0  -1  -7  375.16   34.00
   0  -1  -7  365.56   33.40
   0  -1  -7  341.87   33.50
   0   1   7  348.47   33.50
   0   1   7  379.86   34.20
   0   1   7  348.87   33.40
   0   1   7  321.97   37.30
   0   1   7  303.57   33.70
   0   1   7  357.46   33.40
  -1  -1  -7    1.30    3.10
  -1  -1  -7    1.90    3.80
  -1  -1  -7   -0.20    2.70
  -1  -1  -7    3.70    2.60
  -1  -1  -7    1.60    2.20
  -1  -1  -7    7.50    5.20
  -1  -1  -7    7.60    6.50
  -1  -1  -7    3.60    3.30
   1   1   7    2.90    3.20
   1   1   7    1.40    2.40
   1   1   7    7.50    2.60
   1   1   7    2.70    3.50
   1   1   7    7.40    6.80
   1   1   7    6.10    5.10
   1   1   7    6.30    3.30
   1   1   7    3.60    2.20
  -2  -1  -7  121.99   18.40
  -2  -1  -7  154.88   15.10
  -2  -1  -7  132.79   16.40
  -2  -1  -7  137.89   16.70
  -2  -1  -7  168.78   16.60
  -2  -1  -7  150.58   15.20
  -2  -1  -7  153.38   15.80
  -2  -1  -7  138.19   15.20
   2   1   7  121.09   15.90
   2   1   7  104.29   17.10
   2   1   7  149.69   14.80
   2   1   7  141.29   15.40
   2   1   7  130.49   19.60
   2   1   7  150.18   15.10
   2   1   7  146.49   16.70
   2   1   7  153.28   16.40
  -3  -1  -7  135.79   15.50
  -3  -1  -7  108.59   19.70
  -3  -1  -7  140.69   18.00
  -3  -1  -7  140.39   15.50
  -3  -1  -7  130.39   18.00
  -3  -1  -7  129.79   17.00
  -3  -1  -7  143.59   15.50
  -3  -1  -7  149.69   16.30
   3   1   7  133.89   17.20
   3   1   7  161.78   17.30
   3   1   7  123.49   20.20
   3   1   7  145.39   15.30
   3   1   7  122.39   19.70
   3   1   7  145.69   15.20
   3   1   7  140.09   16.00
   3   1   7  114.89   16.90
  -4  -1  -7   60.69   12.40
  -4  -1  -7   77.49   16.60
  -4  -1  -7   92.79   11.10
  -4  -1  -7   79.69   12.10
  -4  -1  -7   96.49   13.30
  -4  -1  -7   59.69   15.70
   4   1   7   87.29   12.40
   4   1   7   41.60   14.60
   4   1   7   59.49   11.90
   4   1   7   67.79   13.60
   4   1   7   72.29   11.00
   4   1   7   77.59   10.80
   4   1   7   56.79   12.70
  -5  -1  -7  127.19   18.70
  -5  -1  -7   95.89   18.80
  -5  -1  -7  105.99   23.10
  -5  -1  -7   85.69   17.20
  -5  -1  -7   92.89   16.40
  -5  -1  -7  115.29   14.30
  -5  -1  -7   83.49   14.10
   5   1   7   90.29   14.80
   5   1   7   88.79   17.00
   5   1   7   96.79   17.30
   5   1   7   95.29   18.90
   5   1   7   83.19   14.40
   5   1   7  103.59   16.10
   7  -2  -7   15.90    8.30
   7  -2  -7   15.70   11.90
   7  -2  -7   26.30    7.60
   7  -2  -7   24.60    9.10
  -7   2   7   17.60    7.30
  -7   2   7    3.50   11.10
  -7   2   7    7.00    6.30
   6  -2  -7  191.48   20.50
   6  -2  -7  192.98   19.90
   6  -2  -7  140.69   18.10
   6  -2  -7  188.48   20.20
   6  -2  -7  195.08   18.00
   6  -2  -7  149.09   19.50
   6  -2  -7  175.28   19.10
  -6   2   7  153.18   18.20
  -6   2   7  162.78   21.20
  -6   2   7  192.08   18.40
  -6   2   7  156.68   24.80
   5  -2  -7    2.50    3.10
   5  -2  -7   -0.60    3.70
   5  -2  -7    1.00    3.80
   5  -2  -7   -1.50    4.30
   5  -2  -7   12.40    7.70
   5  -2  -7    3.50    2.40
   5  -2  -7    4.10    3.80
   5  -2  -7    6.00    3.20
  -5   2   7    0.60    4.70
  -5   2   7    3.20    3.70
  -5   2   7    1.70    3.90
  -5   2   7    3.70    8.80
  -5   2   7    2.10    3.70
  -5   2   7    8.60    3.90
   4  -2  -7  127.89   12.70
   4  -2  -7   97.49   12.30
   4  -2  -7  128.59   13.50
   4  -2  -7  129.89   12.20
   4  -2  -7  135.89   13.40
   4  -2  -7  136.79   13.10
   4  -2  -7  107.69   13.30
  -4   2   7  113.09   19.60
  -4   2   7  126.59   12.80
  -4   2   7  120.59   12.70
  -4   2   7  145.29   14.20
  -4   2   7   92.69   13.70
  -4   2   7  100.49   12.70
   3  -2  -7  200.08   18.70
   3  -2  -7  193.38   17.80
   3  -2  -7  186.58   18.30
   3  -2  -7  201.48   17.60
   3  -2  -7  215.88   18.70
   3  -2  -7  211.08   18.10
  -3   2   7  150.68   17.10
  -3   2   7  151.88   18.70
  -3   2   7  160.98   23.30
  -3   2   7  183.58   17.70
  -3   2   7  170.18   18.00
  -3   2   7  169.78   18.50
  -3   2   7  154.08   17.10
  -3   2   7  177.68   17.80
   2  -2  -7 1276.67  101.49
   2  -2  -7 1153.98  101.69
   2  -2  -7 1120.29  100.99
  -2   2   7  934.01  101.29
  -2   2   7 1009.10  100.79
  -2   2   7 1227.28  101.09
  -2   2   7  993.30  100.69
  -2   2   7 1018.00  105.99
   1  -2  -7   92.59   13.70
   1  -2  -7   72.29    9.60
   1  -2  -7   60.99    7.80
   1  -2  -7   59.29    8.10
   1  -2  -7   60.49    8.00
   1  -2  -7   58.79    7.50
   1  -2  -7   68.39    7.50
   1  -2  -7   79.39    8.50
  -1   2   7   74.69    7.50
  -1   2   7   58.89    7.90
  -1   2   7   74.49    8.30
  -1   2   7   67.09    7.50
  -1   2   7   55.99   12.80
   0  -2  -7   79.29    7.70
   0  -2  -7   75.99    9.00
   0  -2  -7   68.69    8.40
   0  -2  -7   82.49   14.30
   0  -2  -7   68.99    8.10
   0  -2  -7   65.09   10.70
   0  -2  -7   63.19    8.70
   0  -2  -7   65.19    9.10
   0   2   7   76.89    8.90
   0   2   7   72.19    8.20
   0   2   7   59.39    8.80
   0   2   7   51.59   11.80
   0   2   7   67.49    7.70
   0   2   7   51.09    8.60
   0   2   7   63.59    7.70
  -1  -2  -7  106.49   13.40
  -1  -2  -7  124.39   13.20
  -1  -2  -7  116.29   12.50
  -1  -2  -7   99.59   14.90
  -1  -2  -7   95.69   11.70
  -1  -2  -7  111.29   11.50
  -1  -2  -7  115.59   13.30
   1   2   7  107.89   12.00
   1   2   7  120.29   11.60
   1   2   7  116.19   11.70
   1   2   7   84.79   17.10
   1   2   7   98.29   12.80
   1   2   7   78.99   12.90
   1   2   7  124.79   13.10
  -2  -2  -7  769.62   76.39
  -2  -2  -7  885.31   77.49
  -2  -2  -7  812.62   77.89
  -2  -2  -7  856.91   76.49
  -2  -2  -7  848.72   77.99
  -2  -2  -7  827.02   76.09
  -2  -2  -7  728.93   77.39
   2   2   7  740.93   81.39
   2   2   7  858.61   77.69
   2   2   7  820.02   76.29
   2   2   7  891.71   76.89
   2   2   7  710.63   77.19
   2   2   7  881.51   75.99
   2   2   7  718.43   77.29
  -3  -2  -7    8.50    9.50
  -3  -2  -7    5.80    5.10
  -3  -2  -7   -2.10    5.80
  -3  -2  -7   19.60    5.00
  -3  -2  -7   -6.20    8.30
   3   2   7   -2.60    5.20
   3   2   7    5.60    3.80
   3   2   7    5.00    6.70
   3   2   7   -4.50    9.00
   3   2   7    4.60    5.00
   3   2   7    0.10    4.10
   3   2   7    5.10    5.90
  -4  -2  -7  199.18   19.80
  -4  -2  -7  161.28   20.80
  -4  -2  -7  232.38   23.10
  -4  -2  -7  164.88   23.00
  -4  -2  -7  173.68   24.30
  -4  -2  -7  140.69   27.00
  -4  -2  -7  158.18   20.10
   4   2   7  164.68   19.10
   4   2   7  152.88   22.20
   4   2   7  187.78   19.80
   4   2   7  181.58   22.50
   4   2   7  181.78   23.30
   4   2   7  183.88   21.20
   4   2   7  132.09   27.10
  -5  -2  -7  155.98   25.00
  -5  -2  -7  177.68   26.70
  -5  -2  -7  168.88   22.10
  -5  -2  -7  165.28   20.50
  -5  -2  -7  186.88   24.90
  -5  -2  -7  116.29   30.80
   5   2   7  160.58   29.10
   5   2   7  167.78   25.40
   5   2   7  141.99   21.20
   5   2   7  171.48   22.40
   5   2   7  135.59   23.40
   5   2   7  177.28   20.80
   6  -3  -7   11.70    4.10
   6  -3  -7   17.10    5.00
   6  -3  -7   22.50    5.70
   6  -3  -7   12.60    3.50
   6  -3  -7   17.90    5.20
   6  -3  -7   16.80    6.10
   6  -3  -7    5.40    5.80
  -6   3   7    4.00    6.50
  -6   3   7   10.80    4.60
  -6   3   7   18.40    4.50
   5  -3  -7   21.30    4.20
   5  -3  -7   25.40    5.70
   5  -3  -7   26.60    5.10
   5  -3  -7   44.90   11.80
   5  -3  -7   24.80    3.80
   5  -3  -7   27.50    5.20
   5  -3  -7   16.50    5.00
   5  -3  -7   27.20    4.80
  -5   3   7   22.00    5.40
  -5   3   7   25.70    5.40
  -5   3   7   21.60   11.90
  -5   3   7   21.10    4.40
  -5   3   7   18.60    5.70
   4  -3  -7    9.20    2.90
   4  -3  -7   12.90    8.70
   4  -3  -7   11.70    2.90
   4  -3  -7   11.50    2.30
   4  -3  -7    5.90    3.10
   4  -3  -7    5.10    2.30
   4  -3  -7   11.20    3.20
   4  -3  -7    5.90    3.70
  -4   3   7    2.60    2.80
  -4   3   7    7.10    4.80
  -4   3   7    6.20    2.90
  -4   3   7    5.00    3.50
  -4   3   7    6.20    3.40
  -4   3   7   10.10    9.40
   3  -3  -7    2.40    2.40
   3  -3  -7    3.50    1.90
   3  -3  -7    7.50    6.80
   3  -3  -7   -1.40    1.40
   3  -3  -7    2.60    2.50
   3  -3  -7   -0.20    2.10
   3  -3  -7    2.00    2.00
   3  -3  -7   -0.60    2.50
  -3   3   7    1.10    3.20
  -3   3   7    1.80    1.90
  -3   3   7    4.00    2.50
  -3   3   7   -0.90    2.40
  -3   3   7    6.00    2.80
  -3   3   7    2.80    8.10
   2  -3  -7  292.77   29.60
   2  -3  -7  336.27   30.10
   2  -3  -7  301.37   30.40
   2  -3  -7  339.57   30.20
   2  -3  -7  330.07   30.20
  -2   3   7  350.26   29.80
  -2   3   7  277.87   29.40
  -2   3   7  280.67   29.60
  -2   3   7  287.87   29.20
  -2   3   7  374.46   30.60
  -2   3   7  255.97   35.60
   1  -3  -7   13.50    2.50
   1  -3  -7   11.70    2.70
   1  -3  -7   14.20    8.10
   1  -3  -7    5.40    3.00
   1  -3  -7   12.90    3.80
   1  -3  -7   15.60    5.10
   1  -3  -7   11.40    3.60
   1  -3  -7   10.40    3.40
  -1   3   7    4.10    3.20
  -1   3   7   15.80    3.50
  -1   3   7    8.60    3.60
  -1   3   7   11.30    2.70
  -1   3   7   -0.40    7.50
  -1   3   7   10.10    2.50
  -1   3   7    5.00    4.30
   0  -3  -7  165.48   21.70
   0  -3  -7  154.98   14.30
   0  -3  -7  152.58   16.20
   0  -3  -7  122.99   15.50
   0  -3  -7  155.88   15.40
   0  -3  -7  132.39   14.70
   0  -3  -7  115.29   17.10
   0  -3  -7  149.69   15.90
   0   3   7  161.68   15.80
   0   3   7  117.19   15.60
   0   3   7  115.39   15.10
   0   3   7  159.68   14.90
   0   3   7  137.59   21.90
   0   3   7  158.28   14.80
  -1  -3  -7  208.88   20.70
  -1  -3  -7  233.88   27.50
  -1  -3  -7  192.48   21.90
  -1  -3  -7  189.58   21.20
  -1  -3  -7  199.58   21.30
  -1  -3  -7  162.08   23.60
  -1  -3  -7  204.68   19.50
  -1  -3  -7  201.28   20.20
   1   3   7  211.68   20.30
   1   3   7  160.18   21.00
   1   3   7  197.98   27.50
   1   3   7  209.68   21.10
   1   3   7  206.48   19.40
   1   3   7  204.28   20.00
   1   3   7  190.88   21.10
   1   3   7  155.68   22.80
  -2  -3  -7   16.00    5.80
  -2  -3  -7   21.30    4.90
  -2  -3  -7    8.10    9.20
  -2  -3  -7   14.40    5.30
  -2  -3  -7   18.70    4.30
  -2  -3  -7   11.70    5.80
  -2  -3  -7   32.10   11.90
  -2  -3  -7   15.60    6.30
   2   3   7   14.70    4.70
   2   3   7   23.90    6.50
   2   3   7   13.60    3.90
   2   3   7   18.70    5.80
   2   3   7   14.90    8.70
   2   3   7   24.60    7.10
  -3  -3  -7    1.20    7.70
  -3  -3  -7    0.60    5.90
  -3  -3  -7   -6.40    7.80
  -3  -3  -7   -1.10    6.50
  -3  -3  -7    2.40   11.20
  -3  -3  -7   -0.20    5.10
  -3  -3  -7    1.90    5.00
  -3  -3  -7   12.20   11.50
   3   3   7   -2.30    4.40
   3   3   7    7.90    6.40
   3   3   7   15.00    7.90
   3   3   7    9.70    4.30
   3   3   7    5.40    5.20
   3   3   7    9.90   11.80
   3   3   7    7.00    7.20
  -4  -3  -7   44.80   21.00
  -4  -3  -7   51.39   10.00
  -4  -3  -7   62.69   10.20
  -4  -3  -7   41.60   10.50
  -4  -3  -7   22.60   11.10
  -4  -3  -7   54.29   14.10
  -4  -3  -7   44.70   12.30
   4   3   7   43.60   12.10
   4   3   7   40.20   16.50
   4   3   7   60.99    9.90
   4   3   7   31.40   12.40
   4   3   7   40.60    8.20
   4   3   7   56.79   10.90
   4   3   7   55.19   12.80
   6  -4  -7   50.69    8.50
   6  -4  -7   58.69    8.90
   6  -4  -7   45.60    7.50
   6  -4  -7   34.30    5.70
   6  -4  -7   43.60    8.20
   6  -4  -7   32.40    5.10
  -6   4   7   28.90    6.70
  -6   4   7   37.00    5.90
  -6   4   7   27.30    5.20
   5  -4  -7   -1.60    3.10
   5  -4  -7   -0.20    4.10
   5  -4  -7    0.00    9.30
   5  -4  -7   -1.00    2.20
   5  -4  -7    1.20    2.80
   5  -4  -7    2.60    3.10
   5  -4  -7    0.50    1.70
   5  -4  -7   -1.30    2.40
  -5   4   7    4.40    2.70
  -5   4   7    4.10    3.50
  -5   4   7    0.00    3.80
  -5   4   7   -0.30    3.10
  -5   4   7    0.00    2.60
   4  -4  -7   70.49    7.60
   4  -4  -7   68.39   11.50
   4  -4  -7   71.39   10.30
   4  -4  -7   81.69    8.30
   4  -4  -7   86.79    8.40
   4  -4  -7   75.19    8.30
   4  -4  -7   69.19    7.60
  -4   4   7   67.19    8.70
  -4   4   7   68.59    7.80
  -4   4   7   56.09   16.50
  -4   4   7   59.89    8.80
  -4   4   7   52.99    8.10
   3  -4  -7  429.96   37.20
   3  -4  -7  460.15   45.20
   3  -4  -7  345.57   37.50
   3  -4  -7  429.36   37.50
   3  -4  -7  344.27   36.90
   3  -4  -7  455.75   37.80
  -3   4   7  378.26   45.40
  -3   4   7  381.66   37.60
  -3   4   7  400.56   37.10
  -3   4   7  341.27   37.60
   2  -4  -7  237.38   23.30
   2  -4  -7  249.78   23.10
   2  -4  -7  261.07   23.90
   2  -4  -7  209.68   23.60
   2  -4  -7  208.98   22.80
   2  -4  -7  291.07   31.60
  -2   4   7  273.67   23.70
  -2   4   7  246.38   22.90
  -2   4   7  210.08   31.20
  -2   4   7  201.28   23.00
   1  -4  -7   10.00    9.40
   1  -4  -7    5.10    1.90
   1  -4  -7    3.40    3.10
   1  -4  -7    6.30    3.60
   1  -4  -7    8.80    6.00
   1  -4  -7    6.30    2.40
   1  -4  -7    6.40    3.90
   1  -4  -7    5.00    3.30
  -1   4   7    9.00    3.40
  -1   4   7   11.40    3.40
  -1   4   7    2.40    4.50
  -1   4   7    7.00    2.60
  -1   4   7   10.60    9.80
  -1   4   7   -0.60    3.40
  -1   4   7    6.20    2.40
   0  -4  -7    7.10    3.50
   0  -4  -7    3.00    3.60
   0  -4  -7    7.40    3.20
   0  -4  -7    6.20    1.90
   0  -4  -7   -3.40    4.20
   0  -4  -7    8.80    9.60
   0  -4  -7    5.80    4.80
   0  -4  -7   -0.80    6.20
   0   4   7    6.00   10.10
   0   4   7    7.80    3.90
   0   4   7    4.30    2.80
   0   4   7    3.10    2.90
   0   4   7    6.70    5.90
   0   4   7    2.30    3.90
   0   4   7    7.40    4.40
  -1  -4  -7    4.20    4.40
  -1  -4  -7   -0.40    3.30
  -1  -4  -7    4.20    9.80
  -1  -4  -7   -3.70    7.20
  -1  -4  -7    4.40    4.20
  -1  -4  -7   -1.60    5.10
  -1  -4  -7    7.80    2.50
   1   4   7    4.70    2.50
   1   4   7    0.90    3.20
   1   4   7    0.90    7.70
   1   4   7   -0.50    4.70
   1   4   7    2.50    3.50
   1   4   7    3.60    4.70
   1   4   7    3.00    4.30
  -2  -4  -7  212.98   22.40
  -2  -4  -7  215.98   24.70
  -2  -4  -7  199.88   21.60
  -2  -4  -7  218.48   23.40
  -2  -4  -7  147.79   26.80
  -2  -4  -7  208.68   23.50
  -2  -4  -7  230.58   32.30
   2   4   7  158.08   22.90
   2   4   7  189.48   22.80
   2   4   7  196.88   19.90
   2   4   7  219.28   23.10
   2   4   7  188.58   21.10
   2   4   7  201.08   21.70
  -3  -4  -7  342.87   32.60
  -3  -4  -7  333.07   35.80
  -3  -4  -7  253.37   39.40
  -3  -4  -7  306.67   35.50
  -3  -4  -7  358.46   33.60
  -3  -4  -7  303.67   32.60
  -3  -4  -7  331.27   34.30
   3   4   7  308.07   32.20
   3   4   7  322.27   32.90
   3   4   7  265.37   36.00
   3   4   7  233.48   37.50
   3   4   7  329.47   34.90
   3   4   7  340.77   31.20
  -4  -4  -7  131.69   25.50
  -4  -4  -7   89.99   19.60
  -4  -4  -7   95.39   15.30
  -4  -4  -7   81.09   24.80
  -4  -4  -7   94.59   16.90
  -4  -4  -7   90.09   15.00
  -4  -4  -7  100.89   19.80
  -4  -4  -7  121.89   18.40
   4   4   7   94.79   14.40
   4   4   7   92.69   17.60
   4   4   7   79.39   15.20
   4   4   7  103.19   22.20
   4   4   7  109.19   21.00
   4   4   7   62.19   13.60
   4   4   7   69.29   18.20
   6  -5  -7   38.40    6.20
   6  -5  -7   23.70    5.30
   6  -5  -7   52.79   15.60
   6  -5  -7   27.50    7.60
  -6   5   7   16.20    6.40
   5  -5  -7   31.70    4.80
   5  -5  -7   52.09   14.70
   5  -5  -7   38.40    5.30
   5  -5  -7   28.80    3.20
   5  -5  -7   26.90    5.10
   5  -5  -7   27.30    6.60
   5  -5  -7   27.70    4.70
  -5   5   7   26.90    6.00
   4  -5  -7  171.88   15.60
   4  -5  -7  163.08   15.70
   4  -5  -7  156.38   16.30
   4  -5  -7  193.08   17.80
   4  -5  -7  181.78   16.40
  -4   5   7  144.19   17.10
  -4   5   7  154.78   15.50
  -4   5   7  145.69   15.60
  -4   5   7  152.08   15.80
   3  -5  -7   84.49   11.20
   3  -5  -7  108.09   11.80
   3  -5  -7  105.69   11.00
   3  -5  -7  125.29   21.80
   3  -5  -7   94.19   10.90
   3  -5  -7  122.99   10.70
  -3   5   7  123.59   11.20
  -3   5   7   75.19   11.00
  -3   5   7   77.29   12.20
  -3   5   7   98.79   11.60
   2  -5  -7  273.97   32.10
   2  -5  -7  303.57   32.60
   2  -5  -7  368.96   34.90
   2  -5  -7  333.87   33.30
   2  -5  -7  374.96   33.10
   2  -5  -7  330.77   31.90
   2  -5  -7  367.86   42.40
  -2   5   7  371.96   32.90
  -2   5   7  344.87   32.20
   1  -5  -7   42.80   15.70
   1  -5  -7   36.00    4.00
   1  -5  -7   46.00    7.80
   1  -5  -7   30.70    5.30
   1  -5  -7   28.50    8.90
   1  -5  -7   27.30    6.20
   1  -5  -7   35.30    7.30
   1  -5  -7   36.20    6.10
  -1   5   7   19.50    7.50
  -1   5   7   39.50    7.10
  -1   5   7   30.10    5.10
  -1   5   7   29.50    5.10
  -1   5   7   33.60    4.90
   0  -5  -7  584.64   61.39
   0  -5  -7  469.75   51.89
   0  -5  -7  539.95   53.09
   0  -5  -7  523.35   49.70
   0  -5  -7  577.14   52.49
   0   5   7  466.35   51.99
   0   5   7  545.15   51.99
   0   5   7  546.25   50.89
   0   5   7  541.45   51.59
   0   5   7  579.34   50.89
  -1  -5  -7   37.00   13.20
  -1  -5  -7   51.09    8.40
  -1  -5  -7   33.10    8.80
  -1  -5  -7   25.30    9.20
  -1  -5  -7   38.70    9.00
  -1  -5  -7   42.70   16.20
  -1  -5  -7   38.90    7.30
   1   5   7   38.70    9.00
   1   5   7   38.20    5.50
   1   5   7   34.30    7.10
   1   5   7   34.80    9.30
   1   5   7   40.90    8.40
   1   5   7   33.50   11.20
   1   5   7   41.80    7.10
  -2  -5  -7    7.00   14.10
  -2  -5  -7   -4.70    6.70
  -2  -5  -7    4.70    8.40
  -2  -5  -7   -0.70    7.20
  -2  -5  -7   -3.70   11.60
  -2  -5  -7    0.10    6.60
  -2  -5  -7    5.30    5.20
   2   5   7    0.70    5.20
   2   5   7    0.80    3.00
   2   5   7    2.50    9.30
   2   5   7   -5.00    6.40
   2   5   7    0.60   10.30
   2   5   7   -0.20    5.40
   2   5   7    3.80    8.00
  -3  -5  -7   26.90    7.60
  -3  -5  -7    3.40    9.40
  -3  -5  -7   -1.70    7.50
  -3  -5  -7   16.00   11.70
  -3  -5  -7   13.00   18.60
  -3  -5  -7    3.10    7.50
  -3  -5  -7    5.20   10.00
  -3  -5  -7   21.40   16.90
   3   5   7   12.50   10.90
   3   5   7    8.50    5.30
   3   5   7   14.00    8.60
   3   5   7   -9.30   14.20
   3   5   7   16.00   10.70
   3   5   7   16.70   10.50
   3   5   7   11.60    6.90
   6  -6  -7  -17.80   14.70
   6  -6  -7   -8.20    4.00
   6  -6  -7    4.50    8.90
   6  -6  -7   13.70    6.70
   6  -6  -7   -2.80    3.50
   5  -6  -7   -0.20    5.00
   5  -6  -7    9.20   14.30
   5  -6  -7   14.90    3.80
  -5   6   7    6.00    4.80
   4  -6  -7  259.17   24.70
   4  -6  -7  306.67   26.30
   4  -6  -7  266.77   25.40
   4  -6  -7  253.37   24.80
   4  -6  -7  273.97   25.80
   4  -6  -7  278.77   27.00
  -4   6   7  223.78   26.80
   3  -6  -7    6.60    4.30
   3  -6  -7   10.80    3.60
   3  -6  -7    9.60    3.20
   3  -6  -7   12.50    4.30
   3  -6  -7    5.20    2.90
   3  -6  -7   20.30   14.60
  -3   6   7    7.80    4.30
  -3   6   7    7.20    3.50
  -3   6   7    7.80    2.40
  -3   6   7    7.60    3.00
  -3   6   7    2.10    4.20
   2  -6  -7    7.30    3.70
   2  -6  -7    7.80    4.90
   2  -6  -7   13.30    6.20
   2  -6  -7    1.70   14.40
   2  -6  -7    4.10    1.70
   2  -6  -7    2.70    4.20
  -2   6   7    3.60    2.70
  -2   6   7    3.50    7.70
  -2   6   7   -1.10    5.60
  -2   6   7    0.30    3.10
   1  -6  -7   21.20    7.10
   1  -6  -7   12.00    7.80
   1  -6  -7   20.40    6.80
   1  -6  -7   27.80    6.00
   1  -6  -7   26.60   13.70
  -1   6   7   23.50    6.20
  -1   6   7   28.90    4.20
  -1   6   7   23.70    5.50
  -1   6   7   11.10    7.30
  -1   6   7   24.90    4.20
  -1   6   7   28.20    4.80
   0  -6  -7   -1.80    5.00
   0  -6  -7    3.80    6.90
   0  -6  -7    2.80    9.20
   0  -6  -7    0.40    4.60
   0  -6  -7   13.30   13.00
   0  -6  -7   -7.60    6.20
   0  -6  -7   -0.10    3.90
   0   6   7   -0.10    3.70
   0   6   7    4.20    3.90
   0   6   7    3.90    7.90
   0   6   7    2.90    4.90
   0   6   7    1.90    5.90
   0   6   7   -5.00    5.00
  -1  -6  -7  106.89   14.80
  -1  -6  -7  118.59   14.50
  -1  -6  -7  116.49   18.60
  -1  -6  -7  156.08   30.30
  -1  -6  -7  106.69   17.50
  -1  -6  -7   91.39   16.70
  -1  -6  -7   87.09   19.70
   1   6   7  111.29   14.10
   1   6   7  116.89   16.20
   1   6   7  125.19   14.30
   1   6   7  121.89   16.30
  -2  -6  -7  169.98   20.20
  -2  -6  -7  232.98   36.30
  -2  -6  -7  137.79   27.40
  -2  -6  -7  147.09   24.30
  -2  -6  -7  172.98   20.20
  -2  -6  -7  125.49   22.30
  -2  -6  -7  149.88   20.30
  -2  -6  -7  150.18   22.50
   2   6   7  167.98   27.40
   2   6   7  175.98   23.00
   2   6   7  175.38   20.10
   2   6   7  173.78   19.90
   2   6   7  195.38   23.10
   2   6   7  159.28   16.70
   2   6   7  130.49   22.50
  -3  -6  -7   62.09   12.90
  -3  -6  -7   72.89   19.20
  -3  -6  -7   79.09   16.70
  -3  -6  -7   89.59   27.60
  -3  -6  -7   49.60   16.80
  -3  -6  -7   74.49   24.60
   3   6   7   89.09   14.00
   3   6   7   87.99   14.70
   3   6   7   52.79   20.80
   3   6   7   64.19   10.00
   3   6   7   82.89   16.40
   5  -7  -7   30.60    5.30
   5  -7  -7   26.50    8.10
   5  -7  -7   35.00    8.00
   5  -7  -7   51.89   20.00
   5  -7  -7   37.20    5.60
  -5   7   7   16.90    7.00
   4  -7  -7   11.00    5.80
   4  -7  -7   14.70    4.90
   4  -7  -7   -2.40    4.30
   4  -7  -7   27.80   19.70
   4  -7  -7    9.40    4.00
   4  -7  -7    8.70    2.20
  -4   7   7    9.20    5.10
   3  -7  -7  633.74   54.39
   3  -7  -7  596.14   52.29
   3  -7  -7  528.45   53.59
   3  -7  -7  507.25   52.19
   3  -7  -7  557.04   52.69
   3  -7  -7  497.35   53.09
   3  -7  -7  660.33   52.79
   3  -7  -7  659.83   67.89
  -3   7   7  470.05   53.09
  -3   7   7  566.24   52.19
  -3   7   7  608.74   52.59
  -3   7   7  492.65   53.79
   2  -7  -7   31.40   17.40
   2  -7  -7   43.00    7.80
   2  -7  -7   50.79   10.80
   2  -7  -7   46.20    8.50
   2  -7  -7   60.09   10.10
   2  -7  -7   47.80    7.70
   2  -7  -7   59.49   10.20
  -2   7   7   54.79    7.20
  -2   7   7   37.50    9.70
  -2   7   7   41.60    8.10
  -2   7   7   60.19    8.50
   1  -7  -7   54.99   10.10
   1  -7  -7   64.89   12.30
   1  -7  -7   52.49   13.00
   1  -7  -7   70.89   12.90
   1  -7  -7   70.39   11.60
   1  -7  -7   75.59   10.90
   1  -7  -7   82.49   23.70
  -1   7   7   67.09    6.90
  -1   7   7   69.79   10.70
  -1   7   7   64.09    9.20
  -1   7   7   65.59    6.80
  -1   7   7   54.09   10.40
   0  -7  -7   57.39   15.40
   0  -7  -7   64.79   10.60
   0  -7  -7   59.19   10.00
   0  -7  -7   77.09   24.00
   0  -7  -7   59.49   11.70
   0  -7  -7   67.09   12.60
   0  -7  -7   67.39   12.60
   0   7   7   61.69   11.80
   0   7   7   53.49   12.70
   0   7   7   54.49   13.20
   0   7   7   77.99   10.40
   0   7   7   54.19    9.20
   0   7   7   54.99    9.60
  -1  -7  -7   45.80   11.60
  -1  -7  -7   13.70    8.60
  -1  -7  -7   37.30   10.80
  -1  -7  -7   27.10    8.10
  -1  -7  -7   43.70    9.20
  -1  -7  -7   46.20   23.40
  -1  -7  -7   32.10   16.50
  -1  -7  -7   39.30   12.70
   1   7   7   27.60   10.20
   1   7   7   33.90    9.90
   1   7   7   32.80    8.00
   1   7   7   11.50   12.90
   1   7   7   44.70   11.20
   1   7   7   46.00    9.20
  -2  -7  -7   69.89   29.40
  -2  -7  -7   74.09   12.60
  -2  -7  -7   54.89   16.30
  -2  -7  -7   64.09   14.90
  -2  -7  -7   67.39   22.50
  -2  -7  -7   62.19   15.50
   2   7   7   53.49   12.20
   2   7   7   45.70   14.30
   2   7   7   26.50   17.90
   2   7   7   72.19   12.90
   2   7   7   77.69   16.30
   4  -8  -7   30.50   23.80
   4  -8  -7   29.70    4.60
   4  -8  -7   18.80    4.80
   4  -8  -7   29.10    7.40
   4  -8  -7   21.70    5.80
   4  -8  -7   21.00    7.10
  -4   8   7   15.80    6.50
   3  -8  -7  143.89   13.50
   3  -8  -7  115.19   14.70
   3  -8  -7  135.79   17.20
   3  -8  -7  109.39   14.70
   3  -8  -7  121.39   12.90
   3  -8  -7  185.18   35.00
  -3   8   7  105.99   14.30
  -3   8   7  109.89   13.80
  -3   8   7  117.99   12.30
   2  -8  -7   -6.70   23.70
   2  -8  -7   17.60    7.00
   2  -8  -7   21.30   10.10
   2  -8  -7   27.40    7.00
   2  -8  -7   26.40    5.40
   2  -8  -7   12.60   10.90
   2  -8  -7   17.40    6.90
  -2   8   7   22.70    4.80
  -2   8   7   22.10    5.80
  -2   8   7   17.70    8.70
  -2   8   7   13.50    6.90
   1  -8  -7   53.59   11.10
   1  -8  -7   40.40   13.50
   1  -8  -7   31.50    7.30
   1  -8  -7   25.10   23.40
   1  -8  -7   31.40    8.10
   1  -8  -7   23.70   10.00
   1  -8  -7   56.99   11.00
  -1   8   7   41.20    9.60
  -1   8   7   35.00    6.90
  -1   8   7   31.50    7.90
  -1   8   7    4.00   11.50
   0  -8  -7   62.79   27.80
   0  -8  -7   76.39   14.70
   0  -8  -7   74.09   13.40
   0  -8  -7   74.69   14.10
   0  -8  -7   38.00   17.30
   0  -8  -7   70.79   12.50
   0  -8  -7   61.39   10.40
   0   8   7   78.09   12.90
   0   8   7   61.39    9.90
   0   8   7   48.20    9.20
   0   8   7   30.90   15.10
   0   8   7   61.09   12.60
   0   8   7   61.69   12.70
  -1  -8  -7   -9.50   13.40
  -1  -8  -7   15.20   16.80
  -1  -8  -7  -16.80   25.80
  -1  -8  -7    3.90    8.60
  -1  -8  -7   -6.20   12.10
   1   8   7   -8.10    9.60
   1   8   7   -2.70    8.80
   1   8   7   -8.60   14.60
   1   8   7    3.90    8.10
   3  -9  -7   32.20   13.60
   3  -9  -7   38.10    8.10
   3  -9  -7   27.50   31.50
  -3   9   7   23.00    4.90
   2  -9  -7   58.39   11.70
   2  -9  -7   53.39   32.80
   2  -9  -7   80.69   14.90
   2  -9  -7   91.69   15.90
   2  -9  -7   83.89   15.40
  -2   9   7   58.39   10.70
  -2   9   7   58.39   13.10
   0  10  -8   20.60   10.60
   0  10  -8   14.70    7.20
   0  10  -8   27.40    8.10
   0  10  -8   12.60    7.70
   0 -10   8   36.50    8.70
   0 -10   8   16.20   10.10
   0 -10   8   12.70    9.40
   0 -10   8   29.80   12.40
   0 -10   8   43.00   14.60
   0 -10   8   34.20   11.60
  -1  10  -8   19.00    7.80
  -1  10  -8    4.70   11.80
  -1  10  -8   15.20    8.30
  -1  10  -8   45.20    9.80
  -1  10  -8   16.80    4.50
   1 -10   8   15.30    7.70
   1 -10   8   17.60    7.50
   1 -10   8   27.80    8.20
   1 -10   8   25.90    9.90
   1 -10   8   37.10   12.20
   1 -10   8   36.10   10.10
  -2  10  -8   32.40    8.00
   2 -10   8   19.50    8.30
   2 -10   8   57.59   10.50
   2   9  -8   28.90   10.30
   2   9  -8   32.80   13.10
   2   9  -8   14.90    9.80
   2   9  -8   14.80   14.00
   2   9  -8   22.60    8.80
   2   9  -8   -3.50    9.90
  -2  -9   8    1.00   10.60
  -2  -9   8   39.30   12.10
  -2  -9   8    3.60   15.00
  -2  -9   8    6.00   10.10
  -2  -9   8    9.10    5.60
  -2  -9   8   19.80    8.90
   1   9  -8   -2.40    7.00
   1   9  -8    3.40    8.70
   1   9  -8    7.60   11.30
   1   9  -8    4.10    6.90
   1   9  -8   -1.10    6.30
   1   9  -8    4.50    7.40
   1   9  -8   16.40    9.70
  -1  -9   8    9.50    6.80
  -1  -9   8    1.90    7.60
  -1  -9   8    4.10   11.10
  -1  -9   8    0.60    3.60
  -1  -9   8   -4.30    6.60
  -1  -9   8    2.40    8.70
  -1  -9   8   -2.70    8.60
   0   9  -8   72.59   12.10
   0   9  -8   82.99   16.00
   0   9  -8   52.29   10.10
   0   9  -8   94.09   11.90
   0   9  -8   70.99   12.30
   0   9  -8   64.69   13.90
   0  -9   8   79.19   11.80
   0  -9   8   74.79   12.70
   0  -9   8   77.59   13.40
   0  -9   8   66.19   14.90
   0  -9   8   88.89   11.60
   0  -9   8   58.19   11.30
  -1   9  -8   27.00    5.70
  -1   9  -8   32.60    5.70
  -1   9  -8   46.80    7.80
   1  -9   8   40.20    8.70
   1  -9   8   16.70   10.10
   1  -9   8   37.60    7.50
   1  -9   8   48.70   10.00
   1  -9   8   31.80    7.40
   1  -9   8   51.49    8.20
  -2   9  -8   92.09   12.40
  -2   9  -8   68.89   12.20
  -2   9  -8   90.19   13.00
  -2   9  -8   69.39   11.40
  -2   9  -8   95.79   13.50
   2  -9   8   65.89   12.80
   2  -9   8   66.39   11.20
   2  -9   8   80.09   11.80
   2  -9   8   67.89   11.60
   2  -9   8   85.19   15.30
   2  -9   8   66.99   11.50
  -3   9  -8   82.09   14.50
  -3   9  -8   83.69   11.90
  -3   9  -8  100.29   14.40
  -3   9  -8   80.09   13.40
   3  -9   8   60.09   10.10
   3  -9   8   80.09   15.50
   3  -9   8   74.99   12.00
   3  -9   8   91.89   13.40
   3  -9   8   43.60   11.30
   3  -9   8   66.59   10.70
   3  -9   8   51.09    9.70
   3   8  -8   23.30   10.00
   3   8  -8   14.50   16.10
   3   8  -8   17.30   11.10
   3   8  -8   24.90   10.10
   3   8  -8   26.30   13.80
   3   8  -8   28.30   10.80
   3   8  -8   18.20   10.50
  -3  -8   8   37.10   12.10
  -3  -8   8   29.10    6.80
  -3  -8   8   28.60   11.30
  -3  -8   8   32.50   11.90
  -3  -8   8   17.70   16.90
  -3  -8   8   21.30    8.90
   2   8  -8   14.80   10.10
   2   8  -8   10.80   10.80
   2   8  -8   10.60    7.50
   2   8  -8   18.40    8.60
   2   8  -8    4.50    7.20
   2   8  -8    9.60    7.30
   2   8  -8    8.00    7.80
  -2  -8   8   11.90    6.40
  -2  -8   8    3.60    7.80
  -2  -8   8   13.70   12.20
  -2  -8   8    2.80    5.10
  -2  -8   8    5.60    6.20
  -2  -8   8    2.60    8.10
  -2  -8   8   10.80    8.50
   1   8  -8    0.20    6.60
   1   8  -8    1.50    7.80
   1   8  -8    2.50    5.20
   1   8  -8   12.10    6.60
   1   8  -8   15.80    6.20
   1   8  -8    7.80    6.00
  -1  -8   8    8.00    3.00
  -1  -8   8   10.00    6.00
  -1  -8   8    7.90    7.20
  -1  -8   8   10.80    9.30
  -1  -8   8   16.60    7.60
   0   8  -8    4.80    5.10
   0   8  -8    6.40    5.00
   0   8  -8    6.60    4.90
   0   8  -8    2.30    6.60
   0   8  -8    7.80    6.90
   0   8  -8   -0.10    4.40
   0   8  -8    6.40    4.60
   0  -8   8   -1.40    4.50
   0  -8   8   -2.40    6.70
   0  -8   8   -3.80    4.90
   0  -8   8    2.50    5.70
   0  -8   8    4.30    5.80
   0  -8   8   10.50    4.30
  -1   8  -8   92.19   10.40
  -1   8  -8   69.99   13.10
  -1   8  -8   70.79   11.10
  -1   8  -8   67.39   11.20
  -1   8  -8  100.79   11.20
   1  -8   8   97.79   12.50
   1  -8   8   87.49   11.10
   1  -8   8   71.39   11.90
   1  -8   8   73.79   11.10
   1  -8   8   70.49   11.30
   1  -8   8   67.29   13.00
  -2   8  -8   28.60    8.10
  -2   8  -8   41.00    7.20
  -2   8  -8   38.90    6.70
  -2   8  -8   51.59    9.50
  -2   8  -8   44.70    8.30
  -2   8  -8   37.00    4.60
  -2   8  -8   34.90    8.10
   2  -8   8   40.80    7.30
   2  -8   8   46.40    8.10
   2  -8   8   42.00    7.50
   2  -8   8   35.70    6.80
   2  -8   8   29.40    8.00
   2  -8   8   38.00   10.90
   2  -8   8   36.60    8.30
  -3   8  -8   64.29   11.00
  -3   8  -8   39.60    9.30
  -3   8  -8   61.39    9.20
  -3   8  -8   50.79    8.10
  -3   8  -8   59.69   10.10
  -3   8  -8   53.79   10.00
   3  -8   8   61.69   10.10
   3  -8   8   40.60    8.40
   3  -8   8   41.60    9.30
   3  -8   8   42.80    7.60
   3  -8   8   71.39   10.10
   3  -8   8   59.69    9.60
   3  -8   8   36.40    9.90
  -4   8  -8   -1.90    5.30
  -4   8  -8    5.60    7.30
  -4   8  -8    3.80    9.30
  -4   8  -8   -3.40    5.50
  -4   8  -8    3.10    6.70
   4  -8   8    4.30    9.40
   4  -8   8    4.10    6.60
   4  -8   8  -10.10    6.40
   4  -8   8   -3.10   14.70
   4  -8   8   -6.60    6.20
   4  -8   8    1.70    4.80
   4  -8   8   -4.20    6.80
   4   7  -8   -3.60    9.60
   4   7  -8   20.30    9.00
   4   7  -8   11.60   10.40
   4   7  -8   -5.00    9.00
   4   7  -8   14.40   16.50
   4   7  -8    0.50   13.70
   4   7  -8   -6.30   16.50
   4   7  -8   -0.50    9.00
  -4  -7   8   -6.70    6.70
  -4  -7   8  -16.90   10.70
  -4  -7   8    2.00   10.50
  -4  -7   8   -6.50    8.10
  -4  -7   8   27.20   19.60
  -4  -7   8    9.80   10.70
   3   7  -8   86.69   14.20
   3   7  -8   62.49   12.30
   3   7  -8   62.19   15.80
   3   7  -8   78.79   11.90
   3   7  -8   67.29   12.40
   3   7  -8   74.09   12.70
   3   7  -8  103.19   18.60
   3   7  -8   84.39   13.90
  -3  -7   8   85.09   11.10
  -3  -7   8   86.29   16.50
  -3  -7   8   65.49   13.70
  -3  -7   8   74.79   13.60
  -3  -7   8  101.49   13.10
  -3  -7   8   52.49   16.90
  -3  -7   8   74.59   12.20
   2   7  -8   12.60    6.60
   2   7  -8   25.70    6.70
   2   7  -8   19.80    6.60
   2   7  -8   13.50    5.50
   2   7  -8    9.90    8.40
   2   7  -8   28.00    9.40
   2   7  -8   13.60    6.40
   2   7  -8    4.50    6.30
  -2  -7   8    8.30    6.70
  -2  -7   8   16.20   10.20
  -2  -7   8   24.70    6.00
  -2  -7   8   12.60    7.20
  -2  -7   8   11.70    6.90
  -2  -7   8   14.90    4.20
  -2  -7   8   12.90    5.90
   1   7  -8    6.90    4.90
   1   7  -8    2.20    6.10
   1   7  -8   -1.30    4.60
   1   7  -8   -1.60    4.50
   1   7  -8    4.40    6.40
  -1  -7   8   -7.30    4.70
  -1  -7   8    4.30    7.40
  -1  -7   8    2.90    5.40
  -1  -7   8    9.90    6.00
  -1  -7   8    6.80    4.60
  -1  -7   8    7.60    2.50
  -1  -7   8    1.80    4.10
   0   7  -8   64.49   12.30
   0   7  -8   95.29   12.00
   0   7  -8   70.89   10.10
   0   7  -8   65.89    9.60
   0   7  -8   72.09   10.10
   0   7  -8   69.29    9.40
   0   7  -8   86.69    9.80
   0  -7   8   57.79    9.70
   0  -7   8   61.79   10.10
   0  -7   8   67.99   11.00
   0  -7   8   75.89   11.30
   0  -7   8   46.60   11.10
   0  -7   8   57.99    9.30
  -1   7  -8  182.08   19.00
  -1   7  -8  175.78   18.20
  -1   7  -8  187.28   20.60
  -1   7  -8  181.88   18.40
   1  -7   8  153.18   18.50
   1  -7   8  170.58   19.00
   1  -7   8  151.48   20.30
   1  -7   8  186.28   18.80
   1  -7   8  210.28   20.90
  -2   7  -8   34.10    9.00
  -2   7  -8   56.09    9.10
  -2   7  -8   40.20    6.20
  -2   7  -8   36.60    6.50
  -2   7  -8   24.80    4.60
  -2   7  -8   29.20    7.00
  -2   7  -8   30.00    5.20
  -2   7  -8   39.40    7.60
   2  -7   8   35.60    7.80
   2  -7   8   29.30    5.90
   2  -7   8   32.30    6.50
   2  -7   8   18.90    7.40
   2  -7   8   39.10    6.70
   2  -7   8   24.10    6.60
   2  -7   8   44.30    7.90
  -3   7  -8   -3.60    3.70
  -3   7  -8    5.30    6.10
  -3   7  -8    1.20    4.90
  -3   7  -8    2.40    5.20
  -3   7  -8    1.30    4.20
   3  -7   8    5.10    6.70
   3  -7   8    1.70    4.70
   3  -7   8    4.00    5.00
   3  -7   8    9.20   11.40
   3  -7   8    2.10    5.10
   3  -7   8  -10.90    4.50
   3  -7   8    7.50    3.80
   3  -7   8    1.50    5.20
  -4   7  -8   20.20    9.10
  -4   7  -8   37.10    8.20
  -4   7  -8   41.30    8.70
  -4   7  -8   36.50    6.90
  -4   7  -8   37.00    7.90
  -4   7  -8   39.20    8.30
   4  -7   8   35.70    8.00
   4  -7   8   21.20    9.90
   4  -7   8   27.40    8.20
   4  -7   8   50.79    8.50
   4  -7   8   35.70    6.20
   4  -7   8   33.20    8.10
   4  -7   8   33.00    7.80
   4   6  -8  269.87   30.50
   4   6  -8  322.47   32.20
   4   6  -8  260.07   31.10
   4   6  -8  337.67   32.70
   4   6  -8  297.07   31.50
   4   6  -8  238.08   34.80
  -4  -6   8  301.17   33.20
  -4  -6   8  307.27   30.40
  -4  -6   8  300.17   30.60
  -4  -6   8  297.67   32.80
  -4  -6   8  234.08   32.30
   3   6  -8   38.80   11.10
   3   6  -8   33.70    7.30
   3   6  -8   43.10    8.70
   3   6  -8   74.09   11.10
   3   6  -8   50.19   11.20
   3   6  -8   36.30    8.40
   3   6  -8   44.70    9.00
   3   6  -8   27.50    8.20
  -3  -6   8   17.20    8.10
  -3  -6   8   33.00    7.40
  -3  -6   8   37.80    7.80
  -3  -6   8   46.40   10.40
  -3  -6   8   40.60    6.80
  -3  -6   8   46.30    9.40
   2   6  -8   60.69    9.30
   2   6  -8   75.39   11.40
   2   6  -8   65.79   10.50
   2   6  -8   82.19   13.50
   2   6  -8   83.89   11.60
   2   6  -8   65.99   12.50
   2   6  -8   89.89   11.30
   2   6  -8   80.09   11.30
  -2  -6   8   57.59   10.80
  -2  -6   8  101.99   12.50
  -2  -6   8   52.69    8.40
  -2  -6   8   86.29   10.40
  -2  -6   8   42.70   12.40
  -2  -6   8   64.19   11.20
  -2  -6   8   83.49   10.00
   1   6  -8   45.90    7.30
   1   6  -8   34.80    6.40
   1   6  -8   33.90    8.10
   1   6  -8   44.20    9.80
   1   6  -8   27.70    4.80
   1   6  -8   27.20    6.10
   1   6  -8   38.90    6.50
   1   6  -8   33.70    6.60
  -1  -6   8   30.30    7.20
  -1  -6   8   14.50    7.80
  -1  -6   8   38.10    6.30
  -1  -6   8   20.30    6.30
  -1  -6   8   22.60    6.30
  -1  -6   8   31.90    4.50
  -1  -6   8   37.90    6.30
   0   6  -8  349.87   29.80
   0   6  -8  294.57   29.80
   0   6  -8  281.77   29.30
   0   6  -8  259.67   29.20
   0   6  -8  290.57   31.20
   0   6  -8  360.76   31.70
   0   6  -8  303.97   29.50
   0  -6   8  310.87   29.50
   0  -6   8  238.98   30.90
   0  -6   8  278.17   29.80
   0  -6   8  319.77   31.20
  -1   6  -8  261.37   26.40
  -1   6  -8  310.87   28.00
  -1   6  -8  245.88   26.60
  -1   6  -8  236.88   26.10
  -1   6  -8  295.67   26.60
  -1   6  -8  268.67   26.70
  -1   6  -8  285.17   28.40
   1  -6   8  267.87   26.90
   1  -6   8  264.07   26.70
   1  -6   8  267.67   28.10
   1  -6   8  241.08   26.40
  -2   6  -8   24.70    6.30
  -2   6  -8   18.40    4.50
  -2   6  -8   24.30    7.00
  -2   6  -8   19.30    3.80
  -2   6  -8   28.50    5.30
  -2   6  -8   12.60    5.20
  -2   6  -8   16.90    5.30
  -2   6  -8   16.70    4.00
   2  -6   8   13.30    4.20
   2  -6   8   19.50    4.80
   2  -6   8   19.10    5.50
   2  -6   8   21.50    6.40
   2  -6   8   20.90    5.20
   2  -6   8   17.50    4.60
  -3   6  -8   49.70    8.80
  -3   6  -8   41.80    6.00
  -3   6  -8   48.40    8.10
  -3   6  -8   68.59    8.40
  -3   6  -8   47.60    8.10
  -3   6  -8   48.70    6.10
  -3   6  -8   60.69    9.70
  -3   6  -8   62.79   10.30
   3  -6   8   60.49    8.90
   3  -6   8   54.09    8.00
   3  -6   8   48.30    8.50
   3  -6   8   39.30    8.40
   3  -6   8   59.19    8.80
   3  -6   8   58.89    9.50
  -4   6  -8  315.67   31.50
  -4   6  -8  376.26   31.40
  -4   6  -8  245.88   31.70
  -4   6  -8  287.97   30.70
  -4   6  -8  350.76   33.40
   4  -6   8  323.37   31.90
   4  -6   8  321.57   30.50
   4  -6   8  251.47   31.50
   4  -6   8  322.87   31.80
   4  -6   8  314.67   31.30
   4  -6   8  296.97   31.70
  -5   6  -8   37.70    8.10
  -5   6  -8   59.59    9.40
  -5   6  -8   60.59   11.60
  -5   6  -8   34.30    9.70
   5  -6   8   45.10   10.50
   5  -6   8   68.89   12.80
   5  -6   8   48.50    7.70
   5  -6   8   24.80   15.20
   5  -6   8   60.89   14.70
   5  -6   8   57.59   10.70
   5  -6   8   49.80   10.20
   5  -6   8   26.10   13.30
   5   5  -8   54.49   11.70
   5   5  -8   45.80   10.70
   5   5  -8   55.59   12.70
   5   5  -8   40.90   16.80
   5   5  -8   49.80   15.00
   5   5  -8   34.40   10.30
  -5  -5   8   33.70   12.40
  -5  -5   8   61.89   13.70
  -5  -5   8   59.09   10.70
  -5  -5   8   52.39    9.60
  -5  -5   8   65.69   13.10
  -5  -5   8   55.59    9.30
  -5  -5   8   20.10   18.60
   4   5  -8   27.80    8.10
   4   5  -8   26.20    7.10
   4   5  -8   19.00   10.70
   4   5  -8   25.50   10.80
   4   5  -8   14.30    6.70
   4   5  -8   24.30    7.90
   4   5  -8   15.60    7.10
  -4  -5   8   11.60    5.70
  -4  -5   8   11.80    7.90
  -4  -5   8   26.10    5.90
  -4  -5   8   19.00    8.10
  -4  -5   8   35.90   13.60
  -4  -5   8    6.60   11.40
  -4  -5   8   24.30    8.40
   3   5  -8    4.40    4.00
   3   5  -8    9.80    5.30
   3   5  -8   10.10    5.40
   3   5  -8    9.30    5.20
   3   5  -8   21.00    6.00
   3   5  -8    2.60    6.90
   3   5  -8    3.60    6.90
  -3  -5   8   10.10    5.90
  -3  -5   8    4.40    4.20
  -3  -5   8   13.60    4.70
  -3  -5   8   13.00   10.20
  -3  -5   8    9.80    6.30
  -3  -5   8    3.30    6.70
  -3  -5   8    2.00    5.70
   2   5  -8   99.09   12.10
   2   5  -8   95.79   12.40
   2   5  -8  103.59   12.30
   2   5  -8   76.79   12.40
   2   5  -8  110.09   14.20
   2   5  -8  117.79   12.50
   2   5  -8   93.49   10.90
   2   5  -8  116.29   14.50
  -2  -5   8   76.59   14.70
  -2  -5   8   81.89   12.30
  -2  -5   8   88.49   11.40
  -2  -5   8   94.49   11.20
  -2  -5   8  110.79   13.50
  -2  -5   8   70.09   15.20
  -2  -5   8   87.59   10.30
   1   5  -8  131.49   14.90
   1   5  -8  125.99   14.50
   1   5  -8  164.68   15.10
   1   5  -8  153.08   15.30
   1   5  -8  120.19   14.80
   1   5  -8  127.89   13.60
   1   5  -8  163.98   16.70
   1   5  -8  134.89   16.70
  -1  -5   8  105.19   16.40
  -1  -5   8  133.99   14.40
  -1  -5   8  122.59   14.40
  -1  -5   8  120.59   14.90
  -1  -5   8  132.69   15.30
  -1  -5   8  148.89   16.20
   0   5  -8   23.20    5.00
   0   5  -8   16.40    4.30
   0   5  -8   23.60    4.60
   0   5  -8   17.80    5.80
   0   5  -8   20.00    3.10
   0   5  -8   21.30    4.50
   0   5  -8   18.30    4.80
   0   5  -8   31.70    6.10
   0  -5   8   21.20    4.70
   0  -5   8   19.10    5.70
   0  -5   8   17.20    4.60
   0  -5   8    9.60    4.10
   0  -5   8   18.70    5.40
  -1   5  -8  171.18   17.10
  -1   5  -8  169.28   17.50
  -1   5  -8  186.58   17.30
  -1   5  -8  188.38   18.40
  -1   5  -8  159.68   17.20
  -1   5  -8  180.08   19.20
  -1   5  -8  155.28   17.40
  -1   5  -8  188.28   17.60
   1  -5   8  164.48   17.40
   1  -5   8  175.08   17.30
   1  -5   8  165.98   18.50
   1  -5   8  129.39   17.20
   1  -5   8  161.78   17.20
   1  -5   8  152.98   18.70
   1  -5   8  147.59   17.50
  -2   5  -8  253.57   23.70
  -2   5  -8  218.78   23.50
  -2   5  -8  243.58   23.30
  -2   5  -8  237.98   24.50
  -2   5  -8  276.07   25.50
  -2   5  -8  206.08   23.00
  -2   5  -8  218.98   22.70
   2  -5   8  225.78   23.50
   2  -5   8  228.68   23.20
   2  -5   8  227.18   23.80
   2  -5   8  236.78   23.60
  -3   5  -8   -1.20    4.90
  -3   5  -8    5.80    3.80
  -3   5  -8   -1.20    2.30
  -3   5  -8    0.70    4.20
  -3   5  -8   -2.80    3.40
  -3   5  -8    2.30    2.90
  -3   5  -8    0.90    3.50
   3  -5   8   -0.70    7.50
   3  -5   8    7.20    4.30
   3  -5   8    1.60    4.00
   3  -5   8   -0.10    5.90
   3  -5   8    3.50    3.00
   3  -5   8   -7.30    4.30
   3  -5   8   -0.20    4.00
  -4   5  -8   27.20    6.40
  -4   5  -8   33.60    7.00
  -4   5  -8   32.70    8.40
  -4   5  -8   29.10    4.50
  -4   5  -8   29.80    6.10
   4  -5   8   13.20    6.40
   4  -5   8   49.50   12.00
   4  -5   8    7.30   13.20
   4  -5   8   11.40    6.70
   4  -5   8   30.30    5.50
   4  -5   8   34.00    7.30
   4  -5   8   37.60    7.10
   4  -5   8   12.70    6.80
  -5   5  -8  225.88   26.90
  -5   5  -8  267.47   24.90
  -5   5  -8  325.27   28.60
  -5   5  -8  275.27   27.70
  -5   5  -8  215.48   28.20
   5  -5   8  189.28   33.80
   5  -5   8  269.47   31.60
   5  -5   8  280.17   26.60
   5  -5   8  265.77   28.00
   5  -5   8  235.28   29.40
   5  -5   8  308.67   28.90
   5  -5   8  209.68   33.00
   5  -5   8  248.38   28.30
   5   4  -8   81.39   13.40
   5   4  -8  134.69   17.30
   5   4  -8  104.99   15.30
   5   4  -8   71.79   15.90
   5   4  -8  106.29   19.00
   5   4  -8  110.39   14.10
  -5  -4   8   89.79   15.60
  -5  -4   8   82.59   15.50
  -5  -4   8   93.19   13.10
  -5  -4   8   98.69   13.30
  -5  -4   8   78.69   18.90
  -5  -4   8   91.59   14.20
  -5  -4   8   81.69   15.50
   4   4  -8   11.40    6.50
   4   4  -8   11.60    7.50
   4   4  -8   -3.20    4.60
   4   4  -8   12.10    6.10
   4   4  -8   13.20    5.70
   4   4  -8    5.10    7.60
   4   4  -8    6.10    5.30
  -4  -4   8    7.70    9.20
  -4  -4   8   -0.20    6.40
  -4  -4   8    2.00    6.20
  -4  -4   8    7.30    4.50
  -4  -4   8   -2.20    4.40
  -4  -4   8    9.90   10.20
  -4  -4   8    2.80    4.30
  -4  -4   8    2.80    7.20
   3   4  -8  676.63   61.39
   3   4  -8  585.54   62.59
   3   4  -8  573.34   60.89
   3   4  -8  677.33   63.19
   3   4  -8  725.23   61.59
   3   4  -8  594.14   60.39
  -3  -4   8  639.44   60.79
  -3  -4   8  704.23   62.59
  -3  -4   8  643.64   60.49
  -3  -4   8  585.34   59.99
   2   4  -8  112.39   12.30
   2   4  -8  113.69   13.90
   2   4  -8   95.49   12.20
   2   4  -8  106.99   14.30
   2   4  -8   88.79   11.20
   2   4  -8  100.49   12.20
   2   4  -8  126.39   12.80
   2   4  -8  127.19   13.00
  -2  -4   8  116.59   12.10
  -2  -4   8   96.69   12.60
  -2  -4   8  114.49   11.80
  -2  -4   8   96.29   12.50
  -2  -4   8   95.59   11.00
  -2  -4   8   89.19   13.80
  -2  -4   8  103.49   13.50
   1   4  -8   10.60    3.50
   1   4  -8    5.30    3.80
   1   4  -8    5.50    2.80
   1   4  -8    7.70    4.30
   1   4  -8    5.10    3.00
   1   4  -8    4.70    3.00
   1   4  -8    6.40    2.20
   1   4  -8    0.90    3.10
  -1  -4   8    0.80    2.60
  -1  -4   8    1.60    6.70
  -1  -4   8    1.20    4.00
  -1  -4   8    5.40    2.80
  -1  -4   8    1.90    3.30
  -1  -4   8   -3.10    2.90
   0   4  -8  408.06   40.90
   0   4  -8  393.96   39.70
   0   4  -8  489.05   41.00
   0   4  -8  409.76   40.60
   0   4  -8  478.65   42.70
   0   4  -8  482.45   41.30
   0   4  -8  417.86   40.90
   0  -4   8  405.76   40.90
   0  -4   8  475.25   42.40
   0  -4   8  374.86   40.70
   0  -4   8  411.36   40.60
   0  -4   8  380.56   41.80
   0  -4   8  438.06   41.00
  -1   4  -8  325.77   30.70
  -1   4  -8  332.67   30.60
  -1   4  -8  341.57   30.90
  -1   4  -8  364.86   31.30
  -1   4  -8  291.37   29.40
  -1   4  -8  304.17   31.00
  -1   4  -8  359.46   32.00
  -1   4  -8  324.77   31.00
   1  -4   8  258.77   31.90
   1  -4   8  330.07   31.00
   1  -4   8  326.87   31.90
   1  -4   8  299.67   30.80
   1  -4   8  276.47   31.00
   1  -4   8  322.07   30.80
   1  -4   8  311.27   31.10
  -2   4  -8   15.80    4.00
  -2   4  -8    4.20    3.30
  -2   4  -8    7.70    3.40
  -2   4  -8    3.90    3.10
  -2   4  -8    8.30    1.30
  -2   4  -8    0.00    4.50
  -2   4  -8    4.10    4.00
  -2   4  -8    4.40    3.00
  -2   4  -8    6.70    2.70
   2  -4   8    3.80    3.30
   2  -4   8    3.60    3.20
   2  -4   8    5.30    7.00
   2  -4   8    1.40    3.40
   2  -4   8    6.10    2.50
   2  -4   8   -1.20    4.30
   2  -4   8    3.30    3.40
   2  -4   8    4.00    3.50
  -3   4  -8  173.18   17.60
  -3   4  -8  168.98   16.00
  -3   4  -8  195.78   18.40
  -3   4  -8  154.08   17.30
  -3   4  -8  155.38   17.70
  -3   4  -8  149.19   18.60
  -3   4  -8  174.68   17.00
  -3   4  -8  175.48   18.90
   3  -4   8  133.39   18.30
   3  -4   8  169.68   17.90
   3  -4   8  178.98   17.30
   3  -4   8  158.08   18.10
   3  -4   8  187.98   18.70
  -4   4  -8  156.88   18.50
  -4   4  -8  101.19   13.40
  -4   4  -8  108.29   12.40
  -4   4  -8  112.89   11.80
  -4   4  -8  109.69   13.10
  -4   4  -8  119.09   14.70
  -4   4  -8   92.59   15.00
  -4   4  -8  123.29   15.70
  -4   4  -8  120.09   12.30
   4  -4   8  109.19   14.20
   4  -4   8  114.19   13.00
   4  -4   8   82.19   15.50
   4  -4   8   91.59   14.80
   4  -4   8  117.79   14.40
   4  -4   8  114.19   14.50
   4  -4   8  147.09   18.90
  -5   4  -8   66.59   11.40
  -5   4  -8  101.79   15.00
  -5   4  -8   52.59   11.10
  -5   4  -8   56.99    7.80
  -5   4  -8   48.90   15.20
  -5   4  -8   73.69    9.40
  -5   4  -8   53.19    9.50
  -5   4  -8   61.69    8.00
   5  -4   8   43.50   12.40
   5  -4   8   67.89   12.90
   5  -4   8   72.69   11.60
   5  -4   8   80.09   10.70
   5  -4   8   58.59   12.50
   5  -4   8   65.69   10.80
   5  -4   8   53.29   14.30
   6   3  -8   94.19   14.90
   6   3  -8  120.89   19.00
   6   3  -8   66.39   13.00
   6   3  -8   88.19   16.10
   6   3  -8   52.69   14.70
   6   3  -8   60.79   12.40
   6   3  -8  107.29   19.50
  -6  -3   8   51.69   19.20
  -6  -3   8   90.69   16.80
  -6  -3   8   84.19   18.60
  -6  -3   8   81.39   14.40
  -6  -3   8   71.89   14.80
   5   3  -8  128.69   19.30
   5   3  -8  138.99   16.30
   5   3  -8   79.69   16.70
   5   3  -8  109.19   14.60
   5   3  -8  115.29   15.80
   5   3  -8  101.19   14.50
   5   3  -8  109.99   14.30
  -5  -3   8   90.59   17.80
  -5  -3   8   94.09   13.10
  -5  -3   8  153.28   22.60
  -5  -3   8  109.39   17.80
  -5  -3   8  125.79   16.60
  -5  -3   8   53.79   20.20
  -5  -3   8   82.79   14.10
   4   3  -8   27.80    6.00
   4   3  -8   21.60    8.90
   4   3  -8   22.00    5.70
   4   3  -8   20.70    7.30
   4   3  -8   14.70    5.90
   4   3  -8   30.50    7.40
   4   3  -8   25.50    6.50
  -4  -3   8   17.30    8.40
  -4  -3   8   27.30    5.80
  -4  -3   8   18.70    5.20
  -4  -3   8   26.00    5.30
  -4  -3   8   23.60    7.00
  -4  -3   8   13.70    6.50
  -4  -3   8   41.60   11.60
   3   3  -8    1.10    4.60
   3   3  -8    0.70    3.70
   3   3  -8   -0.30    3.10
   3   3  -8    2.30    3.30
   3   3  -8    1.50    3.80
   3   3  -8   -1.90    3.20
  -3  -3   8   -0.70    2.80
  -3  -3   8   -0.30    4.40
  -3  -3   8   -1.40    7.20
  -3  -3   8   -3.10    3.60
  -3  -3   8   -1.20    2.30
  -3  -3   8   -0.80    3.70
  -3  -3   8    0.70    3.90
  -3  -3   8    3.10    3.60
   2   3  -8  138.39   16.40
   2   3  -8  186.88   18.40
   2   3  -8  165.98   16.80
   2   3  -8  163.08   18.20
   2   3  -8  166.18   16.90
   2   3  -8  141.69   15.90
   2   3  -8  175.08   16.70
   2   3  -8  178.08   17.20
  -2  -3   8  131.49   16.60
  -2  -3   8  131.99   16.50
  -2  -3   8  171.58   16.50
  -2  -3   8  136.19   17.90
  -2  -3   8  178.88   18.00
   1   3  -8    0.50    2.40
   1   3  -8   -2.20    2.00
   1   3  -8    5.50    2.90
   1   3  -8   -2.20    2.50
   1   3  -8    5.60    3.50
   1   3  -8   -0.30    3.50
   1   3  -8    1.70    1.70
   1   3  -8    0.90    2.20
  -1  -3   8   -1.50    2.30
  -1  -3   8    0.10    2.50
  -1  -3   8   -1.60    2.20
  -1  -3   8    3.70    2.50
  -1  -3   8    1.50    5.40
  -1  -3   8   -1.30    3.50
  -1  -3   8    2.60    3.40
   0   3  -8   24.90    5.30
   0   3  -8   27.30    4.70
   0   3  -8   18.30    3.90
   0   3  -8   20.90    4.10
   0   3  -8   20.40    3.20
   0   3  -8   22.80    5.70
   0   3  -8   22.80    4.40
   0   3  -8   21.80    4.50
   0  -3   8   22.80    4.30
   0  -3   8   24.70    4.50
   0  -3   8   14.50    4.80
   0  -3   8   18.80    4.20
   0  -3   8   16.80    3.80
   0  -3   8   22.00    5.50
   0  -3   8   17.90    4.20
   0  -3   8   39.30    9.20
  -1   3  -8    3.00    2.10
  -1   3  -8   -3.90    2.30
  -1   3  -8   -2.60    2.70
  -1   3  -8   -0.90    2.30
  -1   3  -8    1.80    3.80
  -1   3  -8    3.50    2.50
  -1   3  -8    4.90    2.80
  -1   3  -8    4.70    3.20
   1  -3   8    1.80    3.50
   1  -3   8    4.80    2.60
   1  -3   8    0.70    2.50
   1  -3   8    1.40    2.80
   1  -3   8    0.30    1.90
   1  -3   8   -0.10    2.50
   1  -3   8    2.90    3.00
   1  -3   8   -3.00    4.90
  -2   3  -8    9.00    3.40
  -2   3  -8    7.60    3.10
  -2   3  -8    8.20    3.60
  -2   3  -8    6.10    3.00
  -2   3  -8    7.80    5.00
  -2   3  -8    3.90    1.80
  -2   3  -8    0.70    3.10
  -2   3  -8    6.30    4.10
  -2   3  -8    2.60    2.60
   2  -3   8    3.20    5.60
   2  -3   8   -4.20    4.30
   2  -3   8   -2.20    3.30
   2  -3   8    2.90    2.40
   2  -3   8   -1.10    3.50
   2  -3   8    3.70    3.00
   2  -3   8    2.00    3.20
   2  -3   8    0.10    2.70
  -3   3  -8  123.49   15.40
  -3   3  -8  127.29   13.10
  -3   3  -8  121.29   14.50
  -3   3  -8  136.09   14.10
  -3   3  -8  108.99   15.50
  -3   3  -8  155.78   18.00
  -3   3  -8  113.99   14.40
  -3   3  -8  146.99   15.40
   3  -3   8  135.69   14.80
   3  -3   8  139.69   15.50
   3  -3   8  112.29   14.50
   3  -3   8  143.49   14.10
   3  -3   8  148.39   18.30
  -4   3  -8  391.06   37.40
  -4   3  -8  358.86   39.90
  -4   3  -8  429.26   40.00
  -4   3  -8  428.76   38.70
  -4   3  -8  413.06   40.00
  -4   3  -8  350.26   37.90
  -4   3  -8  341.17   38.20
  -4   3  -8  455.75   42.20
   4  -3   8  435.36   38.40
   4  -3   8  334.97   39.60
   4  -3   8  348.57   39.60
   4  -3   8  385.06   38.80
   4  -3   8  384.46   38.90
   4  -3   8  421.06   42.40
   4  -3   8  432.66   39.70
  -5   3  -8  114.19   13.00
  -5   3  -8   97.29   14.40
  -5   3  -8   92.99   15.70
  -5   3  -8  113.69   13.40
  -5   3  -8  108.29   19.00
  -5   3  -8  103.89   12.90
   5  -3   8   91.99   16.00
   5  -3   8  118.89   15.20
   5  -3   8   96.39   13.20
   5  -3   8  117.89   15.00
   5  -3   8   70.99   15.80
   5  -3   8   75.59   17.50
   5  -3   8  100.99   16.50
   6   2  -8  -21.70    9.30
   6   2  -8    5.20    7.80
   6   2  -8   -9.70   11.10
   6   2  -8    0.10    6.60
   6   2  -8    3.00    7.30
   6   2  -8   -0.50    8.40
  -6  -2   8    6.70    6.40
  -6  -2   8    4.60    8.00
  -6  -2   8    8.90    6.40
  -6  -2   8    6.00   10.40
  -6  -2   8   10.90    5.70
  -6  -2   8   25.70   11.90
  -6  -2   8   -6.90   12.10
  -6  -2   8    0.10    7.80
   5   2  -8  126.49   14.60
   5   2  -8   94.19   13.30
   5   2  -8   84.69   12.00
   5   2  -8   76.69   14.40
   5   2  -8  118.99   15.80
   5   2  -8   91.69   12.80
   5   2  -8   95.19   13.60
  -5  -2   8   80.69   13.70
  -5  -2   8   66.29   12.50
  -5  -2   8   55.19   14.50
  -5  -2   8   95.09   11.60
  -5  -2   8   81.29   11.70
  -5  -2   8   74.29   13.20
  -5  -2   8  117.79   18.80
   4   2  -8  140.59   15.10
   4   2  -8  120.49   14.90
   4   2  -8  150.38   16.10
   4   2  -8  155.58   17.40
   4   2  -8  146.99   15.30
   4   2  -8  101.79   17.90
  -4  -2   8  131.79   14.30
  -4  -2   8  145.09   16.40
  -4  -2   8  105.49   15.40
  -4  -2   8  142.39   14.70
  -4  -2   8  101.29   15.10
   3   2  -8  195.68   20.60
   3   2  -8  231.38   21.50
   3   2  -8  193.38   20.80
   3   2  -8  218.48   21.10
   3   2  -8  231.88   22.50
   3   2  -8  187.28   22.20
   3   2  -8  221.28   21.00
  -3  -2   8  180.58   22.70
  -3  -2   8  200.88   20.40
  -3  -2   8  166.88   20.90
  -3  -2   8  207.58   20.50
  -3  -2   8  181.28   21.10
  -3  -2   8  234.38   22.30
  -3  -2   8  213.78   20.90
   2   2  -8   36.90    7.00
   2   2  -8   29.10    5.90
   2   2  -8   29.30    5.50
   2   2  -8   39.30    6.20
   2   2  -8   27.40    5.20
   2   2  -8   42.00    5.50
   2   2  -8   30.80    4.70
   2   2  -8   35.50    5.50
  -2  -2   8   51.19   10.60
  -2  -2   8   27.30    4.90
  -2  -2   8   30.90    5.40
  -2  -2   8   24.50    5.20
  -2  -2   8   41.70    7.00
  -2  -2   8   27.40    5.30
  -2  -2   8   29.00    6.50
   1   2  -8  406.96   36.40
   1   2  -8  373.36   35.00
   1   2  -8  424.36   36.00
   1   2  -8  354.96   34.60
   1   2  -8  364.06   34.90
   1   2  -8  393.86   34.80
   1   2  -8  339.97   34.80
   1   2  -8  357.46   34.20
  -1  -2   8  412.96   36.40
  -1  -2   8  318.77   34.60
  -1  -2   8  335.07   34.80
  -1  -2   8  327.37   34.60
  -1  -2   8  333.17   35.60
  -1  -2   8  331.07   34.50
   0   2  -8  593.94   50.39
   0   2  -8  493.45   49.90
   0   2  -8  622.24   51.19
   0   2  -8  557.34   49.90
   0   2  -8  548.75   49.80
   0   2  -8  526.65   50.09
   0  -2   8  519.85   49.70
   0  -2   8  481.55   49.80
   0  -2   8  593.44   50.99
   0  -2   8  472.45   51.19
   0  -2   8  502.55   49.90
   0  -2   8  475.15   50.09
   0  -2   8  478.95   49.90
  -1   2  -8   45.40    6.00
  -1   2  -8   52.79    6.90
  -1   2  -8   54.59    6.70
  -1   2  -8   51.59    8.00
  -1   2  -8   67.79    8.60
  -1   2  -8   45.10    7.20
  -1   2  -8   59.39    7.60
   1  -2   8   47.20    6.80
   1  -2   8   33.40    7.00
   1  -2   8   63.59   11.40
   1  -2   8   48.80    7.20
   1  -2   8   34.90    8.20
   1  -2   8   57.99    7.10
   1  -2   8   60.29    7.70
   1  -2   8   53.59    6.50
  -2   2  -8  123.59   11.60
  -2   2  -8  135.09   15.30
  -2   2  -8  102.69   11.20
  -2   2  -8   96.39   12.50
  -2   2  -8  103.79   12.10
  -2   2  -8  111.19   13.40
  -2   2  -8  121.19   13.10
  -2   2  -8  103.69   12.60
  -2   2  -8  128.29   12.40
   2  -2   8  134.29   16.90
   2  -2   8   86.69   12.40
   2  -2   8  120.59   13.10
   2  -2   8  101.29   12.10
   2  -2   8   79.69   12.80
   2  -2   8   96.09   12.20
   2  -2   8  109.19   11.80
  -3   2  -8    3.00    4.60
  -3   2  -8    8.20    3.80
  -3   2  -8    5.60    3.60
  -3   2  -8    5.50    5.20
  -3   2  -8    6.40    4.10
  -3   2  -8    6.60    2.90
  -3   2  -8   -1.50    6.60
  -3   2  -8   15.90    4.90
  -3   2  -8    4.60    3.40
   3  -2   8   -0.10    3.80
   3  -2   8   -3.00    6.40
   3  -2   8    4.40    5.00
   3  -2   8    5.20    3.40
   3  -2   8    9.00    3.30
   3  -2   8   -0.40    4.40
   3  -2   8    1.00    4.70
   3  -2   8   -4.90    5.80
  -4   2  -8   44.10    6.70
  -4   2  -8   49.00    9.50
  -4   2  -8   53.89    9.00
  -4   2  -8   42.40    9.30
  -4   2  -8   75.19   11.80
  -4   2  -8   59.79   12.80
  -4   2  -8   36.80    7.80
  -4   2  -8   52.09    7.80
  -4   2  -8   41.60    7.80
   4  -2   8   50.49    8.10
   4  -2   8   37.50    9.40
   4  -2   8   26.30   10.60
   4  -2   8   63.19    9.30
   4  -2   8   37.60    8.30
   4  -2   8   38.70    9.10
   4  -2   8   58.89   10.20
   4  -2   8   36.60   11.30
  -5   2  -8   15.90   10.40
  -5   2  -8   13.70    6.10
  -5   2  -8   26.80   14.20
  -5   2  -8    8.50    7.00
  -5   2  -8   15.80    5.60
   5  -2   8    2.40    7.10
   5  -2   8    9.80    5.90
   5  -2   8   24.60    7.50
   5  -2   8   -5.30    9.80
   5  -2   8    3.40    9.80
   5  -2   8   -0.80    9.90
   5  -2   8   16.90    7.80
   5  -2   8    9.10   13.60
   6   1  -8   32.70    8.60
   6   1  -8   32.10   10.30
   6   1  -8   24.50    9.80
   6   1  -8   37.40    9.20
   6   1  -8   41.40    9.10
   6   1  -8   33.20   10.10
   6   1  -8   33.50    7.60
  -6  -1   8   46.30    8.80
  -6  -1   8   31.40    9.00
  -6  -1   8   23.30   12.40
  -6  -1   8   45.90    8.00
  -6  -1   8   35.40   13.80
  -6  -1   8   26.50    9.90
  -6  -1   8   22.20    7.80
  -6  -1   8   39.50    6.70
   5   1  -8  115.59   14.80
   5   1  -8   98.99   13.50
   5   1  -8   90.99   14.70
   5   1  -8   89.59   12.40
   5   1  -8   85.09   12.10
   5   1  -8  122.09   13.00
   5   1  -8   95.69   12.70
  -5  -1   8   88.99   11.10
  -5  -1   8  109.49   12.20
  -5  -1   8   65.89   14.50
  -5  -1   8  125.09   14.20
  -5  -1   8   70.89   12.60
  -5  -1   8   85.39   12.20
  -5  -1   8   66.09   12.20
  -5  -1   8  107.59   18.40
   4   1  -8  378.06   34.10
   4   1  -8  337.77   34.10
   4   1  -8  390.86   35.70
   4   1  -8  297.57   36.00
   4   1  -8  370.16   34.70
  -4  -1   8  326.17   33.70
  -4  -1   8  287.57   34.10
  -4  -1   8  357.96   33.80
  -4  -1   8  396.96   35.40
  -4  -1   8  331.37   33.30
   3   1  -8  268.67   24.00
   3   1  -8  247.48   24.30
   3   1  -8  223.68   23.80
   3   1  -8  287.27   25.50
   3   1  -8  237.98   23.90
   3   1  -8  233.18   25.30
   3   1  -8  232.08   23.90
  -3  -1   8  212.88   23.40
  -3  -1   8  206.58   23.90
  -3  -1   8  261.57   25.20
  -3  -1   8  289.07   28.70
  -3  -1   8  246.88   23.90
  -3  -1   8  199.88   25.20
   2   1  -8   65.09    8.40
   2   1  -8   67.69    8.80
   2   1  -8   67.09    8.10
   2   1  -8   60.49    7.90
   2   1  -8   72.99    7.90
   2   1  -8   56.69    7.40
   2   1  -8   68.59    9.20
   2   1  -8   69.89    7.90
  -2  -1   8   79.79   12.80
  -2  -1   8   56.49    9.20
  -2  -1   8   64.29    8.10
  -2  -1   8   56.49    7.80
  -2  -1   8   77.99    9.40
  -2  -1   8   57.49    7.60
  -2  -1   8   52.49    7.70
   1   1  -8    9.20    2.90
   1   1  -8    9.40    5.10
   1   1  -8    5.30    2.60
   1   1  -8    7.90    3.60
   1   1  -8   12.70    3.30
   1   1  -8    6.70    2.90
   1   1  -8    6.90    2.40
   1   1  -8    5.30    2.50
   1   1  -8    7.80    2.50
  -1  -1   8   13.80    4.20
  -1  -1   8    7.30    2.90
  -1  -1   8    5.50    2.30
  -1  -1   8    5.70    2.70
  -1  -1   8    0.90    2.40
  -1  -1   8    6.20    6.10
  -1  -1   8    5.90    2.60
   0   1  -8  507.65   44.90
   0   1  -8  477.35   44.40
   0   1  -8  483.55   45.40
   0   1  -8  491.15   44.50
   0   1  -8  445.36   44.30
   0   1  -8  450.45   44.60
   0  -1   8  408.66   44.40
   0  -1   8  415.96   44.30
   0  -1   8  459.25   44.20
   0  -1   8  528.55   48.50
   0  -1   8  499.75   45.20
   0  -1   8  460.85   44.40
  -1   1  -8  163.98   16.70
  -1   1  -8  147.79   16.00
  -1   1  -8  142.49   16.90
  -1   1  -8  142.09   16.30
  -1   1  -8  172.18   15.00
  -1   1  -8  177.48   18.60
  -1   1  -8  158.58   16.10
  -1   1  -8  134.99   15.80
   1  -1   8  162.88   19.70
   1  -1   8  151.18   16.50
   1  -1   8  149.19   16.10
   1  -1   8  146.09   15.90
   1  -1   8  161.48   15.80
  -2   1  -8  563.24   56.69
  -2   1  -8  551.14   58.19
  -2   1  -8  685.93   60.29
  -2   1  -8  684.53   56.59
  -2   1  -8  622.54   57.59
  -2   1  -8  550.64   57.19
  -2   1  -8  592.44   57.59
  -2   1  -8  648.24   58.39
   2  -1   8  611.44   60.99
   2  -1   8  563.14   57.29
   2  -1   8  600.44   57.29
   2  -1   8  655.73   58.29
   2  -1   8  522.95   57.69
   2  -1   8  624.84   57.09
  -3   1  -8  195.68   19.00
  -3   1  -8  162.28   18.20
  -3   1  -8  177.98   19.00
  -3   1  -8  194.58   20.50
  -3   1  -8  151.48   19.50
  -3   1  -8  179.68   22.40
  -3   1  -8  178.98   17.70
  -3   1  -8  195.98   19.00
   3  -1   8  140.39   22.70
   3  -1   8  158.48   19.60
   3  -1   8  144.09   19.80
   3  -1   8  157.28   19.40
   3  -1   8  182.08   19.60
   3  -1   8  179.08   18.10
  -4   1  -8  288.17   28.00
  -4   1  -8  222.18   27.10
  -4   1  -8  227.58   26.50
  -4   1  -8  206.68   25.20
  -4   1  -8  243.38   27.80
  -4   1  -8  290.17   25.10
  -4   1  -8  231.98   30.60
  -4   1  -8  258.87   28.70
  -4   1  -8  244.78   25.80
   4  -1   8  238.68   26.00
   4  -1   8  226.88   27.90
   4  -1   8  262.77   27.20
   4  -1   8  199.28   29.30
   4  -1   8  253.07   25.60
   4  -1   8  271.77   25.40
   4  -1   8  240.18   27.50
  -5   1  -8   26.30   16.30
  -5   1  -8   39.70    8.60
  -5   1  -8   33.80    8.00
  -5   1  -8   10.40   20.90
  -5   1  -8   29.70   11.40
  -5   1  -8   49.10    9.80
  -5   1  -8   31.80    7.70
   5  -1   8   41.90    9.80
   5  -1   8   35.40    8.20
   5  -1   8   47.90    9.20
   5  -1   8   40.80   11.30
   5  -1   8   56.29   17.10
   5  -1   8   40.10   12.70
   5  -1   8   42.50   12.40
   6   0  -8   14.40    8.70
   6   0  -8    4.50    5.30
   6   0  -8   14.70    7.10
   6   0  -8   10.40    6.80
   6   0  -8    6.90    7.60
   6   0  -8    7.80    6.80
   6   0  -8   11.20    6.10
  -6   0   8   12.10    4.70
  -6   0   8   10.80    7.30
  -6   0   8    1.70   11.50
  -6   0   8    9.10    4.50
  -6   0   8   11.00    7.30
  -6   0   8   10.80    3.70
  -6   0   8   14.00    5.40
   5   0  -8   21.00    6.80
   5   0  -8   38.40    6.40
   5   0  -8   42.90    8.20
   5   0  -8   44.60    7.50
  -5   0   8   26.40    5.60
  -5   0   8   22.80    5.40
  -5   0   8   38.90    6.30
  -5   0   8   26.10    9.10
  -5   0   8   20.90   11.30
  -5   0   8   34.70    7.40
  -5   0   8   28.30    4.90
  -5   0   8   36.90    7.50
   4   0  -8  175.28   15.50
   4   0  -8  154.08   15.70
   4   0  -8  154.58   16.20
   4   0  -8  123.39   16.40
   4   0  -8  126.59   15.10
   4   0  -8  177.38   16.80
  -4   0   8  125.79   15.60
  -4   0   8  153.78   16.60
  -4   0   8  132.89   17.90
  -4   0   8  126.29   14.60
  -4   0   8  164.68   21.10
  -4   0   8  132.69   15.20
  -4   0   8  146.49   14.80
   3   0  -8    5.80    2.70
   3   0  -8    7.50    3.20
   3   0  -8   17.00    7.40
   3   0  -8    9.80    3.30
   3   0  -8    7.90    2.90
   3   0  -8    4.20    3.50
   3   0  -8    4.10    3.00
   3   0  -8   10.20    3.10
  -3   0   8    9.60    3.00
  -3   0   8   12.50    6.90
  -3   0   8    3.30    3.70
  -3   0   8    6.20    3.50
  -3   0   8    8.10    2.50
  -3   0   8    3.10    2.60
  -3   0   8    2.80    2.40
  -3   0   8    5.20    3.00
   2   0  -8  521.95   45.90
   2   0  -8  481.05   46.30
   2   0  -8  497.45   46.20
   2   0  -8  534.45   46.10
   2   0  -8  511.15   46.10
   2   0  -8  563.44   46.90
   2   0  -8  539.65   47.30
   2   0  -8  481.75   45.90
  -2   0   8  484.75   46.10
  -2   0   8  406.46   45.60
  -2   0   8  483.05   47.20
  -2   0   8  403.06   45.70
  -2   0   8  451.95   45.80
  -2   0   8  488.95   49.90
  -2   0   8  460.35   44.90
  -2   0   8  470.75   46.90
   1   0  -8   22.00    4.70
   1   0  -8   28.60    4.80
   1   0  -8   44.50   10.10
   1   0  -8   28.10    4.80
   1   0  -8   22.30    4.70
   1   0  -8   28.60    4.70
   1   0  -8   29.50    4.40
   1   0  -8   20.40    5.30
  -1   0   8   25.40    6.00
  -1   0   8   22.00    4.20
  -1   0   8   21.90    4.40
  -1   0   8   24.80    4.10
  -1   0   8   19.30    4.60
  -1   0   8   25.80    5.10
  -1   0   8   24.30    8.00
   0   0  -8  827.82   69.59
   0   0  -8  713.43   69.99
   0   0  -8  753.52   69.19
   0   0  -8  698.13   69.39
   0   0  -8  695.13   69.09
   0   0   8  695.53   72.79
   0   0   8  677.33   69.09
   0   0   8  765.62   69.09
   0   0   8  724.33   69.19
   0   0   8  842.92   70.19
  -1   0  -8    3.00    3.30
  -1   0  -8   -1.80    2.70
  -1   0  -8   -2.20    1.70
  -1   0  -8   -1.30    2.60
  -1   0  -8   -1.80    2.30
  -1   0  -8    2.80    4.30
  -1   0  -8    1.40    3.60
  -1   0  -8    4.60    6.20
  -1   0  -8    0.50    2.40
   1   0   8    0.50    3.20
   1   0   8   -1.80    2.10
   1   0   8    4.70    3.30
   1   0   8    0.30    2.20
   1   0   8    2.60    4.70
   1   0   8    3.40    5.90
   1   0   8    2.80    2.70
   1   0   8    6.10    2.70
  -2   0  -8   32.10    5.60
  -2   0  -8   29.30    6.20
  -2   0  -8   30.00    6.10
  -2   0  -8   34.90    4.80
  -2   0  -8   29.30    9.10
  -2   0  -8   26.70    6.70
  -2   0  -8   28.10    5.20
  -2   0  -8   19.60    6.20
  -2   0  -8   27.50    5.40
   2   0   8   17.10    7.50
   2   0   8   33.20    5.40
   2   0   8   27.50    5.70
   2   0   8   32.90    6.30
   2   0   8   30.30    9.80
   2   0   8   21.10    4.80
   2   0   8   31.50    6.80
   2   0   8   17.80    6.20
  -3   0  -8   14.90    8.80
  -3   0  -8    7.00    8.00
  -3   0  -8    0.00    5.70
  -3   0  -8    3.00    4.70
  -3   0  -8    7.20    3.30
  -3   0  -8   12.80    6.50
  -3   0  -8   11.90    6.90
  -3   0  -8   -0.80    4.30
  -3   0  -8    8.20    4.20
  -3   0  -8    4.70    3.50
   3   0   8    6.80    5.60
   3   0   8    5.30    3.60
   3   0   8    3.00    8.70
   3   0   8    4.50    7.90
   3   0   8   -0.90    4.10
   3   0   8   -3.50    5.30
   3   0   8    8.10    6.30
  -4   0  -8   10.10    6.20
  -4   0  -8   17.30   11.00
  -4   0  -8   20.90   10.50
  -4   0  -8   28.00   12.50
  -4   0  -8   11.60    5.20
  -4   0  -8   21.20    7.50
  -4   0  -8   29.10    8.20
  -4   0  -8   26.50    5.60
   4   0   8   14.30    5.40
   4   0   8   12.60    8.40
   4   0   8   10.20   11.00
   4   0   8   15.30    6.60
   4   0   8   18.80    7.30
   4   0   8    8.30    5.40
   4   0   8   23.90   11.20
   4   0   8   -1.00    8.80
  -5   0  -8  277.27   36.00
  -5   0  -8  321.87   30.30
  -5   0  -8  356.46   33.00
  -5   0  -8  259.97   34.30
  -5   0  -8  268.27   32.00
  -5   0  -8  301.17   31.90
  -5   0  -8  250.67   40.30
  -5   0  -8  295.27   31.90
   5   0   8  263.47   34.90
   5   0   8  346.17   34.50
   5   0   8  293.97   31.20
   5   0   8  320.37   31.00
   5   0   8  227.78   33.30
   5   0   8  273.17   32.40
   6  -1  -8   58.59   10.10
   6  -1  -8   49.90    8.10
   6  -1  -8   52.69   10.50
   6  -1  -8   37.40    9.60
   6  -1  -8   59.79   10.20
   6  -1  -8   53.39    8.10
   6  -1  -8   52.59    9.10
  -6   1   8   36.60   10.20
  -6   1   8   60.99   11.60
  -6   1   8   30.00   13.40
  -6   1   8   54.99    8.90
  -6   1   8   35.20    9.00
  -6   1   8   35.60    7.50
   5  -1  -8  142.19   16.60
   5  -1  -8  176.78   15.70
   5  -1  -8  142.09   17.40
   5  -1  -8  159.88   16.40
   5  -1  -8  188.18   18.40
   5  -1  -8  138.89   15.70
  -5   1   8  181.28   17.60
  -5   1   8  130.89   14.30
  -5   1   8  143.69   15.40
  -5   1   8  135.99   14.10
  -5   1   8  124.89   18.10
  -5   1   8  122.19   23.40
  -5   1   8  120.09   16.10
   4  -1  -8 1544.75  155.58
   4  -1  -8 1821.82  153.88
   4  -1  -8 1879.21  153.68
   4  -1  -8 1540.35  153.48
   4  -1  -8 1905.01  154.28
   4  -1  -8 1620.54  154.98
  -4   1   8 1545.65  153.28
  -4   1   8 1869.61  154.88
  -4   1   8 1443.46  152.88
  -4   1   8 1548.55  158.18
  -4   1   8 1411.76  153.68
  -4   1   8 1806.32  153.78
   3  -1  -8  216.98   19.90
   3  -1  -8  208.38   19.50
   3  -1  -8  209.78   19.30
   3  -1  -8  198.78   18.90
   3  -1  -8  183.48   19.00
   3  -1  -8  205.28   20.30
   3  -1  -8  204.48   19.50
  -3   1   8  201.48   20.60
  -3   1   8  171.58   24.20
  -3   1   8  182.98   18.50
  -3   1   8  195.38   19.20
  -3   1   8  168.78   20.20
  -3   1   8  171.98   19.00
  -3   1   8  156.68   18.70
   2  -1  -8  129.39   13.30
   2  -1  -8  131.39   13.10
   2  -1  -8  118.39   12.40
   2  -1  -8  139.89   14.20
   2  -1  -8  140.69   12.80
   2  -1  -8  129.69   13.20
   2  -1  -8  134.89   12.90
  -2   1   8  103.59   12.90
  -2   1   8  118.99   13.40
  -2   1   8   99.39   13.80
  -2   1   8  110.69   17.80
  -2   1   8  110.19   12.30
  -2   1   8  121.59   12.50
  -2   1   8  102.49   11.50
   1  -1  -8   82.19   10.40
   1  -1  -8   74.99    8.50
   1  -1  -8   72.49    8.10
   1  -1  -8   68.99    8.70
   1  -1  -8   66.99    8.70
   1  -1  -8   64.79    7.80
   1  -1  -8   77.39    8.50
   1  -1  -8  101.59   14.60
  -1   1   8   46.40    9.70
  -1   1   8   66.99    7.80
  -1   1   8   62.79   13.50
  -1   1   8   54.99    8.60
  -1   1   8   76.29    9.00
  -1   1   8   66.29    7.90
  -1   1   8   48.20    8.10
   0  -1  -8   18.20    5.00
   0  -1  -8   40.20   10.60
   0  -1  -8   21.80    4.70
   0  -1  -8   26.00    6.50
   0  -1  -8   20.80    4.00
   0  -1  -8   24.00    5.20
   0  -1  -8   23.70    5.10
   0  -1  -8   29.60    4.60
   0   1   8   23.90    5.10
   0   1   8   15.70    5.80
   0   1   8   22.30    4.20
   0   1   8   26.60    4.30
   0   1   8   15.90    8.00
   0   1   8   25.00    5.10
   0   1   8   18.80    4.80
   0   1   8   30.70    4.80
  -1  -1  -8  784.42   74.89
  -1  -1  -8  825.72   75.99
  -1  -1  -8  804.52   75.29
  -1  -1  -8  925.11   75.69
  -1  -1  -8  842.42   74.69
  -1  -1  -8  753.02   75.79
  -1  -1  -8  794.02   77.49
   1   1   8  838.12   74.69
   1   1   8  818.62   74.69
   1   1   8  810.62   74.99
   1   1   8  676.63   75.09
   1   1   8  888.51   75.89
   1   1   8  747.53   79.39
   1   1   8  654.63   75.29
  -2  -1  -8   18.20    6.90
  -2  -1  -8   46.20   12.20
  -2  -1  -8   30.00    5.60
  -2  -1  -8   25.90    6.40
  -2  -1  -8   31.50    5.40
  -2  -1  -8   31.70    9.40
  -2  -1  -8   26.60    7.40
  -2  -1  -8   27.10    6.70
  -2  -1  -8   29.30    5.60
   2   1   8   25.80    5.10
   2   1   8   17.50    8.30
   2   1   8   23.80    4.80
   2   1   8   22.00   10.30
   2   1   8   17.10    5.80
   2   1   8   17.00    5.10
   2   1   8   24.00    6.30
  -3  -1  -8  193.78   20.80
  -3  -1  -8  137.89   24.00
  -3  -1  -8  184.28   19.50
  -3  -1  -8  142.69   22.10
  -3  -1  -8  165.78   21.80
  -3  -1  -8  189.28   19.60
  -3  -1  -8  184.68   19.70
  -3  -1  -8  209.28   20.70
   3   1   8  175.78   26.10
   3   1   8  179.98   19.20
   3   1   8  210.38   21.60
   3   1   8  173.38   19.70
   3   1   8  157.38   21.10
   3   1   8  175.88   21.00
  -4  -1  -8  119.89   15.00
  -4  -1  -8  108.29   20.60
  -4  -1  -8  105.79   17.40
  -4  -1  -8  108.09   13.40
  -4  -1  -8  114.19   16.60
   4   1   8   76.79   18.80
   4   1   8   78.29   15.90
   4   1   8   98.49   16.90
   4   1   8  112.19   16.70
   4   1   8  114.79   14.40
   4   1   8   79.89   13.40
   4   1   8  111.49   14.90
  -5  -1  -8    4.80   14.40
  -5  -1  -8    2.40   11.70
  -5  -1  -8   15.50    5.60
  -5  -1  -8   27.30   21.30
  -5  -1  -8   -5.90    8.70
  -5  -1  -8   -2.20   10.70
  -5  -1  -8   -5.80    7.60
   5   1   8    4.70    8.40
   5   1   8    9.20   10.00
   5   1   8   -8.00    7.20
   5   1   8    2.30   12.90
   5   1   8    3.50   18.50
   5   1   8    6.70    9.40
   6  -2  -8   22.10    6.50
   6  -2  -8   18.70    6.50
   6  -2  -8   22.30    6.80
   6  -2  -8   19.90    4.60
   6  -2  -8   25.00    7.10
   6  -2  -8   29.00    7.40
  -6   2   8   11.90    6.60
  -6   2   8   16.10    5.60
  -6   2   8   12.50    6.40
  -6   2   8   12.40    5.00
  -6   2   8   16.00   13.20
  -6   2   8   26.40    8.40
   5  -2  -8   30.60   10.90
   5  -2  -8   15.60    5.20
   5  -2  -8   18.10    3.60
   5  -2  -8   14.90    4.40
   5  -2  -8    9.60    4.90
   5  -2  -8   18.00    5.10
   5  -2  -8   14.50    5.50
   5  -2  -8   13.20    4.00
  -5   2   8   11.90    4.20
  -5   2   8   22.30    5.80
  -5   2   8   10.00    5.70
  -5   2   8   14.20    4.60
  -5   2   8    3.50   10.60
  -5   2   8   19.30    5.20
   4  -2  -8  106.19   11.90
   4  -2  -8  133.89   13.00
   4  -2  -8  132.79   12.80
   4  -2  -8  109.29   12.20
   4  -2  -8  121.89   11.80
  -4   2   8   91.69   13.40
  -4   2   8  108.39   19.50
  -4   2   8  103.99   12.30
  -4   2   8  105.89   12.40
  -4   2   8   98.79   12.00
  -4   2   8  114.79   13.70
   3  -2  -8   43.30    5.80
   3  -2  -8   67.39   13.30
   3  -2  -8   36.70    6.40
   3  -2  -8   45.20    6.00
   3  -2  -8   36.70    5.40
   3  -2  -8   41.40    6.10
   3  -2  -8   41.40    5.20
   3  -2  -8   39.30    6.60
  -3   2   8   33.80    6.60
  -3   2   8   40.70    5.70
  -3   2   8   30.00    5.60
  -3   2   8   33.60    5.20
  -3   2   8   32.50    4.70
  -3   2   8   30.10    4.80
  -3   2   8   24.80    6.20
  -3   2   8   31.90   11.50
   2  -2  -8   25.00    4.20
   2  -2  -8   17.50    4.20
   2  -2  -8   17.50    4.00
   2  -2  -8   17.10    3.30
   2  -2  -8   25.00    9.30
   2  -2  -8   21.00    4.10
   2  -2  -8   16.90    3.80
   2  -2  -8   18.80    5.00
  -2   2   8   14.90    3.20
  -2   2   8    8.60    8.50
  -2   2   8   15.80    4.10
  -2   2   8   15.30    3.20
  -2   2   8   23.20    4.80
  -2   2   8   16.80    3.10
  -2   2   8   14.50    3.50
   1  -2  -8    1.90    2.90
   1  -2  -8    5.20    3.00
   1  -2  -8    1.80    2.50
   1  -2  -8    1.60    2.00
   1  -2  -8    1.40    2.20
   1  -2  -8    5.10    6.50
   1  -2  -8    1.00    3.40
   1  -2  -8   -0.40    2.50
  -1   2   8    8.20    7.60
  -1   2   8    1.10    3.90
  -1   2   8    2.00    2.60
  -1   2   8    2.40    2.20
  -1   2   8   -2.80    2.60
  -1   2   8    1.40    1.90
  -1   2   8    0.60    2.70
   0  -2  -8   55.79    7.50
   0  -2  -8   49.80    7.50
   0  -2  -8   43.80    6.20
   0  -2  -8   51.39    9.70
   0  -2  -8   46.90    7.80
   0  -2  -8   45.70    6.80
   0  -2  -8   45.60    5.60
   0   2   8   45.40    6.40
   0   2   8   39.80    5.70
   0   2   8   43.40    6.00
   0   2   8   27.70   10.60
   0   2   8   51.39    7.30
   0   2   8   28.90    8.00
   0   2   8   36.40    7.30
   0   2   8   38.10    6.80
  -1  -2  -8   62.69   10.50
  -1  -2  -8   63.19   12.80
  -1  -2  -8   81.59   10.10
  -1  -2  -8   78.19    8.80
  -1  -2  -8   82.19   11.50
  -1  -2  -8  104.49   16.90
  -1  -2  -8   82.09   10.60
  -1  -2  -8   58.89    8.80
   1   2   8   79.39    8.70
   1   2   8   81.59   10.30
   1   2   8   72.99    8.90
   1   2   8   66.09   15.20
   1   2   8   78.59    9.40
   1   2   8   52.19   10.10
   1   2   8   66.49   10.10
   1   2   8   50.89   11.60
  -2  -2  -8  185.48   20.30
  -2  -2  -8  205.58   21.40
  -2  -2  -8  164.38   24.30
  -2  -2  -8  213.98   19.90
  -2  -2  -8  184.48   22.20
  -2  -2  -8  174.58   21.20
   2   2   8  181.98   21.60
   2   2   8  157.58   23.80
   2   2   8  173.98   27.30
   2   2   8  181.38   20.30
   2   2   8  197.38   19.20
   2   2   8  211.28   21.40
   2   2   8  178.18   21.30
   2   2   8  192.18   19.70
  -3  -2  -8   15.60    7.20
  -3  -2  -8   17.60    9.40
  -3  -2  -8   20.20    5.90
  -3  -2  -8   16.50   12.90
  -3  -2  -8   12.10    6.40
  -3  -2  -8   14.20    5.80
  -3  -2  -8   13.60    7.20
  -3  -2  -8   18.70   11.60
   3   2   8   15.60   10.60
   3   2   8   18.50    6.70
   3   2   8   24.50    6.50
   3   2   8   11.20    5.90
   3   2   8   35.20    7.80
   3   2   8   16.70    5.50
   3   2   8   17.40    8.10
  -4  -2  -8   85.19   13.30
  -4  -2  -8   51.59   13.00
  -4  -2  -8   63.49   12.90
  -4  -2  -8   58.19   11.30
  -4  -2  -8   84.09   20.40
  -4  -2  -8   79.49   15.00
  -4  -2  -8  100.59   20.40
   4   2   8   50.19    9.80
   4   2   8   58.19   13.70
   4   2   8   51.89   11.20
   4   2   8   53.69   10.30
   4   2   8   54.29   12.80
   4   2   8   59.29   13.20
   6  -3  -8  233.28   21.50
   6  -3  -8  214.78   23.70
   6  -3  -8  206.08   22.00
   6  -3  -8  227.18   22.70
   6  -3  -8  199.18   23.30
   6  -3  -8  253.57   23.00
  -6   3   8  202.18   23.20
  -6   3   8  189.58   22.30
   5  -3  -8  234.68   24.20
   5  -3  -8  279.57   23.30
   5  -3  -8  232.88   24.60
   5  -3  -8  276.87   24.00
   5  -3  -8  264.77   25.10
   5  -3  -8  282.57   24.40
  -5   3   8  204.38   24.60
  -5   3   8  197.08   24.90
  -5   3   8  226.88   23.90
  -5   3   8  199.78   23.90
  -5   3   8  197.68   32.50
  -5   3   8  243.98   24.00
   4  -3  -8   77.39    8.60
   4  -3  -8   79.99    9.90
   4  -3  -8   76.49    9.40
   4  -3  -8   87.59    9.10
   4  -3  -8   96.29    9.40
   4  -3  -8   74.99    8.20
   4  -3  -8   76.59    9.90
  -4   3   8   70.19    9.20
  -4   3   8   60.29   16.90
  -4   3   8   66.59    8.80
  -4   3   8   58.29    9.90
  -4   3   8   57.09   10.30
  -4   3   8   78.99    9.20
   3  -3  -8   16.80    9.70
   3  -3  -8    9.90    2.50
   3  -3  -8   14.90    3.80
   3  -3  -8   10.80    2.90
   3  -3  -8   12.30    3.60
   3  -3  -8   16.80    4.10
   3  -3  -8    5.50    3.90
   3  -3  -8   16.60    3.80
  -3   3   8   11.30    3.50
  -3   3   8    8.30    9.50
  -3   3   8   14.80    4.00
  -3   3   8    9.30    3.40
  -3   3   8    8.60    4.40
  -3   3   8    8.20    2.80
   2  -3  -8  312.57   28.00
   2  -3  -8  260.87   27.40
   2  -3  -8  331.37   28.30
   2  -3  -8  321.77   28.40
  -2   3   8  272.77   27.10
  -2   3   8  247.98   27.10
  -2   3   8  314.17   29.50
  -2   3   8  252.17   34.50
  -2   3   8  250.57   27.40
  -2   3   8  309.67   27.60
   1  -3  -8    5.10    7.90
   1  -3  -8   10.00    5.40
   1  -3  -8    2.80    2.80
   1  -3  -8    1.80    2.40
   1  -3  -8    1.20    3.40
   1  -3  -8    2.00    2.80
   1  -3  -8    8.40    2.40
   1  -3  -8    1.70    3.30
  -1   3   8   -3.30    8.20
  -1   3   8    1.50    5.00
  -1   3   8    3.20    2.90
  -1   3   8   -0.60    3.40
  -1   3   8    5.30    2.40
  -1   3   8    4.10    3.10
  -1   3   8    2.30    2.10
   0  -3  -8  233.28   28.20
   0  -3  -8  213.38   23.10
   0  -3  -8  202.98   24.00
   0  -3  -8  249.68   23.80
   0  -3  -8  241.48   22.70
   0  -3  -8  264.37   24.60
   0  -3  -8  245.78   24.90
   0   3   8  248.38   23.30
   0   3   8  242.58   23.10
   0   3   8  238.78   30.70
   0   3   8  249.58   24.20
   0   3   8  200.68   23.70
   0   3   8  199.48   24.00
  -1  -3  -8  271.27   28.80
  -1  -3  -8  234.48   30.80
  -1  -3  -8  275.27   27.60
  -1  -3  -8  284.17   26.40
  -1  -3  -8  276.17   28.20
  -1  -3  -8  267.77   26.90
  -1  -3  -8  262.27   28.30
   1   3   8  295.37   28.30
   1   3   8  226.58   27.90
   1   3   8  284.87   27.10
   1   3   8  266.07   26.70
   1   3   8  271.27   34.40
   1   3   8  273.97   26.20
   1   3   8  263.97   27.90
  -2  -3  -8   48.40    8.00
  -2  -3  -8   42.40    8.70
  -2  -3  -8   53.99    9.90
  -2  -3  -8   46.60    8.10
  -2  -3  -8   43.10   13.20
  -2  -3  -8   59.49   15.90
  -2  -3  -8   40.60    9.60
  -2  -3  -8   49.99   10.70
  -2  -3  -8   56.59    8.90
   2   3   8   21.40   12.40
   2   3   8   41.30    9.30
   2   3   8   49.70    9.50
   2   3   8   57.99    9.20
   2   3   8   54.99    9.80
   2   3   8   48.80    7.40
  -3  -3  -8    2.60    7.30
  -3  -3  -8    4.80    6.10
  -3  -3  -8    4.00    7.40
  -3  -3  -8    9.60    9.20
  -3  -3  -8   -0.30   13.40
  -3  -3  -8    7.20   17.30
   3   3   8    2.20    7.70
   3   3   8    2.20    5.20
   3   3   8    4.20    6.20
   3   3   8    2.50    8.50
   3   3   8   14.10   12.10
   3   3   8   -0.10    5.40
  -4  -3  -8   14.00   10.10
  -4  -3  -8   21.10   11.10
  -4  -3  -8    4.20   19.80
  -4  -3  -8   16.20    8.40
  -4  -3  -8   21.10   18.60
  -4  -3  -8   24.80    8.40
  -4  -3  -8   50.69   14.80
   4   3   8   -0.90   10.90
   4   3   8   39.30   17.40
   4   3   8   23.70   11.50
   4   3   8   -0.90   11.60
   4   3   8   22.30    7.90
   4   3   8   14.20    8.20
   4   3   8   26.10    9.50
   6  -4  -8  -12.10   12.10
   6  -4  -8   10.90    4.70
   6  -4  -8   -0.10    4.50
   6  -4  -8    6.20    3.40
   6  -4  -8    8.30    5.40
   6  -4  -8    5.00    2.70
   6  -4  -8    5.80    5.90
   6  -4  -8   -0.80    3.60
  -6   4   8    2.40    4.10
  -6   4   8   10.30    4.20
  -6   4   8    5.80    4.80
   5  -4  -8  492.85   41.80
   5  -4  -8  469.55   42.70
   5  -4  -8  469.65   41.50
   5  -4  -8  396.26   40.90
   5  -4  -8  431.66   41.50
   5  -4  -8  403.06   40.70
  -5   4   8  394.06   41.90
   4  -4  -8   47.60    5.90
   4  -4  -8   42.80    6.70
   4  -4  -8   54.89    8.20
   4  -4  -8   35.70    5.50
   4  -4  -8   49.90    6.90
   4  -4  -8   48.80    7.40
   4  -4  -8   71.89   16.20
  -4   4   8   28.30    6.00
  -4   4   8   26.80   15.30
  -4   4   8   43.10    6.60
  -4   4   8   38.70    7.40
   3  -4  -8    7.50    2.80
   3  -4  -8    1.90    9.10
   3  -4  -8    5.20    2.30
   3  -4  -8    5.80    3.30
   3  -4  -8    2.50    3.10
   3  -4  -8    7.00    3.30
  -3   4   8    5.60    3.00
  -3   4   8    7.50    2.50
  -3   4   8   11.30    3.80
  -3   4   8   -0.70    4.30
  -3   4   8    3.90    3.40
  -3   4   8    9.20   12.20
   2  -4  -8    4.30    3.60
   2  -4  -8    3.40    3.30
   2  -4  -8    1.80    4.60
   2  -4  -8   -0.30    9.10
   2  -4  -8    5.20    2.30
   2  -4  -8    6.20    2.60
   2  -4  -8    0.40    3.00
   2  -4  -8    3.90    3.60
  -2   4   8    4.30    1.70
  -2   4   8    6.10    3.30
  -2   4   8    3.60    2.30
  -2   4   8    0.00    3.30
  -2   4   8    5.60    1.90
  -2   4   8    0.90   12.90
   1  -4  -8    0.00    3.10
   1  -4  -8    2.10    4.10
   1  -4  -8    8.10    8.90
   1  -4  -8   -0.20    1.90
   1  -4  -8    0.40    3.30
   1  -4  -8   -4.70    2.20
   1  -4  -8    4.80    5.70
   1  -4  -8    5.40    4.30
  -1   4   8   -7.50    3.40
  -1   4   8    4.20    2.40
  -1   4   8    2.10    2.40
  -1   4   8    1.20    3.40
  -1   4   8    1.70    3.60
   0  -4  -8    0.00    3.80
   0  -4  -8   -2.40    4.50
   0  -4  -8   -1.80    9.30
   0  -4  -8   -1.20    2.80
   0  -4  -8  -11.80    6.00
   0  -4  -8    0.80    2.00
   0  -4  -8    1.40    4.80
   0   4   8    1.30    3.10
   0   4   8    5.40    3.10
   0   4   8    2.90    6.20
   0   4   8   -7.50   11.30
   0   4   8    0.00    3.60
   0   4   8    6.60    4.50
  -1  -4  -8  215.28   24.00
  -1  -4  -8  203.98   20.10
  -1  -4  -8  260.17   32.00
  -1  -4  -8  179.98   22.40
  -1  -4  -8  196.28   21.20
  -1  -4  -8  202.18   22.90
  -1  -4  -8  202.98   21.80
   1   4   8  207.78   22.50
   1   4   8  171.68   22.60
   1   4   8  196.78   21.20
   1   4   8  206.28   20.00
   1   4   8  199.98   20.90
  -2  -4  -8   10.10    6.20
  -2  -4  -8   15.30    8.70
  -2  -4  -8    9.50    7.50
  -2  -4  -8   -0.90   13.30
  -2  -4  -8   13.60   11.90
  -2  -4  -8   -1.60    5.80
   2   4   8   15.50    7.70
   2   4   8    2.80    6.10
   2   4   8    5.00    5.80
   2   4   8    0.30    4.90
   2   4   8   -0.30    3.60
   2   4   8    5.50   11.30
   2   4   8    2.60    7.00
  -3  -4  -8   54.89   10.80
  -3  -4  -8   45.00   18.80
  -3  -4  -8   33.10    9.20
  -3  -4  -8   59.09   12.20
  -3  -4  -8   26.50   12.40
  -3  -4  -8   67.19   20.90
  -3  -4  -8   42.70   12.00
  -3  -4  -8   39.60   10.50
   3   4   8   51.99   12.10
   3   4   8   43.10   10.10
   3   4   8   51.59   12.10
   3   4   8   41.50    9.40
   3   4   8   38.60   15.70
   3   4   8   41.50    7.90
   6  -5  -8   23.00    6.40
   6  -5  -8   37.50    8.50
   6  -5  -8   30.40    5.80
  -6   5   8   22.50    6.90
   5  -5  -8  108.89   13.30
   5  -5  -8   94.69   11.30
   5  -5  -8   96.09   11.10
   5  -5  -8   93.89   10.10
   5  -5  -8  100.59   10.20
   5  -5  -8  116.09   11.60
   5  -5  -8  117.89   11.80
  -5   5   8  101.59    9.80
  -5   5   8   98.09   12.20
  -5   5   8   88.19    9.70
   4  -5  -8    5.00    4.50
   4  -5  -8    4.90    3.50
   4  -5  -8    9.70    3.80
   4  -5  -8   15.60    3.90
   4  -5  -8   15.90    4.10
   4  -5  -8   11.40    2.80
   4  -5  -8    9.70   13.00
   4  -5  -8    7.70    2.50
  -4   5   8    3.20    3.40
  -4   5   8    1.80    3.40
  -4   5   8   15.30    4.90
  -4   5   8   12.00    2.80
  -4   5   8   10.40    4.20
   3  -5  -8   51.09   16.10
   3  -5  -8   36.60    6.30
   3  -5  -8   27.60    4.90
   3  -5  -8   40.60    7.60
   3  -5  -8   32.80    5.60
   3  -5  -8   40.40    6.40
   3  -5  -8   26.10    5.70
   3  -5  -8   40.50    5.70
  -3   5   8   30.30    6.10
  -3   5   8   37.50    5.50
  -3   5   8   18.70   15.50
  -3   5   8   23.70    5.30
  -3   5   8   18.00    6.40
  -3   5   8   37.20    6.30
   2  -5  -8   40.40    8.10
   2  -5  -8   37.50   12.70
   2  -5  -8   33.80    5.90
   2  -5  -8   37.60    6.40
   2  -5  -8   26.90    4.40
   2  -5  -8   20.70    5.40
   2  -5  -8   26.60    4.90
   2  -5  -8   35.10    7.20
  -2   5   8   38.90   16.20
  -2   5   8   16.60    7.00
  -2   5   8   35.50    6.00
  -2   5   8   22.70    9.30
  -2   5   8   31.10    5.20
   1  -5  -8   12.00    2.20
   1  -5  -8   13.50    5.80
   1  -5  -8    6.00    4.00
   1  -5  -8    8.80    3.60
   1  -5  -8    3.40    7.00
   1  -5  -8   11.30   13.20
   1  -5  -8    6.10    5.50
   1  -5  -8   11.50    4.40
  -1   5   8    8.10    3.50
  -1   5   8    2.90    3.70
  -1   5   8    6.70    6.80
  -1   5   8    8.40    2.80
  -1   5   8   13.20    5.40
  -1   5   8   12.40    5.20
   0  -5  -8  216.28   31.70
   0  -5  -8  188.78   21.30
   0  -5  -8  181.88   18.90
   0  -5  -8  166.18   18.10
   0  -5  -8  167.78   16.70
   0  -5  -8  164.28   23.50
   0  -5  -8  149.88   19.30
   0  -5  -8  179.48   20.70
   0   5   8  184.48   18.10
   0   5   8  148.69   19.50
   0   5   8  176.48   19.40
   0   5   8  172.98   19.40
   0   5   8  184.48   18.10
   0   5   8  121.39   21.50
  -1  -5  -8   19.60    8.30
  -1  -5  -8   21.00   15.60
  -1  -5  -8   26.30   12.30
  -1  -5  -8    7.50    8.20
  -1  -5  -8   44.50    7.90
   1   5   8   21.50    7.70
   1   5   8   11.80    7.90
   1   5   8   35.70    7.00
   1   5   8   17.30   10.60
   1   5   8   23.30    6.00
   1   5   8   30.00    7.60
  -2  -5  -8  128.49   17.60
  -2  -5  -8  118.09   18.70
  -2  -5  -8   95.19   16.70
  -2  -5  -8  109.49   22.50
  -2  -5  -8   98.49   14.90
  -2  -5  -8  100.59   15.00
  -2  -5  -8  110.79   15.10
  -2  -5  -8  127.39   26.60
   2   5   8  104.89   14.50
   2   5   8  111.89   17.60
   2   5   8   99.49   15.90
   2   5   8  103.19   14.60
   2   5   8   95.09   12.10
   2   5   8   89.79   16.10
   2   5   8   81.19   19.30
  -3  -5  -8  106.49   25.00
  -3  -5  -8  122.39   28.20
  -3  -5  -8  124.79   17.90
  -3  -5  -8  131.59   21.10
  -3  -5  -8   88.19   14.40
  -3  -5  -8   95.79   19.80
  -3  -5  -8   85.39   17.30
   3   5   8   78.89   18.40
   3   5   8   71.79   18.00
   3   5   8  111.99   14.20
   3   5   8   81.39   17.50
   3   5   8   48.40   19.50
   3   5   8   96.89   16.40
   3   5   8   99.99   15.50
   5  -6  -8   19.40    6.70
   5  -6  -8   21.30    5.10
   5  -6  -8   35.10   16.60
  -5   6   8   15.40    6.00
   4  -6  -8   97.99   10.00
   4  -6  -8   82.89   10.30
   4  -6  -8   88.39    8.80
   4  -6  -8   77.89   10.10
   4  -6  -8  133.09   27.50
   4  -6  -8   95.39   11.00
   4  -6  -8   83.29   12.20
  -4   6   8   78.69   11.00
  -4   6   8   67.59    8.50
  -4   6   8   74.09    9.10
   3  -6  -8  168.28   15.30
   3  -6  -8  142.19   15.50
   3  -6  -8  145.29   15.00
   3  -6  -8  125.69   14.60
   3  -6  -8  161.38   16.90
   3  -6  -8  128.59   15.80
   3  -6  -8  158.88   30.10
  -3   6   8  171.48   15.60
  -3   6   8  123.09   15.60
  -3   6   8  108.99   17.00
   2  -6  -8  134.69   27.10
   2  -6  -8   89.09    9.80
   2  -6  -8  105.19   14.00
   2  -6  -8   84.09   12.10
   2  -6  -8  115.49   13.30
   2  -6  -8  124.39   16.10
   2  -6  -8   79.39   12.60
  -2   6   8   73.89   12.70
  -2   6   8  112.99   12.10
  -2   6   8   96.19   10.90
   1  -6  -8   88.39   20.40
   1  -6  -8   71.69   10.20
   1  -6  -8   60.59    6.40
   1  -6  -8   82.29   15.00
   1  -6  -8   71.09   11.70
  -1   6   8   60.89    8.40
  -1   6   8   62.49    8.40
  -1   6   8   54.19   11.80
  -1   6   8   58.59    7.50
  -1   6   8   56.19   10.20
   0  -6  -8  116.09   25.20
   0  -6  -8  101.49   15.00
   0  -6  -8   81.09   13.30
   0  -6  -8  116.29   15.50
   0  -6  -8   75.99   16.60
   0  -6  -8   84.99   11.50
   0  -6  -8   82.09   12.60
   0   6   8   84.79   11.20
   0   6   8   66.89   15.10
   0   6   8   64.19   12.20
   0   6   8   75.89   10.90
   0   6   8   87.99   13.20
  -1  -6  -8    9.40    9.00
  -1  -6  -8   25.90    9.40
  -1  -6  -8   36.00   11.50
  -1  -6  -8   25.50    8.50
  -1  -6  -8   24.90   18.90
  -1  -6  -8   20.70   13.60
  -1  -6  -8   27.50    7.30
   1   6   8   34.60   13.00
   1   6   8   33.60    7.50
   1   6   8   28.40    7.60
   1   6   8   34.50    9.40
   1   6   8   30.30    9.50
   1   6   8   26.10    9.10
  -2  -6  -8   10.50    8.40
  -2  -6  -8    9.90   10.20
  -2  -6  -8    5.00    7.70
  -2  -6  -8    0.60   17.80
  -2  -6  -8   12.70    9.40
  -2  -6  -8   17.60   22.10
  -2  -6  -8    3.80    9.80
  -2  -6  -8  -17.00   11.70
   2   6   8    9.80   14.60
   2   6   8    3.70    4.50
   2   6   8  -13.20   10.00
   2   6   8   -0.70    7.70
   2   6   8   11.50   10.60
   2   6   8    9.70   10.90
   2   6   8   -2.50    7.40
   5  -7  -8   74.39   13.60
   5  -7  -8  124.19   28.20
   5  -7  -8  117.39   12.40
   5  -7  -8   94.39   12.20
  -5   7   8   87.39   13.10
   4  -7  -8   51.19    9.90
   4  -7  -8   44.20    5.60
   4  -7  -8   56.09   22.10
   4  -7  -8   48.30    7.30
   4  -7  -8   51.69    7.80
   4  -7  -8   68.69   10.20
   4  -7  -8   52.39    5.80
   4  -7  -8   45.70    8.10
   4  -7  -8   60.19    9.40
  -4   7   8   39.70    8.70
   3  -7  -8  115.99   14.90
   3  -7  -8   90.39   12.20
   3  -7  -8  134.79   29.40
   3  -7  -8  104.19   11.50
   3  -7  -8  114.59   13.30
   3  -7  -8   90.59   10.20
   3  -7  -8   83.09   10.30
   3  -7  -8  112.99   13.90
  -3   7   8   79.99   10.30
  -3   7   8   99.09   11.50
  -3   7   8   78.49   13.60
   2  -7  -8   40.00    7.90
   2  -7  -8   30.40    9.90
   2  -7  -8   18.30    6.40
   2  -7  -8   19.10    7.00
   2  -7  -8   33.30    9.60
   2  -7  -8   14.80   19.30
   2  -7  -8   20.20    5.10
  -2   7   8    9.50    8.00
  -2   7   8   14.30    6.70
  -2   7   8   28.60    5.80
  -2   7   8   20.50    4.80
   1  -7  -8   34.40    6.70
   1  -7  -8   42.60    9.70
   1  -7  -8   28.60    9.50
   1  -7  -8   33.40   11.70
   1  -7  -8   33.10    9.10
   1  -7  -8   36.80   18.00
   1  -7  -8   22.80    7.40
  -1   7   8   32.20    7.30
  -1   7   8   22.10    4.10
  -1   7   8   35.00    4.80
  -1   7   8   34.10   10.30
  -1   7   8   37.70    6.60
  -1   7   8   26.20    9.90
   0  -7  -8   43.70   10.50
   0  -7  -8   28.00   19.50
   0  -7  -8   31.80   14.10
   0  -7  -8   35.40    7.80
   0  -7  -8   37.80   11.20
   0  -7  -8   45.70   11.30
   0  -7  -8   15.20    9.10
   0   7   8   29.50    7.30
   0   7   8   26.90    9.70
   0   7   8   20.20    6.20
   0   7   8   30.70    9.30
   0   7   8   41.90    8.40
   0   7   8   38.20   13.10
  -1  -7  -8   67.59   20.50
  -1  -7  -8   53.49   12.60
  -1  -7  -8   51.29   14.70
  -1  -7  -8   39.80   10.60
  -1  -7  -8   66.09   11.80
  -1  -7  -8   45.70   10.10
  -1  -7  -8   43.60   24.30
  -1  -7  -8   61.89   13.30
   1   7   8   36.40   12.10
   1   7   8   41.40    9.70
   1   7   8   38.60    9.60
   1   7   8   56.99   13.10
   1   7   8   39.60   16.40
   1   7   8   31.90   11.60
   4  -8  -8   56.89    7.20
   4  -8  -8   52.49    7.80
   4  -8  -8   72.09   10.60
   4  -8  -8   47.10    8.30
   4  -8  -8   56.79   27.60
   4  -8  -8   50.89    7.50
   4  -8  -8   47.40    8.80
   4  -8  -8   71.49   11.10
  -4   8   8   41.80    9.70
   3  -8  -8   -3.40    6.00
   3  -8  -8    5.80    4.40
   3  -8  -8    6.10   12.50
   3  -8  -8   -3.50    4.20
   3  -8  -8   -0.20    5.80
   3  -8  -8  -16.40   23.60
  -3   8   8   -3.80    5.90
  -3   8   8    0.60    3.10
  -3   8   8   -6.20    5.10
  -3   8   8    5.20    4.90
   2  -8  -8   11.20   19.40
   2  -8  -8   27.40    8.10
   2  -8  -8   12.90    7.60
   2  -8  -8   24.80   10.00
   2  -8  -8   27.20    7.70
   2  -8  -8   21.40    5.90
   2  -8  -8   30.20   11.30
  -2   8   8   25.20    6.80
  -2   8   8   28.80    5.70
  -2   8   8   40.30   16.00
  -2   8   8    6.20    9.90
   1  -8  -8   22.80    8.70
   1  -8  -8   -0.50    6.10
   1  -8  -8    0.20    8.40
   1  -8  -8  -15.60   26.10
   1  -8  -8   11.40   10.00
   1  -8  -8   15.50   10.10
   1  -8  -8    0.70   12.50
  -1   8   8    2.90    6.70
  -1   8   8   13.80    9.30
  -1   8   8   -2.30    5.60
  -1   8   8  -19.50   11.30
   0  -8  -8   34.40   13.20
   0  -8  -8   24.10   28.00
   0  -8  -8   24.00   10.20
   0  -8  -8   16.40   12.70
   0  -8  -8   34.90   10.10
   0  -8  -8   25.60   17.10
   0  -8  -8   18.00    8.50
   0   8   8   18.60   10.10
   0   8   8    8.80    6.80
   0   8   8   28.50   19.10
   0   8   8   12.20    6.20
   0   8   8   27.60    8.50
   1   9  -9   12.20    8.30
   1   9  -9   18.30    9.90
   1   9  -9   11.30    7.80
   1   9  -9    3.20    7.00
   1   9  -9    5.60   12.10
   1   9  -9   15.60    8.40
   1   9  -9   -2.40    9.70
  -1  -9   9   10.40    8.70
  -1  -9   9    5.70    3.90
  -1  -9   9   22.70    7.70
  -1  -9   9   28.20    7.90
  -1  -9   9   18.60   10.10
  -1  -9   9    8.80    9.70
  -1  -9   9   12.60   12.90
   0   9  -9  253.37   25.40
   0   9  -9  217.28   27.00
   0   9  -9  247.88   25.70
   0   9  -9  268.57   27.90
   0   9  -9  194.58   28.80
   0  -9   9  227.18   27.20
   0  -9   9  238.88   28.70
   0  -9   9  174.88   28.70
   0  -9   9  241.68   25.20
   0  -9   9  221.88   25.50
  -1   9  -9   74.19   13.60
  -1   9  -9   68.99   10.80
  -1   9  -9   60.19   14.00
  -1   9  -9   76.89   12.20
  -1   9  -9   79.99   10.70
  -1   9  -9   68.19   10.50
  -1   9  -9   78.99   13.20
   1  -9   9   68.79   11.00
   1  -9   9   53.59   12.40
   1  -9   9   60.09   13.50
   1  -9   9   72.89   12.20
  -2   9  -9  196.98   21.30
  -2   9  -9  221.88   24.40
  -2   9  -9  239.58   24.70
  -2   9  -9  193.08   22.10
  -2   9  -9  205.68   22.90
   2  -9   9  142.09   26.70
   2  -9   9  209.58   22.00
   2  -9   9  176.48   24.10
   2  -9   9  173.58   21.50
   2  -9   9  188.98   22.10
   2  -9   9  162.18   21.60
   2  -9   9  184.88   22.20
  -3   9  -9  142.69   18.60
  -3   9  -9  102.89   16.50
  -3   9  -9  129.89   15.60
   3  -9   9  133.59   16.80
   3  -9   9  108.79   19.00
   3  -9   9  121.89   16.30
   3  -9   9   90.89   20.10
   3  -9   9  114.49   16.90
   3  -9   9  114.09   18.00
   3  -9   9  107.09   15.50
   3   8  -9    8.90   16.40
   3   8  -9    4.00   13.00
   3   8  -9    1.40    9.70
   3   8  -9   -2.50    9.80
   3   8  -9   -5.80   10.60
   3   8  -9  -17.50   10.80
   3   8  -9   11.90    9.50
  -3  -8   9   19.90   12.50
  -3  -8   9   16.00   11.20
  -3  -8   9   18.30   11.10
  -3  -8   9   17.10   17.60
  -3  -8   9   25.10    8.80
  -3  -8   9    8.20    6.10
   2   8  -9   30.80    9.90
   2   8  -9   36.90   14.50
   2   8  -9   32.10   10.40
   2   8  -9   51.29   10.30
   2   8  -9   54.19    9.80
   2   8  -9   63.69   13.30
   2   8  -9   54.29   11.30
  -2  -8   9   40.70   11.60
  -2  -8   9   35.80    8.30
  -2  -8   9   37.50   11.80
  -2  -8   9   42.70   14.40
  -2  -8   9   66.89   10.40
  -2  -8   9   43.50   10.50
   1   8  -9   79.19   15.30
   1   8  -9   83.99   14.90
   1   8  -9   73.29   11.60
   1   8  -9   81.29   13.70
   1   8  -9   99.49   13.20
   1   8  -9   90.89   13.00
  -1  -8   9   65.29   12.70
  -1  -8   9   69.19    9.20
  -1  -8   9  109.49   12.70
  -1  -8   9   61.39   15.10
  -1  -8   9   73.09   11.90
  -1  -8   9   80.89   14.90
  -1  -8   9   81.79   13.30
   0   8  -9   31.50    7.40
   0   8  -9   42.10    9.60
   0   8  -9   23.80    6.70
   0   8  -9   29.80    7.30
   0   8  -9   17.90    8.90
   0   8  -9   33.60    8.10
   0  -8   9   33.20    9.20
   0  -8   9   27.00    9.90
   0  -8   9   26.30    7.20
   0  -8   9   44.40    7.70
   0  -8   9   31.50    7.00
   0  -8   9   36.20    8.80
  -1   8  -9   19.10    7.20
  -1   8  -9   25.50    6.90
  -1   8  -9   14.40    5.20
  -1   8  -9   13.70    8.20
  -1   8  -9   18.70    7.00
  -1   8  -9   21.60    6.20
  -1   8  -9   12.20    4.90
   1  -8   9   16.60    5.80
   1  -8   9   17.10    7.80
   1  -8   9   24.70    7.80
   1  -8   9   16.70    5.70
   1  -8   9   15.40    6.40
  -2   8  -9   24.90    6.10
  -2   8  -9   22.60    8.30
  -2   8  -9   27.10    7.70
  -2   8  -9   33.90    7.30
  -2   8  -9   22.70    4.30
  -2   8  -9   22.50    7.30
  -2   8  -9   24.60    4.40
  -2   8  -9   27.90    6.70
   2  -8   9   36.30    7.20
   2  -8   9   21.00    7.70
   2  -8   9   28.00    6.30
   2  -8   9   27.20    6.90
   2  -8   9   17.90    7.30
   2  -8   9   20.90    8.60
   2  -8   9   33.20    6.30
  -3   8  -9    8.80    6.40
  -3   8  -9    9.20    7.60
  -3   8  -9   -6.10    7.10
  -3   8  -9    7.10    6.70
  -3   8  -9    1.80    5.70
  -3   8  -9    7.00    5.40
   3  -8   9   12.00    4.90
   3  -8   9   -2.40   15.10
   3  -8   9    5.10    6.30
   3  -8   9    7.80    6.80
   3  -8   9   16.20    6.90
   3  -8   9    9.00    8.60
   3  -8   9   -1.40    6.80
   3  -8   9    4.30    6.00
  -4   8  -9   80.69   14.30
   4  -8   9  116.29   15.20
   4   7  -9   44.60   15.30
   4   7  -9   24.60   14.50
   4   7  -9   32.90   12.80
   4   7  -9   24.60   17.10
   4   7  -9   24.30   10.90
   4   7  -9   34.80   11.90
   4   7  -9   35.70   11.90
  -4  -7   9   44.90   10.30
  -4  -7   9   42.10   13.60
  -4  -7   9   38.10    8.50
  -4  -7   9   38.70   20.70
  -4  -7   9   50.39   13.90
  -4  -7   9   58.79   23.10
   3   7  -9    2.20    8.00
   3   7  -9   -1.30    6.70
   3   7  -9    6.10   10.50
   3   7  -9   -1.80    7.70
   3   7  -9   19.10   12.90
   3   7  -9    8.10    8.10
   3   7  -9  -13.80    8.00
   3   7  -9    4.70    7.80
  -3  -7   9   -1.60    8.70
  -3  -7   9   -5.40    5.80
  -3  -7   9  -14.60    8.10
  -3  -7   9  -10.60   12.80
  -3  -7   9    5.20    5.10
  -3  -7   9   -1.50    9.30
  -3  -7   9   16.10    6.90
   2   7  -9  126.89   15.60
   2   7  -9  134.59   15.70
   2   7  -9   99.29   14.60
   2   7  -9   92.09   15.50
   2   7  -9   83.49   13.50
   2   7  -9  118.69   18.20
   2   7  -9  146.49   15.60
   2   7  -9  112.79   19.40
  -2  -7   9  119.09   12.50
  -2  -7   9  116.49   16.90
  -2  -7   9   87.69   15.30
  -2  -7   9  113.49   15.00
  -2  -7   9  102.09   20.50
  -2  -7   9  103.79   15.70
  -2  -7   9  109.29   13.70
   1   7  -9  416.16   43.30
   1   7  -9  477.95   41.10
   1   7  -9  402.06   40.60
   1   7  -9  393.36   39.30
   1   7  -9  432.16   41.10
   1   7  -9  489.55   43.40
   1   7  -9  413.06   41.30
   1   7  -9  393.56   40.80
  -1  -7   9  421.26   44.30
  -1  -7   9  373.16   41.40
  -1  -7   9  407.56   40.30
  -1  -7   9  328.27   40.80
  -1  -7   9  436.46   42.80
   0   7  -9   95.29   11.60
   0   7  -9   72.39   11.30
   0   7  -9   71.89   13.10
   0   7  -9   80.29   10.60
   0   7  -9   74.39   11.10
   0   7  -9   95.69   12.90
   0   7  -9   68.79   10.60
   0  -7   9   49.99   12.30
   0  -7   9   66.29   10.80
   0  -7   9   71.79   11.90
   0  -7   9   85.89   12.90
   0  -7   9   74.69   10.80
   0  -7   9   80.59   10.60
  -1   7  -9  205.48   19.10
  -1   7  -9  172.08   21.30
  -1   7  -9  187.98   20.30
  -1   7  -9  180.08   18.70
  -1   7  -9  167.88   19.10
  -1   7  -9  192.58   19.30
  -1   7  -9  161.08   18.30
   1  -7   9  180.68   19.10
   1  -7   9  203.58   19.00
   1  -7   9  170.58   20.30
   1  -7   9  164.18   19.20
   1  -7   9  152.88   18.70
   1  -7   9  161.98   19.10
   1  -7   9  147.39   20.60
  -2   7  -9  265.57   24.50
  -2   7  -9  234.18   23.10
  -2   7  -9  273.67   24.30
  -2   7  -9  243.88   24.90
  -2   7  -9  232.28   28.80
  -2   7  -9  226.08   23.30
  -2   7  -9  244.58   28.20
   2  -7   9  195.08   26.00
   2  -7   9  197.18   24.20
   2  -7   9  245.68   24.30
   2  -7   9  268.97   24.60
   2  -7   9  234.08   24.70
   2  -7   9  211.68   25.50
   2  -7   9  206.88   24.00
  -3   7  -9  482.25   42.60
  -3   7  -9  409.76   41.50
  -3   7  -9  430.96   40.90
  -3   7  -9  399.06   41.80
  -3   7  -9  406.16   41.60
   3  -7   9  415.26   41.00
   3  -7   9  390.56   41.20
   3  -7   9  410.36   42.00
   3  -7   9  388.66   40.30
   3  -7   9  427.16   41.00
  -4   7  -9    2.30    6.20
  -4   7  -9    1.10    8.80
  -4   7  -9    4.50    7.90
  -4   7  -9    9.20    7.40
  -4   7  -9    5.30    5.60
  -4   7  -9    6.90    6.30
   4  -7   9    1.50    6.50
   4  -7   9    8.80   10.30
   4  -7   9    0.20    7.20
   4  -7   9   -3.90    6.30
   4  -7   9   22.30    7.70
   4  -7   9    2.70    7.60
   4  -7   9    8.40    4.70
   4  -7   9   22.20   14.90
   4   6  -9  269.87   28.70
   4   6  -9  258.97   28.70
   4   6  -9  273.27   28.90
   4   6  -9  275.47   27.10
   4   6  -9  250.17   28.10
   4   6  -9  208.58   31.70
   4   6  -9  225.98   27.50
  -4  -6   9  218.48   25.70
  -4  -6   9  234.88   26.40
  -4  -6   9  196.38   29.00
  -4  -6   9  298.47   30.60
  -4  -6   9  184.18   35.20
  -4  -6   9  200.48   28.80
  -4  -6   9  269.47   26.90
   3   6  -9   10.80    7.30
   3   6  -9   12.80    5.70
   3   6  -9    1.40    6.30
   3   6  -9   14.50    7.00
   3   6  -9   13.00    8.30
   3   6  -9   -0.80    5.90
   3   6  -9   14.50    9.80
  -3  -6   9   15.00    7.30
  -3  -6   9   30.10    8.10
  -3  -6   9   10.00    9.00
  -3  -6   9   14.20   13.30
  -3  -6   9    1.80    5.60
  -3  -6   9   11.60    4.60
  -3  -6   9   16.10    6.30
  -3  -6   9   -2.00   10.70
   2   6  -9   21.40    6.40
   2   6  -9   15.60    6.20
   2   6  -9   30.80    6.60
   2   6  -9   22.00    8.20
   2   6  -9   36.10    8.80
   2   6  -9   31.40    7.20
   2   6  -9   23.60    6.80
   2   6  -9   35.40    5.90
  -2  -6   9   24.10    7.00
  -2  -6   9   25.30    7.40
  -2  -6   9   19.50    5.90
  -2  -6   9   26.40    7.80
  -2  -6   9   21.60    4.50
  -2  -6   9   21.00    6.20
   1   6  -9  109.19   11.70
   1   6  -9   82.09   14.00
   1   6  -9  108.09   14.10
   1   6  -9   96.89   12.40
   1   6  -9   84.99   12.20
   1   6  -9   86.59   10.00
   1   6  -9   66.49   11.40
  -1  -6   9  102.69   13.40
  -1  -6   9   78.39   10.80
  -1  -6   9  102.69   11.60
  -1  -6   9   81.69   12.60
  -1  -6   9   64.39   11.70
   0   6  -9   66.09    9.90
   0   6  -9   96.09   12.30
   0   6  -9   70.09    9.50
   0   6  -9   64.09    7.50
   0   6  -9   71.89   12.30
   0   6  -9   89.39   10.20
   0   6  -9   64.19   10.10
   0   6  -9   81.19   10.40
   0  -6   9   73.19    9.70
   0  -6   9   72.59   11.30
   0  -6   9   59.09    9.70
   0  -6   9   66.99   10.30
   0  -6   9   60.69   11.80
  -1   6  -9  150.28   15.60
  -1   6  -9  127.19   15.30
  -1   6  -9  158.48   16.50
  -1   6  -9  156.18   15.30
  -1   6  -9  140.89   17.10
  -1   6  -9  133.19   15.00
  -1   6  -9  136.19   14.70
   1  -6   9  111.09   16.50
   1  -6   9  123.59   15.30
   1  -6   9  139.39   15.10
   1  -6   9  125.19   15.20
   1  -6   9  116.99   16.60
  -2   6  -9  255.37   25.60
  -2   6  -9  226.18   24.20
  -2   6  -9  201.38   23.10
  -2   6  -9  251.37   24.90
  -2   6  -9  232.98   23.80
  -2   6  -9  259.17   24.10
  -2   6  -9  223.48   22.90
  -2   6  -9  248.18   23.60
   2  -6   9  233.58   23.60
   2  -6   9  237.88   24.90
   2  -6   9  177.98   24.90
   2  -6   9  227.78   23.40
   2  -6   9  226.48   24.70
   2  -6   9  230.28   24.20
  -3   6  -9   76.89    8.30
  -3   6  -9   59.79    9.30
  -3   6  -9   63.89    8.30
  -3   6  -9   67.39   10.00
  -3   6  -9   66.89   10.90
  -3   6  -9   79.49   10.50
   3  -6   9   88.59   11.60
   3  -6   9   68.99   10.70
   3  -6   9   59.59   11.10
   3  -6   9   50.39    9.80
   3  -6   9   59.49    9.10
   3  -6   9   65.29   10.60
   3  -6   9   44.00   11.60
  -4   6  -9  230.28   23.90
  -4   6  -9  199.38   23.50
  -4   6  -9  171.28   24.80
  -4   6  -9  272.37   24.60
  -4   6  -9  191.88   25.70
   4  -6   9  217.48   24.10
   4  -6   9  258.17   23.30
   4  -6   9  209.18   24.40
   4  -6   9  199.88   24.60
   4  -6   9  252.57   25.30
   5   5  -9   73.29   12.90
   5   5  -9  104.99   15.20
   5   5  -9   96.09   19.50
   5   5  -9   56.59   16.40
   5   5  -9   64.09   13.20
   5   5  -9   55.49   13.20
  -5  -5   9   83.99   13.00
  -5  -5   9   71.99   15.40
  -5  -5   9   69.89   15.00
  -5  -5   9   49.50   11.30
  -5  -5   9   53.79   15.10
  -5  -5   9   70.09   22.40
   4   5  -9  110.39   15.50
   4   5  -9  108.59   15.70
   4   5  -9  118.79   14.70
   4   5  -9   80.79   17.10
   4   5  -9  143.59   17.10
   4   5  -9  104.29   15.10
  -4  -5   9  125.09   18.00
  -4  -5   9   73.59   15.00
  -4  -5   9  101.09   15.10
  -4  -5   9  111.09   13.10
  -4  -5   9   86.19   19.40
  -4  -5   9  105.69   14.20
  -4  -5   9   90.79   15.40
   3   5  -9   99.19   14.60
   3   5  -9  105.49   16.90
   3   5  -9  122.49   15.10
   3   5  -9  113.19   14.50
   3   5  -9  113.29   14.90
   3   5  -9  119.19   17.20
   3   5  -9  102.49   14.20
   3   5  -9  101.69   14.30
  -3  -5   9  105.19   18.60
  -3  -5   9   82.09   14.40
  -3  -5   9   92.59   14.60
  -3  -5   9   98.29   13.20
  -3  -5   9  103.79   12.30
  -3  -5   9  111.39   13.50
  -3  -5   9  127.99   16.40
   2   5  -9  597.64   59.39
   2   5  -9  697.83   59.79
   2   5  -9  654.53   61.79
   2   5  -9  673.13   59.69
   2   5  -9  587.94   58.29
   2   5  -9  605.74   59.59
  -2  -5   9  726.63   61.29
  -2  -5   9  627.44   58.89
  -2  -5   9  545.95   59.59
  -2  -5   9  570.54   57.99
  -2  -5   9  542.25   61.09
   1   5  -9   19.80    5.70
   1   5  -9   25.00    6.80
   1   5  -9   22.90    5.70
   1   5  -9   29.80    5.90
   1   5  -9   26.90    7.50
   1   5  -9   36.50    6.50
   1   5  -9   23.60    5.40
   1   5  -9   18.90    3.90
  -1  -5   9   11.20    5.10
  -1  -5   9   30.00    6.70
  -1  -5   9   28.80    8.00
  -1  -5   9   22.70    5.30
  -1  -5   9   35.10   10.40
   0   5  -9  382.86   35.10
   0   5  -9  344.77   34.60
   0   5  -9  364.66   34.70
   0   5  -9  331.47   33.10
   0   5  -9  402.66   36.80
   0   5  -9  322.17   34.20
   0  -5   9  322.87   34.60
   0  -5   9  345.47   34.70
   0  -5   9  362.46   34.70
   0  -5   9  338.97   36.10
   0  -5   9  390.66   36.30
  -1   5  -9   22.60    5.00
  -1   5  -9   22.00    5.30
  -1   5  -9   20.20    6.60
  -1   5  -9   38.10    5.70
  -1   5  -9   17.80    4.30
  -1   5  -9   19.40    4.90
  -1   5  -9   26.10    6.10
   1  -5   9   21.30    5.50
   1  -5   9   19.90    5.90
   1  -5   9   27.70    6.10
   1  -5   9   25.10    5.30
   1  -5   9   27.40   15.70
   1  -5   9   13.50    4.90
   1  -5   9   15.10    6.30
  -2   5  -9  606.44   59.09
  -2   5  -9  637.14   59.89
  -2   5  -9  640.74   58.59
  -2   5  -9  626.74   58.69
  -2   5  -9  615.34   58.09
  -2   5  -9  719.93   59.09
  -2   5  -9  562.84   58.29
   2  -5   9  631.34   59.69
   2  -5   9  608.24   58.69
   2  -5   9  597.24   58.39
   2  -5   9  578.14   58.79
   2  -5   9  586.24   58.89
  -3   5  -9   11.00    5.70
  -3   5  -9   -3.60    5.60
  -3   5  -9   11.70    3.90
  -3   5  -9    8.00    4.40
  -3   5  -9    6.10    4.40
  -3   5  -9    3.30    3.30
  -3   5  -9    4.70    4.50
  -3   5  -9   -0.90    6.70
   3  -5   9    5.70    4.90
   3  -5   9    9.90    5.10
   3  -5   9    4.50    4.90
   3  -5   9    7.90    4.70
   3  -5   9   16.10    7.00
   3  -5   9    3.80    3.70
   3  -5   9   10.80    5.50
   3  -5   9   17.20   10.10
  -4   5  -9    7.00    3.40
  -4   5  -9    2.20    4.40
  -4   5  -9    8.30    6.40
  -4   5  -9    4.90    3.40
  -4   5  -9    0.20    6.90
  -4   5  -9    5.00    6.50
  -4   5  -9    3.50    5.00
   4  -5   9    5.70    6.10
   4  -5   9   -1.80    6.10
   4  -5   9   10.20    4.30
   4  -5   9    1.30    5.80
   4  -5   9   -5.60    6.60
   4  -5   9    2.60    9.00
   4  -5   9   -4.90    6.60
   4  -5   9  -14.90   10.10
  -5   5  -9   36.60   10.20
  -5   5  -9   45.30   12.90
  -5   5  -9   36.00    5.40
  -5   5  -9   42.00    8.80
  -5   5  -9   39.30    8.80
   5  -5   9    2.70   10.90
   5  -5   9   26.10   11.10
   5  -5   9   27.80   13.10
   5  -5   9   26.00   16.30
   5  -5   9   38.00    9.90
   5  -5   9   31.00    9.40
   5  -5   9   25.10    7.10
   5  -5   9   51.69   10.00
   5   4  -9    7.00    7.20
   5   4  -9    0.60    7.50
   5   4  -9    1.40    8.80
   5   4  -9    4.10   10.30
   5   4  -9   33.10   12.70
   5   4  -9    4.70    8.10
   5   4  -9   11.20    8.90
  -5  -4   9   21.90    9.40
  -5  -4   9   17.70   14.80
  -5  -4   9    5.90    9.80
  -5  -4   9   13.30    7.00
  -5  -4   9   11.10    8.70
  -5  -4   9   11.10    6.90
  -5  -4   9    8.00   14.10
   4   4  -9    8.30    7.70
   4   4  -9    4.10    5.50
   4   4  -9   16.50    6.80
   4   4  -9    9.00    6.10
   4   4  -9    8.60    5.30
   4   4  -9    2.30    8.60
   4   4  -9   12.20    6.90
  -4  -4   9    4.00   11.50
  -4  -4   9   15.30    5.00
  -4  -4   9   13.60    5.50
  -4  -4   9    6.10    9.80
  -4  -4   9   10.30    6.80
  -4  -4   9    3.30    4.90
  -4  -4   9   16.50    7.50
  -4  -4   9   18.70    7.90
   3   4  -9    3.80    4.70
   3   4  -9   -2.40    3.80
   3   4  -9   -1.40    6.20
   3   4  -9    2.20    4.10
   3   4  -9    2.70    4.40
   3   4  -9   -1.70    4.80
   3   4  -9   -2.60    5.90
  -3  -4   9   -4.70    6.80
  -3  -4   9   -7.90    4.80
  -3  -4   9   -1.60    9.00
  -3  -4   9   -1.60    4.60
  -3  -4   9    2.60    4.80
  -3  -4   9    2.70    3.70
   2   4  -9  146.49   16.00
   2   4  -9   99.99   14.90
   2   4  -9  113.79   13.60
   2   4  -9  114.89   12.70
   2   4  -9  126.59   15.40
   2   4  -9  131.09   14.30
   2   4  -9  102.89   13.60
  -2  -4   9   92.99   15.70
  -2  -4   9  105.49   13.80
  -2  -4   9  120.89   13.40
  -2  -4   9  112.99   14.00
  -2  -4   9  150.18   15.60
   1   4  -9   68.49    9.40
   1   4  -9   99.69   11.50
   1   4  -9   69.99    9.80
   1   4  -9   73.69    8.30
   1   4  -9   71.69    9.80
   1   4  -9   86.49   10.10
   1   4  -9   81.39    9.70
   1   4  -9   87.49   12.00
  -1  -4   9   84.39   11.60
  -1  -4   9   69.59    9.40
  -1  -4   9   65.29   11.50
  -1  -4   9   57.89    9.60
  -1  -4   9   73.79    9.60
  -1  -4   9   70.29    9.70
   0   4  -9    6.90    3.80
   0   4  -9    5.20    3.10
   0   4  -9    0.50    3.60
   0   4  -9    5.40    3.40
   0   4  -9    9.10    3.20
   0   4  -9    7.60    4.50
   0   4  -9    5.40    1.80
   0   4  -9   -0.30    2.90
   0  -4   9   11.50    6.30
   0  -4   9   11.50    4.50
   0  -4   9    1.80    2.90
   0  -4   9    6.60    3.50
   0  -4   9    1.60    3.30
   0  -4   9    4.00    2.90
   0  -4   9    6.20    4.50
  -1   4  -9 1509.05  132.59
  -1   4  -9 1357.16  129.99
  -1   4  -9 1363.96  131.49
  -1   4  -9 1450.05  131.09
  -1   4  -9 1514.65  131.69
  -1   4  -9 1443.66  131.19
  -1   4  -9 1392.06  131.59
   1  -4   9 1366.66  131.19
   1  -4   9 1364.46  131.59
   1  -4   9 1435.96  132.49
   1  -4   9 1381.86  131.39
   1  -4   9 1399.06  131.39
  -2   4  -9  286.77   25.20
  -2   4  -9  260.17   25.40
  -2   4  -9  263.17   26.00
  -2   4  -9  235.28   25.50
  -2   4  -9  250.57   26.80
  -2   4  -9  290.17   26.00
  -2   4  -9  248.58   23.70
  -2   4  -9  264.47   25.20
   2  -4   9  255.57   25.60
   2  -4   9  199.08   26.20
   2  -4   9  225.08   25.50
  -3   4  -9  137.59   17.50
  -3   4  -9  121.39   16.10
  -3   4  -9  143.99   15.90
  -3   4  -9  143.99   17.50
  -3   4  -9  174.88   17.20
  -3   4  -9  141.69   15.50
  -3   4  -9  147.39   14.20
  -3   4  -9  139.99   15.90
   3  -4   9  140.29   16.50
   3  -4   9  132.49   17.30
   3  -4   9  161.18   17.70
   3  -4   9  166.28   16.00
   3  -4   9  141.79   16.40
  -4   4  -9   15.30    7.00
  -4   4  -9   17.80    5.70
  -4   4  -9   19.00    3.80
  -4   4  -9   20.40    7.70
  -4   4  -9    4.70    6.80
  -4   4  -9   14.40    5.00
  -4   4  -9   19.60    5.00
  -4   4  -9   20.20    9.50
  -4   4  -9   25.80    7.20
   4  -4   9    9.20    9.70
   4  -4   9   14.60    4.90
   4  -4   9   23.10    6.70
   4  -4   9   12.20    7.30
   4  -4   9   23.40    6.60
   4  -4   9   27.00   10.00
   4  -4   9   20.10    7.60
   4  -4   9   17.70    6.60
  -5   4  -9    0.80    4.70
  -5   4  -9    2.60    4.70
  -5   4  -9  -14.40    9.70
  -5   4  -9   11.70    6.10
  -5   4  -9   24.00   15.50
  -5   4  -9    6.60    4.50
  -5   4  -9   11.20    7.40
   5  -4   9    9.50   13.30
   5  -4   9    1.80    7.70
   5  -4   9  -16.60   11.30
   5  -4   9   12.50   10.40
   5  -4   9    2.40    8.40
   5  -4   9   10.20    5.60
   5  -4   9    8.40    9.90
   5  -4   9    8.80    8.10
   6   3  -9   54.29   16.60
   6   3  -9   47.60   10.90
   6   3  -9   49.60   12.60
   6   3  -9   61.29   12.30
   6   3  -9   26.20   14.30
   6   3  -9   62.69   13.20
  -6  -3   9   42.90   19.20
  -6  -3   9   33.80   14.20
  -6  -3   9   58.39   17.80
  -6  -3   9   44.60   12.60
   5   3  -9   17.20    7.50
   5   3  -9    3.40    9.10
   5   3  -9   15.50    7.90
   5   3  -9   17.30    6.30
   5   3  -9    7.60    9.60
   5   3  -9   -1.60    7.00
   5   3  -9   17.60    6.60
  -5  -3   9   11.20    5.50
  -5  -3   9    5.20    8.40
  -5  -3   9    5.10   12.20
  -5  -3   9    9.50    7.50
  -5  -3   9  -18.20    9.70
  -5  -3   9   16.70    5.90
  -5  -3   9    4.60    8.60
   4   3  -9  195.88   22.30
   4   3  -9  257.47   23.40
   4   3  -9  235.08   23.40
   4   3  -9  252.67   25.40
   4   3  -9  207.18   22.90
   4   3  -9  191.88   24.40
   4   3  -9  203.48   22.00
  -4  -3   9  220.98   22.20
  -4  -3   9  175.18   22.90
  -4  -3   9  243.28   24.50
  -4  -3   9  168.48   25.30
  -4  -3   9  201.98   21.40
  -4  -3   9  171.08   23.00
   3   3  -9  470.75   52.89
   3   3  -9  590.44   52.59
   3   3  -9  621.54   54.19
   3   3  -9  508.55   51.49
   3   3  -9  620.54   52.39
   3   3  -9  547.75   53.99
  -3  -3   9  566.04   51.99
  -3  -3   9  452.65   52.19
  -3  -3   9  483.65   51.09
  -3  -3   9  424.36   53.59
  -3  -3   9  609.04   53.69
   2   3  -9   27.50    5.10
   2   3  -9   21.60    4.90
   2   3  -9   18.30    4.00
   2   3  -9   21.80    6.40
   2   3  -9   25.60    5.30
   2   3  -9   24.90    6.30
   2   3  -9   22.70    5.60
   2   3  -9   22.50    4.90
  -2  -3   9   25.80    4.80
  -2  -3   9   17.50    5.10
  -2  -3   9   32.10   10.20
  -2  -3   9   19.00    5.80
  -2  -3   9   18.20    5.20
  -2  -3   9   11.20    5.40
  -2  -3   9   23.30    5.00
   1   3  -9  108.09   11.90
   1   3  -9   90.39   11.50
   1   3  -9  103.59   11.60
   1   3  -9   88.49   11.20
   1   3  -9  114.79   11.40
   1   3  -9   90.19   10.40
   1   3  -9  113.19   13.50
  -1  -3   9   94.09   11.40
  -1  -3   9   92.99   11.40
  -1  -3   9   95.99   11.30
  -1  -3   9  101.99   11.10
  -1  -3   9   95.09   12.90
  -1  -3   9  102.39   12.80
   0   3  -9  270.37   24.70
   0   3  -9  235.28   23.60
   0   3  -9  243.58   24.80
   0   3  -9  240.78   24.70
   0   3  -9  300.37   27.00
   0   3  -9  291.87   26.10
   0   3  -9  266.97   25.00
   0   3  -9  244.98   24.50
   0  -3   9  225.98   24.70
   0  -3   9  231.78   24.60
   0  -3   9  235.18   24.60
   0  -3   9  229.68   24.80
   0  -3   9  229.78   24.40
   0  -3   9  242.28   25.60
   0  -3   9  239.28   26.30
  -1   3  -9   -1.40    2.90
  -1   3  -9    3.40    3.80
  -1   3  -9    3.90    2.70
  -1   3  -9    0.00    3.20
  -1   3  -9    4.30    2.90
  -1   3  -9    0.00    4.40
  -1   3  -9    5.90    2.80
  -1   3  -9    0.80    3.10
   1  -3   9   -1.00    2.20
   1  -3   9    5.70    4.90
   1  -3   9    1.40    3.50
   1  -3   9    4.90    3.10
   1  -3   9    4.30    6.20
   1  -3   9    5.60    3.40
   1  -3   9    3.00    3.30
   1  -3   9    3.20    2.90
  -2   3  -9   63.49    8.90
  -2   3  -9   54.89    7.90
  -2   3  -9   44.80    6.90
  -2   3  -9   55.79    7.80
  -2   3  -9   50.59    6.30
  -2   3  -9   68.89    8.80
  -2   3  -9   49.10    8.60
  -2   3  -9   50.29   10.30
   2  -3   9   65.19    7.70
   2  -3   9   64.19    9.10
   2  -3   9   45.40    9.10
   2  -3   9   47.40    7.90
   2  -3   9   81.79   14.00
   2  -3   9   37.50    8.10
   2  -3   9   37.00    9.40
   2  -3   9   48.30    8.10
  -3   3  -9   37.80    7.30
  -3   3  -9   47.70    6.90
  -3   3  -9   52.09    8.80
  -3   3  -9   47.20    7.60
  -3   3  -9   52.59   10.50
  -3   3  -9   26.90    7.80
  -3   3  -9   38.50    5.90
  -3   3  -9   41.60    8.60
   3  -3   9   31.60    7.00
   3  -3   9   44.70   11.90
   3  -3   9   27.30    8.00
   3  -3   9   17.70    8.90
   3  -3   9   31.60    7.80
   3  -3   9   48.20    7.40
   3  -3   9   37.20    8.10
   3  -3   9   36.90    7.50
  -4   3  -9   31.40    7.00
  -4   3  -9   39.50    9.30
  -4   3  -9   29.40    8.10
  -4   3  -9   51.59    7.60
  -4   3  -9   33.50   10.10
  -4   3  -9   43.50    9.30
  -4   3  -9   42.70    6.50
  -4   3  -9   58.39   13.40
   4  -3   9   43.90    8.40
   4  -3   9   30.90    9.50
   4  -3   9   39.60   12.40
   4  -3   9   36.90    8.00
   4  -3   9   47.00   11.90
   4  -3   9   49.20    8.00
   4  -3   9   34.40    9.20
   4  -3   9   42.80    8.60
  -5   3  -9   32.70   12.60
  -5   3  -9   46.50    8.40
  -5   3  -9   26.10   10.00
  -5   3  -9   42.00    9.00
  -5   3  -9   45.00   16.80
  -5   3  -9   33.20    7.40
  -5   3  -9   29.80    7.70
   5  -3   9    4.40   11.10
   5  -3   9   22.30    8.30
   5  -3   9   35.00   12.80
   5  -3   9   19.40   15.50
   5  -3   9   30.10   10.00
   5  -3   9   30.00    9.60
   5  -3   9   31.70    8.00
   5  -3   9   23.20   11.40
   6   2  -9   46.50   11.60
   6   2  -9   82.09   17.00
   6   2  -9   45.70   10.70
   6   2  -9   99.59   14.90
   6   2  -9   59.49   13.80
   6   2  -9   64.49   12.60
   6   2  -9   83.59   13.00
  -6  -2   9   65.89   12.90
  -6  -2   9   84.19   13.10
  -6  -2   9   57.49   17.40
  -6  -2   9   93.09   13.20
  -6  -2   9   52.09    9.50
  -6  -2   9   34.90   10.90
  -6  -2   9   63.89   17.80
   5   2  -9   -4.20    7.00
   5   2  -9    1.80    6.80
   5   2  -9    6.90    6.00
   5   2  -9    7.00    5.20
   5   2  -9  -15.40    6.20
   5   2  -9    8.40    5.70
   5   2  -9   -1.00    5.60
  -5  -2   9   -2.70    5.30
  -5  -2   9    1.30    9.00
  -5  -2   9    2.30   10.90
  -5  -2   9   -2.50    6.70
  -5  -2   9   -2.00    4.40
   4   2  -9   20.70    5.90
   4   2  -9   10.30    4.90
   4   2  -9   15.40    6.30
   4   2  -9   15.00    6.70
   4   2  -9    6.50    4.80
   4   2  -9   15.90    5.20
   4   2  -9    9.60    4.50
  -4  -2   9   12.20    5.60
  -4  -2   9    8.00    5.10
  -4  -2   9    0.70    4.90
  -4  -2   9   13.00    7.30
  -4  -2   9    9.80    4.10
  -4  -2   9   13.10    4.40
  -4  -2   9   15.00    9.30
  -4  -2   9   14.40    4.40
   3   2  -9  393.46   38.10
   3   2  -9  368.56   38.30
   3   2  -9  399.66   38.50
   3   2  -9  404.66   39.80
   3   2  -9  386.76   39.90
   3   2  -9  442.26   38.50
  -3  -2   9  442.36   39.90
  -3  -2   9  383.86   37.80
  -3  -2   9  335.87   38.40
   2   2  -9  213.28   19.90
   2   2  -9  207.08   19.30
   2   2  -9  166.48   18.60
   2   2  -9  181.38   19.70
   2   2  -9  186.78   19.20
   2   2  -9  230.68   20.90
   2   2  -9  187.08   19.40
   2   2  -9  203.48   20.90
  -2  -2   9  195.58   20.70
  -2  -2   9  160.98   19.20
  -2  -2   9  159.18   19.10
  -2  -2   9  179.28   20.70
  -2  -2   9  187.78   19.30
  -2  -2   9  180.78   18.90
   1   2  -9   -1.60    3.00
   1   2  -9    1.20    2.40
   1   2  -9    3.80    3.90
   1   2  -9   -1.40    2.60
   1   2  -9    3.80    3.20
   1   2  -9    3.70    2.20
   1   2  -9    3.00    2.60
   1   2  -9    2.00    2.80
  -1  -2   9   -1.60    2.40
  -1  -2   9    2.30    2.80
  -1  -2   9    7.30    4.20
  -1  -2   9    1.00    2.60
  -1  -2   9    4.40    5.10
  -1  -2   9    4.50    3.40
  -1  -2   9    1.60    2.40
   0   2  -9  746.63   67.89
   0   2  -9  801.72   69.09
   0   2  -9  836.22   68.39
   0   2  -9  690.53   67.99
   0   2  -9  714.83   67.89
   0   2  -9  775.72   67.89
   0  -2   9  722.63   67.89
   0  -2   9  615.04   67.99
   0  -2   9  771.82   68.89
   0  -2   9  687.53   67.99
   0  -2   9  637.54   69.39
   0  -2   9  703.83   67.69
   0  -2   9  680.93   67.89
  -1   2  -9  550.84   52.79
  -1   2  -9  525.15   52.99
  -1   2  -9  530.25   52.89
  -1   2  -9  606.14   51.99
  -1   2  -9  649.24   53.69
  -1   2  -9  577.94   54.09
   1  -2   9  490.45   52.99
   1  -2   9  489.35   52.79
   1  -2   9  545.55   52.59
   1  -2   9  546.55   52.89
   1  -2   9  617.14   53.89
  -2   2  -9  869.51   75.79
  -2   2  -9  742.93   74.99
  -2   2  -9  864.91   74.99
  -2   2  -9  725.53   75.89
  -2   2  -9  826.62   74.19
   2  -2   9  725.63   74.89
   2  -2   9  796.92   74.59
   2  -2   9  826.32   75.79
   2  -2   9  858.61   79.29
   2  -2   9  729.43   74.89
  -3   2  -9   40.10    7.10
  -3   2  -9   46.50    7.50
  -3   2  -9   28.60    7.80
  -3   2  -9   33.90    7.30
  -3   2  -9   46.50    6.70
  -3   2  -9   53.69    8.30
  -3   2  -9   48.80    9.20
  -3   2  -9   35.50    5.70
  -3   2  -9   52.29   11.50
   3  -2   9   42.90    8.10
   3  -2   9   33.80    7.00
   3  -2   9   31.00    7.30
   3  -2   9   28.10   11.30
   3  -2   9   35.10    6.30
   3  -2   9   35.00    7.80
  -4   2  -9   78.19    9.00
  -4   2  -9   64.39    8.90
  -4   2  -9   70.29   12.50
  -4   2  -9   43.80    9.30
  -4   2  -9   54.69   14.70
  -4   2  -9   69.49   11.30
  -4   2  -9   51.29   12.20
   4  -2   9   61.59   10.20
   4  -2   9   73.19   10.00
   4  -2   9   62.79   11.30
   4  -2   9   72.69   11.70
   4  -2   9   49.00   11.30
   4  -2   9   89.19   18.60
   4  -2   9   43.50   13.40
   4  -2   9   46.60   12.10
  -5   2  -9    0.60    6.90
  -5   2  -9    7.60    5.60
  -5   2  -9   -3.60    6.30
  -5   2  -9   16.00   16.40
  -5   2  -9   11.20    7.90
   5  -2   9  -16.10   11.00
   5  -2   9  -16.90    7.40
   5  -2   9  -15.50    8.00
   5  -2   9   13.30   11.70
   5  -2   9  -17.10   14.80
   5  -2   9    9.90    8.20
   5  -2   9    9.00   12.20
   5  -2   9    5.10    6.40
   6   1  -9   18.40    9.40
   6   1  -9    8.90    7.50
   6   1  -9   -1.20    9.50
   6   1  -9   13.90    8.90
   6   1  -9   15.40    7.80
   6   1  -9   12.20    6.30
   6   1  -9    4.90    7.10
  -6  -1   9    5.20    8.70
  -6  -1   9    6.60    4.50
  -6  -1   9   17.90    7.20
  -6  -1   9  -13.10   12.60
  -6  -1   9    7.50    9.50
  -6  -1   9   -2.20    6.10
  -6  -1   9    5.10    5.20
  -6  -1   9   -4.20   11.60
   5   1  -9   50.99   11.10
   5   1  -9   56.19    9.60
   5   1  -9   81.79   12.30
   5   1  -9   64.89   10.50
   5   1  -9   61.99   12.30
   5   1  -9   72.39   11.20
   5   1  -9   76.59   10.70
  -5  -1   9   76.79   15.80
  -5  -1   9   57.39   13.10
  -5  -1   9   62.69    9.30
  -5  -1   9   53.99    9.60
  -5  -1   9   63.09   11.60
  -5  -1   9   36.50    9.60
  -5  -1   9   79.89   10.10
   4   1  -9  323.87   28.20
   4   1  -9  246.78   27.80
   4   1  -9  266.57   28.00
   4   1  -9  251.07   29.30
   4   1  -9  318.07   29.70
   4   1  -9  242.68   30.70
   4   1  -9  300.87   28.60
  -4  -1   9  302.17   27.90
  -4  -1   9  289.67   29.30
  -4  -1   9  273.67   27.40
  -4  -1   9  215.08   29.60
  -4  -1   9  312.17   33.10
   3   1  -9    3.40    3.90
   3   1  -9    5.40    3.80
   3   1  -9    5.20    3.40
   3   1  -9    3.20    4.10
   3   1  -9   10.40    3.30
   3   1  -9    8.20    3.20
   3   1  -9    2.70    3.10
  -3  -1   9    5.40    3.20
  -3  -1   9    7.20    4.90
  -3  -1   9    5.50    3.20
  -3  -1   9   13.10    7.70
  -3  -1   9    4.70    3.60
  -3  -1   9    5.00    4.60
  -3  -1   9    5.20    3.20
   2   1  -9  114.39   12.60
   2   1  -9  135.09   13.60
   2   1  -9  117.49   12.40
   2   1  -9  121.79   13.90
   2   1  -9  106.99   12.70
   2   1  -9  135.59   12.40
   2   1  -9  113.69   12.40
   2   1  -9  110.19   12.10
  -2  -1   9  116.79   13.90
  -2  -1   9  109.89   12.50
  -2  -1   9   97.29   12.00
  -2  -1   9   89.09   12.00
  -2  -1   9  129.09   17.60
  -2  -1   9   95.09   12.20
  -2  -1   9  100.99   13.70
   1   1  -9  332.67   28.30
   1   1  -9  291.67   28.10
   1   1  -9  295.07   27.80
   1   1  -9  316.87   28.90
   1   1  -9  331.77   29.70
   1   1  -9  282.37   27.40
   1   1  -9  260.27   27.80
   1   1  -9  303.47   27.80
  -1  -1   9  263.97   27.60
  -1  -1   9  255.37   27.60
  -1  -1   9  230.88   27.50
  -1  -1   9  260.77   28.00
  -1  -1   9  330.47   32.70
  -1  -1   9  272.87   28.70
  -1  -1   9  255.57   29.20
   0   1  -9  238.88   24.20
   0   1  -9  231.98   23.90
   0   1  -9  255.97   24.00
   0   1  -9  242.68   25.00
   0   1  -9  253.77   24.00
   0   1  -9  290.27   24.70
   0  -1   9  248.18   23.70
   0  -1   9  193.98   24.20
   0  -1   9  235.08   23.90
   0  -1   9  266.87   28.50
   0  -1   9  202.28   23.90
   0  -1   9  267.87   25.00
   0  -1   9  215.68   23.90
  -1   1  -9  179.58   19.00
  -1   1  -9  205.08   17.80
  -1   1  -9  214.78   22.10
  -1   1  -9  197.58   19.20
  -1   1  -9  183.18   19.10
  -1   1  -9  146.49   19.80
  -1   1  -9  227.28   20.20
  -1   1  -9  171.48   19.30
   1  -1   9  147.79   19.20
   1  -1   9  175.58   19.10
   1  -1   9  176.98   23.10
   1  -1   9  186.08   18.80
   1  -1   9  176.18   19.00
   1  -1   9  209.78   20.00
  -2   1  -9    7.20    4.20
  -2   1  -9    3.50    4.80
  -2   1  -9   -6.50    3.50
  -2   1  -9   -3.60    2.50
  -2   1  -9    1.90    3.80
  -2   1  -9   -2.50    5.40
  -2   1  -9   -1.40    4.50
  -2   1  -9    0.30    8.00
   2  -1   9   -7.10    4.70
   2  -1   9    8.50    7.60
   2  -1   9    1.70    3.50
   2  -1   9   -1.40    3.30
   2  -1   9   -1.40    3.00
   2  -1   9    2.20    3.30
   2  -1   9    0.90    4.90
   2  -1   9    8.10    6.60
  -3   1  -9    3.60    3.40
  -3   1  -9    1.10    4.70
  -3   1  -9    6.00    5.70
  -3   1  -9    8.50    3.80
  -3   1  -9    0.80    7.70
  -3   1  -9    1.60    6.00
  -3   1  -9    7.20    5.30
  -3   1  -9    3.10    4.00
   3  -1   9   -5.60    3.40
   3  -1   9   -2.40    4.70
   3  -1   9   -9.50    5.50
   3  -1   9    0.90    9.40
   3  -1   9   11.80    4.60
   3  -1   9   -3.70    6.00
   3  -1   9   -1.90    4.40
   3  -1   9   -2.60    8.00
  -4   1  -9   46.30    8.80
  -4   1  -9   68.39   11.10
  -4   1  -9   52.89    8.20
  -4   1  -9   50.39    8.20
  -4   1  -9   51.89    9.40
  -4   1  -9   51.09   14.70
  -4   1  -9   41.70   11.00
  -4   1  -9   52.79   12.50
   4  -1   9   38.90   11.40
   4  -1   9   29.00   13.10
   4  -1   9   35.70   12.50
   4  -1   9   57.19   10.90
   4  -1   9   54.69    9.10
   4  -1   9   49.70    9.80
   4  -1   9   51.69    8.50
   4  -1   9   48.10   11.20
  -5   1  -9   52.79   11.10
  -5   1  -9   32.70   19.50
  -5   1  -9   30.40    8.10
  -5   1  -9   39.60   14.70
  -5   1  -9   40.00    8.40
  -5   1  -9   37.30    9.80
   5  -1   9   32.30    9.00
   5  -1   9   17.30   14.70
   5  -1   9   31.60   10.30
   5  -1   9   50.39   13.60
   5  -1   9   23.20    9.40
   5  -1   9   52.69   17.40
   5  -1   9   20.20   11.00
   6   0  -9   55.39   11.20
   6   0  -9   35.40    8.10
   6   0  -9   33.60    9.60
   6   0  -9   61.69   10.00
   6   0  -9   52.19    9.10
  -6   0   9   48.10    8.50
  -6   0   9   17.90   14.60
  -6   0   9   25.40    6.80
  -6   0   9   41.90   10.00
  -6   0   9   42.60    7.30
  -6   0   9   41.50    9.10
  -6   0   9   32.30    6.90
   5   0  -9    2.30    5.10
   5   0  -9    0.50    5.20
   5   0  -9   -0.80    3.80
   5   0  -9    7.60    5.30
   5   0  -9   -3.50    5.40
   5   0  -9    0.10    5.00
   5   0  -9    4.00    4.40
  -5   0   9   -2.10    3.90
  -5   0   9   -2.30    4.20
  -5   0   9    0.70   11.10
  -5   0   9    2.40    3.40
  -5   0   9    0.70    3.60
  -5   0   9    2.30    5.00
  -5   0   9   -9.10    8.00
  -5   0   9   13.60    6.10
   4   0  -9  855.61   87.49
   4   0  -9  871.31   86.29
   4   0  -9 1056.59   87.29
   4   0  -9  986.60   86.69
   4   0  -9  936.71   86.69
  -4   0   9  822.52   85.49
  -4   0   9 1002.30   86.49
  -4   0   9  899.71   90.89
  -4   0   9  858.21   85.79
  -4   0   9  802.62   86.49
  -4   0   9 1072.49   88.09
   3   0  -9   94.89   11.20
   3   0  -9   85.19   10.70
   3   0  -9   88.09   10.60
   3   0  -9   92.49   12.20
   3   0  -9   84.69   10.70
   3   0  -9   96.39   10.30
  -3   0   9   83.29   10.80
  -3   0   9   91.59   10.70
  -3   0   9   92.79   16.40
  -3   0   9  100.09   12.30
  -3   0   9   85.19   12.40
  -3   0   9   81.19   10.50
  -3   0   9   79.19   10.20
  -3   0   9   76.99    9.30
   2   0  -9   36.50    7.10
   2   0  -9   37.70    6.10
   2   0  -9   31.10    5.50
   2   0  -9   64.89   12.80
   2   0  -9   34.60    5.70
   2   0  -9   31.10    5.40
   2   0  -9   40.30    6.50
   2   0  -9   36.80    6.20
   2   0  -9   41.70    5.50
  -2   0   9   37.60    9.80
  -2   0   9   30.70    5.80
  -2   0   9   35.10    5.70
  -2   0   9   32.40    7.10
  -2   0   9   34.30    4.00
  -2   0   9   34.60    5.90
  -2   0   9   36.60    6.90
  -2   0   9   33.40    5.50
   1   0  -9  243.18   25.30
   1   0  -9  268.07   25.20
   1   0  -9  258.67   25.00
   1   0  -9  288.17   25.70
   1   0  -9  302.37   27.20
   1   0  -9  254.07   25.20
   1   0  -9  275.37   26.10
  -1   0   9  249.18   29.00
  -1   0   9  198.78   25.30
  -1   0   9  241.98   24.80
  -1   0   9  258.37   25.90
  -1   0   9  229.88   24.90
   0   0  -9  802.92   77.79
   0   0  -9  799.62   77.79
   0   0  -9  840.32   78.99
   0   0  -9  872.41   78.19
   0   0  -9  821.42   78.19
   0   0  -9  948.01   78.79
   0   0   9  813.62   77.89
   0   0   9  826.62   77.59
   0   0   9  773.72   81.89
   0   0   9  908.21   78.79
   0   0   9  741.33   77.69
  -1   0  -9  204.08   20.60
  -1   0  -9  192.48   21.90
  -1   0  -9  227.58   21.30
  -1   0  -9  229.78   19.30
  -1   0  -9  181.28   20.90
  -1   0  -9  231.68   23.90
  -1   0  -9  183.88   20.50
  -1   0  -9  214.18   21.90
   1   0   9  208.78   21.60
   1   0   9  196.78   20.80
   1   0   9  208.08   20.40
   1   0   9  170.28   21.00
   1   0   9  197.28   20.50
   1   0   9  179.98   25.10
  -2   0  -9   29.10    6.50
  -2   0  -9   33.40    7.80
  -2   0  -9   43.40   10.30
  -2   0  -9   40.90    7.20
  -2   0  -9   37.40    5.40
  -2   0  -9   35.00    6.40
  -2   0  -9   43.50    8.60
  -2   0  -9   32.10    8.10
   2   0   9   35.00   11.10
   2   0   9   28.10    5.90
   2   0   9   46.60    6.80
   2   0   9   25.30    7.00
   2   0   9   28.80    7.60
   2   0   9   24.90    8.80
   2   0   9   32.80    7.00
  -3   0  -9   30.60   11.10
  -3   0  -9   26.50    6.40
  -3   0  -9   15.90    8.40
  -3   0  -9   45.50   12.60
  -3   0  -9   24.50    6.10
  -3   0  -9   23.90    6.80
  -3   0  -9   20.30    7.10
  -3   0  -9   17.50    5.00
  -3   0  -9   33.80    7.60
   3   0   9   21.20    5.70
   3   0   9   27.90    7.70
   3   0   9    7.00    6.90
   3   0   9   16.60    7.60
   3   0   9   20.10    5.90
   3   0   9   21.40    9.90
   3   0   9   21.30    9.90
   3   0   9   28.00    6.40
  -4   0  -9   31.80    7.00
  -4   0  -9   30.20    8.70
  -4   0  -9   31.10   14.50
  -4   0  -9   25.10    5.90
  -4   0  -9   27.70    8.20
  -4   0  -9   41.00   14.90
  -4   0  -9   24.00    7.30
  -4   0  -9   35.30   11.60
   4   0   9   40.60    8.10
   4   0   9   34.80    7.30
   4   0   9   30.30    9.50
   4   0   9   18.10   13.60
   4   0   9   13.10    9.40
   4   0   9   26.00   13.70
   4   0   9   20.80    7.80
   4   0   9   17.10    9.80
  -5   0  -9   10.30    9.70
   5   0   9   11.40   10.20
   6  -1  -9   34.10    7.10
   6  -1  -9   34.00    8.70
   6  -1  -9   46.80    9.90
   6  -1  -9   27.40    7.80
   6  -1  -9   41.00    7.00
   6  -1  -9   57.19    9.70
   6  -1  -9   19.40    8.10
  -6   1   9   34.60    8.90
  -6   1   9   37.70    8.70
  -6   1   9   31.00   15.10
  -6   1   9   24.60    6.20
  -6   1   9   29.00   10.00
  -6   1   9   37.10    7.10
   5  -1  -9  186.88   18.00
   5  -1  -9  154.28   18.30
   5  -1  -9  144.59   16.50
   5  -1  -9  180.98   17.80
   5  -1  -9  176.98   16.40
   5  -1  -9  171.08   20.70
  -5   1   9  130.49   14.80
  -5   1   9  154.98   17.30
  -5   1   9  133.59   25.80
  -5   1   9  129.29   15.10
  -5   1   9  128.99   19.10
  -5   1   9  168.88   16.70
  -5   1   9  146.89   16.00
   4  -1  -9  225.48   22.70
   4  -1  -9  257.27   23.30
   4  -1  -9  203.48   23.30
   4  -1  -9  243.18   22.00
   4  -1  -9  258.07   22.90
   4  -1  -9  246.98   22.40
  -4   1   9  208.08   29.60
  -4   1   9  221.38   22.30
  -4   1   9  192.08   21.30
  -4   1   9  235.78   23.90
  -4   1   9  181.58   21.50
  -4   1   9  196.38   21.40
  -4   1   9  196.18   22.30
   3  -1  -9   91.99   10.30
   3  -1  -9   98.29   11.50
   3  -1  -9   93.89    9.40
   3  -1  -9   74.59    9.50
   3  -1  -9   91.49   10.30
   3  -1  -9   95.79   10.00
   3  -1  -9   86.49   10.50
  -3   1   9   69.69   11.60
  -3   1   9   67.29    9.30
  -3   1   9   81.09   11.70
  -3   1   9   78.19   10.10
  -3   1   9   74.19    8.70
  -3   1   9   92.79   16.90
  -3   1   9   71.39    9.30
  -3   1   9   80.39    9.70
   2  -1  -9  123.49   12.10
   2  -1  -9  130.19   12.60
   2  -1  -9  135.79   12.90
   2  -1  -9  112.79   12.70
   2  -1  -9  128.39   13.30
   2  -1  -9  144.09   14.30
  -2   1   9   98.69   12.60
  -2   1   9   89.19   12.10
  -2   1   9  106.49   18.50
  -2   1   9  123.89   13.50
  -2   1   9   91.49   13.70
  -2   1   9  104.29   11.90
  -2   1   9   93.19   10.80
  -2   1   9  122.89   12.20
   1  -1  -9  100.79   11.30
   1  -1  -9  105.89   11.10
   1  -1  -9  112.29   11.90
   1  -1  -9  121.99   13.50
   1  -1  -9  118.99   11.90
   1  -1  -9   93.89   11.90
   1  -1  -9   91.99   11.40
  -1   1   9   68.79   16.30
  -1   1   9   97.39   10.90
  -1   1   9   90.49   11.10
  -1   1   9  107.99   12.20
   0  -1  -9   12.40    4.70
   0  -1  -9   15.90    3.80
   0  -1  -9   21.50    5.20
   0  -1  -9   15.60    3.70
   0  -1  -9   13.70    4.60
   0  -1  -9   22.40    9.90
   0  -1  -9   23.00    5.00
   0  -1  -9   25.90    6.90
   0   1   9   19.40    4.30
   0   1   9   15.40    3.50
   0   1   9   17.20    4.70
   0   1   9    5.10    5.40
   0   1   9   12.80    4.30
   0   1   9   14.60    3.80
   0   1   9   12.20    7.10
   0   1   9   13.70    4.70
  -1  -1  -9  691.03   72.19
  -1  -1  -9  722.73   71.09
  -1  -1  -9  831.02   72.49
  -1  -1  -9  734.23   71.49
  -1  -1  -9  822.02   70.99
  -1  -1  -9  853.71   74.89
   1   1   9  737.43   70.69
   1   1   9  773.92   71.19
   1   1   9  815.02   72.09
   1   1   9  653.43   75.89
   1   1   9  786.22   70.89
   1   1   9  631.44   71.29
  -2  -1  -9   52.79    9.00
  -2  -1  -9   71.69   10.60
  -2  -1  -9   69.39   11.30
  -2  -1  -9   74.09   10.80
  -2  -1  -9   70.19   14.10
  -2  -1  -9   76.19    9.20
  -2  -1  -9   73.49   11.00
   2   1   9   65.99   10.60
   2   1   9   44.00   10.30
   2   1   9   40.70   11.80
   2   1   9   65.79   11.00
   2   1   9   35.50   13.30
   2   1   9   60.49    9.10
   2   1   9   66.19    8.60
  -3  -1  -9   96.09   16.10
  -3  -1  -9   82.69   11.70
  -3  -1  -9  113.29   14.70
  -3  -1  -9   78.69   17.10
  -3  -1  -9   96.59   12.50
  -3  -1  -9   69.49   13.30
  -3  -1  -9  101.89   13.90
  -3  -1  -9   75.69   12.00
   3   1   9   77.99   14.30
   3   1   9   95.99   11.70
   3   1   9   75.59   18.00
   3   1   9   78.49   13.40
   3   1   9   80.89   14.30
   3   1   9   84.39   11.60
   3   1   9  109.99   13.10
   3   1   9   51.99   15.60
  -4  -1  -9  131.59   21.90
  -4  -1  -9  119.59   24.30
  -4  -1  -9  106.09   17.90
  -4  -1  -9  179.78   20.70
  -4  -1  -9  129.49   20.70
   4   1   9  102.59   22.60
   4   1   9  136.09   16.90
   4   1   9  115.49   19.80
   4   1   9  108.19   17.90
   4   1   9  141.19   21.50
   4   1   9  149.99   20.40
   4   1   9  134.69   17.30
   6  -2  -9    7.70    5.60
   6  -2  -9   10.90    4.70
   6  -2  -9    3.90    4.00
   6  -2  -9   15.40    6.10
   6  -2  -9   -2.30    6.50
   6  -2  -9    4.70    6.20
   6  -2  -9    9.70    6.80
  -6   2   9   -4.10    6.50
  -6   2   9   13.60    8.50
  -6   2   9    6.90    6.00
  -6   2   9   10.00   15.10
  -6   2   9   -4.70    5.10
  -6   2   9    3.60    4.40
   5  -2  -9  233.28   26.80
   5  -2  -9  277.47   25.40
   5  -2  -9  254.17   25.70
   5  -2  -9  273.77   26.90
   5  -2  -9  277.67   26.30
  -5   2   9  283.17   26.10
  -5   2   9  239.28   35.00
  -5   2   9  244.58   25.60
  -5   2   9  233.08   26.00
   4  -2  -9   80.09    9.10
   4  -2  -9   75.69    9.50
   4  -2  -9   73.89    8.90
   4  -2  -9   71.29   10.20
   4  -2  -9   71.49    9.70
   4  -2  -9   70.69    8.10
   4  -2  -9   79.79   10.10
  -4   2   9   47.30   10.20
  -4   2   9   69.79   11.00
  -4   2   9   58.89    8.10
  -4   2   9   59.99    8.80
  -4   2   9   70.29    9.60
  -4   2   9   64.29   16.50
   3  -2  -9  186.48   18.80
   3  -2  -9  204.18   18.60
   3  -2  -9  206.88   19.60
   3  -2  -9  187.98   18.10
   3  -2  -9  195.68   18.60
   3  -2  -9  187.78   17.70
   3  -2  -9  210.78   18.40
  -3   2   9  172.58   18.00
  -3   2   9  161.78   21.90
  -3   2   9  149.09   17.30
  -3   2   9  145.19   17.40
  -3   2   9  168.48   17.30
  -3   2   9  151.58   18.40
  -3   2   9  142.89   25.20
   2  -2  -9   34.20    7.00
   2  -2  -9   26.00    4.70
   2  -2  -9   27.30    5.00
   2  -2  -9   25.00    5.00
   2  -2  -9   36.10   11.60
   2  -2  -9   30.70    5.30
   2  -2  -9   19.50    4.70
   2  -2  -9   19.50    3.70
  -2   2   9   19.40    3.90
  -2   2   9   20.90    5.40
  -2   2   9   23.70    4.10
  -2   2   9    9.80    4.40
  -2   2   9   24.10    4.50
  -2   2   9   14.90   10.20
   1  -2  -9  552.84   54.99
   1  -2  -9  571.84   54.49
   1  -2  -9  513.75   55.29
   1  -2  -9  534.85   54.49
   1  -2  -9  636.24   55.29
   1  -2  -9  654.03   55.59
  -1   2   9  615.84   55.49
  -1   2   9  574.44   54.39
  -1   2   9  564.04   54.49
   0  -2  -9   35.40    7.30
   0  -2  -9   46.10    7.40
   0  -2  -9   67.59   14.70
   0  -2  -9   34.90    6.30
   0  -2  -9   45.20   10.00
   0  -2  -9   54.09    6.00
   0  -2  -9   31.00    7.10
   0  -2  -9   40.80    7.40
   0   2   9   38.30    7.10
   0   2   9   28.60   11.40
   0   2   9   41.90    6.80
   0   2   9   37.90    6.00
   0   2   9   28.30    8.00
   0   2   9   48.50    7.50
   0   2   9   26.60    7.10
  -1  -2  -9    3.20    9.70
  -1  -2  -9    1.00    3.10
  -1  -2  -9    5.40    4.50
  -1  -2  -9   -0.50    5.70
  -1  -2  -9   -4.40    5.20
  -1  -2  -9    2.70    5.00
  -1  -2  -9    7.10    4.10
  -1  -2  -9    1.20    3.00
   1   2   9   -5.60    6.30
   1   2   9    3.70    4.30
   1   2   9    3.50    5.60
   1   2   9   -1.60    4.60
   1   2   9    2.50    3.60
   1   2   9    1.70    2.80
   1   2   9    2.90    3.20
   1   2   9    5.90    9.20
  -2  -2  -9  189.78   21.90
  -2  -2  -9  173.58   19.10
  -2  -2  -9  198.88   21.00
  -2  -2  -9  156.78   18.80
  -2  -2  -9  172.38   18.60
  -2  -2  -9  178.08   19.60
  -2  -2  -9  132.69   23.70
  -2  -2  -9  184.48   20.90
   2   2   9  139.29   20.40
   2   2   9  159.38   20.30
   2   2   9  160.68   20.20
   2   2   9  201.18   18.90
   2   2   9  178.38   19.40
   2   2   9  177.38   18.30
  -3  -2  -9   17.20   12.20
  -3  -2  -9   13.90   13.10
  -3  -2  -9   13.10    6.10
  -3  -2  -9    5.50    7.40
  -3  -2  -9   -0.40    5.20
  -3  -2  -9   11.20    8.80
  -3  -2  -9   20.20   13.40
  -3  -2  -9    8.20    5.90
  -3  -2  -9    5.80    7.40
   3   2   9   10.40    7.80
   3   2   9    7.30    5.20
   3   2   9   17.50    9.20
   3   2   9   -5.00    5.80
   3   2   9   -5.50   12.60
   3   2   9  -22.60   14.20
   3   2   9   -0.10    4.70
   3   2   9   12.70    8.80
  -4  -2  -9   10.30    8.20
  -4  -2  -9   14.20   10.70
  -4  -2  -9   19.60   13.30
  -4  -2  -9   13.00    8.70
  -4  -2  -9    1.40   10.80
  -4  -2  -9    6.20    8.70
   4   2   9  -25.40   16.00
   4   2   9   -3.30   10.40
   4   2   9    3.50    9.60
   4   2   9   23.50   12.60
   4   2   9   -3.00    6.70
   4   2   9  -12.20    8.00
   4   2   9    3.10    7.30
   6  -3  -9   33.10    7.60
   6  -3  -9   44.90   15.40
   6  -3  -9   13.20    5.10
   6  -3  -9   25.70    7.00
   6  -3  -9   39.60    8.30
   6  -3  -9   28.20    6.40
   6  -3  -9   27.20    4.70
   6  -3  -9   35.80    7.30
  -6   3   9   24.60    6.40
  -6   3   9    9.90    9.30
  -6   3   9   11.50    7.40
  -6   3   9   23.40    6.10
  -6   3   9   16.60   18.00
   5  -3  -9   19.80    4.60
   5  -3  -9   31.20    6.10
   5  -3  -9   38.70   14.80
   5  -3  -9   26.60    4.30
   5  -3  -9   38.50    6.90
   5  -3  -9   19.30    5.50
   5  -3  -9   22.80    5.40
   5  -3  -9   28.20    6.00
  -5   3   9   11.90    6.20
  -5   3   9   19.70   18.70
  -5   3   9   20.10    5.50
  -5   3   9   12.80    6.40
  -5   3   9   19.60    5.20
  -5   3   9   27.00    5.10
   4  -3  -9   66.49    9.30
   4  -3  -9   64.09    9.10
   4  -3  -9   66.49    7.70
   4  -3  -9   65.39    9.60
   4  -3  -9   63.69    9.70
   4  -3  -9   68.79    8.20
  -4   3   9   47.70    9.60
  -4   3   9   60.09    8.40
  -4   3   9   61.59   10.00
  -4   3   9   73.39   20.90
  -4   3   9   66.89    8.30
   3  -3  -9   80.99    9.00
   3  -3  -9   77.59    9.00
   3  -3  -9   69.99    7.80
   3  -3  -9   79.39   10.10
   3  -3  -9   81.29   11.40
   3  -3  -9   63.29    9.30
   3  -3  -9   84.49    8.50
  -3   3   9   47.60    9.00
  -3   3   9   72.79    9.30
  -3   3   9   68.19    8.30
  -3   3   9   57.29    7.90
  -3   3   9   57.39    6.60
  -3   3   9   54.09    6.80
  -3   3   9   64.29   17.60
   2  -3  -9   68.69    9.00
   2  -3  -9   61.59    8.00
   2  -3  -9  100.29   16.00
   2  -3  -9   78.99    8.80
   2  -3  -9   73.79    9.40
   2  -3  -9   61.09    9.30
  -2   3   9   61.99    7.60
  -2   3   9   60.49    9.40
  -2   3   9   67.19    8.10
  -2   3   9   55.59   17.60
  -2   3   9   59.59    8.40
   1  -3  -9   76.29    9.70
   1  -3  -9   91.39   11.30
   1  -3  -9   81.39   10.40
   1  -3  -9   95.89   13.40
   1  -3  -9   87.69    9.50
   1  -3  -9   82.79   10.70
   1  -3  -9  104.69   18.90
  -1   3   9   86.79    9.70
  -1   3   9   91.69    9.80
  -1   3   9   91.89   10.90
  -1   3   9   55.79   12.90
  -1   3   9   63.89   10.40
   0  -3  -9  115.69   12.80
   0  -3  -9  167.48   23.30
   0  -3  -9  122.29   12.30
   0  -3  -9  124.59   17.80
   0  -3  -9  122.39   16.00
   0  -3  -9   91.29   13.80
   0  -3  -9  132.89   15.00
   0   3   9   82.09   17.60
   0   3   9   92.19   20.60
   0   3   9  122.59   13.90
   0   3   9   97.79   14.20
   0   3   9  119.29   12.80
   0   3   9   86.49   13.50
   0   3   9  129.99   13.30
  -1  -3  -9  209.68   28.80
  -1  -3  -9  267.87   23.50
  -1  -3  -9  219.28   23.90
  -1  -3  -9  230.48   24.70
  -1  -3  -9  201.38   25.00
  -1  -3  -9  276.27   25.90
  -1  -3  -9  271.97   26.80
   1   3   9  231.38   25.50
   1   3   9  233.28   23.20
   1   3   9  222.08   28.00
   1   3   9  207.68   24.80
   1   3   9  249.08   25.30
   1   3   9  239.88   23.80
   1   3   9  185.58   32.00
  -2  -3  -9   -2.40    7.60
  -2  -3  -9    7.60    6.00
  -2  -3  -9   31.60   14.70
  -2  -3  -9    8.70    7.10
  -2  -3  -9    6.40    5.50
  -2  -3  -9   20.90    6.40
  -2  -3  -9    9.90    4.50
  -2  -3  -9   19.10    7.40
   2   3   9    5.30   13.50
   2   3   9    8.90    5.40
   2   3   9   15.00    7.80
   2   3   9   14.40    7.20
   2   3   9    5.90    4.20
   2   3   9   -0.40    9.10
   2   3   9    4.80    6.60
   2   3   9    7.60    4.40
  -3  -3  -9   66.09   12.80
  -3  -3  -9   66.49   20.40
  -3  -3  -9   43.50   13.60
  -3  -3  -9   31.80   17.90
  -3  -3  -9   55.99   11.40
  -3  -3  -9   58.69   10.70
   3   3   9   59.79   13.10
   3   3   9   52.29   12.50
   3   3   9   47.20   12.40
   3   3   9   48.10    9.40
   3   3   9   71.89   11.40
   3   3   9   54.89   17.20
   3   3   9   48.40   10.30
  -4  -3  -9  150.78   24.60
   4   3   9  133.99   20.20
   4   3   9  154.48   22.80
   6  -4  -9    4.10    4.30
   6  -4  -9   -3.30    5.80
   6  -4  -9    5.70    5.20
   6  -4  -9   11.70    5.60
   6  -4  -9   10.70    7.60
   6  -4  -9   -1.60    3.70
   6  -4  -9    9.00    3.20
   6  -4  -9   -9.60   24.80
  -6   4   9    2.60    4.80
  -6   4   9    4.90    5.90
  -6   4   9   -3.30    4.50
  -6   4   9   -3.50    4.50
   5  -4  -9   59.29   16.80
   5  -4  -9   29.40    5.00
   5  -4  -9   39.30    7.90
   5  -4  -9   40.90    6.30
   5  -4  -9   49.10    8.10
  -5   4   9   29.40    6.00
  -5   4   9   56.59   19.70
  -5   4   9   28.70    5.40
  -5   4   9   18.10    6.50
  -5   4   9   25.20    6.50
  -5   4   9   27.90    5.90
   4  -4  -9   11.50    4.10
   4  -4  -9   15.10    4.40
   4  -4  -9    8.70    4.20
   4  -4  -9    4.30    4.90
   4  -4  -9   10.60    2.70
   4  -4  -9   10.10    4.00
   4  -4  -9    4.20    3.00
   4  -4  -9   20.40   13.10
  -4   4   9    9.30    4.20
  -4   4   9    6.80    3.60
  -4   4   9   12.50    4.70
  -4   4   9   30.90   15.30
  -4   4   9   12.50    5.50
   3  -4  -9  374.36   31.40
   3  -4  -9  338.87   31.60
   3  -4  -9  295.47   30.70
   3  -4  -9  356.56   31.80
   3  -4  -9  340.67   31.60
   3  -4  -9  298.67   31.70
  -3   4   9  332.47   31.90
  -3   4   9  330.17   30.90
  -3   4   9  267.57   30.80
  -3   4   9  253.97   40.90
   2  -4  -9   59.29   15.50
   2  -4  -9   49.00    8.20
   2  -4  -9   56.39    9.70
   2  -4  -9   45.40    7.40
   2  -4  -9   51.59    8.60
   2  -4  -9   32.60    6.00
   2  -4  -9   46.50    6.60
  -2   4   9   54.69    6.50
  -2   4   9   40.40    5.50
  -2   4   9   53.29    7.80
  -2   4   9   35.00    6.10
  -2   4   9   29.60   15.80
  -2   4   9   34.00    7.20
   1  -4  -9    4.50    3.10
   1  -4  -9    3.70    2.40
   1  -4  -9   14.90    5.50
   1  -4  -9   20.50    8.00
   1  -4  -9    3.80    4.30
   1  -4  -9   10.10    6.20
   1  -4  -9   -2.30    3.50
   1  -4  -9   -3.30   10.10
  -1   4   9   -3.00    2.70
  -1   4   9    9.20    6.30
  -1   4   9    4.00    3.80
  -1   4   9    8.50    3.10
  -1   4   9    6.20    4.00
  -1   4   9    8.80    5.00
  -1   4   9   -9.70   12.30
   0  -4  -9   71.69    8.80
   0  -4  -9   83.69   10.10
   0  -4  -9   69.29   11.20
   0  -4  -9   78.89   12.00
   0  -4  -9   81.99   12.80
   0  -4  -9   81.69   11.00
   0  -4  -9   73.19   14.90
   0  -4  -9  122.39   23.30
   0   4   9   56.49   12.90
   0   4   9   56.09   19.10
   0   4   9   77.29   10.00
   0   4   9   73.79   11.30
   0   4   9   48.10   10.80
   0   4   9   89.09   10.30
   0   4   9   94.79   11.60
  -1  -4  -9    1.80    5.60
  -1  -4  -9    8.50    6.30
  -1  -4  -9    6.90    3.60
  -1  -4  -9   11.40    7.20
  -1  -4  -9    9.50    7.60
  -1  -4  -9    6.60    4.80
  -1  -4  -9    1.10   12.10
  -1  -4  -9    5.00   10.40
   1   4   9   -0.30    9.00
   1   4   9   17.50    6.90
   1   4   9    9.10    5.90
   1   4   9    5.40    5.00
   1   4   9   10.00    3.70
   1   4   9    7.30    4.10
   1   4   9  -10.70   13.90
   1   4   9    5.80    6.90
  -2  -4  -9    8.10    8.00
  -2  -4  -9    2.50    6.50
  -2  -4  -9    4.00    6.60
  -2  -4  -9    4.70   14.40
  -2  -4  -9    6.70   12.90
  -2  -4  -9   -7.30    8.50
   2   4   9   -5.70    6.90
   2   4   9  -15.00   10.10
   2   4   9   -2.50    4.10
   2   4   9   -0.80    5.70
   2   4   9   -5.80    7.90
   2   4   9    2.10    6.00
   2   4   9  -10.20    8.30
  -3  -4  -9  -10.90    7.60
  -3  -4  -9   32.70    8.60
  -3  -4  -9   46.50   19.20
  -3  -4  -9   25.70    9.80
  -3  -4  -9  -14.20   17.30
  -3  -4  -9   14.90   13.50
  -3  -4  -9   11.20   10.40
  -3  -4  -9    8.60   11.60
   3   4   9   16.80    8.70
   3   4   9   20.60   11.90
   3   4   9    3.20   11.20
   3   4   9   14.30    6.80
   3   4   9   14.90   11.40
   3   4   9    4.90    7.80
   6  -5  -9   42.60    7.50
   6  -5  -9   37.10    5.10
   6  -5  -9   47.80    8.20
   6  -5  -9   54.19   10.20
  -6   5   9   30.30    7.90
   5  -5  -9  111.99   22.60
   5  -5  -9   96.19   10.90
   5  -5  -9   72.89   10.10
   5  -5  -9   83.29   12.30
   5  -5  -9   77.89    8.60
   5  -5  -9   80.19   10.30
  -5   5   9   76.19    8.90
  -5   5   9   82.69   10.70
  -5   5   9   58.89    8.70
  -5   5   9   55.69    9.80
   4  -5  -9   12.40    4.20
   4  -5  -9   10.60    4.60
   4  -5  -9    7.60    4.40
   4  -5  -9    3.80    5.00
   4  -5  -9    5.90    4.10
   4  -5  -9    6.90   13.80
  -4   5   9    5.40    4.40
  -4   5   9    7.50    3.30
  -4   5   9    8.90    5.50
  -4   5   9    6.10   15.50
  -4   5   9    4.90    4.30
   3  -5  -9   32.20   14.20
   3  -5  -9   26.10    6.40
   3  -5  -9   33.20    7.00
   3  -5  -9   22.60    5.80
   3  -5  -9   22.50    4.20
   3  -5  -9   27.70    5.70
   3  -5  -9   23.60    5.50
   3  -5  -9   28.90    5.40
  -3   5   9   18.80    5.80
  -3   5   9   26.00    5.70
  -3   5   9   16.80    6.90
  -3   5   9   39.10    6.90
  -3   5   9   23.40    4.50
  -3   5   9   21.80   17.30
   2  -5  -9   46.70    7.70
   2  -5  -9   42.50    8.20
   2  -5  -9   32.70    7.40
   2  -5  -9   41.30    9.20
   2  -5  -9   41.50    7.10
   2  -5  -9   36.30   16.30
   2  -5  -9   45.10    6.00
   2  -5  -9   34.80    5.90
  -2   5   9   40.00    6.20
  -2   5   9   30.60   17.80
  -2   5   9   34.70    6.70
  -2   5   9   35.30    7.10
  -2   5   9   23.30    8.30
   1  -5  -9  325.97   29.80
   1  -5  -9  252.17   31.60
   1  -5  -9  347.57   35.30
   1  -5  -9  363.96   42.80
   1  -5  -9  278.27   31.60
   1  -5  -9  299.27   30.80
  -1   5   9  346.87   32.30
  -1   5   9  317.37   30.20
  -1   5   9  342.57   30.80
  -1   5   9  262.67   42.50
   0  -5  -9   14.50    6.00
   0  -5  -9   14.50    8.00
   0  -5  -9   14.60   14.00
   0  -5  -9    6.10    2.70
   0  -5  -9    0.10    5.30
   0  -5  -9    4.20    4.30
   0  -5  -9    8.90    9.50
   0  -5  -9    7.40    7.00
   0   5   9   11.30    9.00
   0   5   9    3.70    5.50
   0   5   9    0.70    4.30
   0   5   9   -2.00    6.30
   0   5   9   -0.10    5.90
   0   5   9    7.70    4.20
  -1  -5  -9  114.89   19.40
  -1  -5  -9  158.18   19.00
  -1  -5  -9  130.49   25.00
   1   5   9  109.39   18.40
   1   5   9  153.18   18.30
   1   5   9  114.69   22.20
   1   5   9  131.79   16.10
   1   5   9  119.19   18.20
   1   5   9  119.99   16.10
  -2  -5  -9  150.08   28.60
  -2  -5  -9   94.49   15.30
  -2  -5  -9  138.09   16.90
  -2  -5  -9  119.49   19.00
  -2  -5  -9  108.29   16.90
  -2  -5  -9   74.09   21.60
  -2  -5  -9   74.59   17.60
  -2  -5  -9   92.29   16.70
   2   5   9   80.39   12.40
   2   5   9   76.39   15.70
   2   5   9   79.99   19.30
   2   5   9   91.49   15.30
   2   5   9  115.49   15.40
   2   5   9  120.59   19.00
   2   5   9   92.29   16.40
   5  -6  -9    1.40    5.00
   5  -6  -9    1.00   17.90
   5  -6  -9    2.50    1.80
   5  -6  -9   -0.50    3.40
   5  -6  -9   -2.50    6.60
  -5   6   9   -5.70    5.10
   4  -6  -9  217.38   21.50
   4  -6  -9  163.58   20.40
   4  -6  -9  174.38   19.80
   4  -6  -9  215.78   20.10
   4  -6  -9  229.08   20.20
   4  -6  -9  198.88   18.80
  -4   6   9  187.78   18.60
  -4   6   9  151.88   19.90
  -4   6   9  166.08   19.20
   3  -6  -9    9.80    3.60
   3  -6  -9   16.50    5.20
   3  -6  -9   16.20    5.40
   3  -6  -9   17.00    4.30
   3  -6  -9   17.10    5.00
   3  -6  -9   19.80    6.50
   3  -6  -9   18.90   17.00
   3  -6  -9   10.00    6.10
  -3   6   9   16.30    7.50
  -3   6   9   15.20    4.30
  -3   6   9   17.70    4.90
  -3   6   9    9.90    5.40
   2  -6  -9    3.10    3.70
   2  -6  -9    3.10    5.10
   2  -6  -9    4.80    6.70
   2  -6  -9    1.90    5.00
   2  -6  -9    5.60   15.50
   2  -6  -9    0.00    7.50
   2  -6  -9    8.60    5.10
   2  -6  -9    4.30    2.40
  -2   6   9    0.70    5.70
  -2   6   9    4.00    3.50
  -2   6   9   10.10    4.90
  -2   6   9   -7.60    8.20
   1  -6  -9  231.28   36.10
   1  -6  -9  179.68   18.30
   1  -6  -9  228.98   23.80
   1  -6  -9  179.88   21.80
   1  -6  -9  211.28   23.00
   1  -6  -9  202.68   26.90
   1  -6  -9  213.78   21.80
  -1   6   9  138.29   27.10
  -1   6   9  166.88   22.00
  -1   6   9  201.18   20.30
  -1   6   9  190.78   19.20
   0  -6  -9   57.99   21.80
   0  -6  -9   56.89   12.30
   0  -6  -9   35.30   14.30
   0  -6  -9   43.60   10.90
   0  -6  -9   46.60   11.00
   0   6   9   63.09   11.60
   0   6   9   46.00    8.20
   0   6   9   31.20   13.40
   0   6   9   39.90   10.30
   0   6   9   41.90    8.40
   0   6   9   45.10    9.30
  -1  -6  -9    4.50   15.60
  -1  -6  -9   -0.90    6.90
  -1  -6  -9    5.90    9.30
  -1  -6  -9   10.30    8.00
  -1  -6  -9    6.40   20.10
  -1  -6  -9   -2.90    9.40
  -1  -6  -9   -9.30   10.70
   1   6   9    1.30    6.80
   1   6   9   -1.10    8.30
   1   6   9   -8.40    8.70
   1   6   9    2.00   12.50
   1   6   9    9.90    9.00
   1   6   9    3.50    6.90
  -2  -6  -9   79.39   28.90
  -2  -6  -9   43.60   15.90
  -2  -6  -9   94.59   19.60
  -2  -6  -9   54.79   13.20
  -2  -6  -9   89.99   17.10
  -2  -6  -9   63.39   23.30
   2   6   9   77.89   15.70
   2   6   9  115.19   16.10
   2   6   9   55.09   19.20
   2   6   9   87.69   17.30
   2   6   9   70.89   13.00
   4  -7  -9  111.89   29.00
   4  -7  -9   79.09   12.30
   4  -7  -9   74.69   12.20
   4  -7  -9   79.89   10.60
   4  -7  -9   90.09   13.00
   4  -7  -9   71.39    9.20
   4  -7  -9   76.19    9.00
   4  -7  -9   64.29    9.80
   4  -7  -9   71.69   11.30
  -4   7   9   78.79    8.30
  -4   7   9   53.39   10.80
   3  -7  -9   49.60   22.70
   3  -7  -9   66.39    7.80
   3  -7  -9   54.29    8.80
   3  -7  -9   61.29    9.30
   3  -7  -9   76.79   14.20
   3  -7  -9   86.79   13.40
   3  -7  -9   77.29   11.30
  -3   7   9   44.30   10.50
  -3   7   9   83.49   10.70
  -3   7   9   44.50    9.40
   2  -7  -9   88.69   14.80
   2  -7  -9  102.29   13.60
   2  -7  -9  130.79   31.10
   2  -7  -9  117.99   16.00
   2  -7  -9  107.29   17.40
   2  -7  -9  130.79   20.40
  -2   7   9  129.19   13.20
  -2   7   9  110.79   14.60
  -2   7   9   92.59   18.40
  -2   7   9   89.49   15.60
   1  -7  -9   49.10   11.60
   1  -7  -9   59.69   10.50
   1  -7  -9   46.80   11.90
   1  -7  -9   41.70    8.10
   1  -7  -9   46.10   14.40
   1  -7  -9   65.89   26.60
   1  -7  -9   28.60    9.60
  -1   7   9   50.99    9.60
  -1   7   9   35.60    6.60
  -1   7   9   49.40   10.40
  -1   7   9   51.59    8.30
  -1   7   9   55.49   12.40
  -1   7   9   43.40    6.50
   0  -7  -9   77.29   12.50
   0  -7  -9   97.69   17.60
   0  -7  -9  134.39   18.80
   0  -7  -9  101.39   17.00
   0  -7  -9   80.99   29.20
   0  -7  -9   73.49   20.10
   0  -7  -9   55.79   13.20
   0   7   9   60.79   12.00
   0   7   9   68.59   14.30
   0   7   9  113.89   21.60
   0   7   9  109.29   14.00
   0   7   9   82.39   12.80
   0   7   9   97.59   17.50
  -1  -7  -9   31.00   29.30
  -1  -7  -9   72.29   15.60
   1   7   9   62.89   14.30
   1   7   9   64.29   11.70
   1   7   9   65.89   12.50
   3  -8  -9   -5.60    5.00
   3  -8  -9   -1.80    6.80
   3  -8  -9    5.10    7.00
   3  -8  -9  -39.50   23.20
   3  -8  -9    2.80    8.20
   3  -8  -9   12.50    9.70
  -3   8   9    8.00    6.00
  -3   8   9   10.40    6.60
  -3   8   9   12.50    8.50
   2  -8  -9   20.20    8.60
   2  -8  -9   13.80   28.60
   2  -8  -9    8.70    9.70
   2  -8  -9    8.30    8.60
   2  -8  -9   21.60   10.90
   2  -8  -9   -7.00   11.80
   2  -8  -9   15.30    6.60
  -2   8   9    8.30    8.90
  -2   8   9   19.10    6.10
  -2   8   9   29.00    7.50
   1  -8  -9   -1.50    9.10
   1  -8  -9  -10.50   10.50
   1  -8  -9   26.00   12.10
   1  -8  -9   30.40   24.00
   1  -8  -9  -26.00   15.20
   1  -8  -9   12.60    7.60
  -1   8   9    5.50    7.10
  -1   8   9  -11.30   10.00
   1   9 -10    1.60    9.40
   1   9 -10   17.90   13.70
   1   9 -10    2.00    9.00
   1   9 -10  -20.40   12.20
   1   9 -10    9.10   10.40
  -1  -9  10    7.60   13.80
  -1  -9  10   -3.20   10.30
  -1  -9  10    6.20   10.00
  -1  -9  10   -1.90    8.10
   0   9 -10   -2.90   11.00
   0   9 -10    1.30    7.50
   0   9 -10   -4.60    7.30
   0   9 -10   -8.80    6.70
   0   9 -10    4.10    7.20
   0   9 -10  -13.20   13.60
   0   9 -10  -10.00    8.90
   0  -9  10    0.70   10.90
   0  -9  10   -7.20    9.60
   0  -9  10   -1.90    6.90
   0  -9  10   -2.30    7.70
   0  -9  10   18.10    8.90
   0  -9  10   -3.60    7.60
  -1   9 -10   16.80    6.30
  -1   9 -10   26.70    7.80
  -1   9 -10   19.80   10.40
  -1   9 -10   32.40   15.40
  -1   9 -10   31.20    9.50
  -1   9 -10   16.50   10.20
  -1   9 -10    8.20    6.10
   1  -9  10   38.00    9.50
   1  -9  10   23.20   11.70
   1  -9  10   13.90    7.60
   1  -9  10   24.10    8.70
   1  -9  10    5.90    7.10
  -2   9 -10   31.70    9.60
  -2   9 -10    7.90   15.60
  -2   9 -10   38.80    9.10
  -2   9 -10   24.40    9.20
   2  -9  10   26.50   11.70
   2  -9  10   26.60   10.10
   2  -9  10   46.50    9.60
   2  -9  10   84.79   23.70
   2  -9  10   36.00    9.40
   2  -9  10   29.80    8.50
   2  -9  10   22.70    8.50
   2   8 -10  106.89   17.20
   2   8 -10  150.18   18.40
   2   8 -10  126.19   19.10
   2   8 -10  145.69   18.50
   2   8 -10  168.28   26.00
  -2  -8  10   97.09   16.20
  -2  -8  10  112.99   18.90
  -2  -8  10  100.69   21.50
  -2  -8  10  121.99   20.80
  -2  -8  10   90.59   16.90
   1   8 -10  217.38   25.20
   1   8 -10  228.58   28.40
   1   8 -10  201.38   24.20
   1   8 -10  216.98   24.30
   1   8 -10  249.08   27.30
   1   8 -10  261.97   24.60
   1   8 -10  229.58   24.80
  -1  -8  10  211.58   24.10
  -1  -8  10  183.88   25.30
  -1  -8  10  170.48   24.20
  -1  -8  10  212.88   23.40
  -1  -8  10  193.78   29.00
  -1  -8  10  220.78   26.60
   0   8 -10   44.70   10.00
   0   8 -10   37.10    9.00
   0   8 -10   19.10    7.90
   0   8 -10   20.80    7.30
   0   8 -10   21.40    6.90
   0   8 -10   30.50    7.10
   0   8 -10   39.50   11.40
   0  -8  10   25.90    7.60
   0  -8  10   27.40    9.50
   0  -8  10   26.50   10.70
   0  -8  10   31.40    8.70
   0  -8  10   37.40    9.50
  -1   8 -10   45.90    9.20
  -1   8 -10   26.50    7.80
  -1   8 -10   28.50    6.80
  -1   8 -10   28.00   11.00
  -1   8 -10   40.10    7.60
  -1   8 -10   29.30    7.10
  -1   8 -10   34.80    8.10
   1  -8  10   49.30   18.00
   1  -8  10   27.30   10.00
   1  -8  10   39.00    7.80
   1  -8  10   27.80    8.00
   1  -8  10   23.80    7.50
   1  -8  10   31.50    9.10
  -2   8 -10  119.59   17.50
  -2   8 -10  110.09   13.40
  -2   8 -10   90.99   16.40
  -2   8 -10  137.29   16.40
  -2   8 -10  121.29   13.40
  -2   8 -10  147.49   15.50
   2  -8  10   79.99   16.40
   2  -8  10  134.29   16.00
   2  -8  10  118.19   18.60
   2  -8  10  106.69   15.70
   2  -8  10  119.19   15.00
   2  -8  10  132.99   16.10
  -3   8 -10   14.40    9.40
  -3   8 -10   -1.80    6.20
  -3   8 -10   -4.20    9.30
  -3   8 -10    3.20    7.00
  -3   8 -10   -3.70    6.20
   3  -8  10   -1.30    6.80
   3  -8  10  -15.30    7.40
   3  -8  10   -2.10    5.80
   3  -8  10   12.60    7.90
   3  -8  10   14.60   11.40
   3  -8  10   -6.10    7.30
   3  -8  10   -2.30    6.30
   3  -8  10   21.70   17.80
   3   7 -10    3.10   14.10
   3   7 -10   -0.10    8.90
   3   7 -10   12.30    9.30
   3   7 -10   18.10    7.80
   3   7 -10    8.80    9.30
   3   7 -10   20.50    9.40
   3   7 -10   29.70    8.70
  -3  -7  10   16.90   10.40
  -3  -7  10    6.70   14.30
  -3  -7  10   17.30   19.20
  -3  -7  10    7.70    5.50
  -3  -7  10   21.20    9.60
  -3  -7  10    2.70    7.50
  -3  -7  10   13.60    9.90
   2   7 -10  -21.00   10.40
   2   7 -10   20.60    9.40
   2   7 -10    0.00    6.80
   2   7 -10    6.80    8.90
   2   7 -10    4.10    6.60
   2   7 -10  -12.90    6.70
   2   7 -10   -3.30    5.20
   2   7 -10   -7.10    5.80
  -2  -7  10   -3.00    5.30
  -2  -7  10    3.00    5.90
  -2  -7  10   -2.90    6.70
  -2  -7  10    4.60   15.20
  -2  -7  10    6.30    7.60
  -2  -7  10    2.60    7.30
  -2  -7  10   -3.70    3.60
  -2  -7  10   -2.60   10.40
   1   7 -10   30.00    7.00
   1   7 -10   19.80   10.00
   1   7 -10   25.30    7.30
   1   7 -10   37.10    9.90
   1   7 -10   39.20    8.60
   1   7 -10   26.50    5.20
   1   7 -10   38.20    8.20
  -1  -7  10   63.09   22.90
  -1  -7  10   27.90    8.40
  -1  -7  10   42.90    9.40
  -1  -7  10   26.10    7.30
  -1  -7  10   15.50   10.10
  -1  -7  10   28.40    7.20
   0   7 -10   76.99   11.60
   0   7 -10   90.19   12.50
   0   7 -10   85.19   12.50
   0   7 -10   78.79   15.00
   0   7 -10  100.09   14.00
   0   7 -10   95.19   11.80
   0  -7  10   80.69   12.80
   0  -7  10   68.09   11.70
   0  -7  10   74.59   11.90
   0  -7  10   61.49   13.60
   0  -7  10   86.69   13.90
  -1   7 -10   38.40    7.70
  -1   7 -10   35.70    9.80
  -1   7 -10   39.10    7.40
  -1   7 -10   40.80    9.60
  -1   7 -10   34.30    7.90
  -1   7 -10   31.80    6.70
  -1   7 -10   29.40    6.90
   1  -7  10   47.20    7.60
   1  -7  10   35.00    7.30
   1  -7  10   28.50    7.30
   1  -7  10   41.90    9.50
   1  -7  10   37.20    9.70
   1  -7  10   32.20    7.80
   1  -7  10   68.69   17.70
  -2   7 -10    1.10    6.00
  -2   7 -10  -10.00    4.60
  -2   7 -10    4.70    5.60
  -2   7 -10   -2.40    6.20
  -2   7 -10    5.60    7.60
  -2   7 -10   -2.10    5.40
  -2   7 -10    0.10    4.00
  -2   7 -10    4.30    4.50
   2  -7  10   -4.90    5.50
   2  -7  10   -5.60    7.20
   2  -7  10   -0.20    5.20
   2  -7  10   -0.90    4.70
   2  -7  10   -6.70    5.70
   2  -7  10   -5.20    6.00
   2  -7  10    8.30   12.90
   2  -7  10    6.80    5.60
  -3   7 -10   82.29   16.00
  -3   7 -10   78.79    9.50
  -3   7 -10   85.49    9.70
  -3   7 -10   87.19   12.60
  -3   7 -10   94.99   13.80
  -3   7 -10   93.59   14.40
  -3   7 -10  111.09   13.60
  -3   7 -10   87.29   12.30
   3  -7  10   80.19   12.70
   3  -7  10   93.19   12.10
   3  -7  10   57.49   11.60
   3  -7  10   79.39   13.90
   3  -7  10   62.29   13.70
   3  -7  10   93.09   13.10
   3  -7  10   84.39   14.20
  -4   7 -10   25.80    8.70
  -4   7 -10   31.10    8.10
  -4   7 -10   16.80    7.60
   4  -7  10    3.00    8.50
   4  -7  10   34.70   22.00
   4  -7  10   41.50    9.80
   4  -7  10   25.30   17.90
   4  -7  10   33.30   10.30
   4  -7  10   21.00    6.70
   4  -7  10   27.90    8.70
   4  -7  10    7.40    9.40
   4   6 -10  216.48   23.20
   4   6 -10  147.99   21.50
   4   6 -10  182.18   28.40
   4   6 -10  158.28   19.90
   4   6 -10  204.28   22.80
   4   6 -10  133.49   21.00
   4   6 -10  142.89   22.80
   4   6 -10  160.48   26.70
  -4  -6  10  159.58   18.10
  -4  -6  10  115.39   21.70
  -4  -6  10  161.98   20.30
  -4  -6  10  170.48   32.40
  -4  -6  10  163.58   20.20
  -4  -6  10  176.58   27.50
  -4  -6  10  104.99   21.50
   3   6 -10  112.69   16.60
   3   6 -10  119.29   16.40
   3   6 -10  122.09   15.20
   3   6 -10  116.59   16.80
   3   6 -10  135.49   16.90
   3   6 -10  115.39   15.90
  -3  -6  10   85.79   15.60
  -3  -6  10  123.49   17.20
  -3  -6  10   81.59   19.40
  -3  -6  10  135.89   17.40
  -3  -6  10  136.29   19.00
  -3  -6  10  100.89   13.40
  -3  -6  10  107.49   14.90
   2   6 -10  172.68   20.10
   2   6 -10  173.88   17.90
   2   6 -10  150.78   17.10
   2   6 -10  133.99   17.20
   2   6 -10  134.59   15.50
   2   6 -10  126.99   20.40
   2   6 -10  131.99   17.70
   2   6 -10  125.29   17.10
  -2  -6  10  140.99   16.70
  -2  -6  10  143.59   18.10
  -2  -6  10  161.38   19.40
  -2  -6  10  103.09   21.30
  -2  -6  10  118.59   17.70
  -2  -6  10  142.09   16.20
   1   6 -10   47.60    8.10
   1   6 -10   47.10   10.20
   1   6 -10   40.20    6.10
   1   6 -10   30.90    7.60
   1   6 -10   27.80    7.30
   1   6 -10   38.10    7.50
   1   6 -10   38.90    9.20
   1   6 -10   38.90    7.40
  -1  -6  10   30.00    9.70
  -1  -6  10   64.99   16.70
  -1  -6  10   38.70    9.30
  -1  -6  10   27.40    7.30
  -1  -6  10   24.20    7.30
  -1  -6  10   32.60   10.90
   0   6 -10   77.19    8.70
   0   6 -10  104.39   11.30
   0   6 -10   78.29   11.20
   0   6 -10   87.79   12.00
   0   6 -10   97.89   14.70
   0   6 -10   94.29   13.00
   0   6 -10   73.49   11.40
   0  -6  10   89.69   13.50
   0  -6  10   79.39   13.90
   0  -6  10   79.79   11.80
   0  -6  10   86.99   11.50
   0  -6  10   76.39   11.10
   0  -6  10   81.59   11.60
  -1   6 -10   50.79    8.10
  -1   6 -10   56.49    8.40
  -1   6 -10   55.19   10.30
  -1   6 -10   59.69    9.20
  -1   6 -10   54.89    9.30
  -1   6 -10   65.59   12.00
  -1   6 -10   53.49    8.50
   1  -6  10   46.00    9.80
   1  -6  10   42.40    7.90
   1  -6  10   38.90   10.00
   1  -6  10   47.20    8.30
   1  -6  10   44.30    8.70
   1  -6  10   80.89   17.10
   1  -6  10   53.09    9.10
   1  -6  10   41.50    8.20
  -2   6 -10   -0.60    3.80
  -2   6 -10   -4.50    6.00
  -2   6 -10    4.00    4.80
  -2   6 -10   -2.00    4.80
  -2   6 -10    1.50    5.80
  -2   6 -10    0.50    4.50
  -2   6 -10   14.60    4.50
  -2   6 -10    3.90    5.40
   2  -6  10   -0.60    5.30
   2  -6  10    3.50    4.00
   2  -6  10    3.00    5.00
   2  -6  10   -3.60    5.10
   2  -6  10   -1.10    4.70
   2  -6  10    1.90   10.30
   2  -6  10    5.60    6.50
   2  -6  10   -3.50    4.80
  -3   6 -10   54.29    9.40
  -3   6 -10   72.89    9.50
  -3   6 -10   82.69    9.30
  -3   6 -10   59.79   11.30
  -3   6 -10   66.09    9.90
  -3   6 -10   56.09   10.90
  -3   6 -10   75.89   13.80
  -3   6 -10   72.49   10.50
   3  -6  10   49.50   10.20
   3  -6  10   77.39   11.60
   3  -6  10   47.80   10.20
   3  -6  10   55.09   10.10
   3  -6  10   42.00   11.90
   3  -6  10   71.49   10.00
  -4   6 -10  103.59   16.00
  -4   6 -10  132.29   12.40
  -4   6 -10  107.29   17.40
  -4   6 -10  132.49   19.90
  -4   6 -10  145.59   20.20
  -4   6 -10  107.89   12.10
  -4   6 -10  148.19   15.10
   4  -6  10   83.69   17.90
   4  -6  10   96.69   17.90
   4  -6  10  143.79   15.50
   4  -6  10   83.29   15.80
   4  -6  10  131.79   17.10
   4  -6  10  147.99   17.00
   4  -6  10  118.09   17.80
   5   5 -10   -3.30    9.60
   5   5 -10  -24.20   14.90
   5   5 -10    4.40   11.30
   5   5 -10   -7.40   13.00
   5   5 -10   -5.60    9.80
   5   5 -10    7.60    9.40
  -5  -5  10    1.60   19.20
  -5  -5  10  -13.00    7.80
  -5  -5  10    6.20    7.50
  -5  -5  10   19.40   11.30
  -5  -5  10    2.80   11.70
  -5  -5  10   14.70   23.20
  -5  -5  10   -5.30   11.70
   4   5 -10  168.38   21.90
   4   5 -10  185.68   26.90
   4   5 -10  230.28   26.70
   4   5 -10  196.68   23.60
   4   5 -10  180.18   21.20
   4   5 -10  160.98   22.10
  -4  -5  10  151.18   23.10
  -4  -5  10  131.79   26.50
  -4  -5  10  229.78   25.00
  -4  -5  10  175.18   23.90
  -4  -5  10  183.58   20.30
  -4  -5  10  206.78   21.30
  -4  -5  10  201.78   21.60
   3   5 -10   39.90    8.90
   3   5 -10   57.69    9.90
   3   5 -10   73.49   10.80
   3   5 -10   62.09   14.60
   3   5 -10   46.70   11.50
   3   5 -10   54.69    8.60
   3   5 -10   50.09   10.30
   3   5 -10   46.30    9.10
  -3  -5  10   26.00   11.80
  -3  -5  10   53.29   11.00
  -3  -5  10   36.40    9.10
  -3  -5  10   46.50   10.20
  -3  -5  10   43.30    8.50
  -3  -5  10   45.40    7.60
  -3  -5  10   42.40    8.00
   2   5 -10    7.50    4.30
   2   5 -10    9.90    5.20
   2   5 -10    8.30    6.60
   2   5 -10    1.10    3.30
   2   5 -10    1.20    5.20
   2   5 -10    6.60    5.40
   2   5 -10   17.60    6.00
   2   5 -10    9.00    7.20
  -2  -5  10   -4.00    5.70
  -2  -5  10   -2.90    7.10
  -2  -5  10    0.70    5.10
  -2  -5  10    5.50   10.50
  -2  -5  10   -0.20    5.10
  -2  -5  10    3.70    4.00
   1   5 -10  142.79   18.10
   1   5 -10  143.19   15.30
   1   5 -10  183.78   19.90
   1   5 -10  146.39   17.30
   1   5 -10  185.78   17.20
   1   5 -10  149.49   17.20
   1   5 -10  159.68   17.20
  -1  -5  10  131.49   16.90
  -1  -5  10  146.69   16.70
  -1  -5  10  141.89   17.00
  -1  -5  10  160.48   18.90
  -1  -5  10  133.69   19.20
  -1  -5  10  148.89   16.60
   0   5 -10  893.01   80.19
   0   5 -10  959.80   79.99
   0   5 -10  790.62   76.39
   0   5 -10  811.72   78.09
   0   5 -10  925.71   78.09
   0   5 -10  812.82   77.79
   0   5 -10  923.01   78.49
   0   5 -10  815.52   77.99
   0  -5  10  776.82   77.99
   0  -5  10  724.13   77.79
   0  -5  10  824.92   79.59
   0  -5  10  744.43   79.39
   0  -5  10  766.62   77.99
   0  -5  10  820.62   77.79
  -1   5 -10  512.35   49.60
  -1   5 -10  548.25   49.40
  -1   5 -10  582.94   50.99
  -1   5 -10  540.15   49.20
  -1   5 -10  613.74   51.89
  -1   5 -10  503.15   47.30
  -1   5 -10  524.45   49.60
   1  -5  10  439.86   50.79
   1  -5  10  481.95   49.20
   1  -5  10  517.05   49.40
   1  -5  10  440.76   49.50
   1  -5  10  505.85   49.50
   1  -5  10  512.05   49.80
   1  -5  10  485.15   50.59
  -2   5 -10   -6.60    4.20
  -2   5 -10   -1.80    4.20
  -2   5 -10    2.10    4.20
  -2   5 -10    1.30    5.60
  -2   5 -10    2.40    5.20
  -2   5 -10   -0.60    3.50
  -2   5 -10   -1.90    4.60
  -2   5 -10   -5.00    3.70
   2  -5  10   -3.20    4.70
   2  -5  10    1.00    4.40
   2  -5  10    7.00    9.90
   2  -5  10    3.90    4.50
   2  -5  10   -5.80    4.30
   2  -5  10   -8.70    6.30
   2  -5  10    1.50    3.30
   2  -5  10    1.50    4.60
  -3   5 -10    4.30    4.70
  -3   5 -10   -7.10    7.20
  -3   5 -10   -3.10    3.70
  -3   5 -10    8.00    4.70
  -3   5 -10   13.90   10.00
  -3   5 -10    2.90    5.70
  -3   5 -10   10.20    5.60
   3  -5  10    5.70    5.60
   3  -5  10    7.10   10.40
   3  -5  10    0.50    6.20
   3  -5  10   -1.00    5.80
   3  -5  10   -2.30    3.80
   3  -5  10   17.70    5.90
   3  -5  10    1.80    6.10
   3  -5  10    4.50    7.60
  -4   5 -10   21.70    6.60
  -4   5 -10    6.00    5.30
  -4   5 -10   15.30    9.30
  -4   5 -10   10.30    4.80
  -4   5 -10   14.90    5.10
  -4   5 -10   22.40   11.40
  -4   5 -10   14.30    8.30
  -4   5 -10   18.50    9.20
   4  -5  10   11.50    8.10
   4  -5  10   18.50    7.80
   4  -5  10   11.40    5.40
   4  -5  10   17.50    7.80
   4  -5  10   17.10   12.80
   4  -5  10   12.90    7.20
   4  -5  10   -9.10    9.90
   4  -5  10   18.40    8.60
   5   4 -10  123.59   15.80
   5   4 -10   77.09   13.90
   5   4 -10   47.50   12.20
   5   4 -10   83.09   14.20
   5   4 -10   55.09   16.30
   5   4 -10  108.59   18.50
   5   4 -10   88.69   15.10
  -5  -4  10  108.19   22.30
  -5  -4  10   85.79   13.10
  -5  -4  10   63.19   14.90
  -5  -4  10   81.59   13.90
  -5  -4  10   70.79   19.70
  -5  -4  10   76.19   15.10
  -5  -4  10   46.90   13.70
   4   4 -10  199.78   22.30
   4   4 -10  159.08   18.60
   4   4 -10  177.58   19.40
   4   4 -10  147.09   18.50
   4   4 -10  121.79   17.20
   4   4 -10  188.18   19.40
   4   4 -10  150.88   21.80
  -4  -4  10  186.38   21.50
  -4  -4  10  152.18   17.10
  -4  -4  10  103.49   22.90
  -4  -4  10  140.29   19.10
  -4  -4  10  111.89   19.30
  -4  -4  10  133.09   19.30
   3   4 -10    6.20    7.10
   3   4 -10    1.20    4.70
   3   4 -10    3.90    4.50
   3   4 -10    0.10    4.40
   3   4 -10   -6.20    5.10
   3   4 -10    3.40    5.90
   3   4 -10    1.80    4.50
   3   4 -10    7.90    6.10
  -3  -4  10   -7.10    5.20
  -3  -4  10    3.70   10.80
  -3  -4  10    0.40    5.20
  -3  -4  10   -0.70    6.30
  -3  -4  10   -1.90    3.80
  -3  -4  10    7.60    7.50
   2   4 -10  224.18   20.10
   2   4 -10  208.48   20.30
   2   4 -10  175.18   19.50
   2   4 -10  191.38   20.10
   2   4 -10  197.08   22.30
   2   4 -10  187.88   20.10
   2   4 -10  174.98   18.60
  -2  -4  10  190.78   19.50
  -2  -4  10  186.08   19.20
  -2  -4  10  148.49   19.80
  -2  -4  10  203.78   21.70
  -2  -4  10  144.79   19.50
  -2  -4  10  144.19   21.70
   1   4 -10    4.60    3.90
   1   4 -10    2.70    5.00
   1   4 -10    4.60    3.70
   1   4 -10    0.90    3.80
   1   4 -10    6.60    2.40
   1   4 -10    4.20    4.70
  -1  -4  10    0.80    7.90
  -1  -4  10   -6.30    4.70
  -1  -4  10    5.90    4.80
  -1  -4  10   -0.40    3.90
  -1  -4  10    1.60    4.20
  -1  -4  10    7.90    4.00
  -1  -4  10   -5.30    3.00
   0   4 -10   46.50    8.40
   0   4 -10   43.10    7.50
   0   4 -10   47.10    9.10
   0   4 -10   43.80    7.30
   0   4 -10   40.60    5.50
   0   4 -10   48.40    7.80
   0   4 -10   55.89    9.00
   0   4 -10   43.20    7.10
   0  -4  10   44.50    7.50
   0  -4  10   44.10    9.20
   0  -4  10   45.90    7.90
   0  -4  10   36.70    8.00
   0  -4  10   42.70    7.50
   0  -4  10   36.40    6.80
   0  -4  10   56.49   16.80
  -1   4 -10   17.00    2.80
  -1   4 -10   26.10    4.90
  -1   4 -10   14.70    5.00
  -1   4 -10   21.60    5.40
  -1   4 -10   21.70    4.70
  -1   4 -10   16.20    4.70
  -1   4 -10   23.30    7.10
  -1   4 -10   28.50    5.90
   1  -4  10   11.80    4.90
   1  -4  10   16.50    5.40
   1  -4  10   12.20    5.30
   1  -4  10    8.30    6.50
   1  -4  10   15.80    5.90
   1  -4  10   15.60    5.80
   1  -4  10   20.60    4.60
  -2   4 -10   22.70    6.90
  -2   4 -10   23.00    6.20
  -2   4 -10   32.00    6.40
  -2   4 -10   23.10    5.30
  -2   4 -10   31.80    6.00
  -2   4 -10   27.10    8.00
  -2   4 -10   28.00    5.40
  -2   4 -10   22.70    3.70
  -2   4 -10   24.80    6.20
   2  -4  10   24.40    5.10
   2  -4  10   11.90    5.90
   2  -4  10   23.00    5.80
   2  -4  10   60.09   20.80
   2  -4  10   22.50    6.30
   2  -4  10   22.80    6.80
   2  -4  10   13.20    7.60
   2  -4  10   23.30    5.90
  -3   4 -10   48.20    8.60
  -3   4 -10   42.40    9.80
  -3   4 -10   64.19   10.20
  -3   4 -10   51.09    8.20
  -3   4 -10   57.69    9.90
  -3   4 -10   51.99    8.80
  -3   4 -10   52.49   10.40
  -3   4 -10   50.49    6.50
  -3   4 -10   62.89   12.20
   3  -4  10   68.59   17.90
   3  -4  10   67.59   10.80
   3  -4  10   47.80    9.10
   3  -4  10   72.69   11.40
   3  -4  10   56.79    9.40
   3  -4  10   55.19    8.90
  -4   4 -10  325.67   30.00
  -4   4 -10  253.47   26.10
  -4   4 -10  269.27   27.60
  -4   4 -10  265.37   27.50
  -4   4 -10  214.48   29.70
  -4   4 -10  259.27   28.00
  -4   4 -10  318.07   27.70
  -4   4 -10  250.97   29.90
   4  -4  10  269.57   28.60
   4  -4  10  260.07   28.70
   4  -4  10  285.07   34.80
   4  -4  10  295.67   30.30
   4  -4  10  223.58   29.70
   4  -4  10  285.77   27.70
   5   3 -10  180.58   22.80
   5   3 -10  213.98   23.60
   5   3 -10  241.88   27.20
   5   3 -10  201.98   24.10
   5   3 -10  191.88   22.60
   5   3 -10  223.98   23.70
   5   3 -10  224.48   26.70
  -5  -3  10  165.78   23.60
  -5  -3  10  145.89   24.10
  -5  -3  10  220.98   22.20
  -5  -3  10  172.98   21.70
  -5  -3  10  203.48   31.90
  -5  -3  10  196.68   24.90
  -5  -3  10  228.78   22.70
  -5  -3  10  160.18   28.20
   4   3 -10    7.10    5.30
   4   3 -10   -1.00    5.70
   4   3 -10   16.20    6.50
   4   3 -10    7.50    6.70
   4   3 -10   -7.50    4.40
   4   3 -10   -2.40    5.60
   4   3 -10    5.90    7.20
  -4  -3  10   10.40    4.90
  -4  -3  10   11.70    5.20
  -4  -3  10    6.60    6.30
  -4  -3  10   -2.70    5.80
  -4  -3  10    2.40    7.60
  -4  -3  10    2.50    5.80
  -4  -3  10    1.10   10.50
   3   3 -10  297.47   31.00
   3   3 -10  345.47   31.90
   3   3 -10  306.37   33.20
   3   3 -10  311.47   30.50
   3   3 -10  317.27   31.10
   3   3 -10  366.76   31.70
  -3  -3  10  318.87   30.80
  -3  -3  10  263.77   33.00
  -3  -3  10  326.07   30.60
  -3  -3  10  252.47   31.70
  -3  -3  10  268.97   31.20
   2   3 -10   78.89   10.50
   2   3 -10   82.49   10.80
   2   3 -10  101.29   12.10
   2   3 -10   61.09    9.90
   2   3 -10   84.89    9.90
   2   3 -10   60.29    8.90
   2   3 -10   79.49   10.30
   2   3 -10   92.59   12.90
  -2  -3  10   81.39   11.90
  -2  -3  10   66.49   10.10
  -2  -3  10   54.89   11.80
  -2  -3  10   57.99    9.90
   1   3 -10  322.57   31.40
   1   3 -10  375.76   31.70
   1   3 -10  311.37   31.70
   1   3 -10  351.36   32.00
   1   3 -10  326.57   31.80
   1   3 -10  294.07   30.50
   1   3 -10  366.56   33.70
  -1  -3  10  342.67   33.40
  -1  -3  10  289.27   31.40
  -1  -3  10  305.67   31.60
  -1  -3  10  296.67   31.20
  -1  -3  10  284.17   31.40
  -1  -3  10  302.17   33.00
   0   3 -10   42.20    7.10
   0   3 -10   41.30    8.00
   0   3 -10   43.40    8.70
   0   3 -10   40.40    6.40
   0   3 -10   32.90    6.80
   0   3 -10   46.40    6.80
   0   3 -10   33.30    6.60
   0   3 -10   35.10    5.20
   0  -3  10   31.00    6.20
   0  -3  10   45.50    7.00
   0  -3  10   29.40    6.60
   0  -3  10   35.50    6.20
   0  -3  10   24.90    7.70
   0  -3  10   64.49   13.00
   0  -3  10   38.80    7.70
   0  -3  10   43.20    6.90
  -1   3 -10    3.30    4.10
  -1   3 -10    0.40    3.60
  -1   3 -10    0.80    3.60
  -1   3 -10   11.10    3.60
  -1   3 -10    4.90    3.50
  -1   3 -10    2.40    5.40
  -1   3 -10   -1.20    4.20
  -1   3 -10    7.30    3.50
   1  -3  10    1.00    4.70
   1  -3  10    5.20    3.90
   1  -3  10   -7.50    3.80
   1  -3  10    3.50    5.70
   1  -3  10    3.70    2.90
   1  -3  10    8.80    4.80
   1  -3  10   -2.10    7.60
   1  -3  10    9.10    3.90
  -2   3 -10   20.70    4.60
  -2   3 -10   18.00    5.40
  -2   3 -10   19.30    7.80
  -2   3 -10   24.40    6.20
  -2   3 -10   20.60    4.90
  -2   3 -10   29.30    5.60
  -2   3 -10   25.00    6.40
  -2   3 -10   15.50    3.50
  -2   3 -10   17.80    6.30
   2  -3  10   22.10    6.40
   2  -3  10   19.30    4.60
   2  -3  10   22.00    6.10
   2  -3  10   16.80    5.20
   2  -3  10    7.50    7.20
   2  -3  10   20.70    5.40
   2  -3  10   13.10    9.70
  -3   3 -10    1.80    7.90
  -3   3 -10   -1.50    3.70
  -3   3 -10    8.10    4.50
  -3   3 -10   10.70    6.40
  -3   3 -10   -2.20    4.50
  -3   3 -10   -1.50    6.10
  -3   3 -10    9.10    3.10
  -3   3 -10    7.30    5.70
   3  -3  10  -13.50    5.90
   3  -3  10    4.30    9.70
   3  -3  10   -2.90    7.60
   3  -3  10   14.10    4.10
   3  -3  10    2.70    5.10
   3  -3  10    5.50    5.20
   3  -3  10    2.40    4.70
   3  -3  10   -9.70    5.60
  -4   3 -10   30.40    7.90
  -4   3 -10   42.80    6.40
  -4   3 -10   38.70    7.80
  -4   3 -10   52.79   11.60
  -4   3 -10   34.50    6.90
  -4   3 -10   27.20    9.60
  -4   3 -10   34.00    9.40
  -4   3 -10   38.30   13.30
   4  -3  10   51.99    9.80
   4  -3  10   30.10    9.60
   4  -3  10   26.40   13.40
   4  -3  10   32.00    8.40
   4  -3  10   39.50    7.70
   4  -3  10   28.40   10.30
   4  -3  10   35.00    8.50
   4  -3  10    6.70   12.00
   6   2 -10  119.79   22.20
   6   2 -10  137.59   19.30
   6   2 -10  115.59   17.60
   6   2 -10  145.39   21.80
   6   2 -10  156.48   18.20
  -6  -2  10   99.39   19.00
  -6  -2  10   95.69   15.70
  -6  -2  10  142.99   29.20
  -6  -2  10   82.89   15.70
  -6  -2  10   95.59   22.00
   5   2 -10   13.90    7.80
   5   2 -10    3.60    5.50
   5   2 -10    6.20    8.40
   5   2 -10    4.20    7.90
   5   2 -10    4.00    6.30
   5   2 -10   15.40    6.70
  -5  -2  10    4.30    4.90
  -5  -2  10   10.10    7.60
  -5  -2  10   -7.90    7.30
  -5  -2  10    6.40   11.50
  -5  -2  10   -2.50    7.10
  -5  -2  10    6.30    5.00
  -5  -2  10    7.30    9.60
   4   2 -10   44.80    9.20
   4   2 -10   34.90    7.60
   4   2 -10   26.90    8.10
   4   2 -10   34.60    7.10
   4   2 -10   29.50    6.50
   4   2 -10   30.80    7.20
   4   2 -10   25.10    6.50
  -4  -2  10   26.90    7.80
  -4  -2  10   20.70    6.80
  -4  -2  10   32.60   12.40
  -4  -2  10   23.40    6.00
  -4  -2  10   28.30    6.80
  -4  -2  10   31.30    9.10
   3   2 -10   26.50    5.80
   3   2 -10   35.40    6.00
   3   2 -10   32.20    7.90
   3   2 -10   39.70    7.00
   3   2 -10   32.70    7.40
   3   2 -10   29.80    6.50
   3   2 -10   34.50    7.30
   3   2 -10   24.90    5.60
  -3  -2  10   19.40    5.60
  -3  -2  10   29.20    6.00
  -3  -2  10   25.80    7.70
  -3  -2  10   43.20   13.80
  -3  -2  10   18.80    5.80
  -3  -2  10   29.70    5.80
   2   2 -10   44.50    7.80
   2   2 -10   39.10    8.70
   2   2 -10   41.90    7.30
   2   2 -10   49.99    7.90
   2   2 -10   55.09    8.00
   2   2 -10   60.69    7.30
   2   2 -10   44.70    7.40
   2   2 -10   44.30    6.70
  -2  -2  10   31.80    6.60
  -2  -2  10   32.80    6.80
  -2  -2  10   37.90    8.50
  -2  -2  10   59.29   13.00
  -2  -2  10   43.20    7.00
  -2  -2  10   56.69    7.80
  -2  -2  10   40.80    8.50
   1   2 -10  126.79   13.80
   1   2 -10  147.49   15.20
   1   2 -10  150.18   16.90
   1   2 -10  133.79   14.40
   1   2 -10  154.18   14.60
   1   2 -10  151.38   16.00
   1   2 -10  156.18   15.10
   1   2 -10  130.39   14.90
  -1  -2  10  121.29   14.90
  -1  -2  10  119.79   15.80
  -1  -2  10  116.79   14.40
  -1  -2  10  127.09   14.60
  -1  -2  10  114.29   14.30
  -1  -2  10  134.49   16.20
   0   2 -10   14.60    4.70
   0   2 -10   23.80    5.10
   0   2 -10   16.90    5.20
   0   2 -10   16.00    4.00
   0   2 -10   14.30    4.10
   0   2 -10   19.40    6.20
   0   2 -10   16.90    4.20
   0  -2  10    7.40    5.10
   0  -2  10   11.10    4.00
   0  -2  10    2.20    4.30
   0  -2  10   17.20    4.50
   0  -2  10   15.80    5.00
   0  -2  10   13.80    4.20
   0  -2  10   14.20    8.40
   0  -2  10    6.60    4.10
  -1   2 -10  145.79   17.70
  -1   2 -10  160.18   17.70
  -1   2 -10  171.58   16.30
  -1   2 -10  186.58   18.50
  -1   2 -10  165.58   18.90
   1  -2  10  169.48   17.20
   1  -2  10  141.49   17.40
   1  -2  10  155.28   17.70
   1  -2  10  173.28   18.60
   1  -2  10  186.88   22.70
  -2   2 -10    6.50    5.60
  -2   2 -10    3.80    5.20
  -2   2 -10    7.10    4.20
  -2   2 -10    9.50    4.70
  -2   2 -10    7.60    4.30
  -2   2 -10    5.80    3.20
  -2   2 -10    2.00    6.40
  -2   2 -10    9.30    3.30
   2  -2  10    1.40    5.00
   2  -2  10    8.00    6.70
   2  -2  10    4.00    4.70
   2  -2  10   10.70    3.80
   2  -2  10    4.30    4.50
   2  -2  10   10.30    4.60
   2  -2  10    5.70    8.60
   2  -2  10   -1.00    4.80
  -3   2 -10  271.07   28.20
  -3   2 -10  333.67   31.30
  -3   2 -10  301.87   30.20
  -3   2 -10  273.47   31.10
  -3   2 -10  321.77   28.60
  -3   2 -10  244.28   29.30
  -3   2 -10  280.57   30.00
   3  -2  10  274.77   29.40
   3  -2  10  308.07   30.80
   3  -2  10  283.97   29.60
   3  -2  10  253.97   30.30
   3  -2  10  318.07   29.20
   3  -2  10  291.17   35.50
  -4   2 -10   99.69   19.40
  -4   2 -10  115.99   14.50
  -4   2 -10  106.69   16.70
  -4   2 -10  112.09   15.00
  -4   2 -10   83.49   17.30
  -4   2 -10   94.09   14.90
  -4   2 -10  100.09   12.00
  -4   2 -10  131.59   16.80
   4  -2  10   97.79   15.90
   4  -2  10   73.99   17.90
   4  -2  10   88.29   18.80
   4  -2  10   81.69   15.40
   4  -2  10  103.89   13.90
   4  -2  10   96.99   14.40
   4  -2  10   99.29   14.40
   4  -2  10   83.99   15.10
   6   1 -10   35.00    9.30
   6   1 -10   19.60    7.90
   6   1 -10   15.70    9.80
   6   1 -10    5.90    8.40
   6   1 -10   43.40   11.40
   6   1 -10   25.70    8.60
   6   1 -10   34.50   10.70
  -6  -1  10   17.70    5.40
  -6  -1  10   11.60   13.70
  -6  -1  10   28.30    6.50
  -6  -1  10    8.30    9.60
  -6  -1  10   22.70   11.00
  -6  -1  10   -6.90   16.10
  -6  -1  10   16.70    8.20
  -6  -1  10   22.00    8.20
   5   1 -10   39.10    7.70
   5   1 -10   57.19   10.00
   5   1 -10   48.00    9.70
   5   1 -10   62.99    9.00
   5   1 -10   48.80    9.80
   5   1 -10   53.19    9.30
   5   1 -10   64.19   11.40
  -5  -1  10   37.10   15.20
  -5  -1  10   38.80    6.90
  -5  -1  10   50.19   10.10
  -5  -1  10   43.90    7.40
  -5  -1  10   47.00    9.40
  -5  -1  10   33.70   11.40
  -5  -1  10   39.60    8.20
  -5  -1  10   32.60    8.00
   4   1 -10  103.79   13.80
   4   1 -10  111.99   13.90
   4   1 -10  130.89   13.50
   4   1 -10  104.09   13.30
   4   1 -10  119.69   15.00
   4   1 -10  106.59   15.30
   4   1 -10  109.59   13.60
  -4  -1  10  110.79   13.80
  -4  -1  10  127.99   13.70
  -4  -1  10  123.49   16.00
  -4  -1  10  102.49   14.10
  -4  -1  10  137.29   22.70
  -4  -1  10   96.39   12.70
  -4  -1  10   90.59   15.80
   3   1 -10  134.79   14.50
   3   1 -10  124.39   14.10
   3   1 -10  153.68   15.60
   3   1 -10  145.49   14.20
   3   1 -10  135.69   16.60
   3   1 -10  134.89   16.90
  -3  -1  10  141.09   14.50
  -3  -1  10  110.19   14.20
  -3  -1  10  110.99   12.50
  -3  -1  10  158.58   20.60
  -3  -1  10  107.09   14.20
  -3  -1  10   96.49   13.60
   2   1 -10  150.18   15.90
   2   1 -10  162.78   16.50
   2   1 -10  175.58   18.30
   2   1 -10  155.48   16.70
   2   1 -10  176.98   17.60
   2   1 -10  167.68   16.70
   2   1 -10  168.98   16.20
   2   1 -10  142.49   16.10
  -2  -1  10  129.29   15.90
  -2  -1  10  171.08   22.10
  -2  -1  10  129.89   16.00
  -2  -1  10  149.69   16.50
  -2  -1  10  151.58   17.70
  -2  -1  10  169.78   18.40
  -2  -1  10  135.69   14.20
  -2  -1  10  130.09   16.00
   1   1 -10  332.97   34.10
   1   1 -10  370.76   34.00
   1   1 -10  396.66   34.50
   1   1 -10  412.36   36.30
   1   1 -10  360.36   33.60
   1   1 -10  330.57   34.20
   1   1 -10  398.46   35.40
  -1  -1  10  317.07   33.70
  -1  -1  10  313.97   33.80
  -1  -1  10  300.87   34.20
  -1  -1  10  296.17   33.80
  -1  -1  10  342.07   35.10
  -1  -1  10  389.06   39.30
   0   1 -10  118.59   13.20
   0   1 -10  124.49   14.80
   0   1 -10  144.19   16.40
   0   1 -10  116.29   13.80
   0   1 -10  141.59   13.80
   0   1 -10  133.99   14.10
   0   1 -10  116.49   13.40
   0  -1  10  100.39   13.40
   0  -1  10  125.99   14.30
   0  -1  10  113.39   13.40
   0  -1  10  123.69   13.10
   0  -1  10  124.49   18.70
   0  -1  10   90.39   13.40
  -1   1 -10    2.70    2.20
  -1   1 -10    0.20    4.10
  -1   1 -10   -0.20    5.50
  -1   1 -10    1.80    3.40
  -1   1 -10   -4.80    3.80
  -1   1 -10   -1.80    3.80
  -1   1 -10   -4.70    3.40
  -1   1 -10   13.70    8.30
  -1   1 -10    2.60    3.40
   1  -1  10    1.80    3.20
   1  -1  10   -2.40    3.50
   1  -1  10   -6.40    5.70
   1  -1  10  -11.40    6.80
   1  -1  10   -0.20    3.30
   1  -1  10    5.50    4.90
   1  -1  10    0.60    2.50
  -2   1 -10    7.30    7.70
  -2   1 -10   11.90    5.10
  -2   1 -10   20.70    5.60
  -2   1 -10   16.70    6.50
  -2   1 -10   17.30    3.70
  -2   1 -10   39.00   12.50
  -2   1 -10   10.00    4.80
  -2   1 -10   15.50    6.60
   2  -1  10    8.60    7.80
   2  -1  10   17.00    5.10
   2  -1  10   16.60    5.00
   2  -1  10   13.60    5.90
   2  -1  10    2.40    5.60
   2  -1  10    8.30    4.20
   2  -1  10    8.00    5.40
   2  -1  10   15.70    9.90
  -3   1 -10  130.29   18.90
  -3   1 -10  140.49   16.80
  -3   1 -10  145.29   16.20
  -3   1 -10  181.08   23.70
  -3   1 -10  145.39   17.70
  -3   1 -10  184.68   18.20
  -3   1 -10  136.39   17.80
  -3   1 -10  166.18   15.80
  -3   1 -10  197.68   21.00
   3  -1  10  142.59   17.30
   3  -1  10   97.79   21.80
   3  -1  10  176.88   19.10
   3  -1  10  134.39   23.80
   3  -1  10  117.39   19.20
   3  -1  10  141.09   16.80
   3  -1  10  106.79   18.90
   3  -1  10  145.19   16.50
  -4   1 -10  101.09   13.70
  -4   1 -10  113.49   17.70
  -4   1 -10  104.59   16.60
  -4   1 -10  132.49   16.80
  -4   1 -10  119.29   17.90
  -4   1 -10  125.99   22.00
  -4   1 -10  104.19   12.30
  -4   1 -10   98.99   15.50
  -4   1 -10   92.99   14.70
   4  -1  10  122.49   17.30
   4  -1  10   55.89   18.30
   4  -1  10  105.39   18.00
   4  -1  10   83.79   14.60
   4  -1  10   83.49   14.60
   4  -1  10   94.39   14.30
   4  -1  10  113.39   24.70
   4  -1  10   89.49   16.30
   6   0 -10   14.50    7.10
   6   0 -10    6.90    6.10
   6   0 -10   -1.80    8.20
   6   0 -10   15.50    9.00
   6   0 -10   -2.50    8.10
   6   0 -10   10.20    6.30
   6   0 -10   20.00    8.60
  -6   0  10    6.50    6.50
  -6   0  10    7.40    4.50
  -6   0  10    7.90    4.60
  -6   0  10   -4.00    8.30
  -6   0  10   -9.60    8.90
  -6   0  10   10.30    5.50
   5   0 -10  255.67   24.40
   5   0 -10  238.48   24.30
   5   0 -10  246.68   22.60
   5   0 -10  230.88   23.50
   5   0 -10  216.38   23.40
   5   0 -10  193.08   24.00
   5   0 -10  192.48   22.30
  -5   0  10  188.68   21.30
  -5   0  10  176.78   21.50
  -5   0  10  239.98   22.90
  -5   0  10  179.18   23.10
  -5   0  10  241.58   26.10
   4   0 -10    5.70    4.40
   4   0 -10   -1.10    3.20
   4   0 -10   10.00    5.20
   4   0 -10    9.30    4.70
   4   0 -10   -0.90    3.40
   4   0 -10    5.70    4.40
  -4   0  10    8.70    9.70
  -4   0  10    3.80    3.50
  -4   0  10    2.50    3.80
  -4   0  10    0.20    3.90
  -4   0  10    0.70    3.80
  -4   0  10    9.00    5.20
  -4   0  10   -0.50    2.90
  -4   0  10   -5.40    5.40
   3   0 -10   -4.30    3.70
   3   0 -10    3.70    3.50
   3   0 -10   -0.10    8.30
   3   0 -10   -4.60    3.50
   3   0 -10   -3.60    3.00
   3   0 -10    1.60    2.90
   3   0 -10   -1.00    3.30
   3   0 -10    1.90    3.80
  -3   0  10    4.70    3.30
  -3   0  10   -3.00    3.30
  -3   0  10   -4.20    7.60
  -3   0  10    0.30    2.90
  -3   0  10    3.10    3.10
  -3   0  10    6.10    2.40
  -3   0  10    1.50    5.00
  -3   0  10    5.90    5.20
   2   0 -10   17.00    4.80
   2   0 -10   15.30    3.80
   2   0 -10   17.20    4.50
   2   0 -10   18.00    5.80
   2   0 -10   19.80    5.00
   2   0 -10   15.60    4.00
   2   0 -10   20.00    4.90
   2   0 -10   30.20   10.70
  -2   0  10   12.50    4.10
  -2   0  10   17.50    9.50
  -2   0  10   23.40    5.10
  -2   0  10   12.10    4.20
  -2   0  10   13.60    3.90
  -2   0  10   15.50    5.30
  -2   0  10   27.40    6.80
   1   0 -10  348.87   31.10
   1   0 -10  350.16   30.80
   1   0 -10  303.37   31.30
   1   0 -10  323.67   30.90
   1   0 -10  312.67   30.50
   1   0 -10  312.77   30.30
  -1   0  10  285.47   35.20
  -1   0  10  328.97   31.40
  -1   0  10  251.07   30.30
  -1   0  10  307.77   30.20
  -1   0  10  285.07   30.20
   0   0 -10  381.26   36.90
   0   0 -10  376.66   37.00
   0   0 -10  456.75   40.20
   0   0 -10  374.76   38.30
   0   0 -10  441.46   38.10
   0   0 -10  431.46   37.50
   0   0 -10  373.66   37.50
   0   0  10  391.26   36.80
   0   0  10  392.46   37.20
   0   0  10  362.46   37.00
   0   0  10  334.27   41.70
   0   0  10  418.06   38.10
   0   0  10  311.97   37.10
   0   0  10  311.17   37.60
  -1   0 -10   60.39   10.90
  -1   0 -10   74.39   11.20
  -1   0 -10   82.69   10.40
  -1   0 -10   69.39    9.10
  -1   0 -10   60.89    9.00
  -1   0 -10   75.19   10.10
  -1   0 -10   86.29   13.90
  -1   0 -10   69.39    7.20
   1   0  10   51.09   11.80
   1   0  10   47.20   10.30
   1   0  10   63.19    9.20
   1   0  10   66.59   10.90
   1   0  10   65.49   15.00
   1   0  10   74.79   10.40
   1   0  10   68.29    8.80
   1   0  10   68.79    9.50
  -2   0 -10   59.89    9.10
  -2   0 -10   44.30    7.70
  -2   0 -10   44.30    6.10
  -2   0 -10   57.29   12.50
  -2   0 -10   29.70    8.60
  -2   0 -10   52.09    7.90
  -2   0 -10   43.40    9.80
  -2   0 -10   40.30    8.10
   2   0  10   47.70    8.20
   2   0  10   36.80    8.60
   2   0  10   30.50    8.60
   2   0  10   21.10   10.20
   2   0  10   49.80    9.60
   2   0  10   35.10   13.40
   2   0  10   47.80   10.40
   2   0  10   45.50    7.70
  -3   0 -10  140.19   20.70
  -3   0 -10  118.19   16.70
  -3   0 -10  116.39   18.70
  -3   0 -10  148.09   15.20
  -3   0 -10  164.78   24.20
  -3   0 -10  166.38   17.90
  -3   0 -10  146.79   17.60
  -3   0 -10  177.18   18.90
  -3   0 -10  143.89   16.20
   3   0  10  168.38   16.70
   3   0  10  149.19   18.70
   3   0  10   94.39   18.70
   3   0  10  116.09   24.40
   3   0  10  134.09   17.20
   3   0  10  108.79   20.20
   3   0  10  148.49   16.60
  -4   0 -10   50.79   12.20
  -4   0 -10   75.69   16.40
  -4   0 -10   88.49   16.70
  -4   0 -10   81.79   21.10
  -4   0 -10   69.89   13.10
  -4   0 -10   82.29   12.70
  -4   0 -10   56.59   11.50
  -4   0 -10   72.69   10.10
  -4   0 -10   75.89   11.10
   4   0  10   65.09   14.30
   4   0  10   74.89   12.30
   4   0  10   70.49   18.80
   4   0  10   51.09   11.00
   4   0  10   48.40   26.40
   4   0  10   59.69   13.80
   4   0  10   50.39   14.00
   4   0  10   81.69   12.50
   6  -1 -10   53.79   11.20
   6  -1 -10   33.90    9.60
   6  -1 -10   47.40    9.20
   6  -1 -10   48.90   10.50
   6  -1 -10   52.89    8.50
   6  -1 -10   35.10    7.70
  -6   1  10   51.79    8.70
  -6   1  10   43.50   10.10
  -6   1  10   32.10    7.10
  -6   1  10   34.30    9.80
  -6   1  10   36.30   12.10
   5  -1 -10  169.48   16.90
   5  -1 -10  142.99   15.80
   5  -1 -10  177.98   17.70
   5  -1 -10  141.49   17.30
   5  -1 -10  164.58   17.20
  -5   1  10  136.49   14.90
  -5   1  10  122.29   14.20
  -5   1  10  114.29   16.20
  -5   1  10  155.98   16.50
  -5   1  10  152.08   19.90
  -5   1  10  110.09   18.50
  -5   1  10  119.99   14.10
   4  -1 -10   38.30    7.00
   4  -1 -10   65.89    7.40
   4  -1 -10   52.19    9.90
   4  -1 -10   56.19    8.30
   4  -1 -10   57.49    8.30
   4  -1 -10   46.10    8.30
  -4   1  10   44.40    7.10
  -4   1  10   42.10    7.10
  -4   1  10   26.10   22.20
  -4   1  10   23.90   11.80
  -4   1  10   41.90    6.50
  -4   1  10   42.40    7.70
  -4   1  10   50.49    8.20
  -4   1  10   53.99   10.40
   3  -1 -10  279.57   25.20
   3  -1 -10  308.67   25.90
   3  -1 -10  295.67   26.50
   3  -1 -10  293.47   26.00
   3  -1 -10  298.97   26.10
  -3   1  10  204.68   24.90
  -3   1  10  235.38   32.30
  -3   1  10  241.38   26.60
  -3   1  10  217.18   27.00
  -3   1  10  257.77   24.50
  -3   1  10  239.18   25.60
  -3   1  10  239.18   25.40
  -3   1  10  210.08   24.90
   2  -1 -10   44.40    7.40
   2  -1 -10   47.80    7.20
   2  -1 -10   54.59    9.20
   2  -1 -10   42.30    6.40
   2  -1 -10   45.80    7.20
   2  -1 -10   51.39    7.40
   2  -1 -10   46.10    7.30
  -2   1  10   35.10    8.30
  -2   1  10   32.40   12.20
  -2   1  10   34.30    6.40
  -2   1  10   44.20    6.70
  -2   1  10   34.10    7.00
  -2   1  10   44.80    6.90
  -2   1  10   54.39    8.40
   1  -1 -10  329.17   30.40
   1  -1 -10  298.47   29.90
   1  -1 -10  298.17   31.00
   1  -1 -10  294.37   30.30
   1  -1 -10  301.87   29.90
   1  -1 -10  351.56   30.80
  -1   1  10  330.87   31.00
  -1   1  10  302.47   29.70
  -1   1  10  284.97   29.80
  -1   1  10  255.17   35.50
   0  -1 -10   88.19   12.20
   0  -1 -10  102.59   10.70
   0  -1 -10   76.19   11.80
   0  -1 -10  100.69   12.20
   0  -1 -10   98.19   11.70
   0  -1 -10  109.39   14.60
   0  -1 -10   81.79   10.50
   0   1  10   69.99   16.90
   0   1  10   91.29   11.80
   0   1  10   99.79   10.50
   0   1  10   74.59   10.30
   0   1  10   90.19   10.80
   0   1  10   61.99   11.50
  -1  -1 -10    5.00   10.40
  -1  -1 -10   -4.90    6.60
  -1  -1 -10    0.70    4.20
  -1  -1 -10    0.50    4.50
  -1  -1 -10    2.00    3.80
  -1  -1 -10   -2.10    4.70
  -1  -1 -10    1.30    3.30
  -1  -1 -10   -5.20    5.10
   1   1  10   -0.40    5.10
   1   1  10    1.00    5.40
   1   1  10  -10.80    7.30
   1   1  10    5.30    4.40
   1   1  10    3.10    3.30
   1   1  10   -7.20    4.50
   1   1  10    0.40    3.40
  -2  -1 -10  159.98   18.70
  -2  -1 -10  152.98   17.50
  -2  -1 -10  127.99   15.70
  -2  -1 -10  135.49   21.60
  -2  -1 -10  106.69   17.40
  -2  -1 -10  133.19   15.50
  -2  -1 -10  126.09   16.50
   2   1  10  146.09   17.10
   2   1  10  152.68   15.40
   2   1  10   93.29   19.30
   2   1  10  141.89   15.90
   2   1  10  108.49   17.60
   2   1  10  123.99   17.50
  -3  -1 -10  142.99   14.00
  -3  -1 -10  135.29   16.30
  -3  -1 -10  159.98   18.70
  -3  -1 -10  134.59   20.20
  -3  -1 -10  104.89   17.20
  -3  -1 -10  144.19   16.30
  -3  -1 -10  150.58   19.80
  -3  -1 -10  108.99   18.30
  -3  -1 -10  127.69   23.10
   3   1  10  101.49   21.30
   3   1  10   89.69   22.20
   3   1  10  139.79   18.30
   3   1  10  143.19   15.70
   3   1  10  106.89   16.40
   3   1  10   95.79   17.30
   3   1  10   95.29   18.00
   3   1  10  119.79   15.20
  -4  -1 -10  332.67   30.60
  -4  -1 -10  350.46   35.10
  -4  -1 -10  316.37   33.20
  -4  -1 -10  311.57   32.10
  -4  -1 -10  337.77   37.40
  -4  -1 -10  250.77   44.50
   4   1  10  324.37   33.30
   4   1  10  289.07   31.90
   4   1  10  225.28   35.10
   4   1  10  268.77   41.00
   4   1  10  308.87   35.20
   4   1  10  296.97   32.40
   4   1  10  250.27   36.20
   6  -2 -10   -0.60    6.30
   6  -2 -10    1.00    6.10
   6  -2 -10   -8.60    4.60
   6  -2 -10   -2.50    7.30
   6  -2 -10    4.40    7.50
   6  -2 -10    2.60    6.80
   6  -2 -10   -6.00    4.20
  -6   2  10    9.20    9.30
  -6   2  10    8.70    6.00
  -6   2  10    6.20    6.70
  -6   2  10    4.60    5.10
  -6   2  10    6.10    8.00
  -6   2  10    7.10   18.20
   5  -2 -10  179.28   17.10
   5  -2 -10  145.69   18.60
   5  -2 -10  140.89   17.90
   5  -2 -10  189.88   18.20
   5  -2 -10  193.78   18.40
   5  -2 -10  168.78   16.40
  -5   2  10  150.98   28.20
  -5   2  10  141.79   16.20
  -5   2  10  132.69   20.00
  -5   2  10  111.99   19.10
  -5   2  10  133.59   17.30
   4  -2 -10   29.70    5.30
   4  -2 -10   40.60   14.40
   4  -2 -10   29.50    5.60
   4  -2 -10   15.80    5.40
   4  -2 -10   16.40    5.40
   4  -2 -10   21.90    6.00
   4  -2 -10   24.30    4.30
   4  -2 -10   16.00    6.20
  -4   2  10    9.90    5.80
  -4   2  10   15.90    3.30
  -4   2  10   31.90   13.70
  -4   2  10   18.80    3.30
  -4   2  10   24.30    5.00
  -4   2  10   25.20    5.60
  -4   2  10   20.40    4.40
  -4   2  10   18.20    6.70
   3  -2 -10  379.96   35.20
   3  -2 -10  376.36   34.10
   3  -2 -10  422.66   35.00
   3  -2 -10  429.46   35.40
   3  -2 -10  373.86   34.80
  -3   2  10  361.76   34.30
  -3   2  10  303.67   34.60
  -3   2  10  318.37   33.30
  -3   2  10  288.87   42.40
  -3   2  10  329.77   33.60
  -3   2  10  306.97   33.80
   2  -2 -10    2.70    2.70
   2  -2 -10    2.60    3.40
   2  -2 -10    0.80    3.60
   2  -2 -10    6.60    9.70
   2  -2 -10    8.80    3.90
   2  -2 -10   -1.60    4.70
   2  -2 -10    7.40    3.90
   2  -2 -10   -0.70    3.20
  -2   2  10   -4.10    3.20
  -2   2  10    1.00    2.50
  -2   2  10   -3.60   12.90
  -2   2  10    5.10    4.10
  -2   2  10    3.10    2.80
  -2   2  10   -0.40    5.10
   1  -2 -10    2.50   10.10
   1  -2 -10    8.80    3.50
   1  -2 -10    9.10    4.10
   1  -2 -10    5.80    4.30
   1  -2 -10    5.70    5.80
   1  -2 -10   11.10    4.60
   1  -2 -10    8.00    4.40
   1  -2 -10    8.40    3.40
  -1   2  10   10.70    3.20
  -1   2  10    5.40    7.00
  -1   2  10    5.00   10.60
  -1   2  10    7.10    5.50
  -1   2  10    5.70    4.10
  -1   2  10    4.60    3.20
  -1   2  10    6.80    3.90
   0  -2 -10  465.75   50.39
   0  -2 -10  608.14   53.39
   0  -2 -10  547.75   49.00
   0  -2 -10  479.55   49.30
   0  -2 -10  523.15   50.29
   0  -2 -10  510.15   49.90
   0   2  10  589.24   50.59
   0   2  10  543.75   49.40
   0   2  10  542.55   49.10
   0   2  10  423.76   55.29
   0   2  10  424.86   49.60
  -1  -2 -10   93.59   18.10
  -1  -2 -10  105.29   13.50
  -1  -2 -10  107.19   14.00
  -1  -2 -10  102.79   14.90
  -1  -2 -10  106.09   14.50
  -1  -2 -10   89.99   11.60
  -1  -2 -10   94.09   13.40
   1   2  10  102.29   12.10
   1   2  10  111.89   12.20
   1   2  10   73.39   18.90
   1   2  10  100.99   12.50
   1   2  10   95.59   14.30
   1   2  10  110.89   13.70
   1   2  10   76.79   14.40
  -2  -2 -10   36.50    8.40
  -2  -2 -10   52.09    8.30
  -2  -2 -10   46.20    7.90
  -2  -2 -10   52.49    9.10
  -2  -2 -10   45.00   10.90
  -2  -2 -10   42.00    9.70
  -2  -2 -10   37.70   14.30
  -2  -2 -10   51.29    9.80
   2   2  10   38.60    8.20
   2   2  10   29.90   16.10
   2   2  10   27.50   11.90
   2   2  10   45.70    7.70
   2   2  10   37.10    9.40
   2   2  10   37.80    7.50
   2   2  10   41.00    9.60
   2   2  10   28.30    9.40
  -3  -2 -10   13.90   16.70
  -3  -2 -10   11.20    8.90
  -3  -2 -10    9.80    9.00
  -3  -2 -10    5.80   17.70
  -3  -2 -10    8.30    8.20
  -3  -2 -10    8.30    7.00
  -3  -2 -10    9.90    6.30
  -3  -2 -10   20.10   11.70
  -3  -2 -10   10.00    8.00
   3   2  10   12.30   10.00
   3   2  10    0.00    6.60
   3   2  10   11.90   14.70
   3   2  10   12.90    8.50
   3   2  10   -0.90    5.70
   3   2  10    6.80    7.30
   3   2  10    2.10   16.30
   3   2  10   10.60    8.40
  -4  -2 -10   17.30   18.60
   4   2  10   21.40   10.80
   6  -3 -10   64.29    8.10
   6  -3 -10   45.40    9.40
   6  -3 -10   66.69   11.10
   6  -3 -10   55.69    9.30
   6  -3 -10   67.29   10.50
   6  -3 -10   56.29    9.00
   6  -3 -10   39.10    9.50
   6  -3 -10   79.29   19.80
  -6   3  10   55.89    8.60
  -6   3  10   24.50   22.50
  -6   3  10   40.10    9.60
  -6   3  10   30.60   10.30
  -6   3  10   44.20    9.20
  -6   3  10   36.30   10.20
   5  -3 -10  250.47   24.70
   5  -3 -10  243.08   25.60
   5  -3 -10  245.68   24.30
   5  -3 -10  234.28   25.90
   5  -3 -10  282.57   25.60
   5  -3 -10  273.17   25.80
   5  -3 -10  273.57   26.50
  -5   3  10  200.28   24.50
  -5   3  10  257.57   39.60
  -5   3  10  221.58   26.80
   4  -3 -10   88.99   11.10
   4  -3 -10   92.09   11.10
   4  -3 -10   91.49   11.30
   4  -3 -10   78.59   11.30
   4  -3 -10   86.99   10.00
   4  -3 -10   77.79    9.40
  -4   3  10   81.39   20.30
  -4   3  10   74.49    9.50
  -4   3  10   68.89   10.00
  -4   3  10   76.29   10.90
  -4   3  10   68.29   11.70
   3  -3 -10   32.40    5.30
   3  -3 -10   43.80   14.30
   3  -3 -10   32.10    5.90
   3  -3 -10   33.10    7.10
   3  -3 -10   28.90    6.00
   3  -3 -10   26.00    6.20
   3  -3 -10   25.00    6.30
   3  -3 -10   30.70    6.00
   3  -3 -10   26.50    5.40
  -3   3  10   25.90    5.80
  -3   3  10   26.20    5.10
  -3   3  10   21.10    4.60
  -3   3  10   12.50    5.40
  -3   3  10   17.30    6.60
  -3   3  10   28.30   13.70
   2  -3 -10   28.40    6.90
   2  -3 -10   11.00    4.40
   2  -3 -10   14.40    3.80
   2  -3 -10   10.30    3.90
   2  -3 -10   15.00    5.20
   2  -3 -10   15.80    5.40
   2  -3 -10   27.70   10.90
  -2   3  10   18.20    4.50
  -2   3  10   15.20    3.60
  -2   3  10   14.60    4.00
  -2   3  10   10.10   11.60
  -2   3  10    6.20    6.40
  -2   3  10    9.10    4.80
  -2   3  10   19.00    5.90
   1  -3 -10  139.59   16.60
   1  -3 -10  198.38   18.50
   1  -3 -10  193.28   23.30
   1  -3 -10  135.49   17.50
   1  -3 -10  184.48   18.40
   1  -3 -10  179.68   16.50
  -1   3  10  122.49   17.20
  -1   3  10  127.39   25.50
  -1   3  10  121.69   17.40
  -1   3  10  167.28   18.00
  -1   3  10  174.48   16.50
  -1   3  10  157.88   16.50
   0  -3 -10   43.00    8.30
   0  -3 -10   50.49    8.90
   0  -3 -10   68.09   15.80
   0  -3 -10   42.40    8.10
   0  -3 -10   30.20    7.10
   0  -3 -10   43.10   13.40
   0  -3 -10   37.10    5.80
   0  -3 -10   32.10    6.40
   0   3  10   43.40    7.00
   0   3  10   36.80    6.20
   0   3  10   17.80    7.40
   0   3  10   35.70    7.50
   0   3  10   17.30   11.50
   0   3  10   33.30    7.90
   0   3  10   23.70    9.40
  -1  -3 -10  180.38   20.50
  -1  -3 -10  169.18   25.50
  -1  -3 -10  175.68   19.50
  -1  -3 -10  156.28   18.40
  -1  -3 -10  170.58   20.90
  -1  -3 -10  199.08   21.60
  -1  -3 -10  207.78   22.20
   1   3  10  208.68   21.00
   1   3  10  124.29   23.40
   1   3  10  149.79   20.70
   1   3  10  161.98   26.80
   1   3  10  139.79   20.80
   1   3  10  185.48   19.80
   1   3  10  185.38   18.60
   1   3  10  183.08   19.00
  -2  -3 -10  103.19   16.30
  -2  -3 -10  104.69   15.20
  -2  -3 -10  115.89   16.40
  -2  -3 -10  115.69   18.10
  -2  -3 -10   87.09   14.60
  -2  -3 -10  112.49   22.10
  -2  -3 -10  121.39   16.70
  -2  -3 -10  102.29   16.90
   2   3  10  125.69   14.60
   2   3  10  114.09   13.70
   2   3  10   66.79   21.40
   2   3  10  118.99   22.30
   2   3  10  116.89   14.70
   2   3  10  112.09   16.70
   2   3  10  104.29   16.90
   2   3  10   95.39   24.10
  -3  -3 -10  112.49   19.60
  -3  -3 -10  122.69   16.80
  -3  -3 -10  112.49   24.40
  -3  -3 -10  103.59   17.80
  -3  -3 -10  121.59   19.30
  -3  -3 -10  170.38   35.70
   3   3  10   89.89   17.80
   3   3  10  100.19   18.20
   3   3  10  127.79   15.80
   3   3  10   87.19   17.30
   3   3  10   88.79   16.30
   3   3  10   63.49   20.70
   3   3  10  128.89   16.30
   6  -4 -10    5.40    4.20
   6  -4 -10    3.20    5.70
   6  -4 -10   -0.70    6.20
   6  -4 -10   -7.30    6.60
   6  -4 -10    4.40    4.80
   6  -4 -10   -1.60    5.20
   6  -4 -10    2.10    8.40
   6  -4 -10   12.70   17.20
  -6   4  10   11.10    5.40
  -6   4  10   13.70    5.90
  -6   4  10    2.40    6.60
   5  -4 -10   47.10   17.90
   5  -4 -10   23.00    5.50
   5  -4 -10   22.40    6.20
   5  -4 -10   20.50    4.10
   5  -4 -10   11.30    8.40
   5  -4 -10   16.60    4.40
   5  -4 -10   19.30    6.90
   5  -4 -10   18.20    5.40
  -5   4  10    8.20    6.50
  -5   4  10    3.50   17.90
  -5   4  10   20.80    6.60
  -5   4  10    1.70    5.60
  -5   4  10   10.30    4.90
   4  -4 -10   62.09    9.30
   4  -4 -10   70.09   10.40
   4  -4 -10   57.09    7.90
   4  -4 -10   60.49   10.00
   4  -4 -10   61.19    8.60
   4  -4 -10   55.79    9.50
   4  -4 -10   75.59   10.00
   4  -4 -10  105.69   21.70
  -4   4  10   58.69    8.90
  -4   4  10   60.79    9.90
  -4   4  10   65.09   10.50
  -4   4  10   61.19    8.80
  -4   4  10   50.69   20.10
   3  -4 -10  178.58   18.00
   3  -4 -10  196.08   18.40
   3  -4 -10  149.19   18.10
   3  -4 -10  157.28   17.00
   3  -4 -10  198.88   18.80
  -3   4  10  166.28   17.20
  -3   4  10  180.38   18.60
  -3   4  10  128.39   29.70
  -3   4  10  133.39   16.70
   2  -4 -10   38.30    6.80
   2  -4 -10   58.09   16.80
   2  -4 -10   40.50    7.50
   2  -4 -10   59.79    9.10
   2  -4 -10   54.09    8.60
   2  -4 -10   43.80    6.90
  -2   4  10   49.70    6.90
  -2   4  10   20.80   12.80
  -2   4  10   27.80    5.90
  -2   4  10   31.40    8.90
  -2   4  10   40.50    7.70
  -2   4  10   44.70    5.90
   1  -4 -10  235.18   29.00
   1  -4 -10  304.07   30.60
   1  -4 -10  265.97   28.10
   1  -4 -10  260.67   28.80
   1  -4 -10  303.97   27.60
   1  -4 -10  346.57   30.60
  -1   4  10  245.28   36.70
  -1   4  10  226.98   28.40
  -1   4  10  295.87   27.90
  -1   4  10  308.47   28.10
  -1   4  10  325.97   29.70
   0  -4 -10   12.80    7.00
   0  -4 -10    1.90    4.10
   0  -4 -10    9.50    5.70
   0  -4 -10    9.30    3.50
   0  -4 -10    4.70    6.60
   0  -4 -10   11.30   10.20
   0  -4 -10   20.00   11.40
   0  -4 -10    4.00    5.90
   0   4  10    8.80   12.20
   0   4  10   25.10    5.70
   0   4  10   11.20    5.50
   0   4  10   15.00    6.50
   0   4  10    7.60    8.70
   0   4  10    4.50    7.10
   0   4  10   10.90    4.80
  -1  -4 -10   12.60    8.00
  -1  -4 -10    2.60    8.00
  -1  -4 -10   -6.30   13.70
  -1  -4 -10    8.00    7.00
  -1  -4 -10   -6.50    5.10
  -1  -4 -10    8.10    4.10
  -1  -4 -10   23.40   12.90
   1   4  10   -0.90    3.90
   1   4  10    3.90    6.40
   1   4  10    4.80    6.10
   1   4  10    4.30   15.50
   1   4  10    2.40    5.80
   1   4  10    9.00   10.90
   1   4  10    6.40    7.20
  -2  -4 -10  228.68   27.70
  -2  -4 -10  225.88   23.60
  -2  -4 -10  164.98   30.10
  -2  -4 -10  200.88   23.10
  -2  -4 -10  260.47   36.80
  -2  -4 -10  182.38   24.50
   2   4  10  175.98   25.10
   2   4  10  159.08   23.90
   2   4  10  193.48   21.80
   2   4  10  179.18   20.90
   2   4  10  183.28   22.40
   2   4  10  187.18   25.20
  -3  -4 -10    3.40   12.10
  -3  -4 -10   13.50   22.20
   3   4  10    0.50    7.70
   3   4  10   -3.00    9.50
   5  -5 -10  106.19   13.80
   5  -5 -10   99.49   12.20
   5  -5 -10  130.29   14.10
   5  -5 -10  124.69   15.70
   5  -5 -10  106.19   12.00
   5  -5 -10  104.19   13.50
  -5   5  10  118.49   13.70
   4  -5 -10   12.70    5.60
   4  -5 -10    8.30    5.00
   4  -5 -10    6.70    5.60
   4  -5 -10   10.50    5.80
   4  -5 -10    8.30    3.30
   4  -5 -10    4.30    3.70
   4  -5 -10    4.40   16.20
   4  -5 -10  -10.40   10.10
   4  -5 -10    4.40    4.50
  -4   5  10   -3.60    4.60
  -4   5  10    0.40   12.50
  -4   5  10    8.40   18.40
  -4   5  10    8.30    5.00
  -4   5  10    6.70    5.40
   3  -5 -10   13.10    5.80
   3  -5 -10    0.80    4.00
   3  -5 -10   12.90    3.60
   3  -5 -10   17.40    6.30
   3  -5 -10    4.10    5.00
   3  -5 -10    6.90   14.80
   3  -5 -10    9.70    4.30
  -3   5  10   31.80   19.30
  -3   5  10   -3.20    5.50
  -3   5  10    2.70    6.90
  -3   5  10    7.40    3.60
  -3   5  10   10.20    5.00
   2  -5 -10   73.59    9.80
   2  -5 -10   62.09   14.80
   2  -5 -10   86.39   11.80
   2  -5 -10   94.39    9.40
  -2   5  10   65.29    7.90
  -2   5  10   65.29    8.20
  -2   5  10   88.99   11.10
  -2   5  10   65.19   22.60
  -2   5  10   77.79    9.80
  -2   5  10   67.69   11.90
   1  -5 -10   -6.60    5.00
   1  -5 -10    4.40   11.80
   1  -5 -10   -6.60    5.20
   1  -5 -10    1.30    6.80
   1  -5 -10   -1.30    2.70
   1  -5 -10    0.90    6.30
   1  -5 -10    9.80    9.60
   1  -5 -10    7.00    4.10
  -1   5  10    3.10    3.90
  -1   5  10    2.00    4.90
  -1   5  10   -9.40   16.10
  -1   5  10  -10.50    4.80
  -1   5  10   -2.70    6.20
  -1   5  10    4.20    3.60
  -1   5  10   -8.50    8.30
   0  -5 -10   86.49   17.40
   0  -5 -10   78.69   13.50
   0  -5 -10   63.79   12.80
   0  -5 -10   80.59   12.40
   0  -5 -10   65.69    8.90
   0  -5 -10   66.29   11.30
   0  -5 -10  119.09   24.50
   0  -5 -10   80.19   13.80
   0   5  10   58.39   12.50
   0   5  10   66.29   11.80
   0   5  10   32.00   19.80
   0   5  10   79.99   12.80
   0   5  10   78.49   11.20
  -1  -5 -10  101.59   26.60
  -1  -5 -10   74.49   14.20
  -1  -5 -10   84.09   14.20
  -1  -5 -10   89.39   16.10
  -1  -5 -10   86.39   19.10
   1   5  10   60.49   14.00
   1   5  10   51.49   16.60
   1   5  10   95.19   15.70
   1   5  10   76.89   12.90
   1   5  10   98.59   16.40
   1   5  10   80.19   13.10
  -2  -5 -10   14.40   21.70
  -2  -5 -10   16.10   19.40
  -2  -5 -10   -4.60    8.30
  -2  -5 -10  -19.20   13.70
  -2  -5 -10   20.80   12.00
   2   5  10   -5.50    8.50
   2   5  10    4.10   11.90
   2   5  10    3.80    7.70
   2   5  10    8.60    6.30
   2   5  10  -30.80   15.30
   2   5  10  -20.90   11.00
   5  -6 -10   58.59    9.60
   5  -6 -10   71.19   11.30
   5  -6 -10   48.40    9.60
   5  -6 -10   62.99   11.60
   5  -6 -10   51.99    7.10
  -5   6  10   41.80    9.10
   4  -6 -10   67.29   10.90
   4  -6 -10   53.59    9.20
   4  -6 -10  118.69   26.60
   4  -6 -10   62.49    8.50
   4  -6 -10   72.19   10.90
   4  -6 -10   72.99   11.00
   4  -6 -10   65.29    9.40
   4  -6 -10   55.99   10.30
  -4   6  10   62.89    8.40
  -4   6  10   52.19   10.30
  -4   6  10   42.30    8.50
  -4   6  10   46.30    9.00
  -4   6  10   37.60    9.60
   3  -6 -10  174.38   33.70
   3  -6 -10  109.99   17.10
   3  -6 -10  132.89   15.70
   3  -6 -10  143.79   17.40
   3  -6 -10  180.88   16.90
   3  -6 -10  145.19   15.80
  -3   6  10  121.39   19.80
  -3   6  10  168.98   17.40
  -3   6  10  149.69   15.90
   2  -6 -10   23.50    7.90
   2  -6 -10   57.89    9.30
   2  -6 -10   47.80    9.90
   2  -6 -10   28.70    6.50
   2  -6 -10   42.70   11.40
   2  -6 -10   44.10   21.00
   2  -6 -10   38.50    5.90
  -2   6  10   17.70    7.90
  -2   6  10   42.80    8.30
  -2   6  10   49.80    8.00
   1  -6 -10  172.18   18.40
   1  -6 -10  225.38   24.70
   1  -6 -10  228.18   39.40
   1  -6 -10  167.28   22.10
   1  -6 -10  172.88   20.60
   1  -6 -10  144.09   21.60
   1  -6 -10  240.58   24.30
   1  -6 -10  203.98   27.20
  -1   6  10  217.58   23.50
  -1   6  10  210.28   20.50
  -1   6  10  158.58   22.80
  -1   6  10  200.68   19.30
   0  -6 -10   42.80   23.10
   0  -6 -10   70.49   17.10
   0  -6 -10   55.69   12.50
   0  -6 -10   46.40    9.80
   0  -6 -10   28.40   10.50
   0   6  10   37.70   10.70
   0   6  10   35.50    8.30
   0   6  10   40.60   10.40
   0   6  10    9.50   13.70
   0   6  10   34.10    9.80
  -1  -6 -10    5.70    8.30
  -1  -6 -10   18.50    9.80
  -1  -6 -10   25.00   13.70
  -1  -6 -10  -23.10   21.70
  -1  -6 -10   36.90   11.90
  -1  -6 -10    1.10   10.70
  -1  -6 -10   11.70   17.30
   1   6  10  -17.00    7.20
   1   6  10   11.90   15.10
   1   6  10    3.50   10.20
   1   6  10    8.10    7.70
   1   6  10   -3.00   10.20
   4  -7 -10  310.17   28.80
   4  -7 -10  273.37   28.80
   4  -7 -10  324.77   27.80
   4  -7 -10  265.27   29.60
  -4   7  10  261.67   27.80
  -4   7  10  266.17   28.30
   3  -7 -10   95.89   15.10
   3  -7 -10  102.29   11.30
   3  -7 -10  163.88   33.70
   3  -7 -10  127.59   17.90
   3  -7 -10  138.19   18.00
  -3   7  10   74.59   14.00
  -3   7  10   64.09   14.60
  -3   7  10   94.09   12.90
  -3   7  10  132.39   15.00
   2  -7 -10   59.69   14.20
   2  -7 -10   44.60   11.10
   2  -7 -10   26.90   24.10
   2  -7 -10   28.60    9.10
   2  -7 -10   61.99   10.20
  -2   7  10   45.60    8.90
  -2   7  10   19.20   12.10
  -2   7  10   41.00   10.10
  -2   7  10   45.00    7.80
   1  -7 -10   78.19   27.00
   1  -7 -10   51.59   11.10
   1  -7 -10   63.39   17.00
   1  -7 -10   29.10    9.80
   1  -7 -10   65.49   12.70
   1  -7 -10   33.80    8.60
   1  -7 -10   62.09   12.40
  -1   7  10   47.00   11.60
  -1   7  10   34.30    5.90
  -1   7  10   38.70   15.50
  -1   7  10   34.40    6.20
  -1   7  10   52.39    9.00
   0  -7 -10   77.79   15.90
   0  -7 -10   79.49   30.30
   0  -7 -10   53.69   12.80
   0  -7 -10   93.39   14.40
   0  -7 -10   95.29   16.90
   0  -7 -10   65.59   20.60
   0  -7 -10   66.69   21.40
   0   7  10   70.39   16.50
   0   7  10   49.40   12.30
   0   9 -11   44.30   10.00
   0   9 -11   41.30   10.70
   0   9 -11   57.39   10.60
   0   9 -11   21.70   14.30
   0   9 -11   32.60   12.00
   0  -9  11   30.80   10.50
   0  -9  11   45.90   14.80
   0  -9  11   44.50   14.50
   0  -9  11   59.09   12.70
   0  -9  11   40.40   10.70
  -1   9 -11  163.48   22.10
   1  -9  11   94.59   16.80
   1  -9  11  116.39   22.50
   1  -9  11  139.49   20.00
   1  -9  11  161.58   18.70
   2   8 -11   -1.90   15.70
   2   8 -11   -1.90    8.80
   2   8 -11   -2.60    8.90
   2   8 -11    5.00    9.90
   2   8 -11    3.80    7.80
   2   8 -11    3.20   12.10
   2   8 -11   14.60   10.00
  -2  -8  11    1.50    8.30
  -2  -8  11  -13.70    9.80
  -2  -8  11    2.10   15.50
  -2  -8  11   -2.40    9.80
  -2  -8  11    8.40   11.20
   1   8 -11    6.20    9.40
   1   8 -11    1.10   12.30
   1   8 -11    2.20    7.50
   1   8 -11   -8.40    7.20
   1   8 -11   -0.80    8.60
   1   8 -11  -14.40    7.60
   1   8 -11   -0.60    9.70
  -1  -8  11  -13.80    9.10
  -1  -8  11   -1.20    7.00
  -1  -8  11    4.90   19.20
  -1  -8  11   -7.70   11.30
  -1  -8  11  -11.00    7.20
  -1  -8  11    8.30    8.70
   0   8 -11    8.90   10.10
   0   8 -11   14.40   11.40
   0   8 -11    5.20    7.10
   0   8 -11   -8.00    7.80
   0   8 -11    7.60    9.20
   0   8 -11    5.80    7.20
   0   8 -11   -5.10    5.90
   0  -8  11    7.30    6.60
   0  -8  11    6.40    7.90
   0  -8  11   12.70    7.40
   0  -8  11   17.10    7.30
   0  -8  11   27.20   18.50
   0  -8  11   18.50   10.90
   0  -8  11    3.30    9.20
  -1   8 -11   10.10    9.90
  -1   8 -11    7.20    6.20
  -1   8 -11    5.90    7.20
  -1   8 -11    1.00    7.70
  -1   8 -11   -7.90    7.40
  -1   8 -11    2.30    7.30
   1  -8  11    6.10    6.00
   1  -8  11    0.60   15.70
   1  -8  11   -0.20    6.70
   1  -8  11   -8.30    9.10
   1  -8  11    2.10    7.10
   1  -8  11   23.20    7.20
   1  -8  11    3.20    8.80
  -2   8 -11   -5.10    5.40
  -2   8 -11    0.30    6.90
  -2   8 -11    0.40    5.40
  -2   8 -11    8.70    7.80
  -2   8 -11   13.80   11.60
  -2   8 -11  -12.70    8.30
   2  -8  11    7.60    6.20
   2  -8  11   -6.00    7.20
   2  -8  11  -12.30    9.50
   2  -8  11   13.60    7.80
   2  -8  11   10.10    7.30
   2  -8  11    0.40    8.90
   2  -8  11    6.00   18.40
   2  -8  11    8.80    7.40
   3   7 -11   -2.10    7.70
   3   7 -11   -5.90    8.80
   3   7 -11   11.70    9.80
   3   7 -11   -1.90   12.90
   3   7 -11   -8.80   14.40
   3   7 -11   -1.50    9.10
   3   7 -11   -4.00   10.30
   3   7 -11  -20.60    8.60
  -3  -7  11    6.10    8.00
  -3  -7  11  -28.30   15.00
  -3  -7  11   10.70   10.40
  -3  -7  11   -2.00    6.00
  -3  -7  11  -10.80    8.70
  -3  -7  11   19.60   20.40
  -3  -7  11    4.70    9.70
  -3  -7  11    8.80   10.10
   2   7 -11   12.50    8.00
   2   7 -11    5.50    9.80
   2   7 -11    4.90    6.50
   2   7 -11   10.40   11.20
   2   7 -11   20.40    8.60
   2   7 -11    3.40    6.00
   2   7 -11   22.40    9.00
  -2  -7  11  -14.90   12.20
  -2  -7  11   13.30   10.20
  -2  -7  11   28.80    9.10
  -2  -7  11   19.70    7.80
  -2  -7  11    4.80    8.00
  -2  -7  11   30.00   17.80
   1   7 -11  295.47   27.70
   1   7 -11  245.08   24.60
   1   7 -11  261.27   27.80
   1   7 -11  260.97   27.00
   1   7 -11  252.17   26.80
   1   7 -11  268.77   30.80
  -1  -7  11  199.98   30.10
  -1  -7  11  251.87   26.70
  -1  -7  11  254.97   29.30
  -1  -7  11  211.28   27.10
  -1  -7  11  227.28   27.30
   0   7 -11    7.80    6.10
   0   7 -11   -2.30   12.10
   0   7 -11   11.70    6.00
   0   7 -11   16.10    7.50
   0   7 -11   21.80    7.40
   0   7 -11   17.60    9.30
   0   7 -11   25.40    7.10
   0  -7  11   13.30   15.50
   0  -7  11   16.30    7.10
   0  -7  11    0.80    8.30
   0  -7  11    4.90    5.70
   0  -7  11   17.80    6.60
   0  -7  11   -2.20    6.00
   0  -7  11    6.40    8.20
  -1   7 -11   49.10    8.60
  -1   7 -11   52.49    9.50
  -1   7 -11   40.30   10.10
  -1   7 -11   55.89   10.00
  -1   7 -11   60.69   13.50
  -1   7 -11   61.29   11.20
  -1   7 -11   60.69   12.30
   1  -7  11   39.40   10.50
   1  -7  11   49.90    9.00
   1  -7  11   36.10   11.40
   1  -7  11   48.30    9.20
   1  -7  11   44.70    9.30
  -2   7 -11  237.58   23.50
  -2   7 -11  261.07   25.00
  -2   7 -11  231.68   25.40
  -2   7 -11  185.78   24.30
  -2   7 -11  209.18   22.80
  -2   7 -11  238.88   26.90
  -2   7 -11  236.28   23.50
   2  -7  11  238.48   23.90
   2  -7  11  164.48   26.30
   2  -7  11  175.68   25.10
   2  -7  11  180.78   24.10
   2  -7  11  220.18   23.60
   2  -7  11  234.78   24.50
  -3   7 -11  421.66   49.40
  -3   7 -11  327.67   39.00
  -3   7 -11  364.66   35.40
  -3   7 -11  351.66   35.30
  -3   7 -11  358.96   37.10
  -3   7 -11  359.36   38.90
  -3   7 -11  424.16   38.30
   3  -7  11  357.06   36.60
   3  -7  11  360.16   37.80
   3  -7  11  344.27   38.90
   3  -7  11  351.26   37.40
   3  -7  11  415.46   37.70
   4   6 -11   34.00    9.80
   4   6 -11   32.40   14.40
   4   6 -11    0.80    9.80
   4   6 -11   38.10   17.10
   4   6 -11  -23.10   12.00
   4   6 -11   15.90   10.70
   4   6 -11    8.50   10.10
  -4  -6  11   38.10   21.60
  -4  -6  11   36.70   19.20
  -4  -6  11    9.30   12.00
  -4  -6  11   16.30   11.40
  -4  -6  11   17.80    7.80
  -4  -6  11    7.70    8.90
  -4  -6  11   15.30   11.90
   3   6 -11    3.90    7.70
   3   6 -11    3.60    8.50
   3   6 -11   -1.20    6.00
   3   6 -11    9.20    8.10
   3   6 -11  -10.30    7.70
   3   6 -11   -3.20   10.10
   3   6 -11    6.80   12.00
   3   6 -11   -5.50    7.10
  -3  -6  11    1.50    8.30
  -3  -6  11  -17.30   15.20
  -3  -6  11   -0.70    8.20
  -3  -6  11    0.50   13.00
  -3  -6  11   -8.10    6.60
  -3  -6  11    3.40    9.20
   2   6 -11   23.40   11.00
   2   6 -11   24.00    5.80
   2   6 -11   16.10    7.70
   2   6 -11   27.10    7.50
   2   6 -11   11.00    7.60
   2   6 -11    9.00    7.50
   2   6 -11   13.10    9.50
  -2  -6  11   24.90    9.20
  -2  -6  11   29.80    8.00
  -2  -6  11    6.60   10.40
  -2  -6  11   18.50    7.10
  -2  -6  11   40.20   21.00
  -2  -6  11   15.30    7.40
   1   6 -11   14.30    8.50
   1   6 -11    4.50    5.30
   1   6 -11   10.50    6.00
   1   6 -11    6.10    6.30
   1   6 -11   -1.10    6.50
   1   6 -11    3.30    5.40
   1   6 -11    1.60    5.90
   1   6 -11   -0.20    3.10
  -1  -6  11   -0.90    5.10
  -1  -6  11   -0.10    4.80
  -1  -6  11   14.00   12.50
  -1  -6  11    3.80    5.90
  -1  -6  11   -9.70    6.60
  -1  -6  11  -10.70    7.50
  -1  -6  11    9.20    5.60
   0   6 -11   27.40    7.10
   0   6 -11   13.30    3.20
   0   6 -11   24.20    6.80
   0   6 -11   21.10    6.30
   0   6 -11   20.40    5.90
   0   6 -11   29.40    7.80
   0   6 -11   18.00    5.90
   0   6 -11   24.70    9.00
   0  -6  11   19.70    6.00
   0  -6  11   38.70   13.50
   0  -6  11   18.70    8.10
   0  -6  11   22.20    6.00
   0  -6  11    8.70    7.80
   0  -6  11   15.80    6.10
   0  -6  11   24.60    6.40
  -1   6 -11    6.50    5.70
  -1   6 -11   15.50    5.00
  -1   6 -11    8.40    5.50
  -1   6 -11    1.60    6.10
  -1   6 -11   17.10    6.70
  -1   6 -11    7.10    5.70
  -1   6 -11   -2.40    7.30
   1  -6  11    4.80    5.50
   1  -6  11   -4.30    4.10
   1  -6  11   15.40    7.70
   1  -6  11    0.10    5.20
   1  -6  11   13.90    6.90
   1  -6  11   15.70    5.60
   1  -6  11    6.90    5.50
   1  -6  11   -4.60   10.40
  -2   6 -11   15.40    7.50
  -2   6 -11   22.00    5.80
  -2   6 -11   21.30    8.80
  -2   6 -11   19.00    5.60
  -2   6 -11   21.30    6.10
  -2   6 -11   13.10    6.80
  -2   6 -11   12.70    8.10
  -2   6 -11   18.20    6.30
   2  -6  11    5.80    5.90
   2  -6  11   14.50    7.00
   2  -6  11   13.10    6.20
   2  -6  11   19.90   13.60
   2  -6  11   20.30    5.60
   2  -6  11   21.60    6.90
   2  -6  11   17.60    8.90
  -3   6 -11  112.99   15.60
  -3   6 -11  122.19   16.10
  -3   6 -11  131.59   18.60
  -3   6 -11  156.48   21.30
  -3   6 -11  130.09   19.20
  -3   6 -11  134.89   16.00
  -3   6 -11  159.78   18.30
  -3   6 -11  137.29   15.60
   3  -6  11  127.09   15.80
   3  -6  11  103.29   17.60
   3  -6  11  148.89   17.60
   3  -6  11  123.39   17.60
   3  -6  11  131.79   17.10
   3  -6  11  130.79   17.40
  -4   6 -11   56.29    9.60
   4  -6  11   69.39   19.50
   4  -6  11   50.79    9.50
   4  -6  11   51.49   10.90
   4  -6  11   58.29   11.90
   4  -6  11   52.99   11.70
   4  -6  11   27.90   11.20
   4   5 -11   43.70    9.10
   4   5 -11   37.50   10.60
   4   5 -11   31.40   13.60
   4   5 -11   53.29   10.50
   4   5 -11   44.80   10.90
   4   5 -11   37.50   12.70
   4   5 -11   43.70   10.70
   4   5 -11   44.90   11.50
  -4  -5  11   27.90   16.80
  -4  -5  11   20.90   10.10
  -4  -5  11   60.59   20.20
  -4  -5  11   32.30    9.00
  -4  -5  11   34.20    8.80
  -4  -5  11   38.70   11.30
   3   5 -11   24.30    8.00
   3   5 -11   18.40   10.10
   3   5 -11   34.30   11.30
   3   5 -11   30.80    7.90
   3   5 -11   36.70    8.20
   3   5 -11   28.50    8.70
   3   5 -11   19.60    6.40
  -3  -5  11   35.90    9.30
  -3  -5  11   37.40   13.00
  -3  -5  11   46.60   15.90
  -3  -5  11   40.60    7.80
  -3  -5  11   34.30    9.40
  -3  -5  11   26.50    8.80
   2   5 -11   -5.10    6.60
   2   5 -11   -4.10    4.60
   2   5 -11    3.20    3.70
   2   5 -11   13.20    5.40
   2   5 -11    4.80    5.10
   2   5 -11    0.50    7.50
   2   5 -11   -3.90    5.40
   2   5 -11  -12.60    5.30
  -2  -5  11    3.00   10.70
  -2  -5  11    4.40    5.70
  -2  -5  11    0.30    5.50
  -2  -5  11    2.00    4.70
  -2  -5  11    3.30    4.30
  -2  -5  11   -3.30    6.80
  -2  -5  11   -3.60    8.30
   1   5 -11    3.40    5.10
   1   5 -11    0.10    2.80
   1   5 -11   -0.60    5.30
   1   5 -11    9.20    4.90
   1   5 -11    3.90    5.90
   1   5 -11    8.10    4.50
   1   5 -11   -5.10    8.20
   1   5 -11    5.50    7.00
  -1  -5  11   -5.10    6.40
  -1  -5  11    2.10    5.70
  -1  -5  11   -9.50    4.60
  -1  -5  11    8.10    4.60
  -1  -5  11    5.10    4.80
  -1  -5  11    1.60   10.00
  -1  -5  11    3.00    4.50
   0   5 -11  245.78   25.80
   0   5 -11  230.68   25.50
   0   5 -11  293.47   28.50
   0   5 -11  299.07   27.50
   0   5 -11  252.67   25.40
   0   5 -11  291.17   25.60
   0   5 -11  235.78   23.60
   0   5 -11  266.27   26.10
   0  -5  11  201.38   25.40
   0  -5  11  209.58   25.30
   0  -5  11  243.78   25.30
   0  -5  11  267.37   28.00
   0  -5  11  206.58   25.60
   0  -5  11  227.48   27.40
  -1   5 -11  243.58   23.60
  -1   5 -11  274.87   26.60
  -1   5 -11  292.57   28.90
  -1   5 -11  267.37   26.00
  -1   5 -11  239.68   25.70
  -1   5 -11  290.97   27.70
  -1   5 -11  262.17   26.30
  -1   5 -11  256.17   26.60
   1  -5  11  214.48   28.00
   1  -5  11  251.87   27.90
   1  -5  11  235.48   26.60
   1  -5  11  239.38   25.70
   1  -5  11  244.48   25.90
   1  -5  11  222.88   26.20
   1  -5  11  249.88   26.10
  -2   5 -11  258.87   30.50
  -2   5 -11  245.98   28.00
  -2   5 -11  292.17   30.00
  -2   5 -11  267.07   27.80
  -2   5 -11  288.97   27.90
  -2   5 -11  332.77   29.50
  -2   5 -11  286.67   28.90
  -2   5 -11  323.07   31.50
   2  -5  11  257.37   28.30
   2  -5  11  234.48   28.40
   2  -5  11  266.27   27.80
   2  -5  11  271.27   28.80
   2  -5  11  278.47   29.70
  -3   5 -11  231.68   25.80
  -3   5 -11  246.78   26.00
  -3   5 -11  253.17   29.60
  -3   5 -11  304.47   27.60
  -3   5 -11  256.37   27.60
  -3   5 -11  239.18   25.50
  -3   5 -11  248.98   25.60
  -3   5 -11  218.98   27.60
   3  -5  11  262.57   25.50
   3  -5  11  251.27   26.90
   3  -5  11  227.48   32.50
   3  -5  11  269.47   26.40
   3  -5  11  245.08   27.40
   3  -5  11  193.08   26.60
  -4   5 -11   40.60    8.90
  -4   5 -11   31.40    7.40
  -4   5 -11   51.99    8.80
  -4   5 -11   42.50    7.70
  -4   5 -11   63.99   12.50
  -4   5 -11   56.89   15.40
   4  -5  11   25.50    9.70
   4  -5  11   29.70   10.90
   4  -5  11    2.80   13.80
   4  -5  11   36.00    7.70
   4  -5  11   29.40    9.50
   4  -5  11   35.40   10.60
   4  -5  11   59.59   17.70
   4  -5  11   37.40   11.20
   5   4 -11   36.40   14.60
   5   4 -11   31.80   10.40
   5   4 -11   67.59   12.00
   5   4 -11   57.39   12.60
   5   4 -11   83.09   16.80
   5   4 -11   86.19   15.70
  -5  -4  11   60.29   13.50
  -5  -4  11   32.20   12.10
  -5  -4  11   44.70   13.50
  -5  -4  11   43.60   10.20
  -5  -4  11   48.70    9.90
  -5  -4  11   33.30   19.10
   4   4 -11   21.10    7.40
   4   4 -11   26.00    9.10
   4   4 -11   20.30   10.80
   4   4 -11   23.30    9.50
   4   4 -11   21.00    8.50
   4   4 -11   23.70    7.70
   4   4 -11   15.90    7.50
  -4  -4  11    8.20    8.20
  -4  -4  11   11.60   14.50
  -4  -4  11   32.10    7.30
  -4  -4  11   18.60    7.90
  -4  -4  11   13.80   12.40
  -4  -4  11   23.30    8.90
  -4  -4  11   26.10    7.90
   3   4 -11    1.40    5.40
   3   4 -11   -3.40    4.30
   3   4 -11    2.60    6.60
   3   4 -11    2.50    6.90
   3   4 -11   11.90    6.10
   3   4 -11  -12.00    7.10
   3   4 -11    1.40    4.70
   3   4 -11    8.80    6.10
  -3  -4  11    1.90   11.20
  -3  -4  11    8.70    5.90
  -3  -4  11    5.40    6.40
  -3  -4  11    2.60    6.90
  -3  -4  11    4.50    4.90
  -3  -4  11    3.60    5.10
  -3  -4  11    3.30    8.90
   2   4 -11   10.70    5.20
   2   4 -11    4.40    4.60
   2   4 -11    1.90    3.80
   2   4 -11   -0.10    4.50
   2   4 -11    3.30    6.10
   2   4 -11   -3.10    4.90
   2   4 -11    5.60    7.00
   2   4 -11    3.00    3.50
  -2  -4  11    7.30    4.40
  -2  -4  11    7.60    7.10
  -2  -4  11   -3.40    9.80
  -2  -4  11    0.80    4.40
  -2  -4  11    2.40    6.40
  -2  -4  11    2.50    4.30
  -2  -4  11    1.90    4.80
   1   4 -11   10.20    5.00
   1   4 -11   10.80    4.30
   1   4 -11   11.80    5.20
   1   4 -11   10.60    5.20
   1   4 -11    5.70    4.80
   1   4 -11    6.60    4.30
   1   4 -11   13.30    6.50
   1   4 -11    4.20    2.90
  -1  -4  11   10.00    6.40
  -1  -4  11    5.90    4.60
  -1  -4  11    7.40    6.50
  -1  -4  11    9.80    4.50
  -1  -4  11    7.40    4.60
  -1  -4  11    1.70    5.00
  -1  -4  11    5.70    9.90
   0   4 -11  331.17   31.30
   0   4 -11  288.47   29.20
   0   4 -11  365.96   34.70
   0   4 -11  338.87   31.20
   0   4 -11  303.67   31.00
   0   4 -11  364.16   33.60
   0   4 -11  321.37   30.80
   0  -4  11  284.17   32.80
   0  -4  11  287.57   30.60
   0  -4  11  305.97   32.40
   0  -4  11  262.67   30.90
   0  -4  11  267.07   30.40
   0  -4  11  306.87   30.80
  -1   4 -11   -2.50    6.20
  -1   4 -11    0.60    4.10
  -1   4 -11    0.90    1.90
  -1   4 -11    1.20    3.90
  -1   4 -11    3.40    5.00
  -1   4 -11    1.50    4.10
  -1   4 -11   -5.30    4.70
  -1   4 -11   -2.50    5.10
   1  -4  11    0.70    5.10
   1  -4  11   -0.90    3.40
   1  -4  11    5.40    4.60
   1  -4  11   -2.10    9.20
   1  -4  11   -5.80    4.80
   1  -4  11    1.80    6.70
   1  -4  11    8.70    4.70
   1  -4  11   -3.30    4.20
  -2   4 -11  370.16   32.80
  -2   4 -11  314.77   32.20
  -2   4 -11  318.47   31.70
  -2   4 -11  310.57   32.10
  -2   4 -11  293.37   33.30
  -2   4 -11  335.27   30.90
  -2   4 -11  322.57   32.20
   2  -4  11  300.17   31.70
   2  -4  11  313.57   32.80
   2  -4  11  282.57   31.70
   2  -4  11  309.97   31.10
   2  -4  11  287.97   32.00
  -3   4 -11  199.48   23.50
  -3   4 -11  221.38   24.60
  -3   4 -11  215.98   20.90
  -3   4 -11  219.88   22.40
  -3   4 -11  206.38   25.80
  -3   4 -11  193.78   23.40
  -3   4 -11  253.37   24.80
   3  -4  11  235.98   30.10
   3  -4  11  222.98   22.90
   3  -4  11  168.28   24.70
   3  -4  11  232.68   24.80
   3  -4  11  216.98   23.90
   3  -4  11  218.38   23.90
  -4   4 -11   91.69   11.40
  -4   4 -11   77.29   14.90
  -4   4 -11  106.09   12.90
  -4   4 -11  144.69   18.90
  -4   4 -11   93.69   14.50
  -4   4 -11   65.79   14.50
  -4   4 -11  118.39   20.40
  -4   4 -11   89.19   14.90
   4  -4  11  121.19   16.90
   4  -4  11   74.59   14.10
   4  -4  11   84.49   15.20
   4  -4  11  123.09   18.70
   4  -4  11  117.09   24.80
   4  -4  11   87.79   13.30
   5   3 -11    6.00   10.60
   5   3 -11   -5.20   10.60
   5   3 -11    0.50    8.90
   5   3 -11   19.90    8.20
   5   3 -11    5.00    7.00
   5   3 -11   21.60    8.50
   5   3 -11   11.10    8.30
  -5  -3  11    1.00   13.70
  -5  -3  11   -9.10    6.70
  -5  -3  11   19.30   10.00
  -5  -3  11   11.00    9.30
  -5  -3  11   23.10   16.60
  -5  -3  11   16.00   10.20
  -5  -3  11   -4.10    6.30
   4   3 -11   11.40    5.60
   4   3 -11    2.10    8.00
   4   3 -11   -4.50    7.20
   4   3 -11    1.60    6.00
   4   3 -11    8.80    5.80
   4   3 -11   13.60    6.20
   4   3 -11   -6.80   10.20
  -4  -3  11    7.90    5.60
  -4  -3  11   -3.70    9.50
  -4  -3  11    6.90    5.40
  -4  -3  11    6.00    6.30
  -4  -3  11    4.00    6.70
  -4  -3  11    6.00   12.10
  -4  -3  11    2.60    7.20
   3   3 -11   15.20    5.40
   3   3 -11    9.50    5.80
   3   3 -11   13.50    5.70
   3   3 -11   16.40    5.50
   3   3 -11   18.00    6.90
   3   3 -11   16.30    6.80
  -3  -3  11    7.90    4.70
  -3  -3  11   21.70   10.80
  -3  -3  11   32.60    8.00
  -3  -3  11   11.30    5.90
  -3  -3  11    9.70    6.00
  -3  -3  11    0.60    7.20
  -3  -3  11   23.30    5.70
   2   3 -11    2.10    4.80
   2   3 -11    1.00    5.70
   2   3 -11   -1.00    4.80
   2   3 -11    1.20    4.00
   2   3 -11    1.00    4.40
   2   3 -11    4.40    3.40
   2   3 -11    4.50    4.30
  -2  -3  11   -8.00    9.10
  -2  -3  11    6.30    5.90
  -2  -3  11    1.70    5.70
  -2  -3  11    0.60    3.90
  -2  -3  11    4.80    4.50
  -2  -3  11    2.30    4.30
  -2  -3  11   -2.60    4.00
   1   3 -11   53.19    9.30
   1   3 -11   64.99    7.60
   1   3 -11   63.79   11.50
   1   3 -11   57.89    9.00
   1   3 -11   60.29    9.50
   1   3 -11   63.69   10.60
  -1  -3  11   46.80    8.30
  -1  -3  11   46.20    9.30
  -1  -3  11   64.99   10.70
  -1  -3  11   40.50    8.00
  -1  -3  11   76.09   15.50
  -1  -3  11   53.79   10.80
   0   3 -11  224.98   22.30
   0   3 -11  223.78   23.50
   0   3 -11  234.88   23.60
   0   3 -11  274.77   24.50
   0   3 -11  232.18   24.00
   0   3 -11  285.27   26.70
   0   3 -11  266.77   25.40
   0   3 -11  258.57   23.70
   0  -3  11  195.48   23.40
   0  -3  11  192.38   23.80
   0  -3  11  180.08   25.50
   0  -3  11  208.28   26.00
   0  -3  11  227.78   23.70
   0  -3  11  205.98   24.60
  -1   3 -11  345.67   32.80
  -1   3 -11  301.37   33.00
  -1   3 -11  318.17   31.60
  -1   3 -11  333.17   33.00
  -1   3 -11  303.17   35.70
  -1   3 -11  376.66   33.70
   1  -3  11  323.97   33.00
   1  -3  11  324.87   32.30
   1  -3  11  347.57   34.10
   1  -3  11  336.67   32.90
   1  -3  11  310.47   33.20
  -2   3 -11   59.99   10.20
  -2   3 -11   77.59   11.40
  -2   3 -11  102.69   15.30
  -2   3 -11   60.09    8.20
  -2   3 -11   85.09   11.70
  -2   3 -11   62.19   10.40
  -2   3 -11   71.59   10.20
  -2   3 -11   72.89   12.40
  -2   3 -11   72.19    8.80
   2  -3  11   63.29    9.30
   2  -3  11   64.19   10.80
   2  -3  11   74.49   11.70
   2  -3  11   43.00   10.40
   2  -3  11   69.29   15.90
   2  -3  11   57.59   10.10
   2  -3  11   58.99   10.30
  -3   3 -11    1.40    8.90
  -3   3 -11    2.00    5.40
  -3   3 -11   -8.60    6.10
  -3   3 -11   -3.80    7.40
  -3   3 -11    3.60    3.40
  -3   3 -11    3.50    6.30
  -3   3 -11   -3.20    4.00
  -3   3 -11   -6.60    5.40
   3  -3  11    0.60    4.30
   3  -3  11    1.50    5.70
   3  -3  11    3.10   12.20
   3  -3  11   10.80    6.00
   3  -3  11    2.80    6.10
   3  -3  11  -12.80    9.60
  -4   3 -11    2.60    5.10
  -4   3 -11    9.10    7.10
  -4   3 -11    9.90    7.30
  -4   3 -11    7.20    9.90
  -4   3 -11    0.00   13.00
  -4   3 -11    9.00    5.00
  -4   3 -11   -6.00    9.00
  -4   3 -11    2.90    7.30
  -4   3 -11   -2.00   10.80
   4  -3  11    5.50   13.50
   4  -3  11   15.10   15.40
   4  -3  11  -12.50    7.70
   4  -3  11  -13.50    7.30
   4  -3  11   13.50    7.90
   4  -3  11   -8.40    5.50
   4  -3  11   15.10   10.40
   4  -3  11   25.50   10.40
   5   2 -11   88.49   14.00
   5   2 -11   69.59   12.30
   5   2 -11   86.29   16.50
   5   2 -11   93.69   15.50
   5   2 -11   90.09   14.40
   5   2 -11  105.39   13.30
   5   2 -11   65.49   11.60
  -5  -2  11   69.09   12.10
  -5  -2  11   71.19   15.10
  -5  -2  11   86.19   15.60
  -5  -2  11   86.29   19.70
  -5  -2  11   50.79   16.10
  -5  -2  11   53.69   12.00
  -5  -2  11   77.49   12.70
   4   2 -11  106.69   12.80
   4   2 -11   77.59   12.30
   4   2 -11   71.79   14.10
   4   2 -11   90.99   11.50
   4   2 -11   78.99   13.80
   4   2 -11   80.29   11.30
   4   2 -11   70.19   11.40
  -4  -2  11   59.89   10.10
  -4  -2  11   86.59   18.20
  -4  -2  11   62.49   11.30
  -4  -2  11   67.49   11.70
  -4  -2  11   67.49   11.50
  -4  -2  11  104.09   14.50
  -4  -2  11   57.19   13.60
   3   2 -11   -3.80    6.50
   3   2 -11  -11.00    4.80
   3   2 -11   -2.30    4.40
   3   2 -11    0.30    3.60
   3   2 -11    2.10    4.70
   3   2 -11   -1.10    4.80
   3   2 -11    7.50    4.20
  -3  -2  11   -1.40    6.00
  -3  -2  11    2.50    5.60
  -3  -2  11   -0.30    4.00
  -3  -2  11   -2.40    4.10
  -3  -2  11   -4.50    4.40
  -3  -2  11   -6.00   10.10
   2   2 -11    6.40    3.70
   2   2 -11    4.20    5.60
   2   2 -11    8.30    4.70
   2   2 -11    7.70    3.60
   2   2 -11   -4.70    4.00
   2   2 -11    8.00    3.80
   2   2 -11    5.60    4.00
  -2  -2  11    6.10    6.90
  -2  -2  11   -1.10    5.10
  -2  -2  11    4.30    3.90
  -2  -2  11    3.80    4.20
  -2  -2  11    3.50    7.40
  -2  -2  11    7.60    5.60
  -2  -2  11    0.40    3.90
   1   2 -11   60.29   10.70
   1   2 -11   38.00    8.30
   1   2 -11   44.10    7.20
   1   2 -11   56.59    8.00
   1   2 -11   42.50    7.50
   1   2 -11   50.19    7.50
   1   2 -11   39.30    7.50
   1   2 -11   40.70    6.40
  -1  -2  11   52.39   13.10
  -1  -2  11   43.00    7.20
  -1  -2  11   23.20   10.10
  -1  -2  11   29.80    8.80
  -1  -2  11   31.40    7.20
  -1  -2  11   36.10    6.90
   0   2 -11  206.68   21.90
   0   2 -11  203.18   21.80
   0   2 -11  224.38   23.40
   0   2 -11  216.08   22.90
   0   2 -11  233.98   22.60
   0   2 -11  174.58   22.00
   0  -2  11  191.08   21.40
   0  -2  11  250.77   28.60
   0  -2  11  235.68   23.20
   0  -2  11  185.08   22.00
  -1   2 -11 1294.77  119.59
  -1   2 -11 1299.97  119.69
  -1   2 -11 1298.37  120.99
  -1   2 -11 1233.28  119.79
   1  -2  11 1401.36  125.29
   1  -2  11 1110.89  119.69
   1  -2  11 1276.07  119.59
   1  -2  11 1334.87  120.59
   1  -2  11 1215.68  119.59
   1  -2  11 1340.57  119.29
  -2   2 -11   84.49   10.60
  -2   2 -11   54.59   10.70
  -2   2 -11   52.79    9.70
  -2   2 -11   70.29   10.10
  -2   2 -11   77.39   13.70
  -2   2 -11   63.49    7.80
  -2   2 -11   56.49    8.40
  -2   2 -11   70.39   11.70
  -2   2 -11   57.69    9.70
   2  -2  11   55.69    9.40
   2  -2  11   48.70   14.60
   2  -2  11   62.59   11.20
   2  -2  11   49.60    9.70
   2  -2  11   42.70    8.80
   2  -2  11   56.59    8.70
   2  -2  11   31.90   11.70
  -3   2 -11  149.09   19.40
  -3   2 -11  212.98   25.90
  -3   2 -11  144.79   21.50
  -3   2 -11  158.68   19.90
  -3   2 -11  143.59   21.50
  -3   2 -11  205.18   24.80
  -3   2 -11  149.39   17.90
  -3   2 -11  171.18   17.70
  -3   2 -11  194.78   20.10
   3  -2  11  134.59   26.40
   3  -2  11  201.88   19.00
   3  -2  11  146.59   20.80
   3  -2  11  181.48   19.50
   3  -2  11  191.88   21.60
   3  -2  11  155.38   19.40
  -4   2 -11   52.79   12.30
  -4   2 -11   54.79   10.70
  -4   2 -11   42.40    8.40
  -4   2 -11   61.19   14.50
  -4   2 -11   36.80    9.90
  -4   2 -11   38.40    9.20
  -4   2 -11   39.50   18.10
  -4   2 -11   41.70   11.50
  -4   2 -11   53.89    8.40
   4  -2  11   44.00   11.80
   4  -2  11   64.49   18.30
   4  -2  11   41.50   12.20
   4  -2  11   49.80    9.20
   4  -2  11   29.50   12.10
   4  -2  11   49.40   10.00
   4  -2  11   38.60   16.70
   4  -2  11   45.20   10.50
   6   1 -11   -6.10    8.90
   6   1 -11    7.30    8.00
   6   1 -11    9.90   10.40
   6   1 -11   15.00   11.90
   6   1 -11   -4.20    9.30
   6   1 -11   -0.60   10.90
  -6  -1  11    7.70   17.30
  -6  -1  11    3.20    4.50
  -6  -1  11   18.20    7.90
  -6  -1  11    0.00    7.90
  -6  -1  11  -19.50   17.20
  -6  -1  11    0.90   11.60
   5   1 -11   11.10    5.90
   5   1 -11    4.70    7.20
   5   1 -11   12.60    6.90
   5   1 -11   -2.50    7.30
   5   1 -11   11.30    6.80
   5   1 -11   13.10    5.70
   5   1 -11    0.20    7.30
  -5  -1  11    5.60    7.30
  -5  -1  11    3.30    3.70
  -5  -1  11   -1.00    9.80
  -5  -1  11   16.00    7.00
  -5  -1  11    7.60    5.30
  -5  -1  11   10.90    5.50
  -5  -1  11   11.00   14.10
   4   1 -11   10.00    4.70
   4   1 -11    0.70    6.10
   4   1 -11    7.70    5.10
   4   1 -11    0.30    4.60
   4   1 -11    3.00    5.20
   4   1 -11   -8.60    5.20
   4   1 -11    1.50    4.40
  -4  -1  11    8.50    5.60
  -4  -1  11   18.10   11.70
  -4  -1  11    0.50    5.10
  -4  -1  11   10.20    3.50
  -4  -1  11    7.50    5.90
  -4  -1  11    2.40    4.20
  -4  -1  11    9.10    4.70
  -4  -1  11    4.40    7.40
   3   1 -11   41.80    7.30
   3   1 -11   42.10    7.60
   3   1 -11   31.50    6.50
   3   1 -11   34.60    7.80
   3   1 -11   35.30    8.80
   3   1 -11   45.30    8.20
   3   1 -11   34.10    7.60
   3   1 -11   41.20    6.70
  -3  -1  11   35.40    8.60
  -3  -1  11   27.90    6.50
  -3  -1  11   25.30    6.20
  -3  -1  11   52.69    9.60
  -3  -1  11   31.90    5.00
  -3  -1  11   40.60   12.40
  -3  -1  11   38.60    7.20
  -3  -1  11   49.00    8.00
   2   1 -11    3.90    4.00
   2   1 -11    4.40    3.50
   2   1 -11    9.60    4.70
   2   1 -11    3.60    4.20
   2   1 -11    0.00    4.90
   2   1 -11    1.20    3.20
   2   1 -11    4.40    3.80
   2   1 -11    8.30    9.80
  -2  -1  11    5.50    8.60
  -2  -1  11    6.90    3.80
  -2  -1  11    1.60    4.20
  -2  -1  11    3.60    5.10
  -2  -1  11    4.80    3.60
  -2  -1  11    3.70    3.40
   1   1 -11   22.20    7.20
   1   1 -11   15.40    4.30
   1   1 -11   16.80    5.50
   1   1 -11   14.40    5.10
   1   1 -11   45.20   13.30
   1   1 -11   22.60    5.00
   1   1 -11   10.10    5.10
   1   1 -11   18.50    5.80
   1   1 -11   14.80    4.30
  -1  -1  11   19.20    8.50
  -1  -1  11   16.40    4.60
  -1  -1  11   14.00    4.30
  -1  -1  11   14.30    5.60
  -1  -1  11   22.00    5.10
  -1  -1  11   17.30    7.10
   0   1 -11   33.40    7.10
   0   1 -11   53.39   10.20
   0   1 -11   55.59   15.40
   0   1 -11   35.80    7.40
   0   1 -11   32.10    6.70
   0   1 -11   38.20    6.30
   0   1 -11   38.50    6.90
   0  -1  11   26.10    8.70
   0  -1  11   35.50    7.40
   0  -1  11   27.40    6.00
   0  -1  11   22.00    6.50
   0  -1  11   30.90    6.30
   0  -1  11   28.90    5.70
   0  -1  11   32.20   10.70
   0  -1  11   25.30    7.70
  -1   1 -11  127.19   10.60
  -1   1 -11  118.39   13.40
  -1   1 -11   96.99   13.50
  -1   1 -11  124.79   14.70
  -1   1 -11   89.49   14.50
  -1   1 -11  133.49   16.50
  -1   1 -11  112.59   13.00
  -1   1 -11   96.59   12.80
   1  -1  11  104.99   14.00
   1  -1  11   73.59   13.30
   1  -1  11   97.49   13.10
   1  -1  11  106.09   13.00
   1  -1  11   82.89   13.60
   1  -1  11  106.29   19.40
  -2   1 -11   72.19   12.70
  -2   1 -11   60.49   10.30
  -2   1 -11   75.49    8.00
  -2   1 -11   64.59   10.10
  -2   1 -11   69.99   14.50
  -2   1 -11   65.99   10.30
  -2   1 -11  115.59   27.00
  -2   1 -11   70.19   11.10
   2  -1  11   54.49    9.50
   2  -1  11   41.90   10.20
   2  -1  11   55.59   10.90
   2  -1  11   58.79    9.30
   2  -1  11   48.20   15.20
   2  -1  11   58.59   10.10
  -3   1 -11   -1.10    8.80
  -3   1 -11    3.90    6.70
  -3   1 -11   -6.60    6.70
  -3   1 -11   -9.10    4.60
  -3   1 -11  -12.90   10.00
  -3   1 -11    5.50    5.10
  -3   1 -11   12.40    8.30
   3  -1  11   -2.00    5.40
   3  -1  11    9.30    6.30
   3  -1  11   10.50    8.40
   3  -1  11  -13.70   12.80
   3  -1  11   -3.70    6.70
   3  -1  11    0.40    8.40
   3  -1  11   -0.90    4.80
   3  -1  11   -8.70   11.10
  -4   1 -11  159.48   24.60
  -4   1 -11  152.38   17.60
  -4   1 -11  127.39   23.30
  -4   1 -11  132.99   20.70
  -4   1 -11  164.88   16.20
  -4   1 -11  131.99   20.40
  -4   1 -11  153.08   20.30
  -4   1 -11  185.78   32.20
  -4   1 -11  123.09   19.90
   4  -1  11  138.99   30.90
   4  -1  11   99.79   19.60
   4  -1  11  123.69   20.90
   4  -1  11  139.49   18.90
   4  -1  11   94.99   23.00
   4  -1  11  122.79   21.90
   4  -1  11  145.89   18.70
   4  -1  11  153.18   18.30
   6   0 -11   12.50    6.90
   6   0 -11   10.70    9.40
   6   0 -11   29.00    9.80
   6   0 -11    8.10    9.90
   6   0 -11   14.80    8.10
   6   0 -11   13.80    8.70
   6   0 -11    7.60    7.00
  -6   0  11    6.60    6.00
  -6   0  11   13.40    5.10
  -6   0  11    3.80   10.20
  -6   0  11   12.00    4.90
  -6   0  11  -13.10   18.60
  -6   0  11   13.80    7.40
   5   0 -11  301.67   27.80
   5   0 -11  270.27   27.10
   5   0 -11  247.38   28.90
   5   0 -11  294.97   28.40
  -5   0  11  225.98   30.10
  -5   0  11  257.37   38.10
  -5   0  11  294.57   27.50
  -5   0  11  256.47   25.70
  -5   0  11  222.78   27.70
  -5   0  11  303.17   29.90
  -5   0  11  242.98   26.20
  -5   0  11  223.58   26.60
   4   0 -11   68.59    9.90
   4   0 -11   67.59   10.00
   4   0 -11   69.49   10.10
   4   0 -11   56.79    9.20
   4   0 -11   65.59   10.80
   4   0 -11   59.29    8.40
   4   0 -11   60.89   11.00
  -4   0  11   51.39   16.00
  -4   0  11   60.09   10.20
  -4   0  11   38.50    8.00
  -4   0  11   47.40    7.10
  -4   0  11   59.99    9.40
  -4   0  11   45.90   10.70
  -4   0  11   57.59   11.40
   3   0 -11   21.90    5.70
   3   0 -11   20.00    6.30
   3   0 -11   26.30    6.30
   3   0 -11   26.90    6.10
   3   0 -11   27.30    7.20
   3   0 -11   32.90    5.30
   3   0 -11   16.60    5.10
  -3   0  11   22.50    3.70
  -3   0  11   35.00    6.50
  -3   0  11   24.90    7.70
  -3   0  11   21.70   11.10
  -3   0  11   25.90    5.80
  -3   0  11   20.60    6.70
  -3   0  11   27.40    6.00
  -3   0  11   14.60    4.90
   2   0 -11   59.79    8.00
   2   0 -11   52.69    8.60
   2   0 -11   56.79   10.00
   2   0 -11   53.59    7.60
   2   0 -11   45.20    7.30
   2   0 -11   49.70    8.50
  -2   0  11   40.10   13.30
  -2   0  11   40.40    7.00
  -2   0  11   47.30    7.50
  -2   0  11   40.20    8.30
  -2   0  11   44.90    8.00
  -2   0  11   39.10    7.20
   1   0 -11  518.65   49.40
   1   0 -11  519.75   50.09
   1   0 -11  524.15   50.69
   1   0 -11  584.44   49.80
   1   0 -11  505.45   49.20
  -1   0  11  424.76   49.20
  -1   0  11  550.84   50.59
  -1   0  11  516.25   49.30
  -1   0  11  485.45   55.09
  -1   0  11  518.85   49.10
   0   0 -11 1136.39  105.99
   0   0 -11 1102.89  104.49
   0   0 -11 1075.19  104.89
   0   0 -11 1145.49  104.39
   0   0  11 1159.48  104.29
   0   0  11 1115.39  104.49
   0   0  11 1206.28  105.59
   0   0  11  979.00  109.49
  -1   0 -11  218.38   25.40
  -1   0 -11  209.28   24.10
  -1   0 -11  211.58   23.60
  -1   0 -11  253.47   27.50
  -1   0 -11  255.37   28.00
  -1   0 -11  250.97   24.40
  -1   0 -11  264.07   21.50
  -1   0 -11  221.38   23.60
   1   0  11  258.57   25.00
   1   0  11  213.68   30.60
   1   0  11  177.68   24.40
   1   0  11  161.48   25.80
   1   0  11  224.58   23.70
  -2   0 -11   44.50    6.30
  -2   0 -11   33.50    7.60
  -2   0 -11   44.90    8.90
  -2   0 -11   60.79   10.00
  -2   0 -11   59.89   13.00
  -2   0 -11   55.19   10.70
  -2   0 -11   34.10    9.50
  -2   0 -11   33.10    7.80
   2   0  11   27.60    9.20
   2   0  11   46.50    7.50
   2   0  11   34.60    7.50
   2   0  11   46.90    9.30
   2   0  11   34.90   11.00
   2   0  11   49.99   16.00
   2   0  11   35.50    9.10
   2   0  11   41.30    8.10
  -3   0 -11  174.28   21.90
  -3   0 -11  188.28   16.90
  -3   0 -11  193.38   27.80
  -3   0 -11  136.89   18.60
  -3   0 -11  178.48   21.00
  -3   0 -11  149.69   21.20
  -3   0 -11  206.58   23.20
  -3   0 -11  134.09   18.30
   3   0  11  150.38   19.00
   3   0  11  108.79   19.80
   3   0  11  168.28   18.70
   3   0  11  165.88   20.90
   3   0  11  122.59   26.10
   3   0  11  131.09   20.80
   3   0  11  175.88   18.40
   3   0  11  109.69   22.70
  -4   0 -11   -3.60   10.10
  -4   0 -11   28.10    8.20
  -4   0 -11   29.20   11.00
  -4   0 -11   22.30    6.20
  -4   0 -11   11.80   13.80
  -4   0 -11   31.50   21.30
  -4   0 -11    2.80   11.30
  -4   0 -11    2.10   10.30
   4   0  11   31.20   20.60
   4   0  11   26.50   11.40
   4   0  11   18.40    9.30
   4   0  11   36.60    9.30
   4   0  11   36.10   18.90
   4   0  11   20.30    9.40
   4   0  11   32.40   13.30
   6  -1 -11    4.50    8.90
   6  -1 -11   18.80    7.60
   6  -1 -11   14.50    9.20
   6  -1 -11   18.60    6.80
   6  -1 -11   20.90    9.30
   6  -1 -11   25.00    9.10
   6  -1 -11    7.10    5.90
  -6   1  11   26.10   20.00
  -6   1  11   16.40    7.60
  -6   1  11   13.80    5.20
  -6   1  11    0.70   10.70
  -6   1  11    4.30    8.90
   5  -1 -11  335.87   29.60
   5  -1 -11  332.37   30.60
   5  -1 -11  312.67   31.00
   5  -1 -11  311.87   31.70
   5  -1 -11  310.37   30.00
  -5   1  11  292.57   28.80
  -5   1  11  272.17   30.40
  -5   1  11  231.08   32.70
  -5   1  11  230.48   41.40
  -5   1  11  337.97   32.50
  -5   1  11  224.58   32.50
   4  -1 -11    9.60   12.20
   4  -1 -11   10.30    5.30
   4  -1 -11   -2.80    3.90
   4  -1 -11    5.40    3.50
   4  -1 -11    2.00    4.50
   4  -1 -11   -1.40    5.50
   4  -1 -11   10.70    4.70
   4  -1 -11    3.30    5.50
  -4   1  11    2.10    7.00
  -4   1  11    3.00    6.60
  -4   1  11    0.90    3.80
  -4   1  11    5.40    3.60
  -4   1  11    5.30    3.30
  -4   1  11    4.90   13.20
  -4   1  11    9.60    4.30
  -4   1  11    3.00    4.70
   3  -1 -11    8.10    3.50
   3  -1 -11    8.30    5.60
   3  -1 -11    6.10    4.30
   3  -1 -11    5.80    4.20
   3  -1 -11    8.00    4.50
   3  -1 -11    0.90   11.30
   3  -1 -11   12.50    4.80
   3  -1 -11   11.90    5.00
   3  -1 -11   14.10    4.80
  -3   1  11    5.70    4.90
  -3   1  11    8.80   11.60
  -3   1  11    6.50    3.80
  -3   1  11    6.90    5.40
  -3   1  11    8.00    6.20
  -3   1  11    4.50    2.70
  -3   1  11    6.90    4.00
  -3   1  11    5.70    4.00
   2  -1 -11    1.80    3.20
   2  -1 -11   -2.70    3.60
   2  -1 -11    0.30    3.50
   2  -1 -11    7.50    4.20
   2  -1 -11   14.30   11.60
   2  -1 -11    2.00    3.80
   2  -1 -11   -5.20    4.40
  -2   1  11   -1.60    4.30
  -2   1  11    9.50    5.90
  -2   1  11    3.60    3.40
  -2   1  11    7.10    4.60
  -2   1  11    1.80   10.10
  -2   1  11    0.70    3.70
  -2   1  11    2.10    3.20
   1  -1 -11   27.10    7.70
   1  -1 -11   29.50    8.50
   1  -1 -11   24.40    6.40
   1  -1 -11   25.10    5.90
   1  -1 -11   20.00    5.10
   1  -1 -11   23.80    6.10
   1  -1 -11   26.60    5.30
   1  -1 -11   59.09   16.50
  -1   1  11   25.20    5.00
  -1   1  11   23.70    5.40
  -1   1  11   21.40    6.30
  -1   1  11   17.60    5.80
  -1   1  11   37.60   13.30
  -1   1  11   22.30    6.00
   0  -1 -11  310.77   33.10
   0  -1 -11  361.96   33.00
   0  -1 -11  319.67   33.80
   0  -1 -11  313.37   34.50
   0  -1 -11  365.36   33.90
   0  -1 -11  403.66   37.50
   0   1  11  326.97   33.40
   0   1  11  329.07   32.80
   0   1  11  283.97   39.90
   0   1  11  344.77   34.10
  -1  -1 -11    4.90    5.70
  -1  -1 -11    7.10    4.60
  -1  -1 -11    4.20    4.60
  -1  -1 -11   10.10    5.60
  -1  -1 -11   -6.10   10.80
  -1  -1 -11    9.50    6.90
  -1  -1 -11   -1.60    2.60
  -1  -1 -11   13.10    5.90
  -1  -1 -11   -2.00    8.90
   1   1  11    2.40    4.60
   1   1  11    1.10    5.10
   1   1  11    3.10    5.50
   1   1  11   20.10   11.20
   1   1  11    4.20    6.20
   1   1  11   -2.70    3.90
   1   1  11    5.90    4.80
   1   1  11    6.40   11.80
  -2  -1 -11   71.49    8.00
  -2  -1 -11   67.69   10.40
  -2  -1 -11   58.79   12.00
  -2  -1 -11   55.19   10.70
  -2  -1 -11   61.89   16.50
  -2  -1 -11   67.99   13.00
  -2  -1 -11   76.69   10.90
   2   1  11   56.49    9.90
   2   1  11   88.49   11.90
   2   1  11   68.49   12.70
   2   1  11   36.40   10.30
   2   1  11   46.80   12.00
   2   1  11   45.70   16.70
   2   1  11   34.10   15.50
   2   1  11   52.09    9.40
  -3  -1 -11   44.40   12.60
  -3  -1 -11   30.50    6.20
  -3  -1 -11   62.69   20.00
  -3  -1 -11   -0.40   16.80
  -3  -1 -11   19.90    9.10
  -3  -1 -11   16.30    7.20
  -3  -1 -11   19.90    9.50
  -3  -1 -11   19.10    8.10
  -3  -1 -11   29.80    9.30
  -3  -1 -11   16.40   10.40
   3   1  11   47.30    8.70
   3   1  11   23.20    7.30
   3   1  11   17.60    8.00
   3   1  11   11.70    9.00
   3   1  11   29.00   13.80
   3   1  11   26.80   10.60
   3   1  11   18.70   10.90
   6  -2 -11    4.30    8.10
   6  -2 -11    9.70    7.20
   6  -2 -11  -11.10    5.40
   6  -2 -11  -16.90   12.90
   6  -2 -11    1.80    4.80
   6  -2 -11    8.60    7.10
   6  -2 -11   -0.30    8.20
  -6   2  11    0.90   20.60
  -6   2  11    3.00    8.00
  -6   2  11    6.60    4.90
  -6   2  11    5.40    7.60
  -6   2  11   12.50   10.70
   5  -2 -11    4.90    6.50
   5  -2 -11   13.80    6.60
   5  -2 -11   18.70    6.20
   5  -2 -11   15.30    4.80
   5  -2 -11   19.30    5.90
   5  -2 -11   17.40    5.10
   5  -2 -11    2.10    6.10
   5  -2 -11   27.80   15.50
  -5   2  11    9.00    6.10
  -5   2  11    8.70    6.00
  -5   2  11    6.90    4.20
  -5   2  11   13.00    8.00
  -5   2  11   15.80    7.80
  -5   2  11   26.30   17.90
   4  -2 -11    1.90    3.60
   4  -2 -11    6.00    3.80
   4  -2 -11   -0.60    5.10
   4  -2 -11   -2.10    4.80
   4  -2 -11   -4.90    4.70
   4  -2 -11   -2.90   12.10
   4  -2 -11    3.40    4.80
  -4   2  11   24.10   14.60
  -4   2  11    4.90    2.80
  -4   2  11   -5.40    4.90
  -4   2  11    4.40    6.00
  -4   2  11    1.40    5.60
  -4   2  11    2.80    3.40
  -4   2  11   -1.30    2.90
  -4   2  11   -1.90    4.10
   3  -2 -11   24.50    5.60
   3  -2 -11   46.00   15.20
   3  -2 -11   22.80    4.90
   3  -2 -11   14.40    5.60
   3  -2 -11   26.60    6.30
   3  -2 -11   25.00    5.50
   3  -2 -11   16.10    5.60
   3  -2 -11   25.90    6.80
  -3   2  11   17.00    7.10
  -3   2  11   23.50    5.20
  -3   2  11   18.40   14.60
  -3   2  11   16.20    6.10
  -3   2  11   14.00    4.60
  -3   2  11   20.30    4.50
   2  -2 -11  166.68   17.70
   2  -2 -11  175.58   17.70
   2  -2 -11  146.99   16.40
   2  -2 -11  151.28   16.90
   2  -2 -11  155.08   17.70
   2  -2 -11  177.68   17.80
  -2   2  11  107.19   26.00
  -2   2  11  166.38   18.20
  -2   2  11  155.58   16.50
  -2   2  11  141.09   16.30
   1  -2 -11   59.59   11.10
   1  -2 -11   82.79   15.70
   1  -2 -11  106.19   12.30
   1  -2 -11   61.29    9.70
   1  -2 -11   72.09   10.00
   1  -2 -11   82.69   11.10
   1  -2 -11   78.49   14.20
  -1   2  11   65.29   11.50
  -1   2  11   94.09   11.60
  -1   2  11   77.19   10.00
  -1   2  11   64.29   11.00
  -1   2  11   85.29    9.80
  -1   2  11   67.69   17.60
   0  -2 -11 1082.09   96.69
   0  -2 -11 1138.79   97.99
   0  -2 -11 1011.70   97.59
   0  -2 -11  926.41   98.19
   0  -2 -11  936.21   96.89
   0   2  11 1086.49   98.09
   0   2  11 1059.59   96.79
  -1  -2 -11   18.70   13.80
  -1  -2 -11   21.10    8.20
  -1  -2 -11   20.40   11.90
  -1  -2 -11   27.20    6.10
  -1  -2 -11   26.20    7.40
  -1  -2 -11   23.90    7.60
  -1  -2 -11   14.00    6.90
   1   2  11   11.10    5.30
   1   2  11   -1.90    9.60
   1   2  11   20.30   13.90
   1   2  11   16.90    5.80
   1   2  11   18.70    6.60
   1   2  11   22.40    7.60
   1   2  11   11.70    7.40
   1   2  11   13.20    5.90
  -2  -2 -11  105.79   15.60
  -2  -2 -11  127.79   15.20
  -2  -2 -11  144.49   19.60
  -2  -2 -11  122.49   22.90
  -2  -2 -11  134.59   18.10
  -2  -2 -11   95.29   17.70
  -2  -2 -11  108.39   15.50
  -2  -2 -11  109.09   17.00
   2   2  11  109.09   23.90
   2   2  11  115.49   14.50
   2   2  11  133.29   16.00
   2   2  11   95.99   17.60
   2   2  11  112.89   17.50
   2   2  11  128.49   15.10
  -3  -2 -11   54.49   11.70
  -3  -2 -11   69.99   14.50
  -3  -2 -11   61.89   12.30
  -3  -2 -11   82.89   13.70
  -3  -2 -11   66.39   15.70
  -3  -2 -11   56.09   22.40
  -3  -2 -11   55.29   11.50
  -3  -2 -11   92.29   14.60
   3   2  11   61.49   11.10
   3   2  11   19.30   18.30
   3   2  11   54.99   12.00
   3   2  11   56.89   22.30
   3   2  11   56.49   14.10
   3   2  11   66.89   11.50
   3   2  11   53.09   13.40
   3   2  11   63.19   14.20
   6  -3 -11   88.59   12.70
   6  -3 -11  106.49   13.60
   6  -3 -11   80.99   14.20
  -6   3  11   67.69   10.80
  -6   3  11   57.69   13.60
   5  -3 -11   20.50   16.60
   5  -3 -11   10.80    4.20
   5  -3 -11   15.80    7.30
   5  -3 -11   13.60    6.40
   5  -3 -11    7.70    5.60
   5  -3 -11   16.40    6.40
   5  -3 -11   10.60    5.70
   5  -3 -11    6.10    4.40
  -5   3  11   -2.00    5.60
  -5   3  11    4.40    7.30
  -5   3  11   26.00   20.30
  -5   3  11    7.40    7.60
  -5   3  11    8.10    5.40
  -5   3  11    4.20    4.20
   4  -3 -11   88.49   12.50
   4  -3 -11   93.59   12.60
   4  -3 -11  115.69   12.80
   4  -3 -11   90.19   10.50
   4  -3 -11   95.99   11.20
   4  -3 -11   80.69   12.90
  -4   3  11   78.09   22.20
  -4   3  11   72.59   10.20
  -4   3  11   62.09   12.10
  -4   3  11   94.19   13.40
  -4   3  11   78.29   11.30
   3  -3 -11   39.30    7.30
   3  -3 -11   37.90    7.90
   3  -3 -11   29.00    6.00
   3  -3 -11   28.30    6.20
   3  -3 -11   27.00    5.00
   3  -3 -11   33.50    7.20
   3  -3 -11   34.10    6.90
   3  -3 -11   28.40    7.70
   3  -3 -11   41.20   16.50
  -3   3  11   18.70    5.10
  -3   3  11   17.20    4.50
  -3   3  11   17.40    6.30
  -3   3  11   20.70    4.10
  -3   3  11   17.90    7.60
  -3   3  11   21.30    4.40
  -3   3  11   16.80   15.30
  -3   3  11   23.40    6.80
   2  -3 -11    0.90    3.30
   2  -3 -11   12.10    4.60
   2  -3 -11    7.60    4.80
   2  -3 -11    1.80    4.20
   2  -3 -11   19.90   11.20
   2  -3 -11    9.70    6.80
   2  -3 -11    0.60    4.80
  -2   3  11    4.00    4.70
  -2   3  11    0.20    7.10
  -2   3  11    3.40    4.20
  -2   3  11    6.20    5.00
  -2   3  11    6.90    3.40
  -2   3  11   25.10   14.30
  -2   3  11    3.10    3.40
   1  -3 -11  196.38   22.90
   1  -3 -11  177.78   24.40
   1  -3 -11  230.58   22.70
   1  -3 -11  282.27   28.00
   1  -3 -11  224.38   24.00
   1  -3 -11  269.27   25.00
  -1   3  11  186.68   23.60
  -1   3  11  249.08   23.10
  -1   3  11  235.48   23.00
  -1   3  11  192.08   32.90
  -1   3  11  241.78   24.30
   0  -3 -11  434.46   47.00
   0  -3 -11  476.85   48.90
   0  -3 -11  570.34   48.90
   0  -3 -11  489.05   48.20
   0  -3 -11  500.75   46.50
   0   3  11  412.06   47.70
   0   3  11  407.26   55.39
   0   3  11  505.85   47.40
   0   3  11  510.95   46.90
   0   3  11  538.15   48.50
  -1  -3 -11    3.20    7.80
  -1  -3 -11   13.60   12.60
  -1  -3 -11   12.40    7.10
  -1  -3 -11   -7.10   13.70
  -1  -3 -11   -5.80    5.00
  -1  -3 -11    8.30    4.80
  -1  -3 -11   10.20    7.40
   1   3  11    7.20    9.80
   1   3  11    7.80    5.60
   1   3  11   -1.00    4.60
   1   3  11    1.80   14.60
   1   3  11   13.30    7.70
   1   3  11   -2.00    5.00
   1   3  11    3.50    6.50
   1   3  11    1.50   15.90
  -2  -3 -11    9.00    7.90
  -2  -3 -11    5.80    8.40
  -2  -3 -11   11.90   18.70
  -2  -3 -11   23.60   15.90
  -2  -3 -11    1.00   10.80
  -2  -3 -11   10.50    9.10
  -2  -3 -11    5.90    6.10
  -2  -3 -11    6.00    9.10
   2   3  11   12.30    7.70
   2   3  11    3.40    9.10
   2   3  11    5.00    6.40
   2   3  11    4.90    9.90
   2   3  11    9.70   18.20
   2   3  11   23.00   14.20
   2   3  11   -9.80    5.60
   2   3  11    6.70    8.80
  -3  -3 -11  213.18   28.00
  -3  -3 -11  240.08   32.60
  -3  -3 -11  254.07   28.60
   3   3  11  141.39   30.30
   3   3  11  232.08   24.90
   3   3  11  251.07   40.00
   3   3  11  179.08   28.60
   3   3  11  208.38   25.00
   3   3  11  188.08   26.20
   5  -4 -11    2.30    5.30
   5  -4 -11   11.80    6.40
   5  -4 -11    5.60    3.70
   5  -4 -11   -6.30    5.20
   5  -4 -11   17.00    7.60
   5  -4 -11    3.20    4.30
   5  -4 -11   -0.90    5.80
   5  -4 -11    3.50   17.70
  -5   4  11    3.50    7.90
  -5   4  11   -5.20    5.40
  -5   4  11   -3.00    6.00
  -5   4  11  -27.60   19.40
  -5   4  11   -0.40    4.70
  -5   4  11    4.60    7.20
   4  -4 -11    1.00    4.80
   4  -4 -11   -3.70    6.00
   4  -4 -11   -0.10   14.80
   4  -4 -11   -2.60    3.90
   4  -4 -11    7.30    5.60
   4  -4 -11   -1.20    5.40
   4  -4 -11   -0.80    5.80
   4  -4 -11   -3.20    3.30
  -4   4  11   -1.40   18.30
  -4   4  11   -3.60    5.30
  -4   4  11   -2.80    4.10
  -4   4  11    1.10    4.40
  -4   4  11    0.90    7.40
  -4   4  11   -3.20    5.50
   3  -4 -11   -3.50    4.60
   3  -4 -11    5.00    5.00
   3  -4 -11   -1.50    4.10
   3  -4 -11  -14.40   12.90
   3  -4 -11   -0.90    4.50
   3  -4 -11    0.20    3.50
   3  -4 -11    3.80    6.30
  -3   4  11   -1.70    4.90
  -3   4  11   -8.30   17.10
  -3   4  11    0.50    8.50
  -3   4  11   -6.70    5.20
  -3   4  11   -0.90    3.60
   2  -4 -11   21.90    5.20
   2  -4 -11   17.10    4.70
   2  -4 -11   27.00    6.80
   2  -4 -11   20.40   13.20
   2  -4 -11   21.10    7.00
   2  -4 -11   16.80    6.10
   2  -4 -11   18.20    6.20
   2  -4 -11   32.80    9.10
  -2   4  11   16.80    5.10
  -2   4  11   23.00    6.90
  -2   4  11   18.00    6.40
  -2   4  11   19.60    5.00
  -2   4  11    4.70    7.20
  -2   4  11   16.60   16.60
  -2   4  11   19.20    4.10
   1  -4 -11   56.59   11.80
   1  -4 -11  128.79   26.30
   1  -4 -11  108.49   13.70
   1  -4 -11   87.19    9.50
   1  -4 -11   78.59   12.40
   1  -4 -11   64.29   10.00
  -1   4  11   90.39   10.50
  -1   4  11   74.89   10.20
  -1   4  11   54.59   10.30
  -1   4  11   51.19   13.50
  -1   4  11   75.09   11.80
  -1   4  11   74.29   21.50
  -1   4  11   57.69   11.10
   0  -4 -11   14.40    7.00
   0  -4 -11    4.90    5.20
   0  -4 -11   23.40    8.10
   0  -4 -11   -2.30   14.90
   0  -4 -11   12.00    4.40
   0  -4 -11   10.10    8.20
   0  -4 -11   21.40   11.10
   0  -4 -11    2.20    6.60
   0   4  11   25.20    7.60
   0   4  11    8.70    5.40
   0   4  11   -4.30    6.40
   0   4  11    3.90    8.70
   0   4  11   15.90    5.90
   0   4  11   21.10   10.70
  -1  -4 -11   95.89   15.60
  -1  -4 -11   79.49   14.40
  -1  -4 -11   59.39   13.40
  -1  -4 -11   90.79   11.10
  -1  -4 -11   85.69   19.40
  -1  -4 -11   69.89   11.40
  -1  -4 -11   84.49   13.10
   1   4  11   57.79   17.20
   1   4  11   55.59   12.50
   1   4  11   78.29   14.60
   1   4  11   67.89   13.40
   1   4  11   68.89   11.20
   1   4  11   45.60   23.00
   1   4  11   80.69   12.60
  -2  -4 -11    9.50   11.50
  -2  -4 -11   -1.40   21.90
  -2  -4 -11   -6.40   13.70
  -2  -4 -11   -4.40   10.50
   2   4  11    8.90    7.40
   2   4  11    2.20   11.00
   2   4  11    7.50    7.60
   2   4  11   12.20   15.70
   2   4  11    9.30   11.30
   2   4  11   18.20    9.10
   2   4  11   -7.00   11.60
   5  -5 -11    7.20   21.30
   5  -5 -11    1.90    4.20
   5  -5 -11   24.10    8.30
   5  -5 -11    6.90    6.40
   5  -5 -11  -10.30    6.40
   5  -5 -11    6.90    5.70
   5  -5 -11   13.00    6.30
   5  -5 -11   10.90    6.20
  -5   5  11    6.30    7.50
  -5   5  11    9.30    7.60
  -5   5  11   -2.30    4.70
  -5   5  11    3.90    6.30
  -5   5  11    5.00    5.40
   4  -5 -11   34.90    8.70
   4  -5 -11   39.50    8.40
   4  -5 -11   45.60    8.20
   4  -5 -11   33.10    6.00
   4  -5 -11   26.20    7.50
   4  -5 -11   38.50    7.50
   4  -5 -11   43.70    8.60
   4  -5 -11   71.69   22.80
  -4   5  11   28.60    8.10
  -4   5  11   23.80    9.30
  -4   5  11   43.90    8.20
  -4   5  11   35.30    7.00
  -4   5  11   30.50    6.40
  -4   5  11   34.10   22.90
   3  -5 -11   -6.10    4.50
   3  -5 -11   26.30   17.40
   3  -5 -11   -0.40    5.90
   3  -5 -11   -1.60    3.90
   3  -5 -11    0.70    7.00
   3  -5 -11    1.70    5.10
   3  -5 -11    3.60    4.80
   3  -5 -11    6.50    6.50
  -3   5  11    4.60   20.00
  -3   5  11    2.60    4.20
  -3   5  11    2.40    5.30
  -3   5  11    3.40    8.00
  -3   5  11  -10.20    6.10
   2  -5 -11  159.08   19.40
   2  -5 -11  168.18   16.70
   2  -5 -11  167.08   19.30
   2  -5 -11  192.88   20.40
   2  -5 -11  155.38   17.30
  -2   5  11  120.99   22.00
  -2   5  11  117.99   19.00
  -2   5  11  187.88   19.30
  -2   5  11  134.79   31.20
  -2   5  11  185.68   17.40
  -2   5  11  145.29   15.50
  -2   5  11  133.29   15.90
   1  -5 -11  221.38   20.30
   1  -5 -11  249.88   28.70
   1  -5 -11  190.18   21.50
   1  -5 -11  192.88   22.80
   1  -5 -11  255.87   25.20
   1  -5 -11  156.08   22.40
  -1   5  11  220.98   21.40
  -1   5  11  233.78   24.10
  -1   5  11  160.78   22.00
  -1   5  11  160.88   23.50
  -1   5  11  172.48   37.60
  -1   5  11  197.78   20.80
   0  -5 -11   31.10    5.70
   0  -5 -11   46.80   11.10
   0  -5 -11   37.40    9.00
   0  -5 -11   27.10    9.30
   0  -5 -11   65.89   23.10
   0  -5 -11   35.00   11.20
   0  -5 -11   31.50    8.60
   0  -5 -11   36.30   15.90
   0   5  11   30.80   13.10
   0   5  11   23.90    7.30
   0   5  11   25.90    7.70
   0   5  11   28.30    9.90
   0   5  11   40.50    9.50
   0   5  11   41.80    9.70
  -1  -5 -11    4.70   11.40
  -1  -5 -11   32.40   13.60
  -1  -5 -11   57.19   24.30
  -1  -5 -11   28.00   10.30
  -1  -5 -11   57.89   20.00
   1   5  11   12.80   14.80
   1   5  11   23.60   11.50
   1   5  11   16.20    8.60
   1   5  11   20.30    8.60
   1   5  11   30.10   11.00
   4  -6 -11   11.50    4.80
   4  -6 -11   10.30    6.20
   4  -6 -11   21.80    7.10
   4  -6 -11    6.30    7.40
   4  -6 -11   12.20   21.70
   4  -6 -11   -0.80    6.30
   4  -6 -11    4.60    8.20
  -4   6  11    3.20    6.40
  -4   6  11    2.60    6.80
  -4   6  11   11.80    8.90
   3  -6 -11   13.10    4.70
   3  -6 -11    6.80    8.00
   3  -6 -11   16.30   20.60
   3  -6 -11    0.30    6.80
   3  -6 -11    4.50    8.00
   3  -6 -11   11.30    4.90
   3  -6 -11    8.70    5.70
   3  -6 -11   -0.70    6.00
  -3   6  11   -0.80    6.00
  -3   6  11   18.10    8.40
  -3   6  11   16.00    5.20
  -3   6  11   -4.30    9.80
   2  -6 -11   21.30   11.60
   2  -6 -11   25.10    8.70
   2  -6 -11   44.70    9.20
   2  -6 -11   51.19    9.90
   2  -6 -11   27.80    5.10
   2  -6 -11   29.60    9.90
   2  -6 -11   59.09   23.90
   2  -6 -11   31.00    6.90
  -2   6  11    4.90    8.10
  -2   6  11   12.20   11.10
  -2   6  11   36.20    6.90
  -2   6  11   23.00    7.80
   1  -6 -11   65.09   17.10
   1  -6 -11   54.09   25.20
   1  -6 -11   50.09   10.70
   1  -6 -11   47.60   12.70
   1  -6 -11   39.30    6.40
   1  -6 -11   41.30    8.90
   1  -6 -11   56.39   11.00
   1  -6 -11   52.89   12.30
  -1   6  11   54.29   14.70
  -1   6  11   54.99    9.20
  -1   6  11   83.89   14.90
  -1   6  11   72.29   10.70
  -1   6  11   29.80   10.70
  -1   6  11   51.39    9.00
   0  -6 -11   47.80   26.20
   0  -6 -11   42.70   13.10
   0  -6 -11   52.99   11.50
   0  -6 -11   53.89   14.00
   0  -6 -11   33.90   18.20
   0   6  11   20.20   15.70
   0   6  11   38.40   11.40
   0   6  11   66.19   21.70
   0   6  11   21.00   17.20
   0   6  11   49.70    9.30
   0   6  11   50.79   12.10
   2  -7 -11   30.90   27.80
   2  -7 -11   17.70   11.00
   2  -7 -11    8.70    9.80
   2  -7 -11   -7.60    8.40
  -2   7  11   -2.80   10.00
  -2   7  11    0.00    6.40
   1   8 -12   55.79   11.90
   1   8 -12   39.70   13.10
   1   8 -12   59.89   15.10
   1   8 -12   74.39   18.50
   1   8 -12   52.59   11.90
   1   8 -12   70.89   13.50
  -1  -8  12   38.60   11.40
  -1  -8  12   54.89   13.40
  -1  -8  12   83.59   15.60
  -1  -8  12   53.79   17.10
  -1  -8  12   41.40   13.00
   0   8 -12   94.39   16.90
   0   8 -12  116.39   16.90
   0   8 -12   87.69   19.30
   0   8 -12  108.79   17.30
   0   8 -12  145.29   17.50
   0   8 -12  136.69   22.90
   0  -8  12  175.18   32.80
   0  -8  12  126.39   20.90
   0  -8  12  121.79   21.90
   0  -8  12   99.79   16.50
   0  -8  12   89.69   14.80
   0  -8  12   98.59   16.80
  -1   8 -12  116.49   21.50
  -1   8 -12  100.29   16.20
  -1   8 -12  100.79   15.70
  -1   8 -12  104.59   15.90
   1  -8  12   92.29   17.40
   1  -8  12   79.09   13.50
   1  -8  12   73.49   14.20
   1  -8  12  114.79   16.20
   1  -8  12   60.79   15.50
   1  -8  12  104.39   16.00
   2   7 -12   54.29   11.70
   2   7 -12   63.09   11.40
   2   7 -12   35.20    9.20
   2   7 -12   63.39   12.50
   2   7 -12   69.89   13.10
   2   7 -12   56.49   16.90
   2   7 -12   73.59   14.70
   2   7 -12   65.19   12.30
  -2  -7  12   65.19   11.20
  -2  -7  12   44.40   14.30
  -2  -7  12   49.50   12.00
  -2  -7  12   52.19   15.40
  -2  -7  12   36.10   11.00
   1   7 -12   13.00    6.70
   1   7 -12    3.10    9.00
   1   7 -12   -3.90   11.20
   1   7 -12    3.60    7.20
   1   7 -12  -12.20    6.90
   1   7 -12    1.70    4.30
   1   7 -12   12.30    8.70
  -1  -7  12    2.60    8.30
  -1  -7  12   -2.50   16.10
  -1  -7  12   -4.90    7.10
  -1  -7  12   13.80    7.30
  -1  -7  12   -3.80    6.10
  -1  -7  12   -1.70   10.00
  -1  -7  12    6.40    9.40
   0   7 -12   78.39   12.80
   0   7 -12   97.99   13.90
   0   7 -12   73.99   12.10
   0   7 -12   75.49   11.80
   0   7 -12   64.89   15.00
   0   7 -12   76.79   11.50
   0   7 -12   80.99   15.00
   0  -7  12   61.69   11.00
   0  -7  12   62.39   11.00
   0  -7  12   64.99   11.70
   0  -7  12   70.69   15.00
   0  -7  12   58.69   11.30
   0  -7  12   55.49   13.10
  -1   7 -12  130.39   15.80
  -1   7 -12  116.69   17.20
  -1   7 -12  121.29   21.30
  -1   7 -12  142.09   16.70
  -1   7 -12  113.59   18.10
  -1   7 -12  131.59   18.00
  -1   7 -12  125.89   16.30
   1  -7  12  105.09   19.50
   1  -7  12  111.99   19.80
   1  -7  12   96.19   16.40
   1  -7  12  117.29   17.20
   1  -7  12  114.69   16.10
   1  -7  12  116.59   16.10
  -2   7 -12   11.80   10.50
  -2   7 -12   28.50    7.30
  -2   7 -12   -1.80    9.10
  -2   7 -12    5.20    8.60
  -2   7 -12    9.40    8.70
  -2   7 -12    7.40    8.80
   2  -7  12    8.20    6.30
   2  -7  12   10.10    7.80
   2  -7  12   21.10   17.30
   2  -7  12   17.40   11.10
   2  -7  12    3.80    9.20
   2  -7  12   11.40    7.90
   2  -7  12   11.90   10.60
   2  -7  12    6.20    7.50
   3   6 -12  173.48   24.30
   3   6 -12  223.98   25.60
   3   6 -12  208.08   30.50
   3   6 -12  206.38   28.50
   3   6 -12  249.58   24.50
   3   6 -12  206.38   26.20
   3   6 -12  201.28   23.20
   3   6 -12  210.68   25.20
  -3  -6  12  139.39   31.00
  -3  -6  12  179.98   25.50
  -3  -6  12  229.48   27.60
  -3  -6  12  206.58   23.30
  -3  -6  12  196.78   24.20
   2   6 -12  121.49   22.80
   2   6 -12  157.58   17.60
   2   6 -12  134.09   18.90
   2   6 -12  146.09   20.80
   2   6 -12  126.79   15.70
   2   6 -12  144.99   18.50
   2   6 -12  109.29   18.10
   2   6 -12  111.79   17.70
  -2  -6  12  106.89   20.70
  -2  -6  12  128.39   20.50
  -2  -6  12  153.88   17.20
  -2  -6  12  140.59   18.20
  -2  -6  12  117.89   16.70
  -2  -6  12  120.59   18.40
   1   6 -12  340.07   38.20
   1   6 -12  299.97   31.90
   1   6 -12  288.57   31.20
   1   6 -12  302.67   32.20
   1   6 -12  334.07   35.80
   1   6 -12  348.77   31.70
   1   6 -12  301.47   29.40
  -1  -6  12  269.07   31.30
  -1  -6  12  322.37   34.10
  -1  -6  12  305.67   30.80
  -1  -6  12  278.37   31.80
  -1  -6  12  232.78   34.00
  -1  -6  12  321.27   31.60
   0   6 -12    8.40    6.00
   0   6 -12   21.00    7.60
   0   6 -12   28.50    8.40
   0   6 -12   17.90    7.20
   0   6 -12   19.30    3.50
   0   6 -12   21.20    7.10
   0   6 -12   18.90    8.00
   0   6 -12    7.20    9.40
   0  -6  12   26.20   13.10
   0  -6  12   18.20    6.70
   0  -6  12   12.90    8.80
   0  -6  12   18.30    6.20
   0  -6  12    8.40    8.20
   0  -6  12   18.80    7.20
   0  -6  12   12.50    7.00
  -1   6 -12  162.48   19.00
  -1   6 -12  137.99   16.50
  -1   6 -12  130.49   17.10
  -1   6 -12  140.69   18.00
  -1   6 -12  109.19   16.90
   1  -6  12  128.79   16.80
   1  -6  12  123.59   18.70
   1  -6  12  123.09   16.80
   1  -6  12  136.89   16.70
   1  -6  12  100.39   19.50
   1  -6  12  135.49   17.20
   1  -6  12  117.09   15.70
   1  -6  12  213.98   46.70
  -2   6 -12    7.80    9.50
  -2   6 -12   23.20    8.20
  -2   6 -12   11.30    7.30
  -2   6 -12    8.70    6.50
  -2   6 -12   10.30    6.80
  -2   6 -12   11.70    7.20
  -2   6 -12    1.90    5.70
  -2   6 -12   11.70    8.00
   2  -6  12   18.00    8.10
   2  -6  12    3.20    6.90
   2  -6  12   16.60   10.60
   2  -6  12    3.70    6.70
   2  -6  12    6.00    7.40
   2  -6  12   17.20   10.40
   2  -6  12   10.70    5.70
  -3   6 -12   14.30    7.30
  -3   6 -12   25.30    7.50
  -3   6 -12    3.10   10.80
  -3   6 -12    6.90    9.70
  -3   6 -12   30.00   12.10
  -3   6 -12   17.10    8.30
  -3   6 -12   14.40    7.00
  -3   6 -12   30.30   12.20
   3  -6  12    1.40    8.60
   3  -6  12   12.80    6.40
   3  -6  12    5.80    8.00
   3  -6  12  -15.90   10.60
   3  -6  12    8.00    8.30
   3  -6  12    5.50    7.90
   3  -6  12   23.30   12.70
   4   5 -12   12.60    8.80
   4   5 -12   -2.20   10.70
   4   5 -12    1.30   12.80
   4   5 -12  -16.30   11.00
   4   5 -12   13.80    8.50
   4   5 -12   15.40    9.50
   4   5 -12    4.70    8.80
   4   5 -12  -13.80   12.00
  -4  -5  12    8.70   11.20
  -4  -5  12  -18.60    7.50
  -4  -5  12  -18.10   17.70
  -4  -5  12    0.90   16.90
  -4  -5  12    1.30    7.70
  -4  -5  12   -1.90    9.60
  -4  -5  12    6.50   10.00
   3   5 -12   39.40    9.50
   3   5 -12   22.10    9.10
   3   5 -12   30.00    7.50
   3   5 -12   18.90   11.50
   3   5 -12   21.80    8.80
   3   5 -12   28.40    9.20
   3   5 -12   31.20    8.90
   3   5 -12   39.20   11.70
  -3  -5  12   44.60   17.40
  -3  -5  12   29.40    8.30
  -3  -5  12   43.60   11.20
  -3  -5  12   20.00    8.70
  -3  -5  12   10.40    8.80
  -3  -5  12   25.80    7.50
   2   5 -12  100.39   15.50
   2   5 -12   97.59   13.20
   2   5 -12   83.69   11.30
   2   5 -12   81.99   13.10
   2   5 -12   80.89   15.90
   2   5 -12   74.69   12.60
   2   5 -12   91.59   18.80
   2   5 -12  108.59   16.20
  -2  -5  12   86.79   13.00
  -2  -5  12   57.59   17.00
  -2  -5  12   79.39   13.30
  -2  -5  12  179.28   41.00
  -2  -5  12  100.19   17.70
  -2  -5  12   68.79   12.40
  -2  -5  12   52.79   15.90
   1   5 -12  131.59   16.30
   1   5 -12  156.88   16.20
   1   5 -12  128.99   14.20
   1   5 -12  155.58   17.30
   1   5 -12  137.99   18.20
   1   5 -12  128.69   16.80
   1   5 -12  133.89   16.50
   1   5 -12  127.09   20.10
  -1  -5  12  114.09   16.40
  -1  -5  12  128.99   16.50
  -1  -5  12  126.49   19.70
  -1  -5  12  106.49   15.90
  -1  -5  12  112.79   15.40
  -1  -5  12  180.98   26.90
  -1  -5  12  145.29   19.40
   0   5 -12  169.88   19.20
   0   5 -12  143.49   17.00
   0   5 -12  143.99   14.70
   0   5 -12  145.69   17.10
   0   5 -12  151.08   17.30
   0   5 -12  170.38   20.50
   0   5 -12  155.18   17.00
   0  -5  12  137.49   19.80
   0  -5  12  126.39   17.50
   0  -5  12  148.69   17.30
   0  -5  12  134.59   16.80
   0  -5  12  134.69   16.90
   0  -5  12  117.09   19.80
  -1   5 -12   58.19   10.30
  -1   5 -12   69.09   12.80
  -1   5 -12   72.59   11.10
  -1   5 -12   67.39   10.60
  -1   5 -12   60.69   12.80
  -1   5 -12   66.79   14.50
  -1   5 -12   74.09    7.00
  -1   5 -12   54.39   10.10
   1  -5  12   37.90   11.30
   1  -5  12   59.69   10.50
   1  -5  12   83.89   13.40
   1  -5  12   57.59   11.70
   1  -5  12   61.09   10.40
   1  -5  12   51.69    9.30
   1  -5  12   62.39   10.70
  -2   5 -12   19.30    7.30
  -2   5 -12   40.60    8.40
  -2   5 -12   35.30    8.50
  -2   5 -12   34.00   10.80
  -2   5 -12   39.90    9.20
  -2   5 -12   36.00    7.20
  -2   5 -12   40.20    7.50
  -2   5 -12   26.40    9.10
   2  -5  12   55.09   16.30
   2  -5  12   17.90    7.80
   2  -5  12   30.00    7.40
   2  -5  12   34.30    7.00
   2  -5  12   29.90    8.50
   2  -5  12   20.20    8.50
   2  -5  12   13.50    9.80
  -3   5 -12  120.19   15.50
  -3   5 -12  126.69   17.70
  -3   5 -12  102.49   13.60
  -3   5 -12  153.88   21.60
  -3   5 -12  124.39   18.20
  -3   5 -12   95.79   15.60
  -3   5 -12   97.69   17.80
  -3   5 -12  102.89   15.80
   3  -5  12  114.19   18.20
   3  -5  12  100.39   15.70
   3  -5  12   77.39   14.80
   3  -5  12  128.99   24.20
   3  -5  12   97.49   14.40
   3  -5  12  100.49   15.50
   3  -5  12   90.19   15.80
   3  -5  12   86.09   18.40
   4   4 -12  327.57   33.30
   4   4 -12  314.77   34.30
   4   4 -12  325.27   34.40
   4   4 -12  295.07   33.60
   4   4 -12  349.77   35.30
   4   4 -12  262.47   37.00
   4   4 -12  394.36   34.30
  -4  -4  12  261.67   34.10
  -4  -4  12  346.97   33.50
  -4  -4  12  285.47   34.70
  -4  -4  12  286.47   32.60
  -4  -4  12  378.66   37.50
   3   4 -12   42.40    8.40
   3   4 -12   43.40   12.40
   3   4 -12   29.80   10.70
   3   4 -12   34.80    9.10
   3   4 -12   38.60    8.60
   3   4 -12   57.79   10.80
   3   4 -12   43.20    8.80
   3   4 -12   64.19   12.10
  -3  -4  12   30.70    7.90
  -3  -4  12   54.79   17.10
  -3  -4  12   24.90   11.50
  -3  -4  12   42.00   11.10
  -3  -4  12   46.00    9.90
  -3  -4  12   48.80    9.70
   2   4 -12   95.79   13.60
   2   4 -12  107.79   13.30
   2   4 -12   86.19   17.50
   2   4 -12  116.09   14.20
   2   4 -12  100.49   12.20
   2   4 -12  110.19   14.40
   2   4 -12   97.09   14.10
   2   4 -12  117.39   16.00
  -2  -4  12   91.39   14.10
  -2  -4  12   93.29   14.20
  -2  -4  12   79.49   13.10
  -2  -4  12   70.79   15.30
  -2  -4  12  109.49   13.10
  -2  -4  12  135.69   20.80
   1   4 -12  548.85   54.89
   1   4 -12  656.93   55.49
   1   4 -12  592.94   54.89
   1   4 -12  551.24   53.29
   1   4 -12  668.83   57.89
   1   4 -12  583.54   54.59
  -1  -4  12  526.25   54.39
  -1  -4  12  501.05   56.39
  -1  -4  12  515.65   54.59
  -1  -4  12  535.35   54.79
  -1  -4  12  546.25   54.69
  -1  -4  12  578.74   56.89
   0   4 -12  192.98   19.90
   0   4 -12  223.68   22.20
   0   4 -12  192.08   20.20
   0   4 -12  175.48   20.10
   0   4 -12  208.18   23.30
   0   4 -12  197.08   19.90
   0   4 -12  158.88   17.80
   0  -4  12  159.48   20.20
   0  -4  12  156.38   22.50
   0  -4  12  168.98   19.70
   0  -4  12  168.78   19.60
   0  -4  12  173.28   19.90
  -1   4 -12    2.10    5.40
  -1   4 -12    0.50    7.00
  -1   4 -12    9.80    4.70
  -1   4 -12   -3.60    6.20
  -1   4 -12    3.90    6.10
  -1   4 -12    9.40    2.90
  -1   4 -12   13.20    6.30
  -1   4 -12    9.30    4.90
   1  -4  12    4.90    5.80
   1  -4  12   15.10   11.10
   1  -4  12    2.80    6.30
   1  -4  12    9.10    6.10
   1  -4  12    1.50    8.10
   1  -4  12    3.30    4.10
   1  -4  12   16.20    5.80
   1  -4  12   11.00    6.60
  -2   4 -12    0.00    5.00
  -2   4 -12    2.70    7.10
  -2   4 -12   11.70    6.60
  -2   4 -12    2.00    5.20
  -2   4 -12    1.70    2.80
  -2   4 -12   16.70    6.60
  -2   4 -12   -2.70    8.40
  -2   4 -12    6.40    5.00
  -2   4 -12   -3.80    6.60
   2  -4  12    0.60    9.20
   2  -4  12    8.10    5.60
   2  -4  12   -2.90    7.30
   2  -4  12    0.60    4.00
   2  -4  12    3.00    5.50
   2  -4  12   -0.80   12.40
   2  -4  12   -6.70    5.90
  -3   4 -12    3.30    6.50
  -3   4 -12    1.90    8.10
  -3   4 -12    3.90    3.50
  -3   4 -12    0.30    5.30
  -3   4 -12   -4.40   11.80
  -3   4 -12    2.80    6.30
  -3   4 -12   16.70    9.10
  -3   4 -12    6.10    7.60
   3  -4  12    9.60    8.70
   3  -4  12    3.40    5.50
   3  -4  12    2.20    6.90
   3  -4  12   24.00   14.00
   3  -4  12    9.90    6.80
   3  -4  12   -2.60   11.70
   3  -4  12   -0.70    8.50
   3  -4  12    4.20    7.70
   5   3 -12   16.60   12.30
   5   3 -12   11.90    9.10
   5   3 -12   -0.30   12.10
   5   3 -12   22.10   12.20
   5   3 -12   -2.30    8.20
   5   3 -12   -6.30    8.10
   5   3 -12    8.70    8.90
  -5  -3  12   18.80   21.60
  -5  -3  12   20.80   11.40
  -5  -3  12   12.00    9.70
  -5  -3  12   11.90   11.10
  -5  -3  12   20.10   16.50
  -5  -3  12   -4.70    8.30
   4   3 -12  162.68   19.50
   4   3 -12  161.18   19.40
   4   3 -12  183.88   19.40
   4   3 -12  150.38   22.80
   4   3 -12  158.68   20.60
   4   3 -12  193.68   23.00
   4   3 -12  160.58   21.10
   4   3 -12  150.38   20.10
  -4  -3  12  155.18   18.60
  -4  -3  12  188.08   29.10
  -4  -3  12  119.09   20.00
  -4  -3  12  153.48   18.60
  -4  -3  12  120.19   23.70
   3   3 -12   41.10    8.70
   3   3 -12   36.60    9.30
   3   3 -12   41.00    8.80
   3   3 -12   54.09    8.60
   3   3 -12   36.30   11.10
   3   3 -12   36.30    7.50
   3   3 -12   47.60    8.80
   3   3 -12   48.30   10.50
  -3  -3  12   61.39   16.60
  -3  -3  12   33.80   10.90
  -3  -3  12   38.30    8.60
  -3  -3  12   38.20    7.90
  -3  -3  12   39.70    8.10
  -3  -3  12   31.10    8.40
   2   3 -12  239.08   21.50
   2   3 -12  193.18   20.50
   2   3 -12  213.48   22.20
   2   3 -12  186.18   21.70
   2   3 -12  209.88   21.50
   2   3 -12  208.98   22.00
   2   3 -12  234.88   23.50
   2   3 -12  222.48   24.50
  -2  -3  12  179.48   21.60
  -2  -3  12  245.48   30.10
  -2  -3  12  171.98   23.50
  -2  -3  12  187.88   21.50
  -2  -3  12  177.38   25.50
  -2  -3  12  159.88   20.80
  -2  -3  12  165.28   21.30
   1   3 -12  332.27   32.80
   1   3 -12  305.57   31.30
   1   3 -12  297.77   30.20
   1   3 -12  289.67   28.60
   1   3 -12  287.07   29.90
   1   3 -12  316.57   29.80
   1   3 -12  319.37   29.80
   1   3 -12  330.47   30.60
  -1  -3  12  263.27   29.50
  -1  -3  12  283.97   32.20
  -1  -3  12  251.07   29.40
  -1  -3  12  291.67   31.50
  -1  -3  12  267.47   29.60
  -1  -3  12  272.97   30.00
   0   3 -12  147.29   16.00
   0   3 -12  158.58   18.60
   0   3 -12  137.79   16.90
   0   3 -12  149.99   16.50
   0   3 -12  182.58   20.10
   0   3 -12  153.98   16.10
   0   3 -12  139.29   14.60
   0  -3  12  131.69   15.90
   0  -3  12  124.39   15.60
   0  -3  12  182.08   24.60
   0  -3  12  130.59   17.70
   0  -3  12  113.79   16.00
   0  -3  12  109.39   16.60
   0  -3  12   98.89   18.60
  -1   3 -12    1.40    5.50
  -1   3 -12   10.10    8.00
  -1   3 -12   14.20    7.40
  -1   3 -12    2.70    4.60
  -1   3 -12   12.60    5.00
  -1   3 -12   -0.20    6.00
  -1   3 -12    3.50    4.70
   1  -3  12  -13.60   10.10
   1  -3  12    5.90    5.00
   1  -3  12    0.90    6.20
   1  -3  12    6.20    3.80
   1  -3  12    9.40    5.60
   1  -3  12    2.60    5.20
   1  -3  12   -0.10    5.50
   1  -3  12  -13.90    7.40
  -2   3 -12   54.59    8.40
  -2   3 -12   47.20    8.00
  -2   3 -12   74.49   14.50
  -2   3 -12   72.19   10.20
  -2   3 -12   53.99   11.00
  -2   3 -12   66.09   10.50
   2  -3  12   36.20   10.70
   2  -3  12   45.10    9.10
   2  -3  12   55.49   14.90
   2  -3  12   38.30   10.00
   2  -3  12   56.49    9.80
   2  -3  12   48.70   10.40
   2  -3  12   72.89    9.50
  -3   3 -12   94.09   13.30
  -3   3 -12   92.89   14.60
  -3   3 -12   73.39   10.30
  -3   3 -12   60.89   11.40
  -3   3 -12   69.79   10.30
  -3   3 -12   77.29   13.10
  -3   3 -12   99.29   14.40
  -3   3 -12  109.99   20.40
   3  -3  12   68.29   12.30
   3  -3  12   62.29   13.50
   3  -3  12   82.59   14.10
   3  -3  12   93.19   12.30
   3  -3  12   59.99   15.30
   3  -3  12   70.69   13.70
   3  -3  12   60.29   12.10
   3  -3  12   82.19   18.90
  -4   3 -12   -5.80    8.50
  -4   3 -12    4.90    8.90
   4  -3  12    8.80    9.30
   4  -3  12  -10.00   11.70
   4  -3  12    4.00    7.30
   5   2 -12   20.70    8.80
   5   2 -12   57.09    9.80
   5   2 -12   29.50   11.60
   5   2 -12   57.49   11.10
   5   2 -12   36.30   10.00
   5   2 -12   31.80   11.80
   5   2 -12   52.49   10.40
  -5  -2  12   39.20   10.50
  -5  -2  12   27.30    7.90
  -5  -2  12   24.70   10.70
  -5  -2  12   47.70   17.20
  -5  -2  12   33.90   14.60
  -5  -2  12   46.90    9.00
  -5  -2  12   30.40   11.40
  -5  -2  12   23.90    5.80
   4   2 -12   63.39   11.90
   4   2 -12   91.59   12.30
   4   2 -12   61.59   10.30
   4   2 -12   80.89   11.50
   4   2 -12   68.09   13.40
   4   2 -12   81.19   13.30
   4   2 -12   51.69    9.80
   4   2 -12   71.49   13.50
  -4  -2  12   42.70   10.10
  -4  -2  12   70.09   14.60
  -4  -2  12   75.19   17.60
  -4  -2  12   50.79    9.50
  -4  -2  12   65.99   11.80
  -4  -2  12   66.49   10.40
  -4  -2  12   45.80   12.70
   3   2 -12   57.49    9.80
   3   2 -12   62.19   10.50
   3   2 -12   60.29   11.70
   3   2 -12   67.99   12.60
   3   2 -12   62.29    9.50
   3   2 -12   49.30   10.00
   3   2 -12   67.89   10.70
  -3  -2  12   71.39   10.20
  -3  -2  12   67.79   12.30
  -3  -2  12   34.30    8.90
  -3  -2  12   53.99    9.50
  -3  -2  12   35.90   10.70
  -3  -2  12   51.99    8.90
  -3  -2  12   59.19   16.40
   2   2 -12   15.60    5.60
   2   2 -12   21.10    6.40
   2   2 -12   20.30    5.20
   2   2 -12   35.90    7.70
   2   2 -12   22.60    6.50
   2   2 -12   25.40    6.30
   2   2 -12   15.40    7.90
  -2  -2  12   20.50    8.00
  -2  -2  12   18.60    6.00
  -2  -2  12   12.60    5.30
  -2  -2  12   23.20    6.20
  -2  -2  12   29.90   11.60
  -2  -2  12   20.50    7.70
  -2  -2  12   27.80    6.50
   1   2 -12   -1.80    6.60
   1   2 -12    9.00    5.70
   1   2 -12    7.30    4.10
   1   2 -12    6.00    3.60
   1   2 -12   -1.70    5.20
   1   2 -12   10.60    4.50
   1   2 -12    1.00    4.50
   1   2 -12    5.30    4.30
  -1  -2  12    7.50    4.80
  -1  -2  12    2.00    3.90
  -1  -2  12   11.00    4.80
  -1  -2  12    0.20    6.80
  -1  -2  12   -0.60    4.90
  -1  -2  12   21.00   11.00
  -1  -2  12    5.40    5.10
   0   2 -12   -2.80    5.20
   0   2 -12   13.10    7.40
   0   2 -12   21.30    6.00
   0   2 -12    4.80    4.50
   0   2 -12   -4.10    4.10
   0   2 -12    2.90    5.90
   0   2 -12   10.40    4.60
   0  -2  12    5.50    5.70
   0  -2  12   -1.50    7.00
   0  -2  12    5.70    4.00
   0  -2  12    7.70    5.20
   0  -2  12   14.50    6.20
   0  -2  12    0.90    9.50
   0  -2  12    6.60    4.70
  -1   2 -12    9.90    5.10
  -1   2 -12    4.70    5.90
  -1   2 -12    6.90    4.50
  -1   2 -12   12.70    7.20
  -1   2 -12    6.60    8.00
  -1   2 -12    5.30    5.50
   1  -2  12   -0.10    5.90
   1  -2  12    6.10    6.00
   1  -2  12   -0.40    4.30
   1  -2  12   -0.30    5.60
   1  -2  12    5.60    4.00
   1  -2  12   13.50   10.90
   1  -2  12    4.30    5.20
   1  -2  12   -1.90    8.30
  -2   2 -12   -1.70    3.80
  -2   2 -12   11.30    7.90
  -2   2 -12    2.50    7.20
  -2   2 -12    0.40    7.50
  -2   2 -12    8.80    9.80
  -2   2 -12   -2.50    4.20
  -2   2 -12   -0.20    5.70
  -2   2 -12    3.40    5.30
   2  -2  12   18.30   12.80
   2  -2  12    7.00    5.60
   2  -2  12   -5.80    7.20
   2  -2  12   -5.00   10.80
   2  -2  12   -3.60    9.70
   2  -2  12   -0.30    4.10
   2  -2  12    0.20    5.20
   2  -2  12    3.60    6.60
  -3   2 -12  152.78   14.90
  -3   2 -12  162.18   18.60
  -3   2 -12  148.69   17.90
  -3   2 -12  158.98   27.00
  -3   2 -12  168.98   21.40
  -3   2 -12  124.39   17.10
  -3   2 -12  124.29   16.60
  -3   2 -12  109.49   19.90
  -3   2 -12  132.79   17.80
   3  -2  12  117.29   17.70
   3  -2  12  131.19   19.80
   3  -2  12  101.39   24.80
   3  -2  12  127.19   16.10
   3  -2  12  148.29   19.30
   3  -2  12   96.29   18.10
   3  -2  12  118.59   17.20
   3  -2  12   94.99   20.30
   5   1 -12  138.39   19.10
   5   1 -12  172.78   19.40
   5   1 -12  167.68   20.30
   5   1 -12  141.49   18.70
   5   1 -12  110.59   20.10
   5   1 -12  144.99   18.50
   5   1 -12  156.98   17.90
  -5  -1  12  113.89   19.20
  -5  -1  12  158.28   30.90
  -5  -1  12  175.38   21.10
  -5  -1  12  111.29   14.70
  -5  -1  12  137.59   17.30
  -5  -1  12  119.19   24.50
   4   1 -12  112.69   15.10
   4   1 -12  129.99   14.40
   4   1 -12  144.79   16.80
   4   1 -12  125.29   14.70
   4   1 -12  116.99   17.40
   4   1 -12  133.19   15.20
   4   1 -12  146.19   15.90
  -4  -1  12   97.29   14.20
  -4  -1  12  123.39   24.80
  -4  -1  12  101.89   15.90
  -4  -1  12  103.99   16.00
  -4  -1  12   98.89   17.90
  -4  -1  12  138.99   20.10
  -4  -1  12   93.19   12.20
   3   1 -12   28.30    7.60
   3   1 -12   30.50    6.50
   3   1 -12   23.40    5.80
   3   1 -12   19.00    6.00
   3   1 -12   28.10    6.70
   3   1 -12   33.20    7.40
   3   1 -12   21.90    7.90
   3   1 -12   35.90    7.70
  -3  -1  12   25.60    8.20
  -3  -1  12   25.90    6.80
  -3  -1  12   29.90    4.30
  -3  -1  12   19.80    5.90
  -3  -1  12   25.00    8.40
  -3  -1  12   29.10   11.80
  -3  -1  12   15.80    7.10
  -3  -1  12   30.20    6.70
   2   1 -12  896.81   89.19
   2   1 -12  912.21   80.09
   2   1 -12  897.31   80.59
   2   1 -12  933.31   80.59
   2   1 -12  929.11   80.69
   2   1 -12  882.91   79.79
   2   1 -12  931.61   81.59
   2   1 -12  889.71   80.19
  -2  -1  12  712.23   79.69
  -2  -1  12  804.72   79.99
  -2  -1  12  762.82   81.29
  -2  -1  12  895.21   86.39
  -2  -1  12  738.63   80.19
  -2  -1  12  710.23   81.69
   1   1 -12   93.69   13.90
   1   1 -12   82.59   11.20
   1   1 -12   66.89    9.80
   1   1 -12   74.19   10.00
   1   1 -12   68.19    9.80
   1   1 -12   74.29   10.60
   1   1 -12   60.49    9.50
   1   1 -12   79.79   11.90
  -1  -1  12   69.39    9.70
  -1  -1  12   55.59   12.10
  -1  -1  12   75.79   11.60
  -1  -1  12   61.09   15.80
  -1  -1  12   53.19   10.10
  -1  -1  12   64.59    9.90
  -1  -1  12   42.90    9.40
   0   1 -12   12.40    5.10
   0   1 -12   19.10    7.10
   0   1 -12   20.70    5.60
   0   1 -12   27.10    9.10
   0   1 -12   41.20   15.30
   0   1 -12   16.20    6.00
   0   1 -12   19.00    6.30
   0   1 -12   20.70    5.80
   0  -1  12    9.40    5.50
   0  -1  12    4.50    4.80
   0  -1  12    8.70    8.40
   0  -1  12   15.10    5.70
   0  -1  12   28.70    6.90
   0  -1  12   11.70   11.50
  -1   1 -12   -1.70    4.40
  -1   1 -12    3.70   12.60
  -1   1 -12    9.10    5.00
  -1   1 -12   12.70    6.90
  -1   1 -12    5.10    5.30
  -1   1 -12    6.10    5.90
  -1   1 -12    3.70    7.80
  -1   1 -12    7.20    5.20
   1  -1  12   -1.00    8.20
   1  -1  12    1.50    6.70
   1  -1  12    1.60    4.70
   1  -1  12   -0.60    5.60
   1  -1  12    2.40    5.00
   1  -1  12    9.80   11.80
   1  -1  12   12.30    5.70
   1  -1  12    5.20    4.20
  -2   1 -12  134.39   16.50
  -2   1 -12  137.19   18.90
  -2   1 -12  126.09   16.10
  -2   1 -12  132.89   16.90
  -2   1 -12  131.09   13.60
  -2   1 -12  150.18   19.30
  -2   1 -12  160.58   22.90
  -2   1 -12  157.58   17.20
   2  -1  12  135.09   15.40
   2  -1  12  121.39   16.30
   2  -1  12   87.89   16.80
   2  -1  12   81.89   22.00
   2  -1  12  129.19   17.70
   2  -1  12  124.09   15.80
  -3   1 -12   42.60   17.30
  -3   1 -12   24.10    9.70
  -3   1 -12   33.40    8.00
  -3   1 -12   26.60   11.50
  -3   1 -12   50.39    9.30
  -3   1 -12   55.59   13.00
  -3   1 -12   31.00    6.70
  -3   1 -12   27.30    9.20
  -3   1 -12   38.00   10.00
   3  -1  12   42.10   10.90
   3  -1  12   25.40   14.00
   3  -1  12   24.70   18.20
   3  -1  12   45.00   10.50
   3  -1  12   37.20    9.50
   3  -1  12   51.49   12.40
   3  -1  12   30.30    9.10
   3  -1  12   45.00    8.60
   5   0 -12   11.40    8.00
   5   0 -12    0.60    6.10
   5   0 -12   -1.80    5.30
   5   0 -12   -7.50    7.30
   5   0 -12    3.10    6.80
   5   0 -12   10.60    6.90
   5   0 -12   16.60    6.20
  -5   0  12    8.90    7.90
  -5   0  12   13.10    6.50
  -5   0  12   20.30   10.90
  -5   0  12    9.20    6.60
  -5   0  12    0.20    4.10
  -5   0  12   16.20    9.10
  -5   0  12  -14.10   15.20
  -5   0  12    4.60    5.50
   4   0 -12    4.90    4.50
   4   0 -12    4.50    6.70
   4   0 -12   10.10    7.30
   4   0 -12    6.80    5.40
   4   0 -12    0.70    5.40
   4   0 -12    2.50    4.40
   4   0 -12   -0.90    5.90
   4   0 -12   -2.50    5.70
  -4   0  12    0.20    5.10
  -4   0  12    3.60   13.60
  -4   0  12    3.70    7.60
  -4   0  12   -2.00    6.00
  -4   0  12    2.30    4.90
  -4   0  12    0.50    3.30
  -4   0  12   10.20    5.60
  -4   0  12    4.10   13.50
   3   0 -12   23.70    5.70
   3   0 -12   23.60    6.60
   3   0 -12   24.20    6.10
   3   0 -12   19.50    7.10
   3   0 -12   24.20    6.00
   3   0 -12   50.79   15.50
   3   0 -12   19.30    6.30
   3   0 -12   25.10    5.50
   3   0 -12   12.10    7.20
  -3   0  12   21.60    6.00
  -3   0  12   21.70   10.70
  -3   0  12   17.60    3.70
  -3   0  12   10.30    5.90
  -3   0  12   20.10    7.50
  -3   0  12   12.00    5.30
  -3   0  12   18.90    5.70
  -3   0  12   19.70    8.10
   2   0 -12   22.80    5.10
   2   0 -12   19.00    7.90
   2   0 -12   28.10    5.80
   2   0 -12   13.00    5.00
   2   0 -12   14.00    6.10
   2   0 -12   24.20    5.90
   2   0 -12   21.30    5.40
   2   0 -12   19.60    6.30
   2   0 -12   35.30   14.20
  -2   0  12   13.90    5.20
  -2   0  12   13.00    4.90
  -2   0  12   16.40    7.60
  -2   0  12   14.00    5.80
  -2   0  12   12.20    4.80
  -2   0  12   21.10    6.70
  -2   0  12   17.10   11.20
   1   0 -12   19.60    7.70
   1   0 -12   28.10   14.50
   1   0 -12   12.60    6.00
   1   0 -12   21.30    5.90
   1   0 -12   13.10    4.80
   1   0 -12   16.70    4.90
   1   0 -12   15.50    5.50
   1   0 -12   22.00    6.30
  -1   0  12   10.20    5.40
  -1   0  12   18.80    5.70
  -1   0  12   14.60    5.90
  -1   0  12   -1.60    7.50
  -1   0  12    9.40   10.80
  -1   0  12   12.10    4.30
   0   0 -12    4.90    4.40
   0   0 -12    1.60    5.30
   0   0 -12    7.40    4.30
   0   0 -12    9.00    5.00
   0   0 -12    3.00    5.80
   0   0 -12    3.30    5.10
   0   0 -12    0.70   12.20
   0   0 -12    8.80    7.60
   0   0  12    9.20   11.00
   0   0  12    7.70    3.80
   0   0  12    6.20    5.50
   0   0  12    0.30    4.80
   0   0  12    3.20    6.10
   0   0  12    7.60    5.00
  -1   0 -12    7.10    6.20
  -1   0 -12   -0.10    5.20
  -1   0 -12    0.50    4.40
  -1   0 -12   -5.60    6.60
  -1   0 -12   -0.70    8.90
  -1   0 -12    5.10    5.10
  -1   0 -12    5.80   12.40
  -1   0 -12   -2.20    6.50
   1   0  12   -3.70    3.90
   1   0  12   -4.70    4.80
   1   0  12    1.40   11.00
   1   0  12    1.40    6.60
   1   0  12    5.30    6.20
   1   0  12    1.00    5.30
   1   0  12   -5.80    4.40
   1   0  12  -10.10   10.70
  -2   0 -12  335.57   32.60
  -2   0 -12  312.57   27.20
  -2   0 -12  241.88   31.40
  -2   0 -12  319.77   36.60
  -2   0 -12  318.47   30.70
  -2   0 -12  284.37   29.40
   2   0  12  264.27   29.00
   2   0  12  218.78   30.80
   2   0  12  297.57   28.90
   2   0  12  285.67   31.10
   2   0  12  288.87   29.60
   2   0  12  264.07   38.30
   2   0  12  213.18   30.30
  -3   0 -12   15.10    5.80
  -3   0 -12   27.80   12.40
  -3   0 -12   54.29   22.00
  -3   0 -12    8.70   17.00
  -3   0 -12   12.40    7.90
  -3   0 -12   25.30   11.00
  -3   0 -12   25.50    8.70
  -3   0 -12   37.60   10.30
  -3   0 -12   39.50   10.20
  -3   0 -12   19.50    8.00
   3   0  12   14.60   11.70
   3   0  12   12.50    8.60
   3   0  12   27.30    8.80
   3   0  12   30.00    7.70
   3   0  12   15.40   11.30
   3   0  12   51.49   16.20
   3   0  12   22.60   18.50
   3   0  12    8.90    9.30
   5  -1 -12  147.19   18.90
   5  -1 -12  157.68   15.30
   5  -1 -12  104.49   17.40
   5  -1 -12  156.68   17.60
   5  -1 -12  156.48   16.30
   5  -1 -12  131.69   15.70
  -5   1  12  124.59   13.60
  -5   1  12  112.19   16.90
  -5   1  12   90.99   14.00
  -5   1  12  133.39   16.80
  -5   1  12  107.19   13.70
  -5   1  12  112.89   18.80
  -5   1  12   82.59   24.60
   4  -1 -12   51.39   11.00
   4  -1 -12   56.49   10.40
   4  -1 -12   97.79   20.10
   4  -1 -12   51.29    8.50
   4  -1 -12   64.19   10.00
   4  -1 -12   51.39    8.20
   4  -1 -12   63.19   10.10
   4  -1 -12   71.49   10.20
   4  -1 -12   60.09    9.70
  -4   1  12   43.50   17.60
  -4   1  12   45.60    8.70
  -4   1  12   44.30   11.80
  -4   1  12   44.20   11.10
  -4   1  12   50.79    7.10
  -4   1  12   41.20    9.00
  -4   1  12   47.00    8.00
   3  -1 -12  131.89   13.90
   3  -1 -12  106.89   14.30
   3  -1 -12  108.59   14.40
   3  -1 -12  102.69   13.20
   3  -1 -12  121.39   13.30
   3  -1 -12  103.09   13.40
   3  -1 -12  111.49   12.40
   3  -1 -12  108.99   15.30
  -3   1  12   93.99   12.60
  -3   1  12  102.09   15.70
  -3   1  12   82.69   19.50
  -3   1  12   87.69   12.40
  -3   1  12   82.79   12.60
   2  -1 -12  380.36   36.70
   2  -1 -12  441.56   37.20
   2  -1 -12  359.46   36.10
   2  -1 -12  444.86   37.30
   2  -1 -12  431.56   37.40
   2  -1 -12  398.16   37.90
  -2   1  12  299.27   36.20
  -2   1  12  356.06   36.10
  -2   1  12  362.86   36.30
  -2   1  12  311.37   42.60
  -2   1  12  365.66   37.60
  -2   1  12  294.97   36.80
   1  -1 -12   66.29   10.80
   1  -1 -12   52.89    9.30
   1  -1 -12   85.69   11.00
   1  -1 -12   88.09   11.00
   1  -1 -12   54.19   11.00
   1  -1 -12   59.99    9.30
  -1   1  12   60.99   10.60
  -1   1  12   68.49   16.10
  -1   1  12   58.49    9.40
  -1   1  12   64.29    9.10
  -1   1  12   47.10   10.10
  -1   1  12   69.39   11.60
  -1   1  12   34.00   11.20
   0  -1 -12   -0.10    4.90
   0  -1 -12    7.80    6.50
   0  -1 -12   -4.20    3.80
   0  -1 -12    6.10    5.40
   0  -1 -12   -0.40    5.00
   0  -1 -12    4.50    6.00
   0  -1 -12   -5.20   12.90
   0   1  12   -1.40   11.40
   0   1  12    8.30    6.50
   0   1  12    5.40    4.80
   0   1  12    7.70    8.90
   0   1  12   15.00    5.10
   0   1  12   -7.50    5.40
   0   1  12   11.00    4.30
  -1  -1 -12  172.78   15.30
  -1  -1 -12  199.38   19.90
  -1  -1 -12  124.29   20.10
  -1  -1 -12  143.29   18.80
  -1  -1 -12  148.49   17.70
  -1  -1 -12  194.08   20.70
  -1  -1 -12  150.38   17.90
  -1  -1 -12  120.79   25.30
   1   1  12  160.68   27.40
   1   1  12  168.38   19.70
   1   1  12  145.59   18.10
   1   1  12  131.89   17.40
   1   1  12  111.49   18.80
   1   1  12  163.78   17.50
  -2  -1 -12   38.10    9.40
  -2  -1 -12   43.80   16.70
  -2  -1 -12   22.40   10.20
  -2  -1 -12   46.20   12.20
  -2  -1 -12   57.39   10.90
  -2  -1 -12   47.30    9.10
  -2  -1 -12   49.10    6.80
  -2  -1 -12   31.20    9.40
   2   1  12   26.80    7.80
   2   1  12   17.70   10.00
   2   1  12   27.10   11.10
   2   1  12   32.80   17.30
   2   1  12   38.00   10.30
   2   1  12   32.40    8.80
   2   1  12    7.90   11.40
   2   1  12   45.70    8.10
  -3  -1 -12  172.38   29.40
  -3  -1 -12  111.19   18.00
  -3  -1 -12  113.19   18.10
  -3  -1 -12  156.08   21.70
  -3  -1 -12  121.29   21.00
  -3  -1 -12  107.39   18.00
  -3  -1 -12  105.19   19.60
   3   1  12  108.19   18.20
   3   1  12  107.09   19.20
   3   1  12   73.19   22.60
   3   1  12  101.89   22.30
   3   1  12  144.99   17.50
   3   1  12  148.49   21.40
   3   1  12   99.19   25.30
   3   1  12  144.69   19.50
   5  -2 -12   39.10    8.60
   5  -2 -12   30.10    8.70
   5  -2 -12   71.29   20.80
   5  -2 -12   33.80    8.60
   5  -2 -12   35.50    9.40
   5  -2 -12   38.20    6.80
   5  -2 -12   33.40    7.00
   5  -2 -12   37.70    8.00
  -5   2  12   10.30    9.40
  -5   2  12   25.00   20.80
  -5   2  12   24.60    5.90
  -5   2  12   38.00    8.60
  -5   2  12   22.30    9.80
  -5   2  12   25.40    8.00
   4  -2 -12   46.70    8.80
   4  -2 -12   48.50    8.40
   4  -2 -12   66.99   19.20
   4  -2 -12   35.70    8.60
   4  -2 -12   45.60    8.20
   4  -2 -12   34.10    6.80
   4  -2 -12   33.20    7.50
   4  -2 -12   37.90    7.90
   4  -2 -12   35.90    6.20
  -4   2  12   26.70    5.60
  -4   2  12   27.90   11.60
  -4   2  12   21.20    5.20
  -4   2  12   40.60    6.60
  -4   2  12   35.70    7.20
  -4   2  12   15.70    8.10
  -4   2  12   31.10    8.00
  -4   2  12    7.90   16.40
   3  -2 -12   35.00    7.50
   3  -2 -12   40.70    7.30
   3  -2 -12   40.50    8.40
   3  -2 -12   39.00    7.70
   3  -2 -12   48.20    9.10
   3  -2 -12   29.50    7.60
   3  -2 -12   42.40    6.40
  -3   2  12   22.10    5.50
  -3   2  12   35.30    8.00
  -3   2  12   38.90    8.30
  -3   2  12   41.20    7.00
  -3   2  12   24.00    8.60
  -3   2  12   24.50    6.30
   2  -2 -12   25.00    6.50
   2  -2 -12   40.40   16.40
   2  -2 -12   23.40    6.10
   2  -2 -12   18.80    6.20
   2  -2 -12   28.70    6.50
   2  -2 -12   19.80    6.30
   2  -2 -12   15.70    4.80
   2  -2 -12   40.50    9.50
  -2   2  12   20.70    6.80
  -2   2  12    9.00    6.20
  -2   2  12   21.80    6.00
  -2   2  12   26.90    5.20
  -2   2  12   16.30    5.20
   1  -2 -12   -5.70    7.20
   1  -2 -12    1.70    5.20
   1  -2 -12    4.60    5.60
   1  -2 -12   11.30   11.30
   1  -2 -12    5.80    4.30
   1  -2 -12    3.70    5.60
   1  -2 -12   -9.10    5.10
  -1   2  12    4.20    4.10
  -1   2  12    3.70   13.00
  -1   2  12    0.00    5.00
  -1   2  12    0.10    5.90
  -1   2  12   -5.60    4.00
  -1   2  12    2.60    8.20
   0  -2 -12   -3.00    9.20
   0  -2 -12   -9.30    5.70
   0  -2 -12   -4.20    6.10
   0  -2 -12   -6.20    6.10
   0  -2 -12   16.40   14.80
   0  -2 -12   -3.20    4.60
   0  -2 -12   -0.20    6.10
   0  -2 -12   -2.90    4.20
   0   2  12   -4.90    6.60
   0   2  12   -4.40    8.70
   0   2  12    0.30    4.60
   0   2  12   14.20   13.90
   0   2  12   -4.90    4.30
   0   2  12   -4.00    6.40
   0   2  12   -5.60    5.50
  -1  -2 -12  136.39   17.70
  -1  -2 -12  173.88   19.90
  -1  -2 -12  114.99   16.10
  -1  -2 -12  116.09   19.10
  -1  -2 -12  185.78   26.00
  -1  -2 -12  167.68   18.20
  -1  -2 -12  133.79   15.90
   1   2  12  132.19   16.70
   1   2  12   78.89   19.70
   1   2  12  115.49   15.80
   1   2  12  108.09   25.50
   1   2  12  148.89   18.40
   1   2  12   94.79   19.90
   1   2  12  112.99   18.30
   1   2  12  139.69   15.80
  -2  -2 -12  105.49   22.00
  -2  -2 -12   75.99   15.90
  -2  -2 -12  108.99   18.00
  -2  -2 -12   83.79   14.80
  -2  -2 -12  129.19   20.50
  -2  -2 -12  108.19   14.40
  -2  -2 -12   93.69   15.10
  -2  -2 -12   99.69   15.10
   2   2  12  117.29   18.40
   2   2  12   66.39   14.80
   2   2  12   89.59   13.20
   2   2  12   76.09   13.30
   2   2  12   96.29   14.00
   2   2  12   65.89   15.30
   5  -3 -12   -2.70    7.40
   5  -3 -12    1.90    6.80
   5  -3 -12    9.20    5.10
   5  -3 -12   -8.40   17.40
   5  -3 -12    4.10    6.20
   5  -3 -12    7.90    7.30
   5  -3 -12   -0.10    4.30
   5  -3 -12   -9.40    6.20
  -5   3  12   -5.40    6.10
  -5   3  12    7.00    9.00
  -5   3  12    0.80    6.60
  -5   3  12    1.40    4.40
  -5   3  12   -3.70    8.50
  -5   3  12   54.49   44.00
   4  -3 -12  230.48   22.70
   4  -3 -12  253.07   24.20
   4  -3 -12  201.48   22.00
   4  -3 -12  259.27   25.00
   4  -3 -12  257.47   23.70
   4  -3 -12  244.88   25.00
   4  -3 -12  228.18   23.90
   4  -3 -12  195.98   24.00
  -4   3  12  183.08   22.70
  -4   3  12  189.88   37.60
  -4   3  12  200.88   24.60
  -4   3  12  172.68   21.30
   3  -3 -12    3.70    5.50
   3  -3 -12  -14.90   13.70
   3  -3 -12    1.20    5.40
   3  -3 -12    6.00    4.80
   3  -3 -12    5.10    4.20
   3  -3 -12   -0.90    6.50
   3  -3 -12   -0.60    5.30
   3  -3 -12    7.10    5.50
   3  -3 -12   -4.00    5.40
  -3   3  12    7.40   15.90
  -3   3  12   -9.50    5.50
  -3   3  12    3.90    3.30
  -3   3  12   -6.60    4.10
  -3   3  12    5.70    8.90
  -3   3  12   -2.10    3.80
   2  -3 -12  130.39   14.80
   2  -3 -12  134.99   15.30
   2  -3 -12  105.79   14.70
   2  -3 -12   99.69   13.40
   2  -3 -12  125.79   15.00
  -2   3  12  123.49   13.40
  -2   3  12   78.19   20.30
  -2   3  12  134.29   15.60
  -2   3  12   91.89   14.00
  -2   3  12   94.19   15.00
  -2   3  12  102.29   12.80
   1  -3 -12  334.67   36.90
   1  -3 -12  383.86   38.20
   1  -3 -12  415.26   36.80
   1  -3 -12  337.97   38.40
  -1   3  12  418.56   37.00
  -1   3  12  400.06   37.00
  -1   3  12  440.36   39.00
  -1   3  12  308.77   39.60
  -1   3  12  297.57   44.70
   0  -3 -12    9.60   10.60
   0  -3 -12    0.20    5.20
   0  -3 -12  -11.20    6.60
   0  -3 -12    4.90    7.50
   0  -3 -12   -3.00    5.10
   0  -3 -12   14.70   15.90
   0  -3 -12    3.00    6.90
   0   3  12   -6.80    6.80
   0   3  12    6.20   10.50
   0   3  12    6.60    7.90
   0   3  12    0.90    5.40
   0   3  12   -5.50    6.30
   0   3  12    7.80    6.50
  -1  -3 -12  -15.40   16.00
  -1  -3 -12    3.80    6.10
  -1  -3 -12   16.20    9.90
  -1  -3 -12   20.30   14.60
  -1  -3 -12   -9.10    8.00
  -1  -3 -12   13.50    7.90
  -1  -3 -12    9.10    5.90
  -1  -3 -12    4.80    8.40
   1   3  12   12.30    8.30
   1   3  12   -6.70    5.80
   1   3  12    7.40    6.70
   1   3  12    3.70    5.70
   1   3  12   14.10    9.10
   1   3  12   17.10   18.80
  -2  -3 -12   -0.20    7.40
  -2  -3 -12   22.00   11.00
  -2  -3 -12    9.10    8.70
  -2  -3 -12   19.40   11.90
  -2  -3 -12   32.40   12.20
  -2  -3 -12   32.50   12.90
  -2  -3 -12   19.90    9.70
  -2  -3 -12  -14.30   21.40
  -2  -3 -12   14.40   19.50
   2   3  12   19.00   11.20
   2   3  12    3.70   22.30
   2   3  12   -3.90    8.30
   2   3  12    8.60   16.50
   2   3  12    6.80   11.20
   2   3  12    7.50    7.90
   2   3  12   12.70   12.20
   2   3  12   15.60    7.60
   5  -4 -12    5.10    7.50
   5  -4 -12   -5.20    7.20
   5  -4 -12   10.20    5.10
   5  -4 -12   -4.60    6.20
   5  -4 -12    0.70    4.60
   5  -4 -12   15.90   20.90
   5  -4 -12    6.40    6.20
   5  -4 -12  -17.90    7.80
  -5   4  12    9.30    9.60
  -5   4  12   -3.90    6.60
  -5   4  12   10.90    5.40
  -5   4  12    2.40    7.10
  -5   4  12  -18.20   24.10
  -5   4  12   11.90    8.70
   4  -4 -12  113.09   12.70
   4  -4 -12   81.49   11.60
   4  -4 -12   94.99   13.90
   4  -4 -12  108.29   14.80
   4  -4 -12   81.39   13.90
   4  -4 -12  114.49   15.60
   4  -4 -12  104.59   14.70
  -4   4  12   74.19   13.80
  -4   4  12   79.39   26.90
  -4   4  12   85.09   12.90
  -4   4  12   80.49   11.10
  -4   4  12   90.79   15.10
   3  -4 -12   91.59   12.60
   3  -4 -12   97.09   12.90
   3  -4 -12   76.49   16.90
   3  -4 -12  103.49   13.80
   3  -4 -12   83.59   13.30
   3  -4 -12   65.89   11.20
   3  -4 -12  115.49   15.60
  -3   4  12   92.09   13.90
  -3   4  12   68.29   24.40
  -3   4  12   86.69   11.90
   2  -4 -12   26.70    6.20
   2  -4 -12   46.80   11.20
   2  -4 -12   29.80    8.60
   2  -4 -12   31.20    7.80
   2  -4 -12   25.40    5.90
   2  -4 -12   52.19   18.20
   2  -4 -12   22.30    7.00
   2  -4 -12   28.40    8.20
  -2   4  12   12.60    6.10
  -2   4  12   19.00   12.20
  -2   4  12   29.40    5.40
  -2   4  12   20.00   20.00
  -2   4  12   27.20    6.10
  -2   4  12    7.50    9.10
  -2   4  12   25.40    8.50
   1  -4 -12   41.10    9.60
   1  -4 -12   25.00    5.70
   1  -4 -12   21.80    7.60
   1  -4 -12   18.50    8.10
   1  -4 -12   27.20   16.00
   1  -4 -12   16.10    5.70
   1  -4 -12   18.00   10.50
   1  -4 -12   29.30   12.10
  -1   4  12   11.50    5.50
  -1   4  12   18.80    6.00
  -1   4  12   10.10    7.80
  -1   4  12   18.00   19.00
  -1   4  12   13.40    7.30
  -1   4  12   16.70   11.40
  -1   4  12   12.60    7.00
   0  -4 -12  147.49   20.00
   0  -4 -12   89.39   16.80
   0  -4 -12  117.69   13.60
   0  -4 -12   96.09   15.10
   0  -4 -12  119.49   17.10
   0  -4 -12  158.28   25.40
   0  -4 -12  104.09   18.00
   0   4  12  112.09   15.90
   0   4  12   74.89   17.60
   0   4  12  146.69   18.20
   0   4  12   71.09   14.70
   0   4  12  117.79   28.20
   0   4  12  121.69   15.20
   0   4  12   77.99   14.50
  -1  -4 -12   68.49   13.00
  -1  -4 -12   99.49   22.10
  -1  -4 -12  105.49   28.60
  -1  -4 -12   58.49   11.10
  -1  -4 -12   71.79   11.70
  -1  -4 -12   99.69   17.00
  -1  -4 -12   52.99   13.40
  -1  -4 -12   54.89   13.60
   1   4  12   40.80   13.20
   1   4  12   65.49   11.50
   1   4  12  105.29   27.50
   1   4  12   61.09   11.70
   1   4  12   98.59   17.40
   1   4  12   45.70   12.70
   1   4  12   33.90   17.50
   4  -5 -12   -2.30   20.30
   4  -5 -12    7.00    7.30
   4  -5 -12    1.30    7.00
   4  -5 -12    3.20    7.30
   4  -5 -12   -6.30    8.00
   4  -5 -12    1.80    4.50
   4  -5 -12    1.00    6.30
   4  -5 -12    5.50    5.30
   4  -5 -12    2.10    7.30
  -4   5  12   -5.20    7.30
  -4   5  12    1.50    5.70
  -4   5  12  -27.50   26.40
  -4   5  12  -10.20    9.70
  -4   5  12   -3.80    7.60
   3  -5 -12   22.90    8.10
   3  -5 -12   23.90    6.90
   3  -5 -12   10.70    7.10
   3  -5 -12   47.80    9.60
   3  -5 -12   19.80   22.50
   3  -5 -12   30.40    6.30
   3  -5 -12   23.00    7.40
   3  -5 -12   35.70    9.80
  -3   5  12   25.40    6.80
  -3   5  12   30.70   23.20
  -3   5  12   19.60    7.60
   2  -5 -12  274.07   23.20
   2  -5 -12  208.58   25.60
   2  -5 -12  221.78   23.70
  -2   5  12  225.58   37.50
  -2   5  12  198.68   22.40
  -2   5  12  241.28   22.10
  -2   5  12  167.78   25.60
   1  -5 -12   29.50   10.10
   1  -5 -12    9.80    8.90
   1  -5 -12   14.20   12.50
   1  -5 -12   11.60    7.60
   1  -5 -12   12.30   20.10
   1  -5 -12   15.90    9.50
   1  -5 -12   12.50    4.80
   1  -5 -12    5.80    6.20
  -1   5  12   15.30    9.10
  -1   5  12   16.20    8.10
  -1   5  12   12.30    5.80
  -1   5  12   -1.70   17.00
  -1   5  12   24.50    9.80
  -1   5  12   29.80   12.30
  -1   5  12   13.70    6.40
   0  -5 -12    3.60   10.30
   0  -5 -12   -9.20    9.10
   0  -5 -12   11.10    7.30
   0  -5 -12   -5.50    4.90
   0  -5 -12  -17.40   20.10
   0  -5 -12    3.50   15.80
   0  -5 -12   16.50    9.70
   0  -5 -12   -7.30   11.10
   0   5  12    7.70    9.50
   0   5  12  -13.70   22.40
   0   5  12   -3.30    7.00
   0   5  12    9.30   10.10
   0   5  12    0.80   14.00
   0   5  12   -2.30    7.00
   0   5  12   13.20    9.60
   3  -6 -12   38.90   11.90
   3  -6 -12   24.50    8.40
   3  -6 -12   38.00    6.80
   3  -6 -12   34.80    8.60
   3  -6 -12   19.00   10.00
   3  -6 -12   17.60    9.90
   3  -6 -12   49.40   26.40
   3  -6 -12   17.10    6.50
  -3   6  12   22.40    8.90
  -3   6  12   26.30    7.70
   2  -6 -12  201.98   24.60
   2  -6 -12  264.97   31.40
   2  -6 -12  162.68   21.80
   2  -6 -12  188.38   20.20
   2  -6 -12  248.08   26.60
   2  -6 -12  259.27   46.00
   2  -6 -12  171.48   25.20
  -2   6  12  146.99   24.90
  -2   6  12  223.58   22.50
  -2   6  12  195.68   24.30
   1  -6 -12   34.40    9.30
   1  -6 -12   66.39   12.70
   1  -6 -12   66.69   13.60
   1  -6 -12   37.70   13.40
   1  -6 -12   43.00    6.80
   1  -6 -12   50.19   26.80
   1  -6 -12   91.09   20.10
   1  -6 -12   37.60   11.50
  -1   6  12   38.30    8.00
  -1   6  12   50.59   10.10
  -1   6  12   51.99   20.10
  -1   6  12   46.70    9.60
   2   7 -13   83.19   14.20
   2   7 -13   76.49   16.50
   2   7 -13   70.99   13.50
   2   7 -13   37.50   12.30
   2   7 -13   69.79   14.20
   2   7 -13   60.09   14.30
   2   7 -13   65.49   20.50
  -2  -7  13   65.59   19.30
  -2  -7  13   56.69   15.50
  -2  -7  13   80.59   14.40
  -2  -7  13   60.29   13.70
  -2  -7  13   82.19   13.30
   1   7 -13   91.99   15.50
   1   7 -13   54.39    9.00
   1   7 -13   66.79   12.50
   1   7 -13   87.29   19.00
   1   7 -13   63.99   12.40
   1   7 -13   82.39   13.70
   1   7 -13   49.80   12.20
   1   7 -13   63.29   11.40
  -1  -7  13   49.90   12.10
  -1  -7  13   85.29   14.00
  -1  -7  13   78.79   15.50
  -1  -7  13   68.69   13.10
  -1  -7  13   57.19   16.00
   0   7 -13   -7.60    9.30
   0   7 -13   10.50    7.90
   0   7 -13   39.70   16.60
   0   7 -13   14.70   12.80
   0   7 -13    7.10    9.40
   0   7 -13   -4.00    7.00
   0   7 -13    8.60    7.80
   0  -7  13    9.30   11.40
   0  -7  13   -3.90    7.40
   0  -7  13   13.10   10.70
   0  -7  13    1.30    8.20
   0  -7  13   -3.90   18.20
   0  -7  13   21.90    7.90
   0  -7  13   -2.70    7.60
  -1   7 -13   -5.50    7.50
  -1   7 -13    3.50    8.00
  -1   7 -13   14.70    8.00
  -1   7 -13    7.90    9.90
  -1   7 -13    2.50    8.90
  -1   7 -13  -13.30   12.00
  -1   7 -13    6.40    9.30
   1  -7  13    1.60    7.70
   1  -7  13   -9.80    8.50
   1  -7  13    0.80   11.60
   1  -7  13   12.80    7.30
   1  -7  13    4.70   10.30
   1  -7  13    1.60    8.40
   1  -7  13  -19.30   18.20
  -2   7 -13   99.09   17.80
  -2   7 -13  102.19   17.70
  -2   7 -13  154.18   18.00
   2  -7  13  117.39   17.40
   2  -7  13  135.69   18.60
   2  -7  13  147.19   23.80
   2  -7  13   84.69   14.80
   2  -7  13  115.59   18.30
   2  -7  13  100.99   20.50
   3   6 -13   15.10   10.60
   3   6 -13   15.00    8.20
   3   6 -13    5.40   14.80
   3   6 -13   -7.40    8.90
   3   6 -13   21.30   10.50
   3   6 -13   17.20   10.30
  -3  -6  13   14.40   17.10
  -3  -6  13    7.40   20.00
  -3  -6  13   -3.50    8.70
  -3  -6  13  -18.00   13.90
  -3  -6  13   -2.60    9.60
  -3  -6  13   -4.20   10.70
   2   6 -13  178.58   24.00
   2   6 -13  180.38   29.70
   2   6 -13  205.78   21.80
   2   6 -13  224.88   25.10
   2   6 -13  204.28   23.70
   2   6 -13  176.98   24.20
  -2  -6  13  198.08   23.40
  -2  -6  13  206.18   24.60
  -2  -6  13  186.28   24.50
  -2  -6  13  224.08   27.00
  -2  -6  13  178.68   23.00
   1   6 -13   61.49   11.90
   1   6 -13   54.89   10.50
   1   6 -13   51.19   10.60
   1   6 -13   68.69   10.80
   1   6 -13   64.29    9.20
   1   6 -13   45.00   15.20
   1   6 -13   51.89   10.80
  -1  -6  13   50.99   10.30
  -1  -6  13   53.79   10.00
  -1  -6  13   78.09   22.10
  -1  -6  13   51.09   10.90
  -1  -6  13   42.40   13.80
  -1  -6  13   62.49   13.60
  -1  -6  13   66.59   11.20
   0   6 -13   15.50   11.60
   0   6 -13   12.60    3.70
   0   6 -13   20.80    8.30
   0   6 -13   -2.00    7.10
   0   6 -13   13.60    6.80
   0   6 -13   28.40    9.60
   0   6 -13   22.10    8.90
   0   6 -13   20.80    7.80
   0  -6  13   24.60    7.70
   0  -6  13   21.30    7.70
   0  -6  13   14.20    7.10
   0  -6  13   18.90   10.30
   0  -6  13   15.70   10.90
   0  -6  13   31.80   16.70
   0  -6  13    0.60    7.70
  -1   6 -13    5.40    7.50
  -1   6 -13   18.50   12.00
  -1   6 -13   -4.30    7.90
  -1   6 -13    0.60    6.30
  -1   6 -13  -11.80    7.10
  -1   6 -13    6.50    7.10
  -1   6 -13    4.60    8.30
   1  -6  13   10.90    8.50
   1  -6  13   -4.10   10.60
   1  -6  13   11.70    6.30
   1  -6  13  -13.30    8.20
   1  -6  13    6.20   16.00
   1  -6  13    9.60    7.20
   1  -6  13    0.50    6.60
  -2   6 -13   35.00    9.70
  -2   6 -13   42.30   10.50
  -2   6 -13   33.90   13.30
  -2   6 -13   33.80   11.70
  -2   6 -13   34.20   11.10
  -2   6 -13   45.20    9.80
  -2   6 -13   42.40    8.80
   2  -6  13   34.80   10.20
   2  -6  13   49.70   10.60
   2  -6  13   27.70    9.50
   2  -6  13   44.70   19.00
   2  -6  13   24.60    8.90
   2  -6  13   25.40   13.10
   2  -6  13   25.00    8.00
   2  -6  13   30.10   10.80
   4   5 -13   37.80   11.10
   4   5 -13   25.30   12.20
  -4  -5  13   36.80   12.30
  -4  -5  13   17.60   11.90
   3   5 -13    9.50    6.70
   3   5 -13   -7.50   10.00
   3   5 -13   17.60   12.30
   3   5 -13    1.90    7.20
   3   5 -13    3.20    8.00
   3   5 -13    0.40    7.60
   3   5 -13    7.90    9.00
  -3  -5  13    1.50    7.60
  -3  -5  13   -2.70   13.10
  -3  -5  13    9.60    8.70
  -3  -5  13   22.10   11.10
  -3  -5  13  -14.40    8.50
  -3  -5  13   -8.70    6.70
  -3  -5  13   -1.30   16.90
   2   5 -13   21.40   15.30
   2   5 -13   44.30    9.90
   2   5 -13   41.90    9.50
   2   5 -13   44.70   11.50
   2   5 -13   29.90    7.30
   2   5 -13   32.60    9.20
   2   5 -13   34.50    9.70
   2   5 -13   49.30    9.00
  -2  -5  13   34.80    9.00
  -2  -5  13   31.70    7.90
  -2  -5  13   43.80    9.90
  -2  -5  13   36.70   13.30
  -2  -5  13   13.00   15.70
  -2  -5  13   34.20   11.00
  -2  -5  13   43.00   14.60
   1   5 -13   98.99   11.80
   1   5 -13  103.29   15.10
   1   5 -13   88.99   14.20
   1   5 -13  106.69   19.60
   1   5 -13   95.19   13.60
   1   5 -13  127.69   17.30
  -1  -5  13   91.99   14.00
  -1  -5  13   73.39   13.60
  -1  -5  13  108.49   14.70
  -1  -5  13   91.49   18.20
  -1  -5  13   84.49   13.30
  -1  -5  13   81.79   16.60
   0   5 -13   23.30    4.30
   0   5 -13   25.80   10.70
   0   5 -13    6.80    7.20
   0   5 -13   18.70    6.90
   0   5 -13   25.00    7.40
   0   5 -13   27.30    7.20
   0   5 -13   21.80    8.10
   0   5 -13   21.60    9.10
   0  -5  13   16.40    9.10
   0  -5  13   23.30    7.30
   0  -5  13   49.30   17.00
   0  -5  13   34.40    7.10
   0  -5  13   12.20    9.70
   0  -5  13    8.40    6.50
   0  -5  13   19.50    7.70
  -1   5 -13   10.50    6.30
  -1   5 -13   16.80   10.20
  -1   5 -13   21.80    3.50
  -1   5 -13    3.60    7.00
  -1   5 -13   17.90    7.10
  -1   5 -13   24.00   14.20
  -1   5 -13    9.80    7.30
  -1   5 -13   14.90    7.80
   1  -5  13   33.50   16.00
   1  -5  13   16.00    6.00
   1  -5  13   10.70    7.90
   1  -5  13   20.00    7.40
   1  -5  13   14.50   10.50
   1  -5  13    3.20    6.40
   1  -5  13   27.70    7.30
   1  -5  13    9.60    8.50
  -2   5 -13  182.98   24.70
  -2   5 -13  131.09   17.60
  -2   5 -13  108.79   11.60
  -2   5 -13  115.59   16.80
  -2   5 -13  109.09   20.40
  -2   5 -13  125.69   18.90
  -2   5 -13  130.49   11.70
  -2   5 -13  127.69   14.70
  -2   5 -13  131.49   17.30
  -2   5 -13  128.49   16.40
   2  -5  13  112.19   15.70
   2  -5  13  118.19   16.30
   2  -5  13  107.89   18.10
   2  -5  13  154.78   30.20
   2  -5  13   88.19   18.80
   2  -5  13  114.69   19.50
   2  -5  13   79.19   16.20
   2  -5  13  148.29   17.80
  -3   5 -13  -15.70   12.50
  -3   5 -13    2.10    8.60
  -3   5 -13   11.00   10.80
  -3   5 -13   -3.10    7.80
  -3   5 -13    1.10    6.60
   3  -5  13    7.80   16.90
   3  -5  13   -5.80    9.30
   3  -5  13   -0.30    6.90
   3  -5  13   -4.20    8.70
   3  -5  13   26.20   15.00
   3  -5  13   16.90   10.20
   3  -5  13    8.30   11.80
   3  -5  13   -4.50    8.30
   4   4 -13   15.20   10.10
   4   4 -13   22.50   13.70
   4   4 -13   28.40   10.90
   4   4 -13   32.80    9.60
   4   4 -13   29.40    9.70
   4   4 -13   36.10   10.50
   4   4 -13   30.70    9.60
   4   4 -13   40.50   14.50
  -4  -4  13    4.20   19.10
  -4  -4  13   18.50   11.00
  -4  -4  13   39.50    9.10
  -4  -4  13   27.70   17.70
  -4  -4  13   42.50    9.20
  -4  -4  13   21.20   11.10
  -4  -4  13   22.00   12.50
   3   4 -13   23.10    7.40
   3   4 -13    6.70    7.50
   3   4 -13   -2.80    7.40
   3   4 -13   -4.70    6.50
   3   4 -13   10.20   12.60
   3   4 -13   17.20   11.50
   3   4 -13   17.20    8.30
   3   4 -13   -4.20    6.80
  -3  -4  13    3.90    7.50
  -3  -4  13   19.70    6.80
  -3  -4  13    9.70    7.80
  -3  -4  13   10.20   10.70
  -3  -4  13    6.90    6.80
  -3  -4  13   34.20   15.30
  -3  -4  13   20.40   10.00
   2   4 -13   28.60    7.70
   2   4 -13   16.40    7.20
   2   4 -13   26.50    8.80
   2   4 -13   14.30    7.00
   2   4 -13   22.40   12.10
   2   4 -13   19.00    7.20
   2   4 -13   15.80    6.50
   2   4 -13   10.40    5.50
  -2  -4  13   30.30   10.30
  -2  -4  13   18.00    9.90
  -2  -4  13   34.50   16.40
  -2  -4  13   21.50    7.60
  -2  -4  13   30.40    7.80
  -2  -4  13   11.80   12.20
  -2  -4  13   31.10    7.50
   1   4 -13   59.49   10.60
   1   4 -13   68.19   14.10
   1   4 -13   61.69   10.70
   1   4 -13   57.19    9.20
   1   4 -13   83.99   12.50
   1   4 -13   75.99   12.20
   1   4 -13   60.19   10.20
   1   4 -13   80.49   12.50
  -1  -4  13   54.59   10.90
  -1  -4  13   51.19    9.90
  -1  -4  13   62.29   10.70
  -1  -4  13  106.29   22.20
  -1  -4  13   63.89   10.80
  -1  -4  13   52.99   13.80
   0   4 -13   -2.80    5.10
   0   4 -13   -6.80    8.00
   0   4 -13    0.10    6.20
   0   4 -13    7.30    3.60
   0   4 -13  -10.00    6.70
   0   4 -13   -3.70    5.30
   0   4 -13    0.30    6.50
   0   4 -13    5.60    6.60
   0  -4  13   18.90   12.40
   0  -4  13   10.10    4.80
   0  -4  13   17.80    8.30
   0  -4  13   -1.60    6.10
   0  -4  13    7.90    8.60
   0  -4  13   19.70    7.40
   0  -4  13   -0.30    5.20
  -1   4 -13    0.20    5.40
  -1   4 -13    9.70    7.90
  -1   4 -13    5.60    3.30
  -1   4 -13   10.20    5.80
  -1   4 -13   -6.80    6.30
  -1   4 -13    7.70    6.10
  -1   4 -13   -4.80    8.10
  -1   4 -13   -0.60    6.40
   1  -4  13   -5.80    5.70
   1  -4  13   -1.70    6.80
   1  -4  13    4.60    6.00
   1  -4  13    5.00    7.00
   1  -4  13   -5.80    8.90
   1  -4  13   -2.70   12.70
   1  -4  13    4.00    7.00
   1  -4  13   -0.80    4.70
  -2   4 -13   13.10    8.50
  -2   4 -13   16.80    6.10
  -2   4 -13    5.10    3.80
  -2   4 -13   12.60    4.10
  -2   4 -13    4.70    7.00
  -2   4 -13    8.80    8.60
  -2   4 -13    7.80    7.60
  -2   4 -13    1.40    6.40
  -2   4 -13   14.00   11.40
  -2   4 -13    5.80    6.30
   2  -4  13    6.10    8.10
   2  -4  13   17.20   12.30
   2  -4  13    3.20    6.70
   2  -4  13   12.40    7.50
   2  -4  13    8.90   14.50
   2  -4  13   10.20    9.00
   2  -4  13    5.10    8.20
   2  -4  13    7.50    5.40
  -3   4 -13  132.89   16.30
  -3   4 -13  156.08   22.40
  -3   4 -13  131.69   19.70
  -3   4 -13  126.79   14.90
  -3   4 -13  150.48   23.60
  -3   4 -13  173.88   19.10
  -3   4 -13  172.08   27.70
   3  -4  13   92.29   17.30
   3  -4  13   84.79   21.80
   3  -4  13  153.68   21.30
   3  -4  13  248.48   49.30
   3  -4  13  147.59   18.80
   3  -4  13  142.09   17.80
   3  -4  13  143.59   21.40
   4   3 -13   14.40    7.70
   4   3 -13    1.10    8.30
   4   3 -13    1.30   10.70
   4   3 -13    3.60    8.40
   4   3 -13   16.90   10.10
   4   3 -13   18.60    7.90
   4   3 -13   14.60    9.20
   4   3 -13   26.50    8.10
  -4  -3  13   30.30    7.70
  -4  -3  13    2.80    8.80
  -4  -3  13    6.60   13.10
  -4  -3  13    0.60   17.10
  -4  -3  13    6.90    8.60
  -4  -3  13   19.40   10.30
   3   3 -13    4.00    5.60
   3   3 -13   17.30    8.00
   3   3 -13   11.10    7.10
   3   3 -13   20.10   10.20
   3   3 -13   13.80    6.30
   3   3 -13   17.40    6.90
   3   3 -13   10.70    7.30
   3   3 -13   19.60    6.20
  -3  -3  13   11.30    6.90
  -3  -3  13   18.50    7.40
  -3  -3  13    6.60    6.10
  -3  -3  13   14.20   10.50
  -3  -3  13   13.10    7.30
  -3  -3  13   25.60    9.20
   2   3 -13    3.50    5.20
   2   3 -13    0.80    5.60
   2   3 -13   11.70    6.00
   2   3 -13   -3.40    4.60
   2   3 -13   12.20    6.10
   2   3 -13    3.10    6.30
   2   3 -13    6.30    8.40
   2   3 -13   -7.80    6.70
  -2  -3  13    5.50    5.50
  -2  -3  13  -11.30    7.40
  -2  -3  13    3.90    5.70
  -2  -3  13   -0.30    5.80
  -2  -3  13    3.50    8.10
  -2  -3  13   20.80   11.50
  -2  -3  13   -0.50    5.60
   1   3 -13   37.90    6.20
   1   3 -13   41.40    8.80
   1   3 -13   36.10    7.30
   1   3 -13   25.40    6.90
   1   3 -13   28.00   10.20
   1   3 -13   35.30    8.90
   1   3 -13   38.10    8.10
  -1  -3  13   25.20   13.80
  -1  -3  13   25.60    6.80
  -1  -3  13   29.70    6.80
  -1  -3  13   19.20    6.40
  -1  -3  13   28.80    8.90
  -1  -3  13   19.50    7.30
   0   3 -13   -0.90    5.50
   0   3 -13    2.70    8.20
   0   3 -13   -6.50    4.70
   0   3 -13    6.60    6.50
   0   3 -13    6.00    5.20
   0   3 -13   -0.60    3.50
   0   3 -13   -3.20    6.00
   0   3 -13    7.70    7.30
   0  -3  13    9.70    6.00
   0  -3  13   11.50   11.70
   0  -3  13   -2.80    8.60
   0  -3  13   -8.70    5.80
   0  -3  13    4.70    4.70
   0  -3  13    1.70    7.60
   0  -3  13   -4.80    5.00
  -1   3 -13   10.50    7.40
  -1   3 -13   11.00    7.30
  -1   3 -13   14.20    7.90
  -1   3 -13   15.40    7.10
  -1   3 -13   19.00    6.40
  -1   3 -13   13.70    9.80
   1  -3  13   16.50    5.50
   1  -3  13   19.60   12.40
   1  -3  13   19.00    7.50
   1  -3  13   17.60    7.50
   1  -3  13   19.60    6.20
   1  -3  13    7.90    6.10
   1  -3  13    4.50    9.70
  -2   3 -13  127.49   13.80
  -2   3 -13  118.69   16.50
  -2   3 -13  165.48   23.80
  -2   3 -13  144.99   18.40
  -2   3 -13  115.99   16.70
  -2   3 -13  115.69   16.20
  -2   3 -13  120.09   14.00
  -2   3 -13  117.89   17.60
   2  -3  13  108.49   16.30
   2  -3  13  130.29   18.20
   2  -3  13  104.19   18.00
   2  -3  13  144.89   16.90
   2  -3  13   98.09   22.40
   2  -3  13   76.79   16.10
   2  -3  13  123.09   15.10
  -3   3 -13   -8.00    7.40
  -3   3 -13    1.90   10.50
  -3   3 -13   10.40    9.10
  -3   3 -13   -9.20    9.20
  -3   3 -13    3.60    9.00
  -3   3 -13   -7.40    5.30
  -3   3 -13    9.80   11.30
  -3   3 -13   -6.60    5.30
  -3   3 -13    1.70   15.80
   3  -3  13   -8.30    8.00
   3  -3  13   -5.70    7.90
   3  -3  13  -13.00   10.00
   3  -3  13   -1.40    6.50
   3  -3  13    1.00   16.80
   3  -3  13    4.60    9.70
   3  -3  13   11.90   14.60
   5   2 -13   16.60    8.50
   5   2 -13   22.70   10.00
   5   2 -13    8.40   11.50
   5   2 -13   17.20    8.50
   5   2 -13   -1.60   12.10
   5   2 -13    6.70   11.10
   5   2 -13    4.10    9.40
  -5  -2  13   32.30   16.20
  -5  -2  13   13.40    4.80
  -5  -2  13   11.50    7.80
  -5  -2  13   27.50   11.20
  -5  -2  13    9.30    9.90
  -5  -2  13   -2.90   18.90
   4   2 -13    6.20    8.20
   4   2 -13   -4.70    8.80
   4   2 -13    3.40    6.30
   4   2 -13   -4.70    7.60
   4   2 -13   15.20    6.60
   4   2 -13   -3.20    5.90
   4   2 -13   -0.50    8.70
   4   2 -13   10.00    7.20
  -4  -2  13    6.80    7.00
  -4  -2  13    0.00    6.80
  -4  -2  13   -1.30    3.30
  -4  -2  13    6.00    7.80
  -4  -2  13   -2.20   10.50
  -4  -2  13    2.70    8.90
  -4  -2  13   -1.40    6.00
   3   2 -13   34.90    8.70
   3   2 -13   47.40    8.50
   3   2 -13   28.30   10.00
   3   2 -13   31.40    7.10
   3   2 -13   32.20    7.00
   3   2 -13   23.00    7.40
  -3  -2  13   27.50    7.60
  -3  -2  13   34.10    7.50
  -3  -2  13   29.30    7.70
  -3  -2  13   34.30    8.30
  -3  -2  13   25.00   10.00
  -3  -2  13   37.90   16.00
  -3  -2  13   20.50    9.20
  -3  -2  13   26.20    4.30
   2   2 -13  104.79   17.20
   2   2 -13   93.39   13.20
   2   2 -13  104.49   14.20
   2   2 -13   87.19   13.50
   2   2 -13  103.79   13.80
   2   2 -13   97.29   12.70
   2   2 -13  100.69   14.40
   2   2 -13   92.49   12.40
  -2  -2  13   79.49   13.40
  -2  -2  13   87.59   15.70
  -2  -2  13   76.89   12.80
  -2  -2  13   85.19   12.50
  -2  -2  13   94.69   18.70
  -2  -2  13   94.79   16.60
  -2  -2  13   80.29   12.80
   1   2 -13   19.10    5.80
   1   2 -13    9.90    4.60
   1   2 -13    5.40    5.50
   1   2 -13   19.60    6.20
   1   2 -13   24.20    7.40
   1   2 -13   10.10    8.90
   1   2 -13   20.30    6.70
   1   2 -13   19.90    5.90
  -1  -2  13   23.40   12.50
  -1  -2  13   16.70    6.90
  -1  -2  13   14.60    6.20
  -1  -2  13   18.50    6.70
  -1  -2  13   17.10    5.60
  -1  -2  13   13.80    5.30
  -1  -2  13   21.70    9.10
   0   2 -13    0.90    4.40
   0   2 -13    6.00    5.90
   0   2 -13    1.80    8.40
   0   2 -13    7.90    5.30
   0   2 -13   10.20    8.70
   0   2 -13    4.50    6.10
   0   2 -13    0.40    4.80
   0  -2  13   14.70    5.60
   0  -2  13    1.90    8.90
   0  -2  13   11.80    4.80
   0  -2  13    0.80    6.10
   0  -2  13   -3.10    6.20
   0  -2  13   25.90   12.50
   0  -2  13   12.30    6.40
  -1   2 -13   25.30    8.00
  -1   2 -13   26.00   10.70
  -1   2 -13   24.80    9.10
  -1   2 -13   17.60    7.10
  -1   2 -13   23.00    6.70
  -1   2 -13   36.50    8.50
   1  -2  13   12.20   11.20
   1  -2  13   18.30    5.80
   1  -2  13   34.30    7.40
   1  -2  13   22.30    8.30
   1  -2  13    2.50   13.20
   1  -2  13   18.40    6.90
   1  -2  13   18.20    8.20
  -2   2 -13   52.79   14.60
  -2   2 -13   34.90   16.10
  -2   2 -13   34.10   10.50
  -2   2 -13   43.80   11.30
  -2   2 -13   31.60    8.70
  -2   2 -13   26.70    8.50
  -2   2 -13   41.00    6.50
  -2   2 -13   22.50    7.10
   2  -2  13   17.20   16.30
   2  -2  13   36.00    8.30
   2  -2  13   51.59    9.10
   2  -2  13   40.80   10.30
   2  -2  13   44.10   10.40
   2  -2  13   33.30   10.70
   2  -2  13   18.10   13.30
   2  -2  13   31.00    7.60
  -3   2 -13   48.20   12.20
  -3   2 -13   83.19   15.60
  -3   2 -13   56.89   14.00
  -3   2 -13   45.30   11.50
  -3   2 -13   46.30   11.80
  -3   2 -13  103.49   21.70
  -3   2 -13   66.09   10.00
  -3   2 -13   59.79    9.20
   3  -2  13   44.80   14.90
   3  -2  13   55.59   10.10
   3  -2  13   47.60   20.60
   3  -2  13   50.29   11.30
   3  -2  13   56.49   11.70
   3  -2  13   53.69   13.30
   3  -2  13   50.39   17.80
   5   1 -13   24.10   10.00
   5   1 -13    6.00    7.30
   5   1 -13   13.90    9.00
   5   1 -13    1.30    8.00
   5   1 -13    7.00    9.30
   5   1 -13   -3.20    6.90
   5   1 -13   20.20   10.60
  -5  -1  13    4.90    7.10
  -5  -1  13    2.70   12.80
  -5  -1  13    8.60   10.40
  -5  -1  13    1.50    4.40
  -5  -1  13   30.90   20.00
  -5  -1  13  -12.40    7.80
  -5  -1  13   10.10    8.70
   4   1 -13    0.40    6.40
   4   1 -13    7.00    8.60
   4   1 -13    4.80    6.00
   4   1 -13   -2.00    7.50
   4   1 -13    5.00    7.70
   4   1 -13   -7.40    6.10
   4   1 -13   -5.10    7.30
   4   1 -13   -3.00    6.30
  -4  -1  13    4.50    6.20
  -4  -1  13   -5.10    6.20
  -4  -1  13   -3.10    8.90
  -4  -1  13   -7.70    7.10
  -4  -1  13   -0.80    3.40
  -4  -1  13   -3.70    6.40
  -4  -1  13    9.00   15.10
  -4  -1  13   14.50    8.20
   3   1 -13    6.50    5.80
   3   1 -13   10.80    7.20
   3   1 -13    2.30    6.10
   3   1 -13   14.30    6.10
   3   1 -13   11.80    5.80
   3   1 -13   13.90    7.70
   3   1 -13   23.10    6.90
  -3  -1  13   12.60    6.10
  -3  -1  13    7.30    8.70
  -3  -1  13    5.70    7.80
  -3  -1  13   15.30   13.50
  -3  -1  13   17.50    5.90
  -3  -1  13    8.90    6.30
   2   1 -13   67.49   12.00
   2   1 -13   56.29    9.70
   2   1 -13   72.19   10.10
   2   1 -13   60.49   10.00
   2   1 -13   71.59   13.20
   2   1 -13   63.59   10.10
   2   1 -13   65.69   10.60
   2   1 -13   64.69   10.10
  -2  -1  13   56.39   10.30
  -2  -1  13   55.19    9.40
  -2  -1  13   43.80    9.10
  -2  -1  13   57.39   11.40
  -2  -1  13   61.19   17.30
  -2  -1  13   51.29   12.00
  -2  -1  13   55.39    9.60
   1   1 -13   -0.10    5.80
   1   1 -13    8.00    4.80
   1   1 -13    2.40    5.40
   1   1 -13   11.60    6.00
   1   1 -13   -3.80    5.40
   1   1 -13    3.70   10.10
   1   1 -13   -1.00    4.20
   1   1 -13    3.90    4.90
  -1  -1  13   -6.30    5.90
  -1  -1  13    4.50    5.00
  -1  -1  13   -1.60    5.80
  -1  -1  13    3.50    5.30
  -1  -1  13   -3.20    4.30
  -1  -1  13    0.10   12.10
  -1  -1  13    8.70    8.00
   0   1 -13  361.76   36.80
   0   1 -13  374.36   36.20
   0   1 -13  367.36   38.20
   0   1 -13  356.76   36.10
   0  -1  13  313.37   36.50
   0  -1  13  352.46   36.20
   0  -1  13  398.56   37.80
   0  -1  13  351.46   43.20
   0  -1  13  366.96   35.80
  -1   1 -13    4.90    5.50
  -1   1 -13   13.70   16.20
  -1   1 -13    9.50    7.30
  -1   1 -13   19.40   11.20
  -1   1 -13    9.20    6.30
  -1   1 -13    4.00    6.60
  -1   1 -13   -0.30    5.80
  -1   1 -13   -4.30    5.60
   1  -1  13    7.10    5.50
   1  -1  13   -1.30    7.50
   1  -1  13    6.80   13.10
   1  -1  13    0.50    5.70
   1  -1  13    8.60   14.60
  -2   1 -13    3.90    6.80
  -2   1 -13    2.50   13.80
  -2   1 -13   -3.60    8.20
  -2   1 -13    3.50    7.30
  -2   1 -13  -11.50    7.00
  -2   1 -13    9.00    8.50
  -2   1 -13    3.60    9.30
   2  -1  13    2.00    6.60
   2  -1  13   10.50   12.50
   2  -1  13   -7.10    9.00
   2  -1  13    4.50    8.00
   2  -1  13   -0.50    5.50
   2  -1  13    8.30    8.90
   2  -1  13   -4.50    6.70
  -3   1 -13  137.09   25.50
  -3   1 -13   83.59   10.90
  -3   1 -13   77.89   13.80
  -3   1 -13   74.89   11.90
  -3   1 -13   93.59   17.30
  -3   1 -13   96.59   15.00
  -3   1 -13   45.60   13.60
  -3   1 -13   61.19   14.90
   3  -1  13   86.69   24.00
   3  -1  13   78.49   15.80
   3  -1  13  105.69   18.50
   3  -1  13   85.09   14.30
   3  -1  13   60.49   12.90
   3  -1  13   59.29   19.70
   3  -1  13   44.90   12.10
   5   0 -13   74.89   13.40
   5   0 -13   60.09    9.40
   5   0 -13   43.40    9.00
   5   0 -13   42.60   11.20
   5   0 -13   36.20   10.00
   5   0 -13   74.69   11.60
   5   0 -13   48.70   11.90
  -5   0  13   38.60   22.00
  -5   0  13   34.40   10.30
  -5   0  13   42.30   11.10
  -5   0  13   42.30    7.10
  -5   0  13   39.40   14.30
  -5   0  13   14.50   11.00
  -5   0  13   29.70    7.80
  -5   0  13   31.60    8.80
   4   0 -13  171.08   17.60
   4   0 -13  169.68   20.30
   4   0 -13  176.38   19.90
   4   0 -13  156.08   18.10
   4   0 -13  139.99   16.70
   4   0 -13  174.88   20.50
   4   0 -13  156.28   18.40
  -4   0  13  104.99   21.30
  -4   0  13  123.79   26.90
  -4   0  13  118.09   17.10
  -4   0  13  115.09   14.00
  -4   0  13  133.29   19.90
  -4   0  13  128.09   17.40
  -4   0  13  137.09   18.00
  -4   0  13  107.79   17.50
   3   0 -13  114.69   17.60
   3   0 -13  116.39   13.90
   3   0 -13   98.09   15.10
   3   0 -13  117.49   14.30
   3   0 -13  104.79   13.50
   3   0 -13  109.29   14.90
   3   0 -13  117.49   15.10
   3   0 -13  123.99   14.20
  -3   0  13  100.19   16.10
  -3   0  13   88.59   13.70
  -3   0  13   93.79   17.10
  -3   0  13   80.59   22.00
  -3   0  13   79.59   16.80
  -3   0  13  106.99   14.00
   2   0 -13   18.40    6.40
   2   0 -13   26.00    6.40
   2   0 -13   21.40    6.00
   2   0 -13   22.90    6.50
   2   0 -13   19.30    5.50
   2   0 -13   13.70    6.60
   2   0 -13   19.30    8.00
   2   0 -13   14.40    6.50
   2   0 -13   23.70   12.40
  -2   0  13   11.40    6.80
  -2   0  13   13.00    8.70
  -2   0  13   14.00   13.30
  -2   0  13   11.40    5.80
  -2   0  13   17.10    5.60
  -2   0  13   12.90    7.20
  -2   0  13   12.30    5.50
   1   0 -13    4.90    4.50
   1   0 -13   18.10    6.60
   1   0 -13    9.20    8.80
   1   0 -13   11.10    5.30
   1   0 -13    2.30    5.90
   1   0 -13    2.80    5.10
   1   0 -13    7.20    5.60
   1   0 -13    3.30   13.80
  -1   0  13   20.30   13.30
  -1   0  13    8.00    4.80
  -1   0  13    2.70    5.90
  -1   0  13    3.90    5.00
  -1   0  13    0.60    7.90
  -1   0  13  -11.30    5.90
  -1   0  13   11.20    6.50
   0   0 -13    6.70    4.90
   0   0 -13  -10.80    6.50
   0   0 -13   -1.80   12.60
   0   0 -13    1.70    6.00
   0   0 -13    3.20    6.10
   0   0 -13   -8.20    9.10
   0   0 -13   -8.20    5.20
   0   0 -13    8.90    6.50
   0   0  13   -1.40    6.70
   0   0  13    5.30    4.90
   0   0  13   -3.70    4.30
   0   0  13   -5.30    4.80
   0   0  13    0.40    9.70
   0   0  13   13.40    6.60
   0   0  13   12.40   13.00
  -1   0 -13   40.70   16.80
  -1   0 -13   60.79   11.50
  -1   0 -13   40.20   10.10
  -1   0 -13   37.20    7.90
  -1   0 -13   48.90    9.90
  -1   0 -13   39.40    8.60
  -1   0 -13   85.09   23.00
  -1   0 -13   39.40   10.60
   1   0  13   46.70   10.50
   1   0  13   13.00   12.50
   1   0  13   52.69    9.20
   1   0  13   35.50    8.40
   1   0  13   45.10    8.00
   1   0  13   35.80   10.20
   1   0  13   43.70   17.10
  -2   0 -13   50.59   11.30
  -2   0 -13   55.09   10.50
  -2   0 -13   51.79    8.70
  -2   0 -13   52.09   11.50
  -2   0 -13   70.99   13.50
  -2   0 -13   46.60   10.20
  -2   0 -13   56.59   12.90
  -2   0 -13   66.89   18.80
   2   0  13   34.30    9.50
   2   0  13   32.30   12.40
   2   0  13   34.40   11.30
   2   0  13   45.00   10.30
   2   0  13   53.39   22.90
   2   0  13   41.90   15.20
   2   0  13   32.20   12.10
   2   0  13   58.59    9.80
  -3   0 -13  151.38   29.20
  -3   0 -13  145.99   22.30
  -3   0 -13  102.39   20.30
  -3   0 -13  143.49   20.30
  -3   0 -13  106.29   18.40
  -3   0 -13  109.29   16.80
  -3   0 -13  144.79   14.90
   3   0  13  127.89   20.10
   3   0  13  108.09   17.40
   3   0  13  113.59   29.90
   3   0  13  172.08   23.60
   3   0  13   94.99   23.90
   3   0  13  128.79   20.40
   5  -1 -13   33.30   10.00
   5  -1 -13   39.10    7.80
   5  -1 -13   49.20    9.80
   5  -1 -13   45.90    8.80
   5  -1 -13   43.30   10.30
   5  -1 -13   42.50   10.20
  -5   1  13   23.40   12.80
  -5   1  13   22.10    6.70
  -5   1  13   28.60    6.20
  -5   1  13   42.40   10.40
  -5   1  13   29.70    8.80
  -5   1  13   47.40   23.30
  -5   1  13   33.40    6.50
   4  -1 -13   -3.70    7.70
   4  -1 -13   -8.10    4.70
   4  -1 -13    8.00    8.10
   4  -1 -13    2.90    5.00
   4  -1 -13   -1.70   15.60
   4  -1 -13    8.30    6.40
   4  -1 -13   -0.90    6.30
  -4   1  13    4.00    6.10
  -4   1  13   -8.20    8.70
  -4   1  13    2.60    6.70
  -4   1  13   -2.90    4.90
  -4   1  13    9.20   31.70
  -4   1  13    8.60    8.40
  -4   1  13   -2.30    5.20
   3  -1 -13   -7.10    6.40
   3  -1 -13   -4.20    6.00
   3  -1 -13   -6.20    5.50
   3  -1 -13   12.10   14.80
   3  -1 -13    0.60    5.70
   3  -1 -13   -1.20    5.60
   3  -1 -13    1.80    4.60
   3  -1 -13    4.10    5.10
   3  -1 -13    5.30    5.10
  -3   1  13    3.70    6.70
  -3   1  13    5.30    5.10
  -3   1  13   -1.40    5.10
  -3   1  13   17.90   15.30
  -3   1  13   -4.50    5.40
   2  -1 -13   40.90    7.40
   2  -1 -13   28.00    7.10
   2  -1 -13   47.00   18.50
   2  -1 -13   23.60    7.30
   2  -1 -13   34.50    9.90
   2  -1 -13   33.40    6.20
   2  -1 -13   21.90    7.00
   2  -1 -13   26.70    6.70
   2  -1 -13   20.10    7.10
  -2   1  13   26.30    7.70
  -2   1  13   15.30    7.10
  -2   1  13   19.90    9.40
  -2   1  13   30.50   15.30
  -2   1  13   22.10    7.40
  -2   1  13   22.10    7.90
  -2   1  13   12.10    5.70
   1  -1 -13  355.46   36.60
   1  -1 -13  376.36   34.70
   1  -1 -13  369.06   35.60
  -1   1  13  279.07   41.40
  -1   1  13  285.67   34.90
  -1   1  13  348.17   34.40
  -1   1  13  353.06   34.40
  -1   1  13  377.76   36.40
   0  -1 -13   -9.30    4.50
   0  -1 -13    3.80    6.50
   0  -1 -13    3.70    6.70
   0  -1 -13   18.50   14.70
   0  -1 -13   -4.00   10.00
   0  -1 -13  -12.20    9.70
   0  -1 -13    5.50    5.60
   0  -1 -13    6.50    7.50
   0   1  13    6.50    5.60
   0   1  13    8.20    7.00
   0   1  13  -21.00   10.10
   0   1  13    4.30    7.70
   0   1  13   -4.80    4.70
   0   1  13   -7.60    6.80
   0   1  13  -15.40   10.40
  -1  -1 -13   -2.30   17.60
  -1  -1 -13   22.50   12.90
  -1  -1 -13    6.90    6.80
  -1  -1 -13   16.50    8.20
  -1  -1 -13   23.70   12.90
  -1  -1 -13   -0.90    7.40
  -1  -1 -13    8.80    8.50
  -1  -1 -13    9.40    6.20
   1   1  13    5.70    6.40
   1   1  13   15.10    8.70
   1   1  13   14.80    8.30
   1   1  13   13.40    6.40
   1   1  13   20.00   13.10
   1   1  13  -19.00   26.40
   1   1  13   -8.40    8.00
   1   1  13   18.40    6.40
  -2  -1 -13  -13.30    8.70
  -2  -1 -13   10.50   11.90
  -2  -1 -13   -5.40   20.90
  -2  -1 -13    2.20    5.50
  -2  -1 -13  -10.70   15.30
  -2  -1 -13    1.70    9.70
  -2  -1 -13   -1.80    7.80
  -2  -1 -13    7.50   10.60
  -2  -1 -13   11.70    8.00
  -2  -1 -13   -8.80    7.50
   2   1  13   19.40    9.80
   2   1  13   10.90   19.80
   2   1  13    2.80    7.40
   2   1  13    8.40   10.70
   2   1  13  -12.70    6.40
   2   1  13   -9.90    7.00
   2   1  13   -1.90   15.50
   2   1  13   15.10   11.10
   5  -2 -13   88.99   17.00
   5  -2 -13   63.29   10.10
   5  -2 -13   61.99   13.00
   5  -2 -13   76.09   13.90
   5  -2 -13   75.49   12.30
   5  -2 -13   97.89   13.90
   5  -2 -13   91.49   13.30
   5  -2 -13   53.39   12.10
  -5   2  13   61.79    9.50
  -5   2  13   76.09   12.30
  -5   2  13   67.79   12.40
  -5   2  13   82.69   27.50
  -5   2  13   50.39   14.10
   4  -2 -13   27.40    6.40
   4  -2 -13   34.90   10.10
   4  -2 -13   37.50    8.10
   4  -2 -13   34.30    7.20
   4  -2 -13   32.60    9.30
   4  -2 -13   45.00    9.00
   4  -2 -13   19.90    7.80
  -4   2  13    4.70   18.80
  -4   2  13   27.60    5.70
  -4   2  13   15.10    9.30
  -4   2  13   21.10    5.50
  -4   2  13   26.70    7.70
  -4   2  13   14.60    5.50
  -4   2  13   19.00    8.30
   3  -2 -13   37.00    6.30
   3  -2 -13   39.70    7.60
   3  -2 -13   43.00    8.70
   3  -2 -13   42.40    8.20
   3  -2 -13   39.90    9.50
   3  -2 -13   21.70    7.20
   3  -2 -13   27.30    7.80
  -3   2  13   25.60    6.80
  -3   2  13   25.20    6.80
  -3   2  13   23.60    8.00
  -3   2  13  -18.70   20.30
  -3   2  13   20.00    5.70
  -3   2  13    5.80    9.70
  -3   2  13   24.60    8.30
   2  -2 -13   39.00    7.90
   2  -2 -13   42.90    9.00
   2  -2 -13   43.10    9.00
   2  -2 -13   32.10    9.20
   2  -2 -13   55.39   12.40
   2  -2 -13   47.30    8.00
   2  -2 -13   73.09   11.30
  -2   2  13   34.20    8.60
  -2   2  13   36.90    9.30
  -2   2  13   56.49    9.30
  -2   2  13   11.70   32.50
  -2   2  13   50.59    8.30
   1  -2 -13  451.75   43.40
   1  -2 -13  525.35   44.90
   1  -2 -13  415.56   44.70
   1  -2 -13  379.56   44.80
  -1   2  13  444.46   43.30
  -1   2  13  402.26   43.20
  -1   2  13  491.85   45.20
   0  -2 -13    8.80    7.70
   0  -2 -13    3.20    6.00
   0  -2 -13    5.90    8.50
   0  -2 -13   17.10    7.80
   0  -2 -13    9.70   11.00
   0  -2 -13   28.50    8.90
   0  -2 -13   34.70   18.30
   0  -2 -13   12.50    5.70
   0   2  13    5.70    7.40
   0   2  13   14.20    8.30
   0   2  13   11.50   11.50
   0   2  13   11.40    6.90
   0   2  13    6.50    5.40
   0   2  13   14.90    7.60
   0   2  13   17.40   17.20
  -1  -2 -13   69.49   11.80
  -1  -2 -13   57.59   10.70
  -1  -2 -13   77.29   13.40
  -1  -2 -13   79.79   13.20
  -1  -2 -13   82.99   15.40
  -1  -2 -13   86.99   19.80
   1   2  13   55.09   12.90
   1   2  13   70.79   14.10
   1   2  13   58.89   11.40
   1   2  13   78.09   11.50
   1   2  13   60.49   22.70
   1   2  13   49.99   13.50
   1   2  13   54.89   10.50
  -2  -2 -13  -13.00   22.40
  -2  -2 -13    1.40   11.80
  -2  -2 -13    4.90   13.30
  -2  -2 -13    0.90   19.10
  -2  -2 -13   27.60   11.20
  -2  -2 -13   13.10    5.20
  -2  -2 -13   20.00    9.80
  -2  -2 -13   -1.20    8.00
  -2  -2 -13    7.10    8.40
   2   2  13   12.30    9.30
   2   2  13  -12.60   17.40
   2   2  13   15.90   11.60
   2   2  13   13.80   12.20
   2   2  13   -0.70    7.70
   2   2  13    2.30   23.30
   2   2  13    5.70    8.50
   2   2  13   -4.50   11.50
   5  -3 -13   16.20    6.50
   5  -3 -13   11.60    6.20
   5  -3 -13   -4.80    7.40
   5  -3 -13   21.40   10.00
   5  -3 -13   18.00    8.70
   5  -3 -13   29.80    9.90
   5  -3 -13   39.30   22.60
   5  -3 -13   21.10   10.80
  -5   3  13   20.00    9.70
  -5   3  13   15.10    5.90
  -5   3  13   43.10   27.40
  -5   3  13   12.50    8.70
   4  -3 -13   16.30    6.10
   4  -3 -13    3.00   11.60
   4  -3 -13    4.80    8.20
   4  -3 -13   10.80    5.20
   4  -3 -13   12.40    8.10
   4  -3 -13    6.80    7.60
   4  -3 -13   19.20   19.60
   4  -3 -13   17.20    7.40
   4  -3 -13   12.30    8.80
  -4   3  13    5.10    6.80
  -4   3  13   -5.00   10.10
  -4   3  13    4.90    8.10
  -4   3  13    2.20    7.60
  -4   3  13    2.40    4.50
  -4   3  13    7.30   21.20
   3  -3 -13  108.79   25.30
   3  -3 -13   64.59   10.90
   3  -3 -13   78.29   11.80
   3  -3 -13   55.79    9.00
   3  -3 -13   43.80    9.50
   3  -3 -13   74.79   11.40
   3  -3 -13   71.49   10.90
   3  -3 -13   50.99    9.30
  -3   3  13   52.19   11.70
  -3   3  13   40.50   12.60
  -3   3  13   46.00    8.20
  -3   3  13   48.50    8.70
  -3   3  13   67.59   21.00
  -3   3  13   50.19   10.00
  -3   3  13   58.39    9.30
   2  -3 -13   29.40    8.50
   2  -3 -13   42.30    9.60
   2  -3 -13   38.40   11.40
   2  -3 -13   21.90    6.50
   2  -3 -13   33.90    8.00
   2  -3 -13   45.30   21.50
   2  -3 -13   14.90    6.40
   2  -3 -13   38.00    8.50
  -2   3  13   25.80    8.20
  -2   3  13   33.90    6.60
  -2   3  13    5.90   18.10
  -2   3  13   28.90    8.60
  -2   3  13   22.50   10.80
  -2   3  13   19.20    6.50
  -2   3  13   22.70    7.60
   1  -3 -13   56.19   10.70
   1  -3 -13   67.79    9.40
   1  -3 -13   49.00   10.50
   1  -3 -13   44.00   10.40
   1  -3 -13   76.99   15.30
   1  -3 -13   38.00    9.90
   1  -3 -13   84.79   23.80
  -1   3  13   12.70    8.80
  -1   3  13   21.40   11.60
  -1   3  13   34.50    7.70
  -1   3  13   39.70    9.70
  -1   3  13   26.70   20.00
  -1   3  13   30.20    9.40
  -1   3  13   42.00    8.00
   0  -3 -13   17.80    9.20
   0  -3 -13    2.60    8.60
   0  -3 -13   30.10   21.40
   0  -3 -13   -1.00    7.90
   0  -3 -13   22.30   14.40
   0  -3 -13    2.90    6.30
   0  -3 -13   17.50    5.90
   0  -3 -13   22.50    9.80
   0   3  13   -5.50   12.40
   0   3  13   15.70    6.70
   0   3  13   22.80    7.50
   0   3  13   11.60    9.90
   0   3  13    9.90    8.10
   0   3  13   19.70    8.90
   0   3  13    5.80   19.80
  -1  -3 -13   -7.70    6.70
  -1  -3 -13   10.10   21.60
  -1  -3 -13  -10.10    9.60
  -1  -3 -13   18.40   12.60
  -1  -3 -13   11.00    9.20
  -1  -3 -13   -8.80    8.50
  -1  -3 -13   12.80   17.70
   1   3  13   17.50    8.60
   1   3  13    4.70    7.10
   1   3  13    7.40   10.30
   1   3  13   19.70   15.80
   1   3  13    2.10   23.00
   1   3  13   24.00   11.10
   1   3  13   -1.30    9.80
   4  -4 -13    0.40    8.00
   4  -4 -13    8.00    8.70
   4  -4 -13    3.80   22.50
   4  -4 -13    9.90    5.40
   4  -4 -13    2.70    7.10
   4  -4 -13    0.40    8.50
   4  -4 -13   14.30    6.60
  -4   4  13   -3.90   12.60
  -4   4  13    7.60   25.10
  -4   4  13  -13.40    8.10
  -4   4  13  -14.80    8.10
  -4   4  13    1.30    6.90
   3  -4 -13   23.00    8.30
   3  -4 -13   10.70    7.20
   3  -4 -13   30.60    6.90
   3  -4 -13   43.50    9.40
   3  -4 -13   33.00   10.50
   3  -4 -13   35.70   23.30
   3  -4 -13   34.00    8.00
  -3   4  13   23.90    7.20
  -3   4  13   31.70    9.40
  -3   4  13   16.70   23.20
  -3   4  13    4.90    8.20
  -3   4  13   34.70   11.70
   2  -4 -13   97.99   23.40
   2  -4 -13   57.89    9.20
   2  -4 -13   86.89   12.80
   2  -4 -13   49.99    8.60
   2  -4 -13   60.79   10.90
   2  -4 -13   55.79   11.20
  -2   4  13   40.90    8.70
  -2   4  13   36.70   23.40
  -2   4  13   47.30    9.20
  -2   4  13   47.80   11.00
  -2   4  13   46.40   13.20
  -2   4  13   46.80   10.80
  -2   4  13   38.60    7.60
   1  -4 -13  206.38   22.80
   1  -4 -13  204.28   24.80
   1  -4 -13  233.48   25.20
   1  -4 -13  202.28   26.10
  -1   4  13  244.28   23.30
  -1   4  13  199.68   22.90
  -1   4  13  191.88   41.40
  -1   4  13  155.98   25.30
  -1   4  13  174.48   24.30
  -1   4  13  252.57   26.60
   0  -4 -13   13.90   10.80
   0  -4 -13   22.40   10.10
   0  -4 -13   26.00   21.80
   0  -4 -13   24.90   10.80
   0  -4 -13   32.80   17.10
   0  -4 -13    3.60    6.30
   0  -4 -13   14.80   10.30
   0  -4 -13   14.10    7.60
   0   4  13   10.90   14.40
   0   4  13   28.10   25.00
   0   4  13    6.30   10.00
   0   4  13    9.30   10.00
   0   4  13    8.50    7.90
   0   4  13   15.70    9.40
   0   4  13   11.40    7.60
   3  -5 -13   22.40    8.50
   3  -5 -13   23.10    6.40
   3  -5 -13   37.80   26.30
   3  -5 -13   20.30    9.70
   3  -5 -13   31.20    9.80
   3  -5 -13   18.60   11.50
   3  -5 -13   23.60    7.20
   3  -5 -13   17.10    9.60
  -3   5  13   12.70    9.90
  -3   5  13   18.10    9.50
  -3   5  13   14.90    7.20
   2  -5 -13    5.50    7.70
   2  -5 -13   -9.70   23.10
   2  -5 -13   17.50    7.60
   2  -5 -13    6.10    6.60
   2  -5 -13    8.20    9.50
   2  -5 -13   29.70   13.60
   2  -5 -13    7.60    8.80
   2  -5 -13    7.80    9.40
  -2   5  13    3.70    4.70
  -2   5  13   -4.00    5.60
  -2   5  13   -5.30   11.30
  -2   5  13    3.60    9.80
  -2   5  13    1.80    6.70
   1  -5 -13   32.90   20.70
   1  -5 -13    3.60   10.50
   1  -5 -13    5.40    8.70
   1  -5 -13    6.70   10.10
   1  -5 -13    2.40    7.00
   1  -5 -13   11.60   15.50
   1  -5 -13   13.30   11.00
   1  -5 -13    0.60    5.40
  -1   5  13    1.10   10.50
  -1   5  13   10.80    8.00
  -1   5  13  -11.80    9.60
   0   7 -14   -7.20    8.80
   0   7 -14    6.10   11.80
   0   7 -14    4.40   15.60
   0   7 -14    0.80   10.60
   0   7 -14    9.20    9.90
   0  -7  14    5.70   13.10
   0  -7  14    6.80   12.90
   0  -7  14   -3.60   10.00
   0  -7  14    5.90    9.10
   0  -7  14    7.00    8.80
   2   6 -14   18.10    8.60
   2   6 -14   17.40    9.90
   2   6 -14   22.50   10.50
   2   6 -14   13.10   12.10
   2   6 -14   19.60   10.70
   2   6 -14   20.60   15.90
   2   6 -14   23.70    8.30
   2   6 -14   26.10   10.80
  -2  -6  14   22.40   10.10
  -2  -6  14    5.80   12.00
  -2  -6  14    2.50    9.60
  -2  -6  14   -4.80   14.20
  -2  -6  14   23.80    9.90
   1   6 -14   48.40   10.40
   1   6 -14   31.40   11.10
   1   6 -14   44.00    9.60
   1   6 -14   35.40   15.90
   1   6 -14   43.60   11.30
   1   6 -14   38.20    7.20
   1   6 -14   44.60   11.10
   1   6 -14   39.10   12.00
  -1  -6  14   17.60   12.20
  -1  -6  14   57.89   20.60
  -1  -6  14   35.50   10.00
  -1  -6  14   35.20   10.40
  -1  -6  14   32.90    9.40
  -1  -6  14   26.50   13.50
  -1  -6  14   23.80    9.60
   0   6 -14  206.68   24.00
   0   6 -14  191.68   23.70
   0   6 -14  219.58   23.80
   0   6 -14  195.78   19.70
   0   6 -14  245.18   25.50
   0   6 -14  218.08   24.40
   0   6 -14  231.38   30.40
   0   6 -14  214.28   26.60
   0  -6  14  185.38   23.60
   0  -6  14  174.58   23.70
   0  -6  14  147.99   27.40
   0  -6  14  197.68   27.70
   0  -6  14  174.58   24.00
   0  -6  14  162.18   23.00
  -1   6 -14   72.09   12.70
  -1   6 -14   71.19   14.50
  -1   6 -14   76.39   17.50
  -1   6 -14   67.89   13.80
  -1   6 -14   60.49   14.20
  -1   6 -14   64.69   11.50
   1  -6  14   49.10   12.90
   1  -6  14   74.59   15.50
   1  -6  14   55.99   12.50
   1  -6  14   35.20   15.50
   1  -6  14   70.89   11.90
   1  -6  14   84.19   23.70
   1  -6  14   58.59   11.90
   3   5 -14    3.80   12.10
   3   5 -14   13.10   14.60
   3   5 -14    6.50    8.80
   3   5 -14    4.80    9.80
   3   5 -14   24.00   10.40
   3   5 -14   26.70    8.60
  -3  -5  14   19.10   18.90
  -3  -5  14   28.10    9.80
  -3  -5  14   14.60   12.60
  -3  -5  14   26.50    8.70
  -3  -5  14   -4.70    9.60
  -3  -5  14   18.10   15.00
  -3  -5  14   12.20   10.20
   2   5 -14   78.99   18.60
   2   5 -14   95.29   16.20
   2   5 -14  101.89   16.90
   2   5 -14  101.19   14.30
   2   5 -14  116.99   15.20
   2   5 -14   79.89   13.30
   2   5 -14  119.19   19.00
   2   5 -14   86.19   15.00
  -2  -5  14   82.99   16.60
  -2  -5  14   88.29   24.10
  -2  -5  14   71.39   12.70
  -2  -5  14   79.29   14.40
  -2  -5  14   69.89   13.50
  -2  -5  14   67.19   17.90
  -2  -5  14   75.89   13.70
   1   5 -14  345.47   35.90
   1   5 -14  378.16   35.90
   1   5 -14  399.76   37.30
   1   5 -14  338.17   36.10
   1   5 -14  383.16   37.30
   1   5 -14  425.66   42.00
   1   5 -14  392.96   38.80
  -1  -5  14  285.17   35.60
  -1  -5  14  310.87   35.80
  -1  -5  14  321.27   35.60
  -1  -5  14  329.37   39.60
  -1  -5  14  298.17   37.40
  -1  -5  14  322.37   39.40
   0   5 -14   44.10   14.00
   0   5 -14   21.80    9.20
   0   5 -14   30.60    5.60
   0   5 -14   30.90    8.80
   0   5 -14   38.90    9.20
   0   5 -14   45.60   10.40
   0   5 -14   37.90    8.90
   0  -5  14   22.90    8.20
   0  -5  14    0.70   11.70
   0  -5  14   26.70    8.60
   0  -5  14   22.70    7.90
   0  -5  14   25.00   11.60
   0  -5  14   49.90   17.20
   0  -5  14   39.90   10.10
  -1   5 -14   79.39   14.30
  -1   5 -14  104.09   15.90
  -1   5 -14  119.69   20.50
  -1   5 -14  121.39   15.90
  -1   5 -14   90.59   11.10
  -1   5 -14  143.49   17.70
  -1   5 -14   88.29   16.60
  -1   5 -14  131.79   15.70
   1  -5  14  142.49   29.60
   1  -5  14  117.99   19.20
   1  -5  14   76.09   14.80
   1  -5  14   99.39   14.60
   1  -5  14  110.09   15.40
   1  -5  14   82.59   17.90
   1  -5  14   63.09   14.60
  -2   5 -14  233.88   23.10
  -2   5 -14  266.97   34.50
  -2   5 -14  232.98   27.50
  -2   5 -14  223.38   30.60
  -2   5 -14  256.77   30.50
  -2   5 -14  300.47   30.90
  -2   5 -14  257.97   23.20
   2  -5  14  219.88   26.50
   2  -5  14  225.98   30.00
   2  -5  14  259.97   40.00
   2  -5  14  240.08   27.70
   2  -5  14  226.48   28.30
   4   4 -14    4.80   10.70
   3   4 -14   54.99   12.00
   3   4 -14   76.79   15.20
   3   4 -14   62.59   12.50
   3   4 -14   75.89   12.20
   3   4 -14   70.29   17.40
   3   4 -14   89.29   14.10
   3   4 -14   67.69   13.60
   3   4 -14   66.69   11.50
  -3  -4  14   59.79   13.30
  -3  -4  14   81.89   19.30
  -3  -4  14   72.69   16.30
  -3  -4  14   70.19   11.60
  -3  -4  14   52.29   12.20
  -3  -4  14   58.29   12.00
   2   4 -14   98.89   15.80
   2   4 -14  136.39   18.50
   2   4 -14  121.79   21.90
   2   4 -14   98.99   16.10
   2   4 -14  109.19   15.80
   2   4 -14   85.19   14.40
   2   4 -14   74.59   13.00
   2   4 -14   88.19   14.30
  -2  -4  14   96.29   23.90
  -2  -4  14   98.49   15.50
  -2  -4  14   71.39   16.00
  -2  -4  14   89.29   14.90
  -2  -4  14  104.79   14.20
  -2  -4  14   56.39   16.70
   1   4 -14    4.10    7.10
   1   4 -14   29.20    8.50
   1   4 -14    8.40    5.30
   1   4 -14    1.40    6.60
   1   4 -14    4.70    6.80
   1   4 -14   32.10    8.20
   1   4 -14    8.20    8.60
  -1  -4  14    3.60    6.50
  -1  -4  14    8.10   10.10
  -1  -4  14   12.80    7.10
  -1  -4  14   19.50   10.50
  -1  -4  14    8.50    6.80
  -1  -4  14   11.30    8.90
  -1  -4  14   13.60   12.20
   0   4 -14  109.59   14.80
   0   4 -14  105.39   12.30
   0   4 -14  115.39   16.70
   0   4 -14  129.89   21.70
   0   4 -14   86.09   14.20
   0   4 -14   95.49   14.70
   0   4 -14  138.19   16.50
   0   4 -14   97.29   17.40
   0  -4  14  115.29   18.40
   0  -4  14   98.59   14.20
   0  -4  14   88.29   14.90
   0  -4  14   92.59   14.40
   0  -4  14  116.09   23.80
   0  -4  14   79.89   20.50
   0  -4  14   88.09   14.50
  -1   4 -14   66.09   12.00
  -1   4 -14   61.69   10.70
  -1   4 -14   61.39   15.60
  -1   4 -14   49.90   10.10
  -1   4 -14   54.79   11.20
  -1   4 -14   55.19    8.40
  -1   4 -14   43.90   12.20
  -1   4 -14   42.50    9.80
   1  -4  14   59.59   11.80
   1  -4  14   26.90   12.90
   1  -4  14   66.19   11.40
   1  -4  14   13.00   16.40
   1  -4  14   52.09   12.60
   1  -4  14   47.60   10.40
   1  -4  14   44.80    9.30
   1  -4  14   49.80   10.10
  -2   4 -14   18.80   10.20
  -2   4 -14   49.40   12.80
  -2   4 -14   43.10   13.00
  -2   4 -14   54.09    8.50
  -2   4 -14   56.99   12.20
  -2   4 -14   33.90    9.50
  -2   4 -14   68.19   16.70
  -2   4 -14   46.00    6.90
  -2   4 -14   52.19   10.80
   2  -4  14   25.10   10.10
   2  -4  14   40.60   10.80
   2  -4  14   48.50   11.60
   2  -4  14   17.80   17.80
   2  -4  14   40.00   12.30
   2  -4  14   21.80   15.40
   2  -4  14   51.49   12.60
   4   3 -14   18.30    9.00
   4   3 -14   47.70   10.50
   4   3 -14    6.70   13.10
   4   3 -14   14.80   10.30
   4   3 -14   32.90   12.30
  -4  -3  14   39.70    9.20
  -4  -3  14   20.30   10.30
  -4  -3  14   14.60   11.90
  -4  -3  14   19.50   16.00
  -4  -3  14   10.70   19.10
  -4  -3  14   25.60   11.30
   3   3 -14   -3.40    8.30
   3   3 -14   17.10    7.50
   3   3 -14    8.70   11.30
   3   3 -14    4.00    6.70
   3   3 -14   11.60    7.10
   3   3 -14   -4.40    7.10
   3   3 -14    4.60    9.10
   3   3 -14  -12.90    8.10
  -3  -3  14   13.00    7.50
  -3  -3  14    9.00    6.80
  -3  -3  14  -19.70   15.80
  -3  -3  14   29.60   19.50
  -3  -3  14   19.10    8.30
  -3  -3  14    5.40    7.80
  -3  -3  14    6.80   11.50
   2   3 -14    3.70    7.00
   2   3 -14   -3.20    6.10
   2   3 -14   16.60    7.00
   2   3 -14   -3.20    5.40
   2   3 -14   -8.70    8.60
   2   3 -14   -5.60    6.00
   2   3 -14   -2.20    7.10
  -2  -3  14    2.60   11.50
  -2  -3  14    5.80    7.10
  -2  -3  14    1.40   10.00
  -2  -3  14   14.10    6.90
  -2  -3  14   15.20    7.10
  -2  -3  14   -5.90    6.40
  -2  -3  14   12.30    9.60
   1   3 -14  174.08   19.70
   1   3 -14  190.98   19.90
   1   3 -14  150.18   17.10
   1   3 -14  148.79   18.40
   1   3 -14  164.18   18.40
   1   3 -14  166.38   23.60
   1   3 -14  146.69   18.60
   1   3 -14  184.18   21.30
  -1  -3  14  186.58   29.20
  -1  -3  14  125.09   19.00
  -1  -3  14  142.19   18.20
  -1  -3  14  136.29   21.40
  -1  -3  14  122.69   22.50
  -1  -3  14  117.39   17.80
  -1  -3  14  131.39   19.40
   0   3 -14  262.47   27.00
   0   3 -14  250.37   25.50
   0   3 -14  275.97   31.10
   0   3 -14  240.88   24.10
   0   3 -14  252.17   25.90
   0   3 -14  257.17   28.50
   0   3 -14  236.08   26.60
   0  -3  14  260.17   35.00
   0  -3  14  194.28   26.20
   0  -3  14  225.08   25.70
   0  -3  14  233.48   25.20
   0  -3  14  204.28   27.50
   0  -3  14  190.18   26.50
  -1   3 -14   93.69   13.30
  -1   3 -14   61.79   11.30
  -1   3 -14   88.19   13.60
  -1   3 -14   81.09   17.20
  -1   3 -14   63.99   14.00
  -1   3 -14   81.09   13.10
  -1   3 -14   58.59   11.80
   1  -3  14   75.89   12.20
   1  -3  14   61.89   13.50
   1  -3  14   75.49   12.30
   1  -3  14   55.99   11.00
   1  -3  14   59.59   12.70
   1  -3  14   69.19   19.70
   1  -3  14   45.70   15.30
   1  -3  14   77.29   12.00
  -2   3 -14  159.78   21.10
  -2   3 -14  129.99   23.70
  -2   3 -14  163.68   18.50
  -2   3 -14  147.79   22.20
  -2   3 -14  200.68   23.90
  -2   3 -14  167.38   22.40
  -2   3 -14  194.88   21.10
  -2   3 -14  207.38   30.50
   2  -3  14  145.49   21.50
   2  -3  14  167.48   32.30
   2  -3  14  157.58   20.40
   2  -3  14  153.28   19.60
   2  -3  14  169.88   23.50
   2  -3  14  138.89   21.90
   4   2 -14   67.29   12.30
   4   2 -14   80.79   12.90
   4   2 -14   74.99   12.10
   4   2 -14   61.39   14.10
   4   2 -14   89.79   16.80
   4   2 -14   75.79   13.90
   4   2 -14   86.59   13.20
  -4  -2  14   58.39   13.20
  -4  -2  14   70.19    9.00
  -4  -2  14   57.59   11.30
  -4  -2  14   75.59   15.20
  -4  -2  14   62.99   16.60
  -4  -2  14   56.59   11.70
  -4  -2  14   56.09   12.10
  -4  -2  14   84.99   22.10
   3   2 -14   62.89   10.50
   3   2 -14   88.59   15.00
   3   2 -14   64.59   11.80
   3   2 -14   49.99   11.10
   3   2 -14   96.09   13.50
   3   2 -14   63.99   10.90
   3   2 -14   68.19   11.30
   3   2 -14   49.80   14.00
  -3  -2  14   58.09   15.70
  -3  -2  14   40.80    9.50
  -3  -2  14   53.09   10.70
  -3  -2  14   58.79   16.90
  -3  -2  14   45.40   10.60
  -3  -2  14   53.09   13.60
  -3  -2  14   49.00   10.30
   2   2 -14   11.80    6.20
   2   2 -14   19.80    6.40
   2   2 -14   12.20    8.20
   2   2 -14    2.20    7.30
   2   2 -14    6.90    9.60
   2   2 -14   16.80    6.30
   2   2 -14   15.20    6.60
   2   2 -14    9.70    7.20
  -2  -2  14   30.70   14.50
  -2  -2  14   -3.80    6.00
  -2  -2  14    9.30    7.40
  -2  -2  14   17.20    9.10
  -2  -2  14   17.70   10.30
  -2  -2  14   14.80    6.60
  -2  -2  14    6.10    6.40
   1   2 -14   22.90   10.00
   1   2 -14   36.90    9.30
   1   2 -14   17.80    7.10
   1   2 -14   20.10    7.00
   1   2 -14   17.10    7.20
   1   2 -14   24.60    8.50
   1   2 -14   20.00    6.60
  -1  -2  14   20.80    7.50
  -1  -2  14   33.90   11.40
  -1  -2  14   17.00    6.90
  -1  -2  14   12.80    6.60
  -1  -2  14   17.40   14.90
  -1  -2  14   17.70    8.20
  -1  -2  14   18.90    9.10
   0   2 -14    6.80    7.40
   0   2 -14    4.60    6.30
   0   2 -14    6.80    5.90
   0   2 -14   -1.40    6.70
   0   2 -14    1.00    5.40
   0   2 -14    4.00    5.80
   0   2 -14    8.30    8.30
   0  -2  14   -8.40   14.30
   0  -2  14   -1.90    5.70
   0  -2  14    2.90   10.50
   0  -2  14    2.10    5.40
   0  -2  14   11.10    7.10
   0  -2  14    4.20    7.80
  -1   2 -14    4.20    7.00
  -1   2 -14    0.10   11.20
  -1   2 -14    8.40    8.20
  -1   2 -14    5.50    6.90
  -1   2 -14   -1.10    6.50
  -1   2 -14    4.80    8.30
  -1   2 -14    8.40    8.10
   1  -2  14   15.70   12.90
   1  -2  14   -3.20    7.60
   1  -2  14   -4.10    8.20
   1  -2  14   -7.60    5.90
   1  -2  14   -5.80    5.20
   1  -2  14    8.80   11.20
   1  -2  14    1.80   13.90
   1  -2  14   -1.20    6.10
  -2   2 -14   10.30    9.00
  -2   2 -14   33.30    9.30
  -2   2 -14    0.30    6.80
  -2   2 -14   27.20   10.20
  -2   2 -14  -13.00   15.90
  -2   2 -14    4.40   10.20
  -2   2 -14   38.40   11.20
   2  -2  14    7.50    7.70
   2  -2  14   11.60    8.10
   2  -2  14   -3.10    9.00
   2  -2  14    3.60   17.70
   2  -2  14  -22.60   15.20
   2  -2  14  -10.00    6.20
   2  -2  14   -2.60    9.90
   2  -2  14   15.70   10.90
   4   1 -14   12.00    7.40
   4   1 -14   16.30    9.20
   4   1 -14   12.90    7.10
   4   1 -14   18.70    8.50
   4   1 -14   39.80    9.30
   4   1 -14   24.40   11.60
   4   1 -14   36.10   11.00
   4   1 -14   17.90    8.40
  -4  -1  14   17.10    8.30
  -4  -1  14   15.50    8.00
  -4  -1  14   19.40   17.00
  -4  -1  14   -0.50   10.50
  -4  -1  14    0.50   11.30
  -4  -1  14   11.90    7.40
  -4  -1  14   21.60    9.20
   3   1 -14   16.90    9.90
   3   1 -14   50.09    9.40
   3   1 -14   21.60    7.50
   3   1 -14   34.80    7.60
   3   1 -14    7.90    8.00
   3   1 -14   26.60    8.00
   3   1 -14   33.80    7.90
   3   1 -14   30.80    9.10
  -3  -1  14   17.70    8.00
  -3  -1  14   22.30    8.00
  -3  -1  14    7.70   10.20
  -3  -1  14   19.50   15.00
  -3  -1  14   11.00    7.00
  -3  -1  14   35.30    8.30
  -3  -1  14   30.70   10.60
   2   1 -14   80.79   14.10
   2   1 -14   74.49   12.50
   2   1 -14   81.69   12.00
   2   1 -14   66.59   11.60
   2   1 -14   68.19   10.70
   2   1 -14   79.39   11.80
   2   1 -14   93.89   16.80
  -2  -1  14   61.59   10.70
  -2  -1  14   65.49   12.90
  -2  -1  14   51.89   15.50
  -2  -1  14   63.49   11.70
  -2  -1  14   52.49   10.20
  -2  -1  14   54.59   13.50
   1   1 -14  224.18   22.20
   1   1 -14  189.88   24.40
   1   1 -14  203.68   24.70
   1   1 -14  245.48   23.40
   1   1 -14  241.98   27.50
   1   1 -14  217.38   22.50
   1   1 -14  234.28   22.20
   1   1 -14  226.58   22.50
  -1  -1  14  157.38   26.00
  -1  -1  14  163.28   28.80
  -1  -1  14  185.38   21.80
  -1  -1  14  175.98   22.20
  -1  -1  14  180.58   24.00
  -1  -1  14  160.28   22.20
   0   1 -14   57.89   10.70
   0   1 -14   55.09   14.90
   0   1 -14  112.79   23.80
   0   1 -14   64.49   12.20
   0   1 -14   61.99   15.20
   0   1 -14   69.59   12.00
   0   1 -14   94.19   13.40
   0  -1  14   37.30   14.00
   0  -1  14   63.79   12.30
   0  -1  14   66.09   20.40
   0  -1  14   62.59   10.80
   0  -1  14   76.09   12.00
  -1   1 -14  158.58   20.10
  -1   1 -14  185.58   21.60
  -1   1 -14  224.38   22.70
  -1   1 -14  165.78   20.50
  -1   1 -14  166.08   23.50
  -1   1 -14  144.09   21.40
  -1   1 -14  227.58   29.00
   1  -1  14  174.28   20.40
   1  -1  14  113.59   28.00
   1  -1  14  180.78   23.10
   1  -1  14  148.29   20.40
   1  -1  14  184.68   20.00
   1  -1  14  139.69   21.20
  -2   1 -14  335.27   36.00
  -2   1 -14  437.06   38.30
  -2   1 -14  348.77   36.90
  -2   1 -14  352.66   37.10
  -2   1 -14  361.96   37.70
  -2   1 -14  373.06   40.20
   2  -1  14  344.67   36.70
   2  -1  14  284.07   37.70
   2  -1  14  399.76   39.50
   2  -1  14  271.87   38.30
   2  -1  14  358.46   35.90
   2  -1  14  323.27   48.80
   2  -1  14  326.07   36.60
   4   0 -14   -0.80   10.00
   4   0 -14  -13.20    7.20
   4   0 -14   -0.70    8.10
   4   0 -14    1.40    6.60
   4   0 -14    3.40    7.40
   4   0 -14    6.50    7.10
   4   0 -14   -5.10    9.00
  -4   0  14   -8.00    7.20
  -4   0  14   -9.20   18.10
  -4   0  14    2.20    7.40
  -4   0  14    1.90    7.10
  -4   0  14   -4.90   10.00
  -4   0  14   -8.30    7.70
  -4   0  14   31.40   10.80
   3   0 -14  115.79   19.30
   3   0 -14  108.69   14.60
   3   0 -14  133.49   15.80
   3   0 -14  120.29   17.70
   3   0 -14  119.09   16.20
   3   0 -14  140.99   15.70
   3   0 -14  132.69   15.40
   3   0 -14  120.89   17.20
  -3   0  14   90.89   18.40
  -3   0  14   88.69   15.10
  -3   0  14  104.29   15.20
  -3   0  14   80.79   17.40
  -3   0  14  119.09   15.70
  -3   0  14   85.49   15.00
  -3   0  14   66.59   23.80
   2   0 -14    0.90    5.80
   2   0 -14   -6.20    5.20
   2   0 -14    9.30    5.70
   2   0 -14   -8.80    7.00
   2   0 -14    0.70    5.70
   2   0 -14   -5.70    6.80
   2   0 -14   -0.60   13.90
   2   0 -14    8.70    8.90
   2   0 -14    0.60    6.40
  -2   0  14   11.20   15.80
  -2   0  14   -0.80    7.10
  -2   0  14    9.00    7.40
  -2   0  14    3.80    6.30
  -2   0  14    5.70    5.90
  -2   0  14    3.90    9.00
   1   0 -14    8.80    6.30
   1   0 -14   28.80   17.10
   1   0 -14    7.90    6.50
   1   0 -14    6.10    7.90
   1   0 -14    9.90    6.30
   1   0 -14   20.40    7.60
   1   0 -14    0.20    9.90
  -1   0  14   12.60   10.60
  -1   0  14   -1.70    7.70
  -1   0  14   17.80    6.40
  -1   0  14   13.70    8.10
  -1   0  14    1.20   15.90
  -1   0  14    4.70    5.70
  -1   0  14    7.80    6.70
   0   0 -14   70.39   13.30
   0   0 -14   49.60    9.60
   0   0 -14   53.09    9.50
   0   0 -14   57.79   10.60
   0   0 -14   63.49   11.30
   0   0 -14   71.79   16.20
   0   0  14   54.69   20.10
   0   0  14   49.70    9.90
   0   0  14   61.99   12.10
   0   0  14   34.60   14.60
   0   0  14   43.70    8.90
  -1   0 -14   23.50   11.80
  -1   0 -14   27.20   11.10
  -1   0 -14   46.90   10.40
  -1   0 -14   14.00    9.50
  -1   0 -14   44.90   15.70
  -1   0 -14   25.80    8.50
  -1   0 -14   43.20    8.50
   1   0  14   20.40   10.20
   1   0  14   43.40    9.30
   1   0  14   37.80   10.90
   1   0  14   19.80   10.60
   1   0  14    9.40   14.50
   1   0  14   27.70    7.90
   1   0  14   35.60    8.80
   1   0  14   24.30   19.30
  -2   0 -14  106.39   24.10
  -2   0 -14   63.09   12.90
  -2   0 -14   92.19   17.70
  -2   0 -14   63.39   18.00
  -2   0 -14   60.49   14.00
  -2   0 -14   62.69   14.40
  -2   0 -14   97.29   15.00
  -2   0 -14   80.79   13.50
   2   0  14   59.99   13.00
   2   0  14   87.69   16.40
   2   0  14   64.19   12.20
   2   0  14   67.19   25.50
   2   0  14   73.39   20.20
   2   0  14  102.49   19.20
   2   0  14   81.99   13.70
   4  -1 -14   -0.10    7.50
   4  -1 -14   12.90    9.30
   4  -1 -14   14.70    7.80
   4  -1 -14   11.80    8.40
   4  -1 -14   27.10   20.20
   4  -1 -14   15.30    6.50
   4  -1 -14   10.50    7.40
   4  -1 -14   16.00    7.20
   4  -1 -14    9.60    9.10
  -4   1  14   14.40    7.00
  -4   1  14    0.50   10.80
  -4   1  14    4.60    8.40
  -4   1  14    3.60    8.10
  -4   1  14    9.30    6.60
  -4   1  14   12.50   21.20
  -4   1  14   -3.00   10.20
   3  -1 -14   96.29   15.90
   3  -1 -14  145.09   19.30
   3  -1 -14  129.29   16.20
   3  -1 -14  113.09   16.90
   3  -1 -14  102.99   16.90
   3  -1 -14   96.09   14.10
  -3   1  14  108.79   18.40
  -3   1  14  101.19   16.00
  -3   1  14  111.79   15.90
  -3   1  14  117.49   26.20
   2  -1 -14   49.40    8.80
   2  -1 -14   45.00    9.80
   2  -1 -14   60.49   10.40
   2  -1 -14   54.09    9.20
   2  -1 -14   53.99   12.80
   2  -1 -14   46.00   10.40
   2  -1 -14   46.20    9.50
  -2   1  14   36.70    8.30
  -2   1  14   41.90   10.40
  -2   1  14   14.70   18.50
  -2   1  14   27.70    9.30
  -2   1  14   43.30    8.60
  -2   1  14   27.50    8.60
   1  -1 -14   64.69   21.30
   1  -1 -14   21.50    6.90
   1  -1 -14   26.90    9.30
   1  -1 -14   39.80    9.50
   1  -1 -14   25.80    7.50
   1  -1 -14   32.10    8.80
   1  -1 -14   29.70    8.20
   1  -1 -14   30.20   12.40
  -1   1  14    7.20    7.70
  -1   1  14   26.20    6.70
  -1   1  14   12.20   12.80
  -1   1  14   24.40    7.20
  -1   1  14    7.70   15.90
  -1   1  14   34.10    9.90
  -1   1  14   23.30    9.10
   0  -1 -14   42.10   11.50
   0  -1 -14   54.89   10.40
   0  -1 -14   51.79   11.70
   0  -1 -14   61.89   11.60
   0  -1 -14   53.99   12.60
   0  -1 -14   56.19    9.80
   0  -1 -14   65.89   15.50
   0   1  14   45.80   16.30
   0   1  14   23.40   19.50
   0   1  14   26.40   15.10
   0   1  14   67.79   11.00
   0   1  14   61.89   12.30
   0   1  14   47.40   11.60
   0   1  14   60.59   10.10
  -1  -1 -14  207.58   25.00
  -1  -1 -14  217.78   24.30
  -1  -1 -14  265.97   29.10
  -1  -1 -14  198.38   28.20
  -1  -1 -14  267.07   26.40
  -1  -1 -14  222.28   26.80
   1   1  14  229.38   24.10
   1   1  14  206.78   24.90
   1   1  14  194.58   27.30
   1   1  14  188.08   23.80
   1   1  14  153.78   27.00
   1   1  14  202.88   29.20
   4  -2 -14    5.60    8.60
   4  -2 -14   15.60    9.00
   4  -2 -14   -1.70    7.10
   4  -2 -14   13.30    5.80
   4  -2 -14    6.00   21.30
   4  -2 -14   12.70    7.90
   4  -2 -14   11.70    8.70
   4  -2 -14    4.30    7.60
   4  -2 -14    6.00    8.40
  -4   2  14    9.30   12.70
  -4   2  14    3.30    7.90
  -4   2  14   -6.10   22.10
  -4   2  14   20.10    9.40
  -4   2  14   13.90   12.60
  -4   2  14    8.60    5.30
  -4   2  14    8.90    5.90
   3  -2 -14   13.00    5.90
   3  -2 -14    7.80    8.00
   3  -2 -14   14.60    7.20
   3  -2 -14   -2.20    7.60
   3  -2 -14   -6.10    8.90
   3  -2 -14   26.50    8.50
   3  -2 -14   10.60   20.40
   3  -2 -14   -1.20    6.80
  -3   2  14   -7.40   10.40
  -3   2  14   -1.70   18.30
  -3   2  14    1.50    5.60
  -3   2  14    7.90    7.00
  -3   2  14    6.90    8.00
  -3   2  14    6.90    8.70
  -3   2  14   -2.60    6.40
   2  -2 -14   46.50   20.90
   2  -2 -14   -3.20   10.20
   2  -2 -14   11.10    6.60
   2  -2 -14    1.30    7.50
   2  -2 -14    8.90    7.40
   2  -2 -14    4.60    7.50
   2  -2 -14   14.20    7.70
  -2   2  14    7.40    6.50
  -2   2  14   14.00    8.60
  -2   2  14   12.10   10.90
  -2   2  14   13.80    8.90
  -2   2  14   11.60    7.50
  -2   2  14   -4.50   18.30
  -2   2  14    8.50    6.10
   1  -2 -14  331.97   34.90
   1  -2 -14  322.47   32.10
   1  -2 -14  321.37   33.80
   1  -2 -14  321.37   32.70
  -1   2  14  324.67   32.50
  -1   2  14  245.68   44.40
  -1   2  14  248.98   33.80
  -1   2  14  362.36   34.90
   0  -2 -14    5.80    8.50
   0  -2 -14    5.10    6.50
   0  -2 -14    9.80   10.00
   0  -2 -14   25.10    9.80
   0  -2 -14   -5.50   13.70
   0  -2 -14   19.10   20.90
   0  -2 -14    1.00    7.10
   0  -2 -14    5.90    9.50
   0   2  14   -7.50    9.20
   0   2  14   -4.90    6.00
   0   2  14   13.90   20.90
   0   2  14   -2.90    8.60
   0   2  14    5.50    7.10
   0   2  14  -15.70    8.70
   0   2  14   22.50   14.30
  -1  -2 -14  155.98   20.80
  -1  -2 -14  114.69   17.80
  -1  -2 -14  174.78   24.00
  -1  -2 -14  121.49   22.40
  -1  -2 -14  174.08   28.30
  -1  -2 -14   94.49   22.30
   1   2  14  111.49   30.90
   1   2  14  105.29   20.80
   1   2  14  114.39   18.30
   1   2  14   86.09   23.30
   1   2  14  130.69   17.30
   1   2  14   90.79   18.20
   4  -3 -14   -2.20    6.20
   4  -3 -14   13.80    8.20
   4  -3 -14    9.00    9.90
   4  -3 -14   -0.70    6.90
   4  -3 -14   -6.60    7.70
   4  -3 -14    3.70   23.60
   4  -3 -14  -12.20    8.50
   4  -3 -14  -22.10    9.00
   4  -3 -14   18.20    9.50
  -4   3  14  -11.70    7.60
  -4   3  14  -14.30   25.00
  -4   3  14   10.40    9.90
  -4   3  14  -11.70   15.10
   3  -3 -14   52.49    9.70
   3  -3 -14   40.00    9.60
   3  -3 -14   33.00    7.80
   3  -3 -14   30.00   10.50
   3  -3 -14   53.19   11.30
   3  -3 -14   24.50    9.40
   3  -3 -14   57.79   10.10
   3  -3 -14   54.69   12.40
  -3   3  14   59.99   27.10
  -3   3  14   31.20   11.90
  -3   3  14   15.40   12.00
  -3   3  14   45.20    9.40
  -3   3  14   25.40    6.90
  -3   3  14   25.60    9.60
   2  -3 -14   84.79   26.60
   2  -3 -14   41.70    9.20
   2  -3 -14   43.50    8.60
   2  -3 -14   61.29   11.20
   2  -3 -14   48.70   10.70
   2  -3 -14   68.69   11.50
   2  -3 -14   42.50   13.60
   2  -3 -14   51.69   11.10
  -2   3  14   46.70   11.30
  -2   3  14   30.60   10.60
  -2   3  14   40.00   23.50
  -2   3  14   32.30    9.10
   1  -3 -14    0.40    8.80
   1  -3 -14   10.90    9.30
   1  -3 -14   -2.10    9.00
   1  -3 -14    1.60    8.70
   1  -3 -14    7.70    7.10
   1  -3 -14    7.10    6.40
   1  -3 -14    3.50   22.00
   1  -3 -14   -0.20   13.20
  -1   3  14  -12.40    6.40
  -1   3  14   19.00   22.50
  -1   3  14   11.50    7.10
  -1   3  14    5.20   13.50
  -1   3  14  -15.20    9.20
  -1   3  14    5.10    8.70
  -1   3  14    8.50    9.40
   0  -3 -14   29.80    8.30
   0  -3 -14    5.50   24.30
   0  -3 -14    3.10   11.50
   0  -3 -14   16.10   11.60
   0  -3 -14    4.10    6.90
   0  -3 -14   10.00   10.70
   0  -3 -14    9.30   16.30
   0   3  14   59.39   25.30
   0   3  14   11.40   10.70
   0   3  14   15.40   18.70
   0   3  14   12.20    7.90
   0   3  14   11.30   16.40
   0   3  14   15.70   11.10
   0   3  14    8.40    7.80
   3  -4 -14   19.00   11.80
   3  -4 -14   37.00   10.40
   3  -4 -14   10.40    8.90
   3  -4 -14  -21.50   25.20
   3  -4 -14   28.30    8.70
   3  -4 -14   -7.00    9.00
   3  -4 -14    3.50    7.00
   3  -4 -14   12.70    7.60
   3  -4 -14    4.10   10.20
  -3   4  14    5.40    9.60
  -3   4  14    6.70    7.80
  -3   4  14    1.70    4.70
   2  -4 -14   -8.60    6.80
   2  -4 -14    9.40   10.00
   2  -4 -14   -9.70    9.10
   2  -4 -14   -3.70    8.40
   2  -4 -14  -24.90   21.40
   2  -4 -14    4.00   10.00
   2  -4 -14    1.10    6.70
   2  -4 -14  -14.20   13.40
  -2   4  14    0.20   10.00
  -2   4  14   14.00   10.30
  -2   4  14   -5.90    7.70
  -2   4  14    3.40    7.50
  -2   4  14   -0.60    6.20
   1  -4 -14    1.70    7.70
   1  -4 -14  -10.50   10.00
   1  -4 -14   13.50    7.20
   1  -4 -14    6.60   10.30
   1  -4 -14    0.40   15.30
   1  -4 -14    1.20   11.40
   1  -4 -14    0.00   10.30
   1  -4 -14  -12.70   22.10
  -1   4  14   10.00    7.50
  -1   4  14   -6.60    9.80
  -1   4  14   33.00    9.90
  -1   4  14   15.10    8.70
   2   5 -15  109.09   22.20
   2   5 -15  119.29   17.70
   2   5 -15   90.59   14.80
   2   5 -15  105.59   17.00
   2   5 -15  100.39   15.90
  -2  -5  15   84.59   15.50
  -2  -5  15   87.69   20.10
  -2  -5  15   66.89   15.60
  -2  -5  15   80.39   15.30
  -2  -5  15  146.99   28.30
   1   5 -15   -8.40   10.00
   1   5 -15   -3.10   14.60
   1   5 -15    1.30   11.40
   1   5 -15  -15.00    7.60
   1   5 -15  -19.60    9.40
   1   5 -15    0.90    9.40
   1   5 -15    7.70    6.60
   1   5 -15  -13.60    7.90
  -1  -5  15   10.30   11.80
  -1  -5  15    3.40    8.10
  -1  -5  15   -2.60    9.10
  -1  -5  15    2.00    8.70
  -1  -5  15  -27.70   28.40
  -1  -5  15    2.40   11.90
  -1  -5  15    5.20    8.10
   0   5 -15   33.80   16.60
   0   5 -15   11.90    9.10
   0   5 -15   11.00    9.50
   0   5 -15   38.70   11.10
   0   5 -15   24.70    5.80
   0   5 -15   24.60   10.80
   0   5 -15    8.10   11.00
   0  -5  15   16.30    8.40
   0  -5  15    7.90   19.70
   0  -5  15   -4.60    9.90
   0  -5  15   13.20    8.10
   0  -5  15   17.80   13.60
   0  -5  15    7.00   12.60
  -1   5 -15   -2.50   11.90
  -1   5 -15  -12.80   14.40
  -1   5 -15   -1.30    8.50
  -1   5 -15    2.90   10.80
  -1   5 -15    2.50   10.60
  -1   5 -15    0.80    4.30
   1  -5  15   22.90    9.50
   1  -5  15    6.10   10.60
   1  -5  15    2.30    8.00
   1  -5  15  -19.50   20.30
   1  -5  15   19.70   12.10
   3   4 -15   19.10   10.20
   3   4 -15    0.50   12.00
   3   4 -15   11.70    8.60
   3   4 -15  -11.00    8.80
   3   4 -15   12.10   13.90
  -3  -4  15   16.80   10.80
  -3  -4  15    4.40   13.50
  -3  -4  15   14.80   17.20
  -3  -4  15   11.60   10.60
  -3  -4  15   32.40    9.40
   2   4 -15  402.16   42.80
   2   4 -15  339.77   36.20
   2   4 -15  367.36   37.50
   2   4 -15  365.96   36.80
   2   4 -15  351.96   35.50
   2   4 -15  345.37   36.20
  -2  -4  15  359.06   36.50
  -2  -4  15  318.77   42.30
  -2  -4  15  290.37   40.20
  -2  -4  15  267.17   35.70
  -2  -4  15  401.76   49.10
  -2  -4  15  334.37   36.50
  -2  -4  15  279.57   35.30
   1   4 -15    6.60    7.30
   1   4 -15    8.00    8.80
   1   4 -15   -2.30    7.80
   1   4 -15   -4.10   10.10
   1   4 -15   16.50   12.90
   1   4 -15    5.70    6.10
   1   4 -15   19.50    9.20
   1   4 -15   -1.40    7.70
  -1  -4  15   -2.80    6.90
  -1  -4  15   -0.50   11.00
  -1  -4  15   -0.90    9.00
  -1  -4  15   -7.70    7.20
  -1  -4  15  -24.50   17.50
  -1  -4  15    9.40   12.70
  -1  -4  15  -14.80    7.40
   0   4 -15   41.60    9.70
   0   4 -15   23.10   14.00
   0   4 -15   49.80   10.20
   0   4 -15   38.60    7.70
   0   4 -15   44.80   11.10
   0   4 -15   37.70    9.40
   0   4 -15   45.90   11.00
   0  -4  15   29.10   14.50
   0  -4  15   29.80    9.00
   0  -4  15   26.80   10.20
   0  -4  15   44.40    9.60
   0  -4  15   19.00   11.20
   0  -4  15   57.09   20.40
  -1   4 -15   27.90   11.20
  -1   4 -15    6.00   11.80
  -1   4 -15   10.00    9.10
  -1   4 -15   21.60   15.50
  -1   4 -15   25.30    9.00
  -1   4 -15   22.00   11.00
  -1   4 -15   17.20    5.80
   1  -4  15    0.20   17.70
   1  -4  15   10.10   10.20
   1  -4  15   35.90   15.40
   1  -4  15   -3.00    7.50
   1  -4  15   26.50    9.00
   1  -4  15   15.70   11.40
   3   3 -15   27.10    9.40
   3   3 -15   16.70    9.50
   3   3 -15   23.30   12.00
   3   3 -15   18.60    8.70
   3   3 -15   14.90   11.80
   3   3 -15   27.50   16.70
   3   3 -15   19.70    8.10
   3   3 -15   19.70   13.50
  -3  -3  15   28.90    9.30
  -3  -3  15   24.50   12.70
  -3  -3  15   27.70   10.30
  -3  -3  15   28.50   15.10
  -3  -3  15    2.40    9.70
  -3  -3  15   45.10   21.80
  -3  -3  15   34.70   10.10
   2   3 -15    5.90    9.60
   2   3 -15   -2.00    7.50
   2   3 -15   -5.00   11.70
   2   3 -15   -1.50    7.40
   2   3 -15   -6.20    6.20
   2   3 -15    4.30    7.10
   2   3 -15   -6.60    7.80
   2   3 -15   -3.70    8.90
  -2  -3  15   -1.40   12.50
  -2  -3  15   -8.30    7.90
  -2  -3  15  -16.00    7.80
  -2  -3  15   21.40   14.80
  -2  -3  15    3.20    7.70
  -2  -3  15   -0.90   15.50
  -2  -3  15    9.30    7.80
   1   3 -15   21.80    8.70
   1   3 -15    5.20    7.30
   1   3 -15    7.00   11.90
   1   3 -15    3.10    7.30
   1   3 -15    4.60    8.30
   1   3 -15   16.00    7.80
   1   3 -15    6.20    6.30
   1   3 -15    6.50    9.80
  -1  -3  15   -5.80   15.90
  -1  -3  15    6.90   10.50
  -1  -3  15   -9.30    7.40
  -1  -3  15    4.20   11.20
  -1  -3  15   12.50    8.90
  -1  -3  15   -5.60    6.60
  -1  -3  15    2.70    6.60
   0   3 -15   -5.70    7.00
   0   3 -15    1.80    9.20
   0   3 -15   20.60    6.40
   0   3 -15   16.20    7.10
   0   3 -15    3.70   12.60
   0   3 -15    0.20    7.30
   0   3 -15   -3.60    8.70
   0   3 -15   20.80   10.10
   0  -3  15   -5.30   12.00
   0  -3  15   10.50   16.40
   0  -3  15   -1.70    7.10
   0  -3  15    7.30    9.40
   0  -3  15   -6.00    9.20
   0  -3  15   -0.20    8.40
   0  -3  15    8.30    7.10
  -1   3 -15   61.49   11.70
  -1   3 -15   63.59    9.90
  -1   3 -15   40.60   12.10
  -1   3 -15   67.19   11.50
  -1   3 -15   55.19   11.20
  -1   3 -15   75.09   13.60
  -1   3 -15   59.19   14.40
   1  -3  15   41.80   11.80
   1  -3  15   68.99   11.90
   1  -3  15   55.59   13.70
   1  -3  15   31.80   16.00
   1  -3  15   30.30   20.30
   1  -3  15   42.90   10.00
   1  -3  15   57.99   11.10
   1  -3  15   29.30   12.60
   4   2 -15   -5.10    8.60
   4   2 -15    4.40    9.00
   4   2 -15   -4.40   11.20
   4   2 -15   18.40   10.00
   4   2 -15    3.30    9.40
  -4  -2  15    9.40   21.50
  -4  -2  15  -17.50   14.40
  -4  -2  15    7.50   10.60
  -4  -2  15   -1.50   10.00
  -4  -2  15    0.80    9.00
   3   2 -15  174.38   21.00
   3   2 -15  186.08   22.20
   3   2 -15  166.58   26.50
   3   2 -15  138.89   21.00
   3   2 -15  153.18   22.90
   3   2 -15  167.38   22.20
   3   2 -15  188.98   20.30
   3   2 -15  186.88   20.70
  -3  -2  15  128.39   26.20
  -3  -2  15  149.39   20.70
  -3  -2  15  147.69   21.10
  -3  -2  15  130.69   25.90
  -3  -2  15  191.08   34.80
  -3  -2  15  152.28   20.60
  -3  -2  15  140.69   21.30
   2   2 -15   56.09   11.20
   2   2 -15   71.59   12.40
   2   2 -15   71.19   11.10
   2   2 -15   94.59   17.60
   2   2 -15   73.29   13.30
   2   2 -15   65.49   13.90
   2   2 -15   76.39   13.00
   2   2 -15   78.29   12.90
  -2  -2  15   70.19   15.60
  -2  -2  15   81.79   21.20
  -2  -2  15   83.89   13.80
  -2  -2  15   68.79   11.90
  -2  -2  15   68.39   13.30
  -2  -2  15   51.99   12.00
  -2  -2  15   39.80   23.90
   1   2 -15   67.59   12.00
   1   2 -15   63.29   11.30
   1   2 -15   61.39   10.10
   1   2 -15   77.89   16.70
   1   2 -15   72.29   12.50
   1   2 -15   71.69   13.90
   1   2 -15   66.99   11.00
  -1  -2  15   66.09   20.90
  -1  -2  15   58.99   10.90
  -1  -2  15   50.19   11.90
  -1  -2  15   50.99   13.60
  -1  -2  15   57.69   11.40
  -1  -2  15   53.69   10.40
  -1  -2  15   38.70   13.00
   0   2 -15   29.90   10.00
   0   2 -15   22.00    8.40
   0   2 -15   27.10    9.90
   0   2 -15   27.90    8.70
   0   2 -15   28.80    9.10
   0   2 -15   38.60   14.20
   0   2 -15   29.90    8.20
   0   2 -15   17.30   11.10
   0  -2  15    5.20   12.50
   0  -2  15   44.60   10.40
   0  -2  15   38.40   11.10
   0  -2  15   31.70    9.00
   0  -2  15   32.40   18.30
   0  -2  15   45.00    8.70
   0  -2  15    9.20   10.40
  -1   2 -15  107.99   17.00
  -1   2 -15  130.29   18.60
  -1   2 -15   73.49   15.50
  -1   2 -15   91.89   16.30
  -1   2 -15  125.29   17.00
  -1   2 -15  116.09   22.00
   1  -2  15  113.89   15.30
   1  -2  15   82.69   17.00
   1  -2  15  118.49   16.90
   1  -2  15  114.89   26.50
   1  -2  15   87.79   16.00
   4   1 -15  -12.90    9.00
   4   1 -15   13.30   12.60
   4   1 -15   -9.90    7.80
   4   1 -15    2.40   10.10
   4   1 -15  -17.60    7.80
   4   1 -15    3.70    9.40
  -4  -1  15    7.10   10.00
  -4  -1  15  -15.50   13.30
  -4  -1  15   -6.90   23.20
  -4  -1  15   -0.90    8.80
  -4  -1  15   12.10    9.20
   3   1 -15   35.10    7.80
   3   1 -15   26.90   10.40
   3   1 -15   26.60    9.00
   3   1 -15   24.60    8.60
   3   1 -15   22.20    9.40
   3   1 -15    4.20   11.10
   3   1 -15   36.10    9.20
   3   1 -15    2.30    9.30
  -3  -1  15   16.00   19.90
  -3  -1  15    9.70   12.00
  -3  -1  15   19.00   12.40
  -3  -1  15   21.80    8.70
  -3  -1  15   19.00    9.70
  -3  -1  15   17.90    8.40
  -3  -1  15   19.20    8.80
   2   1 -15    0.60    7.80
   2   1 -15    6.00    6.90
   2   1 -15   -0.30    6.20
   2   1 -15    6.70    7.30
   2   1 -15   23.20   11.10
   2   1 -15  -13.20    6.90
   2   1 -15   16.40    7.00
   2   1 -15    0.90    8.00
  -2  -1  15    9.00    6.90
  -2  -1  15   -1.50    8.80
  -2  -1  15   10.90   11.50
  -2  -1  15    9.10   17.70
  -2  -1  15    4.50    9.50
  -2  -1  15   -5.10    6.80
   1   1 -15   48.30   14.70
   1   1 -15   41.80    9.70
   1   1 -15   60.59   11.40
   1   1 -15   64.19   11.80
   1   1 -15   40.40    9.00
   1   1 -15   37.40   13.50
   1   1 -15   35.30    9.20
   1   1 -15   56.49    9.50
  -1  -1  15   32.50    8.70
  -1  -1  15   27.50    9.60
  -1  -1  15   37.40    9.20
  -1  -1  15   36.40   14.80
  -1  -1  15   46.00   11.90
  -1  -1  15   67.89   20.70
  -1  -1  15   29.50   10.20
   0   1 -15   10.40   10.50
   0   1 -15    4.70    9.10
   0   1 -15   20.40   14.10
   0   1 -15   28.60    9.60
   0   1 -15   10.50    8.20
   0   1 -15   18.70    7.90
   0  -1  15   20.70   19.50
   0  -1  15   21.00    9.10
   0  -1  15   22.10    6.80
   0  -1  15   16.20   14.00
   0  -1  15   14.50    7.40
   0  -1  15   -4.70   10.10
   0  -1  15   13.30    9.90
  -1   1 -15   22.80    9.00
  -1   1 -15   12.60   11.20
  -1   1 -15   27.00   17.30
  -1   1 -15    7.60   10.60
  -1   1 -15    3.80   10.70
  -1   1 -15   22.70    9.10
   1  -1  15   20.90   11.60
   1  -1  15   17.50   10.30
   1  -1  15    9.20    8.40
   1  -1  15    3.10   15.00
   1  -1  15   10.00   21.10
   1  -1  15    2.30    7.30
   1  -1  15    3.80    8.30
   1  -1  15  -15.50   10.40
   4   0 -15  -14.90   11.30
   4   0 -15    9.40    7.90
   4   0 -15   -5.40    8.70
   4   0 -15   -5.00    7.80
   4   0 -15   -2.50    9.30
   4   0 -15   25.10    8.90
   4   0 -15    9.10   10.60
   4   0 -15    7.50    9.70
  -4   0  15    9.40   13.70
  -4   0  15   20.50    8.70
  -4   0  15   23.80   25.50
  -4   0  15   11.80    8.80
  -4   0  15   -5.90    9.60
   3   0 -15  212.88   25.40
   3   0 -15  214.08   23.50
   3   0 -15  205.28   23.00
   3   0 -15  230.58   25.80
   3   0 -15  217.58   24.90
   3   0 -15  237.38   28.60
   3   0 -15  240.18   24.70
   3   0 -15  238.88   24.30
  -3   0  15  191.18   24.30
  -3   0  15  169.38   25.00
  -3   0  15  168.38   23.40
  -3   0  15  168.88   23.40
  -3   0  15  153.18   27.10
   2   0 -15   10.90    8.80
   2   0 -15  -11.00   18.30
   2   0 -15   -5.40   10.40
   2   0 -15   -4.00    7.90
   2   0 -15   15.20    6.70
   2   0 -15   -2.50    7.10
   2   0 -15    6.50    6.70
   2   0 -15    1.60    7.10
   2   0 -15    5.90    7.30
  -2   0  15   13.50   18.30
  -2   0  15   -3.10    6.50
  -2   0  15   -0.20    8.80
  -2   0  15   -5.10    6.40
  -2   0  15    8.60   11.90
  -2   0  15    8.70    8.00
  -2   0  15  -14.20    8.00
   1   0 -15   47.50   11.80
   1   0 -15   52.49   10.00
   1   0 -15   63.59   16.10
   1   0 -15   40.40   11.30
   1   0 -15   46.10    9.30
   1   0 -15   70.79   11.90
   1   0 -15   86.19   25.60
  -1   0  15   30.10   10.90
  -1   0  15   43.50   14.70
  -1   0  15   25.70   10.40
  -1   0  15   36.00    9.30
  -1   0  15   53.09    9.70
  -1   0  15   63.59   21.80
  -1   0  15   37.60   12.20
   0   0 -15   22.50   10.40
   0   0 -15    7.40    8.10
   0   0 -15   13.10    7.60
   0   0 -15   56.09   24.10
   0   0 -15   22.40   10.00
   0   0 -15   18.70    8.60
   0   0 -15   34.60   15.00
   0   0 -15   31.10   10.40
   0   0  15   -1.90   16.30
   0   0  15   27.10   20.60
   0   0  15   22.00    8.90
   0   0  15   13.00    7.30
   0   0  15    4.30   10.70
   0   0  15   15.70    9.70
  -1   0 -15   28.40    8.70
  -1   0 -15   31.00   13.10
  -1   0 -15   16.90    9.40
  -1   0 -15    7.20   12.20
  -1   0 -15   45.20   18.40
  -1   0 -15   44.60   24.40
  -1   0 -15   29.60   10.30
   1   0  15   25.20   24.80
   1   0  15   12.90   11.70
   1   0  15   16.50    7.80
   1   0  15   20.20   17.40
   1   0  15   20.30   12.40
   1   0  15   11.30   11.70
   1   0  15   10.80    9.20
   4  -1 -15   16.70    8.10
   4  -1 -15  -17.80    9.70
   4  -1 -15   -0.40    7.50
   4  -1 -15  -16.30   10.60
   4  -1 -15    4.90   11.30
   4  -1 -15   -1.90    8.70
   4  -1 -15    3.70    9.40
   4  -1 -15    5.90   10.80
   4  -1 -15   12.10   23.60
  -4   1  15   50.89   27.50
  -4   1  15  -13.30   11.50
  -4   1  15    9.90    9.90
   3  -1 -15    6.60    6.60
   3  -1 -15   -0.30    7.70
   3  -1 -15    2.60    7.80
   3  -1 -15    5.50    8.50
   3  -1 -15    6.90    8.30
   3  -1 -15    9.20   21.70
   3  -1 -15   -1.00   10.30
   3  -1 -15   -0.40    8.70
   3  -1 -15   -7.00    8.60
  -3   1  15   26.10   12.40
  -3   1  15    7.00    8.20
  -3   1  15    7.60    8.80
  -3   1  15   11.90    7.80
  -3   1  15   11.90   10.80
  -3   1  15   15.20   23.40
   2  -1 -15  238.18   24.70
   2  -1 -15  237.38   25.60
   2  -1 -15  233.08   23.50
   2  -1 -15  181.78   26.00
   2  -1 -15  226.78   24.10
   2  -1 -15  223.08   25.40
  -2   1  15  204.18   24.70
  -2   1  15  145.39   25.40
  -2   1  15  141.39   33.00
  -2   1  15  191.98   23.20
  -2   1  15  204.88   23.80
  -2   1  15  215.38   26.80
   1  -1 -15   45.80   10.80
   1  -1 -15   30.20   10.10
   1  -1 -15   30.10    8.10
   1  -1 -15   17.30   13.70
   1  -1 -15   32.20   22.10
   1  -1 -15   17.40    8.80
   1  -1 -15   14.50    8.00
   1  -1 -15   16.90   10.70
  -1   1  15  -12.00   13.10
  -1   1  15   20.60   10.90
  -1   1  15   -8.70   18.30
  -1   1  15   20.90   10.30
  -1   1  15    6.60    7.10
  -1   1  15   15.40    7.10
   0  -1 -15   53.29   12.60
   0  -1 -15   44.90   11.10
   0  -1 -15   45.40    9.60
   0  -1 -15   53.39   11.30
   0  -1 -15   36.20   13.20
   0  -1 -15   31.80   11.20
   0   1  15   18.10   22.90
   0   1  15   53.89   10.00
   0   1  15   27.70   17.10
   0   1  15   27.20   11.60
   0   1  15   21.00   12.20
   0   1  15   29.50    9.90
   0   1  15   34.60   13.20
  -1  -1 -15   -0.60    9.60
   1   1  15   15.50    8.70
   1   1  15    9.90    9.70
   3  -2 -15    2.00    8.30
   3  -2 -15   -9.40    8.40
   3  -2 -15  -15.50   21.90
   3  -2 -15   -4.80    8.30
   3  -2 -15   -4.20    8.30
   3  -2 -15   -7.40    8.00
   3  -2 -15   -3.60   11.50
   3  -2 -15   -4.50    9.30
  -3   2  15   -2.90    8.40
  -3   2  15   17.40   16.50
  -3   2  15   13.80   10.80
  -3   2  15   -7.70   24.00
   2  -2 -15   87.79   14.80
   2  -2 -15   80.39   15.60
   2  -2 -15   97.29   15.10
   2  -2 -15   75.99   13.10
   2  -2 -15  107.59   16.30
   2  -2 -15  120.29   22.50
   2  -2 -15  111.39   16.40
  -2   2  15  106.99   15.90
  -2   2  15  113.39   20.40
  -2   2  15   71.49   22.20
  -2   2  15   88.79   15.00
   1  -2 -15   -3.60   14.60
   1  -2 -15  -10.70    9.40
   1  -2 -15   -5.90    9.70
   1  -2 -15   15.70   10.80
   1  -2 -15   25.60   22.00
   1  -2 -15   -3.50    9.00
   1  -2 -15  -10.00    7.60
   1  -2 -15   22.00   15.20
  -1   2  15    2.90    7.60
  -1   2  15   23.80   12.60
  -1   2  15    0.50   10.90
  -1   2  15    1.00    7.30
  -1   2  15   -1.20   14.80
  -1   2  15  -10.40   18.50
  -1   2  15   17.70   25.80
   0  -2 -15   -9.40    8.30
   0  -2 -15   -9.80    8.20
   0  -2 -15   -0.10   10.60
   0  -2 -15   10.70   23.50
   0  -2 -15   12.90   12.30
   0  -2 -15    6.20   16.20
   0   2  15   33.70   11.80
   0   2  15    3.20   12.00
   0   2  15   23.20   17.50
   0   2  15   -6.60    7.80
   0   2  15    3.60    8.10
   2  -3 -15  178.78   21.60
   2  -3 -15  167.48   25.10
   2  -3 -15  205.68   24.20
   2  -3 -15  147.89   23.40
  -2   3  15  172.08   25.30
  -2   3  15  168.58   22.70
   1  -3 -15    7.90   10.90
   1  -3 -15   34.60   30.30
   1  -3 -15   18.60    8.80
  -1   3  15   -6.10    8.10
  -1   3  15   12.60   12.00
  -1   3  15   -2.70    8.70
   1   4 -16   24.50    9.60
   1   4 -16    2.40    7.50
   1   4 -16   30.50   15.60
   1   4 -16   26.90   13.40
   1   4 -16   -3.90   10.60
   1   4 -16   -2.40    9.10
  -1  -4  16    0.70    9.10
  -1  -4  16   10.40   10.50
  -1  -4  16   -4.40   13.70
  -1  -4  16   -1.10    8.80
   0   4 -16   71.09   13.50
   0  -4  16   45.10   11.50
   0  -4  16   67.19   12.90
   2   3 -16    3.70   14.20
   2   3 -16   15.80    8.70
   2   3 -16   30.10   10.40
   2   3 -16   -8.30    8.20
   2   3 -16   -1.00    9.40
   2   3 -16   -3.60   12.20
  -2  -3  16   16.40    9.90
  -2  -3  16   41.40   15.50
  -2  -3  16    6.20   14.50
  -2  -3  16    1.60    9.50
  -2  -3  16    6.80    9.80
   1   3 -16  -11.10   14.10
   1   3 -16    1.40    8.80
   1   3 -16    3.00   11.70
   1   3 -16    3.90    8.80
   1   3 -16  -19.80    8.80
   1   3 -16    3.90    7.30
  -1  -3  16   -2.50   14.80
  -1  -3  16  -14.00    7.80
  -1  -3  16   14.10   11.60
  -1  -3  16    1.60   11.50
  -1  -3  16    1.10    9.70
  -1  -3  16   -7.00    8.10
   0   3 -16   52.89   12.20
   0   3 -16   66.19   15.40
   0   3 -16   63.99   10.70
   0   3 -16   62.49   19.30
   0   3 -16   67.59   14.50
   0  -3  16   46.30   15.10
   0  -3  16   57.69   16.20
   0  -3  16   47.20   12.20
   0  -3  16   50.79   11.40
   0  -3  16   72.69   18.40
   3   2 -16   40.00    9.60
   3   2 -16    8.60   10.10
  -3  -2  16    2.00    9.90
  -3  -2  16   11.60   10.60
   2   2 -16   25.50    8.70
   2   2 -16   11.50    8.70
   2   2 -16   -4.70   10.30
   2   2 -16    7.50    9.90
   2   2 -16   -7.30   13.80
   2   2 -16    7.80    8.40
   2   2 -16    4.00   11.20
  -2  -2  16  -12.40    8.90
  -2  -2  16   21.80   14.50
  -2  -2  16    4.00    9.30
  -2  -2  16    2.90    9.00
  -2  -2  16    6.10   14.20
   1   2 -16  259.07   28.40
   1   2 -16  278.77   27.50
   1   2 -16  270.87   28.60
   1   2 -16  244.58   28.00
   1   2 -16  287.37   29.90
   1   2 -16  302.27   35.40
   1   2 -16  255.87   31.50
  -1  -2  16  200.38   28.80
  -1  -2  16  215.78   46.40
  -1  -2  16  197.68   29.40
  -1  -2  16  227.18   28.20
  -1  -2  16  275.47   33.20
  -1  -2  16  210.48   27.60
   0   2 -16   -5.60    9.00
   0   2 -16    8.60   12.30
   0   2 -16   22.80   11.00
   0   2 -16    6.50    8.20
   0   2 -16   29.10   14.60
   0   2 -16   24.50    9.70
   0   2 -16    5.20   15.80
   0  -2  16    7.20    9.10
   0  -2  16   10.90   12.20
   0  -2  16   31.40   18.30
   0  -2  16    2.50   11.50
   0  -2  16   16.60    8.30
   0  -2  16   24.50   22.20
   3   1 -16    7.60   11.30
   3   1 -16    3.80    9.70
   3   1 -16   42.70   14.90
   3   1 -16    0.50    9.50
   3   1 -16   26.70   10.60
  -3  -1  16   22.00    9.50
  -3  -1  16    8.30   14.20
  -3  -1  16   23.60   10.10
  -3  -1  16   31.70   10.90
  -3  -1  16   15.00   18.40
   2   1 -16   -2.40    8.80
   2   1 -16  -16.80   12.60
   2   1 -16   15.40   10.80
   2   1 -16   -9.90    7.70
   2   1 -16   -4.00    8.70
   2   1 -16   -3.50    8.40
   2   1 -16   -4.90    9.40
  -2  -1  16   -0.20    8.10
  -2  -1  16    3.70    8.40
  -2  -1  16   -8.70   12.70
  -2  -1  16    1.60    9.20
  -2  -1  16    3.60   11.30
   1   1 -16   12.90    8.80
   1   1 -16   -9.50    8.20
   1   1 -16   -6.30   11.20
   1   1 -16   -5.80   13.60
   1   1 -16    6.80    8.30
   1   1 -16    3.80    8.10
   1   1 -16   -7.20   11.90
   1   1 -16    3.60   10.10
  -1  -1  16    9.80   14.60
  -1  -1  16  -11.10   18.50
  -1  -1  16    8.70   11.20
  -1  -1  16   14.00    8.20
  -1  -1  16    8.20    8.50
  -1  -1  16   -2.40   14.40
   0   1 -16   38.30   10.80
   0   1 -16   33.20   10.00
   0   1 -16   35.60   17.90
   0   1 -16   23.60   10.00
   0   1 -16    5.90   12.40
   0   1 -16   33.50   11.30
   0  -1  16   31.90   12.00
   0  -1  16   31.20   13.70
   0  -1  16    6.40   17.10
   0  -1  16   24.00    9.40
   0  -1  16   11.60    8.70
   0  -1  16   26.50   13.90
   3   0 -16  -10.20    7.80
   3   0 -16  -13.00    8.70
   3   0 -16  -11.70    8.90
   3   0 -16   -7.80   10.90
  -3   0  16    0.10    9.60
  -3   0  16    6.30    9.10
  -3   0  16  -11.20   13.00
   2   0 -16  162.18   22.60
   2   0 -16  194.98   21.00
   2   0 -16  175.88   28.10
   2   0 -16  140.69   20.20
   2   0 -16  144.79   21.00
   2   0 -16  154.48   24.10
   2   0 -16  200.58   22.20
  -2   0  16  121.39   20.10
  -2   0  16  145.19   20.90
  -2   0  16  143.39   20.90
  -2   0  16  140.29   25.40
   1   0 -16   18.40   14.70
   1   0 -16   10.90    9.00
   1   0 -16    6.20   14.60
   1   0 -16   22.50   25.40
   1   0 -16   33.10   10.80
  -1   0  16    9.60   11.10
  -1   0  16   -0.10    8.30
  -1   0  16   35.70   16.10
  -1   0  16   17.90   13.00
  -1   0  16   21.00    8.80
   0   0 -16   33.60   10.80
   0   0 -16   38.80   14.20
   0   0 -16   63.59   11.40
   0   0 -16   60.79   15.20
   0   0  16   26.20   12.40
   0   0  16   15.00    9.00
   0   0  16   21.30   14.80
   0   0  16   42.50   10.90
   2  -1 -16   80.29   18.50
   2  -1 -16   64.69   13.50
   2  -1 -16   39.70   11.00
   2  -1 -16  104.39   31.60
   2  -1 -16   65.39   14.80
   2  -1 -16   54.99   11.70
   2  -1 -16   39.50   12.30
  -2   1  16   45.50   15.20
  -2   1  16   53.59   11.00
  -2   1  16   28.40   12.30
  -2   1  16   73.79   12.50
   1  -1 -16   -9.90   11.50
   1  -1 -16   16.50   15.20
   1  -1 -16   20.80    9.70
   1  -1 -16  -20.10   26.80
   1  -1 -16   17.60    9.10
   1  -1 -16   25.60   10.30
   1  -1 -16    3.10   11.30
  -1   1  16   10.90    9.10
  -1   1  16   19.80   11.10
  -1   1  16   11.60    9.20
  -1   1  16  -18.20   16.80
  -1   1  16   23.00   12.90
   0   0   0    0.00    0.00
_computing_structure_solution     'SHELXT 2014/5 (Sheldrick, 2014)'
_computing_structure_solution     'SHELXT 2014/5 (Sheldrick, 2014)'
;
_shelx_hkl_checksum              18789
_shelx_res_file
;
TITL 59f4cg
CELL  0.71073   5.595   8.377  12.712   98.10  100.10  101.76
ZERR     2.00   0.004   0.005   0.008    0.03    0.02    0.03
LATT   1
SFAC  C    H    N    O    CL
UNIT  24 24 6 4 2
MERG   2
OMIT    -2.00  180.0
FMAP   2
PLAN   20
SIZE     0.140   0.280   0.420
ACTA
BOND   $H
CONF
HTAB
L.S.   20
TEMP  -173.00
MPLA 4 C4A C5 C7 C7A C6 C11A N12
WGHT    0.059800    0.556400
FVAR       0.88957
C1    1   -0.102481    0.138018    0.678885    11.00000    0.00982    0.01266 =
         0.01171    0.00165    0.00424    0.00208
AFIX  43
H1    2   -0.140007    0.108798    0.744707    11.00000   -1.20000
AFIX   0
N2    3   -0.284469    0.099409    0.596071    11.00000    0.01063    0.01791 =
         0.01157    0.00280    0.00435    0.00224
N3    3   -0.214901    0.133685    0.499097    11.00000    0.00974    0.01649 =
         0.00828    0.00191   -0.00027    0.00155
H3    2   -0.332243    0.097677    0.443129    11.00000   -1.20000
C4    1    0.009701    0.210539    0.487985    11.00000    0.01266    0.00898 =
         0.01011    0.00254    0.00129    0.00538
O4    4    0.053882    0.227640    0.398267    11.00000    0.01705    0.01667 =
         0.00913    0.00391    0.00346    0.00376
C4A   1    0.211490    0.281673    0.589643    11.00000    0.00906    0.01085 =
         0.00902    0.00361    0.00223    0.00100
AFIX  13
H4A   2    0.365773    0.245389    0.577774    11.00000   -1.20000
AFIX   0
C5    1    0.269955    0.471781    0.605669    11.00000    0.01580    0.01073 =
         0.01152    0.00420    0.00163    0.00275
AFIX  23
H5A   2    0.305799    0.505703    0.537455    11.00000   -1.20000
H5B   2    0.119719    0.509424    0.619350    11.00000   -1.20000
AFIX   0
C6    1    0.490158    0.559656    0.698856    11.00000    0.01340    0.00749 =
         0.01489    0.00305    0.00105    0.00074
AFIX  13
H6A   2    0.640132    0.517318    0.687514    11.00000   -1.20000
AFIX   0
C7    1    0.436553    0.530375    0.808973    11.00000    0.01409    0.00893 =
         0.01244   -0.00016   -0.00091    0.00261
AFIX  23
H7A   2    0.546584    0.620737    0.866285    11.00000   -1.20000
H7B   2    0.261601    0.535095    0.810020    11.00000   -1.20000
AFIX   0
C7A   1    0.475835    0.366208    0.834927    11.00000    0.01068    0.01054 =
         0.01044    0.00241    0.00364    0.00101
C8    1    0.664239    0.361384    0.920729    11.00000    0.01232    0.01057 =
         0.01184    0.00159    0.00226   -0.00027
AFIX  43
H8    2    0.767935    0.461949    0.963442    11.00000   -1.20000
AFIX   0
C9    1    0.701853    0.210744    0.944401    11.00000    0.00935    0.01497 =
         0.00854    0.00468    0.00139    0.00207
CL9   5    0.942557    0.209663    1.051611    11.00000    0.01302    0.01493 =
         0.01496    0.00561   -0.00297    0.00107
C10   1    0.553985    0.060982    0.884540    11.00000    0.01396    0.01097 =
         0.00918    0.00356    0.00368    0.00190
AFIX  43
H10   2    0.581483   -0.041401    0.901816    11.00000   -1.20000
AFIX   0
C11   1    0.365144    0.064492    0.798902    11.00000    0.01306    0.00993 =
         0.00892    0.00189    0.00383   -0.00137
AFIX  43
H11   2    0.260732   -0.036520    0.757109    11.00000   -1.20000
AFIX   0
C11A  1    0.327630    0.214886    0.773812    11.00000    0.00878    0.01308 =
         0.00751    0.00293    0.00271    0.00150
N12   3    0.136991    0.215675    0.683144    11.00000    0.00881    0.01142 =
         0.00859    0.00355    0.00145   -0.00092
O6    4    0.542378    0.733241    0.699096    11.00000    0.02037    0.01216 =
         0.02635    0.00456    0.00707    0.00231
H6    2    0.683391    0.759166    0.665286    11.00000   -1.50000
HKLF 4  1.0  1.00  0.00  0.00  0.00  1.00  0.00  0.00  0.00  1.00
REM  59f4cg
REM R1 =  0.0425 for    2324 Fo > 4sig(Fo)  and  0.0493 for all    2621 data
REM    169 parameters refined using      0 restraints
END
WGHT      0.0598      0.5563
REM Instructions for potential hydrogen bonds
EQIV $1 -x-1, -y, -z+1
HTAB N3 N2_$1
EQIV $2 x+1, y, z
HTAB C4A N2_$2
EQIV $3 -x, -y+1, -z+1
HTAB C5 O4_$3
EQIV $4 -x+2, -y+1, -z+2
HTAB C8 Cl9_$4
EQIV $5 -x, -y, -z+1
HTAB C11 O4_$5
EQIV $6 -x+1, -y+1, -z+1
HTAB O6 O4_$6
REM Highest difference peak  1.091,  deepest hole -0.471,  1-sigma level  0.083
Q1    1   0.3977  0.5018  0.6493  11.00000  0.05    0.49
Q2    1   0.1078  0.2393  0.5414  11.00000  0.05    0.48
Q3    1   0.4114  0.2893  0.8012  11.00000  0.05    0.48
Q4    1   0.6310  0.1339  0.9181  11.00000  0.05    0.45
Q5    1   1.0253  0.3169  1.0812  11.00000  0.05    0.40
Q6    1   0.2428  0.3774  0.6042  11.00000  0.05    0.38
Q7    1   0.6808  0.2822  0.9214  11.00000  0.05    0.32
Q8    1   0.0363  0.1656  0.6797  11.00000  0.05    0.32
Q9    1   0.4695  0.4421  0.8222  11.00000  0.05    0.31
Q10   1   0.8705  0.0863  1.0187  11.00000  0.05    0.30
Q11   1   0.5402  0.3570  0.8825  11.00000  0.05    0.29
Q12   1   0.3433  0.1412  0.7936  11.00000  0.05    0.27
Q13   1   0.8030  0.1938  1.0006  11.00000  0.05    0.26
Q14   1   0.4596  0.0682  0.8394  11.00000  0.05    0.25
Q15   1   0.2468  0.2247  0.7305  11.00000  0.05    0.24
Q16   1   0.1734  0.2947  0.7205  11.00000  0.05    0.22
Q17   1   0.6881  0.4073  0.9364  11.00000  0.05    0.21
Q18   1  -0.4668  0.0912  0.5754  11.00000  0.05    0.20
Q19   1   0.8738  0.5738  0.9395  11.00000  0.05    0.20
Q20   1   0.7289  0.7946  0.7466  11.00000  0.05    0.20
;
_shelx_res_checksum              23429
_shelxl_version_number           2.014
loop_
_space_group_symop_operation_xyz
'x, y, z'
'-x, -y, -z'
loop_
_atom_site_type_symbol
_atom_site_label
_atom_site_fract_x
_atom_site_fract_y
_atom_site_fract_z
_atom_site_U_iso_or_equiv
_atom_site_adp_type
_atom_site_calc_flag
_atom_site_occupancy
C C1 -0.1025(3) 0.1380(2) 0.67888(14) 0.0113(3) Uani d 1
H H1 -0.1400 0.1088 0.7447 0.014 Uiso calc 1
N N2 -0.2845(3) 0.0994(2) 0.59607(13) 0.0133(3) Uani d 1
N N3 -0.2149(3) 0.13368(19) 0.49910(13) 0.0120(3) Uani d 1
H H3 -0.332(4) 0.098(3) 0.443(2) 0.014 Uiso d 1
C C4 0.0097(3) 0.2105(2) 0.48798(14) 0.0102(3) Uani d 1
O O4 0.0539(2) 0.22764(16) 0.39827(10) 0.0141(3) Uani d 1
C C4A 0.2115(3) 0.2817(2) 0.58964(14) 0.0096(3) Uani d 1
H H4A 0.3658 0.2454 0.5778 0.012 Uiso calc 1
C C5 0.2700(3) 0.4718(2) 0.60567(15) 0.0127(4) Uani d 1
H H5A 0.3058 0.5057 0.5375 0.015 Uiso calc 1
H H5B 0.1197 0.5094 0.6193 0.015 Uiso calc 1
C C6 0.4902(3) 0.5597(2) 0.69886(15) 0.0123(4) Uani d 1
H H6A 0.6401 0.5173 0.6875 0.015 Uiso calc 1
C C7 0.4366(3) 0.5304(2) 0.80897(15) 0.0125(4) Uani d 1
H H7A 0.5466 0.6207 0.8663 0.015 Uiso calc 1
H H7B 0.2616 0.5351 0.8100 0.015 Uiso calc 1
C C7A 0.4758(3) 0.3662(2) 0.83493(14) 0.0105(3) Uani d 1
C C8 0.6642(3) 0.3614(2) 0.92073(14) 0.0121(3) Uani d 1
H H8 0.7679 0.4619 0.9634 0.015 Uiso calc 1
C C9 0.7019(3) 0.2107(2) 0.94440(14) 0.0109(3) Uani d 1
Cl Cl9 0.94256(8) 0.20966(5) 1.05161(4) 0.01508(14) Uani d 1
C C10 0.5540(3) 0.0610(2) 0.88454(14) 0.0112(3) Uani d 1
H H10 0.5815 -0.0414 0.9018 0.013 Uiso calc 1
C C11 0.3651(3) 0.0645(2) 0.79890(14) 0.0110(3) Uani d 1
H H11 0.2607 -0.0365 0.7571 0.013 Uiso calc 1
C C11A 0.3276(3) 0.2149(2) 0.77381(14) 0.0097(3) Uani d 1
N N12 0.1370(3) 0.21567(18) 0.68314(12) 0.0100(3) Uani d 1
O O6 0.5424(3) 0.73324(17) 0.69910(12) 0.0195(3) Uani d 1
H H6 0.683(5) 0.759(3) 0.665(2) 0.029 Uiso d 1
loop_
_atom_site_aniso_label
_atom_site_aniso_U_11
_atom_site_aniso_U_22
_atom_site_aniso_U_33
_atom_site_aniso_U_12
_atom_site_aniso_U_13
_atom_site_aniso_U_23
C1 0.0098(8) 0.0127(8) 0.0117(8) 0.0021(6) 0.0042(6) 0.0016(6)
N2 0.0106(7) 0.0179(8) 0.0116(7) 0.0022(6) 0.0044(6) 0.0028(6)
N3 0.0097(7) 0.0165(8) 0.0083(7) 0.0016(6) -0.0003(6) 0.0019(6)
C4 0.0127(8) 0.0090(8) 0.0101(8) 0.0054(6) 0.0013(6) 0.0025(6)
O4 0.0171(6) 0.0167(6) 0.0091(6) 0.0038(5) 0.0035(5) 0.0039(5)
C4A 0.0091(7) 0.0109(8) 0.0090(8) 0.0010(6) 0.0022(6) 0.0036(6)
C5 0.0158(8) 0.0107(8) 0.0115(8) 0.0027(7) 0.0016(7) 0.0042(6)
C6 0.0134(8) 0.0075(8) 0.0149(9) 0.0007(6) 0.0011(7) 0.0031(6)
C7 0.0141(8) 0.0089(8) 0.0124(8) 0.0026(6) -0.0009(6) -0.0002(6)
C7A 0.0107(8) 0.0105(8) 0.0104(8) 0.0010(6) 0.0036(6) 0.0024(6)
C8 0.0123(8) 0.0106(8) 0.0118(8) -0.0003(6) 0.0023(7) 0.0016(6)
C9 0.0093(8) 0.0150(8) 0.0085(8) 0.0021(6) 0.0014(6) 0.0047(6)
Cl9 0.0130(2) 0.0149(2) 0.0150(2) 0.00107(16) -0.00297(16) 0.00561(16)
C10 0.0140(8) 0.0110(8) 0.0092(8) 0.0019(6) 0.0037(6) 0.0036(6)
C11 0.0131(8) 0.0099(8) 0.0089(8) -0.0014(6) 0.0038(6) 0.0019(6)
C11A 0.0088(7) 0.0131(8) 0.0075(8) 0.0015(6) 0.0027(6) 0.0029(6)
N12 0.0088(7) 0.0114(7) 0.0086(7) -0.0009(5) 0.0014(5) 0.0036(5)
O6 0.0204(7) 0.0122(7) 0.0264(8) 0.0023(5) 0.0071(6) 0.0046(5)
loop_
_atom_type_symbol
_atom_type_description
_atom_type_scat_dispersion_real
_atom_type_scat_dispersion_imag
_atom_type_scat_source
C C 0.0033 0.0016 'International Tables Vol C Tables 4.2.6.8 and 6.1.1.4'
H H 0.0000 0.0000 'International Tables Vol C Tables 4.2.6.8 and 6.1.1.4'
N N 0.0061 0.0033 'International Tables Vol C Tables 4.2.6.8 and 6.1.1.4'
O O 0.0106 0.0060 'International Tables Vol C Tables 4.2.6.8 and 6.1.1.4'
Cl Cl 0.1484 0.1585 'International Tables Vol C Tables 4.2.6.8 and 6.1.1.4'
loop_
_geom_angle_atom_site_label_1
_geom_angle_atom_site_label_2
_geom_angle_atom_site_label_3
_geom_angle
N2 C1 N12 127.35(17)
N2 C1 H1 116.3
N12 C1 H1 116.3
C1 N2 N3 113.96(15)
C4 N3 N2 126.86(15)
C4 N3 H3 119.4(16)
N2 N3 H3 113.7(16)
O4 C4 N3 121.63(17)
O4 C4 C4A 120.03(16)
N3 C4 C4A 118.32(16)
N12 C4A C4 110.34(14)
N12 C4A C5 113.71(15)
C4 C4A C5 108.90(14)
N12 C4A H4A 107.9
C4 C4A H4A 107.9
C5 C4A H4A 107.9
C6 C5 C4A 114.38(15)
C6 C5 H5A 108.7
C4A C5 H5A 108.7
C6 C5 H5B 108.7
C4A C5 H5B 108.7
H5A C5 H5B 107.6
O6 C6 C7 108.68(15)
O6 C6 C5 109.35(15)
C7 C6 C5 111.94(15)
O6 C6 H6A 108.9
C7 C6 H6A 108.9
C5 C6 H6A 108.9
C7A C7 C6 113.22(15)
C7A C7 H7A 108.9
C6 C7 H7A 108.9
C7A C7 H7B 108.9
C6 C7 H7B 108.9
H7A C7 H7B 107.7
C8 C7A C11A 117.93(16)
C8 C7A C7 120.23(16)
C11A C7A C7 121.84(16)
C9 C8 C7A 120.39(17)
C9 C8 H8 119.8
C7A C8 H8 119.8
C8 C9 C10 121.72(17)
C8 C9 Cl9 119.07(14)
C10 C9 Cl9 119.21(14)
C11 C10 C9 118.33(17)
C11 C10 H10 120.8
C9 C10 H10 120.8
C10 C11 C11A 120.39(16)
C10 C11 H11 119.8
C11A C11 H11 119.8
C11 C11A C7A 121.24(17)
C11 C11A N12 119.49(16)
C7A C11A N12 119.26(16)
C1 N12 C11A 119.82(15)
C1 N12 C4A 121.14(15)
C11A N12 C4A 118.51(14)
C6 O6 H6 107.3(16)
loop_
_geom_bond_atom_site_label_1
_geom_bond_atom_site_label_2
_geom_bond_distance
C1 N2 1.282(2)
C1 N12 1.353(2)
C1 H1 0.9500
N2 N3 1.406(2)
N3 C4 1.331(2)
N3 H3 0.85(2)
C4 O4 1.230(2)
C4 C4A 1.516(3)
C4A N12 1.469(2)
C4A C5 1.535(3)
C4A H4A 1.0000
C5 C6 1.528(3)
C5 H5A 0.9900
C5 H5B 0.9900
C6 O6 1.423(2)
C6 C7 1.524(3)
C6 H6A 1.0000
C7 C7A 1.508(2)
C7 H7A 0.9900
C7 H7B 0.9900
C7A C8 1.389(3)
C7A C11A 1.402(3)
C8 C9 1.386(3)
C8 H8 0.9500
C9 C10 1.387(3)
C9 Cl9 1.742(2)
C10 C11 1.386(3)
C10 H10 0.9500
C11 C11A 1.389(3)
C11 H11 0.9500
C11A N12 1.428(2)
O6 H6 0.96(3)
loop_
_geom_hbond_atom_site_label_D
_geom_hbond_atom_site_label_H
_geom_hbond_atom_site_label_A
_geom_hbond_site_symmetry_A
_geom_hbond_distance_DH
_geom_hbond_distance_HA
_geom_hbond_distance_DA
_geom_hbond_angle_DHA
_geom_hbond_publ_flag
N3 H3 N2 2_456 0.85(2) 2.35(2) 3.006(3) 134(2) no
O6 H6 O4 2_666 0.96(2) 1.79(3) 2.745(3) 171(2) no
C4A H4A N2 1_655 1.00 2.50 3.464(3) 161 no
C11 H11 O4 2_556 0.95 2.51 3.412(3) 158 no
C1 H1 Cg2 1_455 0.95 2.82 3.482(3) 128 no
loop_
_geom_torsion_atom_site_label_1
_geom_torsion_atom_site_label_2
_geom_torsion_atom_site_label_3
_geom_torsion_atom_site_label_4
_geom_torsion
N12 C1 N2 N3 4.7(3)
C1 N2 N3 C4 -5.2(3)
N2 N3 C4 O4 176.61(16)
N2 N3 C4 C4A -5.0(3)
O4 C4 C4A N12 -167.42(15)
N3 C4 C4A N12 14.1(2)
O4 C4 C4A C5 67.1(2)
N3 C4 C4A C5 -111.33(18)
N12 C4A C5 C6 62.6(2)
C4 C4A C5 C6 -173.87(14)
C4A C5 C6 O6 174.25(14)
C4A C5 C6 C7 -65.3(2)
O6 C6 C7 C7A -157.89(15)
C5 C6 C7 C7A 81.23(19)
C6 C7 C7A C8 114.41(19)
C6 C7 C7A C11A -65.0(2)
C11A C7A C8 C9 -0.2(3)
C7 C7A C8 C9 -179.61(16)
C7A C8 C9 C10 -0.4(3)
C7A C8 C9 Cl9 179.21(13)
C8 C9 C10 C11 0.2(3)
Cl9 C9 C10 C11 -179.35(13)
C9 C10 C11 C11A 0.5(3)
C10 C11 C11A C7A -1.0(3)
C10 C11 C11A N12 178.07(15)
C8 C7A C11A C11 0.9(3)
C7 C7A C11A C11 -179.72(16)
C8 C7A C11A N12 -178.23(15)
C7 C7A C11A N12 1.2(2)
N2 C1 N12 C11A -165.33(17)
N2 C1 N12 C4A 6.2(3)
C11 C11A N12 C1 57.6(2)
C7A C11A N12 C1 -123.34(18)
C11 C11A N12 C4A -114.23(18)
C7A C11A N12 C4A 64.9(2)
C4 C4A N12 C1 -15.1(2)
C5 C4A N12 C1 107.64(18)
C4 C4A N12 C11A 156.62(15)
C5 C4A N12 C11A -80.68(19)

_cod_database_fobs_code 2021456
