#------------------------------------------------------------------------------
#$Date: 2018-06-11 18:37:22 +0300 (Mon, 11 Jun 2018) $
#$Revision: 208269 $
#$URL: file:///home/coder/svn-repositories/cod/cif/2/02/11/2021159.cif $
#------------------------------------------------------------------------------
#
# This file is available in the Crystallography Open Database (COD),
# http://www.crystallography.net/. The original data for this entry
# were provided by IUCr Journals, http://journals.iucr.org/.
#
# The file may be used within the scientific community so long as
# proper attribution is given to the journal article from which the
# data were obtained.
#
data_2021159
loop_
_publ_author_name
'Andleeb, Hina'
'Khan, Imtiaz'
'Bauz\'a, Antonio'
'Tahir, Muhammad Nawaz'
'Simpson, Jim'
'Hameed, Shahid'
'Frontera, Antonio'
_publ_section_title
;
 A comparative experimental and theoretical investigation of
 hydrogen-bond, halogen-bond and \p--\p interactions in the solid-state
 supramolecular assembly of 2- and 4-formylphenyl arylsulfonates
;
_journal_coeditor_code           RH3006
_journal_issue                   7
_journal_name_full               'Acta Crystallographica Section C'
_journal_page_first
;
;
_journal_paper_doi               10.1107/S2053229618008355
_journal_volume                  74
_journal_year                    2018
_chemical_formula_iupac          'C13 H9 Br O4 S'
_chemical_formula_moiety         'C13 H9 Br O4 S'
_chemical_formula_sum            'C13 H9 Br O4 S'
_chemical_formula_weight         341.17
_chemical_name_systematic
;
2-Formylphenyl 4-bromobenzenesulfonate
;
_space_group_crystal_system      triclinic
_space_group_IT_number           2
_space_group_name_Hall           '-P 1'
_space_group_name_H-M_alt        'P -1'
_symmetry_space_group_name_Hall  '-P 1'
_symmetry_space_group_name_H-M   'P -1'
_atom_sites_solution_hydrogens   geom
_audit_creation_method           SHELXL-2018/1
_cell_angle_alpha                91.249(3)
_cell_angle_beta                 102.818(2)
_cell_angle_gamma                95.938(3)
_cell_formula_units_Z            2
_cell_length_a                   7.8282(5)
_cell_length_b                   8.5963(6)
_cell_length_c                   10.1139(6)
_cell_measurement_reflns_used    2262
_cell_measurement_temperature    296(2)
_cell_measurement_theta_max      27.158
_cell_measurement_theta_min      2.067
_cell_volume                     659.38(7)
_computing_cell_refinement
;
SAINT (Bruker, 2007)
;
_computing_data_collection
;
APEX2 (Bruker, 2007)
;
_computing_data_reduction
;
SAINT (Bruker, 2007)
;
_computing_molecular_graphics
;
Mercury (Macrae <i>et al.</i>, 2008)
;
_computing_publication_material
;
PLATON (Spek, 2009) and publCIF (Westrip, 2010)
;
_computing_structure_refinement
;
SHELXL2018  (Sheldrick, 2015)
;
_computing_structure_solution
;
SHELXS97 (Sheldrick, 2008)
;
_diffrn_ambient_temperature      296(2)
_diffrn_detector_area_resol_mean 7.80
_diffrn_measured_fraction_theta_full 0.997
_diffrn_measured_fraction_theta_max 0.990
_diffrn_measurement_device_type  'Bruker Kappa APEXII CCD'
_diffrn_measurement_method       \w
_diffrn_radiation_monochromator  graphite
_diffrn_radiation_source         'fine-focus sealed tube'
_diffrn_radiation_type           MoK\a
_diffrn_radiation_wavelength     0.71073
_diffrn_reflns_av_R_equivalents  0.0273
_diffrn_reflns_limit_h_max       9
_diffrn_reflns_limit_h_min       -10
_diffrn_reflns_limit_k_max       11
_diffrn_reflns_limit_k_min       -10
_diffrn_reflns_limit_l_max       12
_diffrn_reflns_limit_l_min       -12
_diffrn_reflns_number            10289
_diffrn_reflns_theta_full        25.242
_diffrn_reflns_theta_max         27.158
_diffrn_reflns_theta_min         2.067
_exptl_absorpt_coefficient_mu    3.281
_exptl_absorpt_correction_T_max  0.7455
_exptl_absorpt_correction_T_min  0.5518
_exptl_absorpt_correction_type   multi-scan
_exptl_absorpt_process_details
;
(SADABS; Bruker, 2007)
;
_exptl_crystal_colour            white
_exptl_crystal_density_diffrn    1.718
_exptl_crystal_density_method    'not measured'
_exptl_crystal_description       prism
_exptl_crystal_F_000             340
_exptl_crystal_size_max          0.400
_exptl_crystal_size_mid          0.320
_exptl_crystal_size_min          0.240
_refine_diff_density_max         0.318
_refine_diff_density_min         -0.455
_refine_ls_extinction_coef       0.098(4)
_refine_ls_extinction_expression Fc^*^=kFc[1+0.001xFc^2^\l^3^/sin(2\q)]^-1/4^
_refine_ls_extinction_method
;
SHELXL2018 (Sheldrick, 2015)
;
_refine_ls_goodness_of_fit_ref   1.019
_refine_ls_hydrogen_treatment    constr
_refine_ls_matrix_type           full
_refine_ls_number_parameters     173
_refine_ls_number_reflns         2877
_refine_ls_number_restraints     0
_refine_ls_restrained_S_all      1.019
_refine_ls_R_factor_all          0.0459
_refine_ls_R_factor_gt           0.0314
_refine_ls_shift/su_max          0.000
_refine_ls_shift/su_mean         0.000
_refine_ls_structure_factor_coef Fsqd
_refine_ls_weighting_details
'w=1/[\s^2^(Fo^2^)+(0.0364P)^2^+0.2877P] where P=(Fo^2^+2Fc^2^)/3'
_refine_ls_weighting_scheme      calc
_refine_ls_wR_factor_gt          0.0745
_refine_ls_wR_factor_ref         0.0803
_reflns_number_gt                2262
_reflns_number_total             2877
_reflns_threshold_expression     'I > 2\s(I)'
_cod_data_source_file            rh3006sup1.cif
_cod_data_source_block           3c
_cod_database_code               2021159
_shelx_space_group_comment
;
The symmetry employed for this shelxl refinement is uniquely defined
by the following loop, which should always be used as a source of
symmetry information in preference to the above space-group names.
They are only intended as comments.
;
_shelx_estimated_absorpt_t_min   0.354
_shelx_estimated_absorpt_t_max   0.506
_shelx_hkl_file
;
  -1   0   0   20.67    0.67
  -1   0   0   20.59    0.64
  -1   0   0   20.48    0.67
   1   0   0   20.74    0.67
   1   0   0   20.91    0.64
   1   0   0   20.84    0.67
   1   0   0   19.69    0.64
  -2   0   0   43.24    1.41
  -2   0   0   44.89    1.35
  -2   0   0   44.03    1.41
   2   0   0   43.49    1.41
   2   0   0   43.11    1.35
   2   0   0   43.27    1.36
   2   0   0   42.33    1.41
  -3   0   0  127.94    3.95
  -3   0   0  127.50    4.11
   3   0   0  129.06    3.96
   3   0   0  128.39    3.96
   3   0   0  132.16    4.48
   3   0   0  130.26    4.11
  -4   0   0   46.64    1.54
  -4   0   0   47.82    1.63
   4   0   0   47.95    1.61
   4   0   0   47.74    1.55
   4   0   0   49.83    1.56
   4   0   0   49.02    1.77
  -5   0   0    2.04    0.25
  -5   0   0    3.10    0.33
  -5   0   0    4.06    0.31
   5   0   0    3.39    0.32
   5   0   0    3.29    0.31
   5   0   0    3.25    0.31
  -6   0   0   35.36    1.25
  -6   0   0   34.39    1.30
   6   0   0   36.20    1.34
   6   0   0   33.89    1.25
   6   0   0   34.33    1.24
  -7   0   0    9.32    0.66
   7   0   0    8.14    0.63
  -8   0   0    7.51    0.70
   8   0   0    6.90    0.67
  -9   0   0   11.62    0.91
   9   0   0   12.17    0.91
   9  -1   0    9.61    0.84
  -9   1   0    8.96    0.83
   8  -1   0    7.21    0.64
  -8   1   0    6.85    0.64
   7  -1   0    4.62    0.50
  -7   1   0    4.66    0.54
   6  -1   0   14.34    0.73
   6  -1   0   14.95    0.79
   6  -1   0   14.38    0.72
  -6   1   0   15.52    0.79
  -6   1   0   15.23    0.70
  -6   1   0   14.31    0.72
   5  -1   0   60.55    1.96
   5  -1   0   59.96    2.04
   5  -1   0   59.63    1.97
  -5   1   0   62.18    1.97
  -5   1   0   61.03    1.97
  -5   1   0   62.43    2.06
   4  -1   0   81.71    2.65
   4  -1   0   77.57    2.54
   4  -1   0   81.66    2.55
  -4   1   0   80.78    2.65
  -4   1   0   82.05    2.55
  -4   1   0   82.76    2.55
  -4   1   0   84.80    2.55
   3  -1   0    6.76    0.32
   3  -1   0    6.65    0.33
   3  -1   0    6.51    0.33
  -3   1   0    6.96    0.31
  -3   1   0    6.32    0.33
  -3   1   0    6.86    0.30
  -3   1   0    6.43    0.32
   2  -1   0  255.96    8.11
   2  -1   0  261.99    7.81
   2  -1   0  257.65    7.81
  -2   1   0  259.44    7.81
  -2   1   0  254.46    8.11
  -2   1   0  257.08    8.12
  -2   1   0  259.68    7.81
   1  -1   0   19.34    0.61
   1  -1   0   18.37    0.59
   1  -1   0   18.64    0.59
  -1   1   0   18.78    0.62
  -1   1   0   19.31    0.59
  -1   1   0   18.28    0.59
   0  -1   0   56.48    1.73
   0  -1   0   55.96    1.80
   0  -1   0   58.58    1.80
   0  -1   0   55.66    1.73
   0  -1   0   57.17    1.95
   0   1   0   55.83    1.73
   0   1   0   58.23    1.80
   0   1   0   55.84    1.73
   0   1   0   57.72    1.95
   0   1   0   58.24    1.80
  -1  -1   0    1.52    0.11
  -1  -1   0    1.58    0.11
  -1  -1   0    1.52    0.10
  -1  -1   0    1.36    0.09
   1   1   0    1.32    0.10
   1   1   0    1.32    0.09
   1   1   0    1.55    0.11
   1   1   0    1.30    0.09
   1   1   0    1.59    0.10
   1   1   0    1.28    0.09
  -2  -1   0  499.90   16.03
  -2  -1   0  537.63   15.37
  -2  -1   0  504.96   15.46
  -2  -1   0  514.96   17.47
   2   1   0  523.73   17.45
   2   1   0  488.46   16.04
   2   1   0  491.18   15.45
  -3  -1   0  182.76    5.77
  -3  -1   0  183.46    5.55
  -3  -1   0  181.24    5.55
   3   1   0  183.13    6.27
   3   1   0  181.85    5.55
   3   1   0  179.68    5.77
  -4  -1   0    1.91    0.27
  -4  -1   0    1.46    0.20
  -4  -1   0    1.82    0.22
   4   1   0    1.63    0.26
   4   1   0    1.37    0.20
   4   1   0    0.64    0.15
   4   1   0    1.26    0.24
  -5  -1   0   80.17    2.61
  -5  -1   0   76.54    2.48
  -5  -1   0   78.51    2.49
   5   1   0   77.78    2.50
   5   1   0   78.59    2.59
  -6  -1   0   42.94    1.50
  -6  -1   0   38.72    1.39
   6   1   0   40.67    1.48
  -7  -1   0    4.70    0.53
   7   1   0    4.37    0.50
  -8  -1   0   18.49    1.02
   8   1   0   20.01    1.04
  -9  -1   0    0.86    0.66
   9   1   0    0.57    0.62
   9  -2   0    2.76    0.68
  -9   2   0    1.24    0.61
   8  -2   0    1.74    0.57
  -8   2   0    1.30    0.57
   7  -2   0   37.21    1.43
  -7   2   0   37.53    1.43
   6  -2   0   78.17    2.58
   6  -2   0   81.34    2.59
   6  -2   0   80.69    2.68
  -6   2   0   80.32    2.68
   5  -2   0    7.58    0.46
   5  -2   0    7.05    0.50
   5  -2   0    7.20    0.48
  -5   2   0    7.80    0.47
  -5   2   0    6.90    0.45
   4  -2   0    2.05    0.23
   4  -2   0    2.03    0.24
   4  -2   0    2.39    0.24
  -4   2   0    2.31    0.23
  -4   2   0    3.56    0.27
   3  -2   0  265.32    8.02
   3  -2   0  270.81    8.02
   3  -2   0  261.47    8.33
   3  -2   0  263.99    8.02
  -3   2   0  259.59    8.02
  -3   2   0  262.50    8.33
   2  -2   0   20.22    0.72
   2  -2   0   21.48    0.70
   2  -2   0   21.64    0.70
  -2   2   0   20.35    0.69
  -2   2   0   21.26    0.72
  -2   2   0   21.35    0.69
  -2   2   0   20.79    0.73
   1  -2   0   96.57    3.06
   1  -2   0   96.13    3.06
   1  -2   0   95.54    2.95
   1  -2   0   99.04    2.95
  -1   2   0   91.02    2.94
  -1   2   0   99.38    3.06
  -1   2   0   96.37    2.94
  -1   2   0   97.89    3.06
   0  -2   0   12.36    0.47
   0  -2   0   12.28    0.43
   0  -2   0   12.81    0.44
   0  -2   0   12.20    0.44
   0  -2   0   12.42    0.42
   0   2   0   13.02    0.45
   0   2   0   12.48    0.48
   0   2   0   12.19    0.42
   0   2   0   12.19    0.42
   0   2   0   12.83    0.44
  -1  -2   0  580.07   18.61
  -1  -2   0  609.58   20.21
  -1  -2   0  599.38   17.96
  -1  -2   0  611.01   17.88
   1   2   0  588.42   23.64
   1   2   0  603.29   17.86
   1   2   0  606.67   17.94
   1   2   0  608.16   20.18
   1   2   0  553.08   18.54
   1   2   0  538.33   18.49
  -2  -2   0    2.38    0.17
  -2  -2   0    2.53    0.19
  -2  -2   0    2.54    0.22
  -2  -2   0    3.77    0.27
  -2  -2   0    2.54    0.21
   2   2   0    2.96    0.18
   2   2   0    3.45    0.21
   2   2   0    2.79    0.18
   2   2   0    2.63    0.21
  -3  -2   0   75.09    2.67
  -3  -2   0   76.18    2.35
  -3  -2   0   75.14    2.34
  -3  -2   0   74.63    3.06
  -3  -2   0   74.73    2.44
   3   2   0   74.13    2.35
   3   2   0   74.44    2.34
   3   2   0   74.84    2.44
   3   2   0   77.98    2.66
  -4  -2   0   88.86    2.70
  -4  -2   0   89.21    2.72
  -4  -2   0   80.79    3.53
  -4  -2   0   87.41    2.82
   4   2   0   89.98    2.82
   4   2   0   83.23    2.70
  -5  -2   0    6.15    0.51
  -5  -2   0    6.79    0.47
  -5  -2   0    6.13    0.39
  -5  -2   0    5.96    0.41
   5   2   0    5.90    0.46
   5   2   0    6.98    0.42
  -6  -2   0   16.34    0.92
  -6  -2   0   18.11    0.81
  -6  -2   0   17.85    0.89
   6   2   0   16.30    0.82
  -7  -2   0   25.68    1.11
   7   2   0   23.77    1.16
  -8  -2   0    0.35    0.52
   8   2   0    0.02    0.52
  -9  -2   0    0.79    0.68
   9   2   0    0.40    0.62
   9  -3   0    0.29    0.64
  -9   3   0    0.38    0.60
   8  -3   0   31.75    1.37
  -8   3   0   27.34    1.32
   7  -3   0    0.30    0.44
  -7   3   0    0.26    0.41
   6  -3   0    2.27    0.42
   6  -3   0    2.41    0.38
  -6   3   0    2.25    0.39
   5  -3   0   79.90    2.63
   5  -3   0   78.90    2.54
   5  -3   0   79.90    2.53
  -5   3   0   79.14    2.63
   4  -3   0  198.37    6.00
   4  -3   0  195.56    5.99
   4  -3   0  192.29    6.00
   4  -3   0  195.13    6.22
  -4   3   0  197.36    6.23
   3  -3   0   31.05    1.06
   3  -3   0   31.88    1.10
   3  -3   0   32.60    1.06
  -3   3   0   31.69    1.09
  -3   3   0   31.96    1.05
   2  -3   0   52.51    1.71
   2  -3   0   53.18    1.66
   2  -3   0   52.53    1.65
  -2   3   0   53.40    1.72
  -2   3   0   52.13    1.65
   1  -3   0   33.23    1.06
   1  -3   0   33.14    1.09
   1  -3   0   32.61    1.06
   1  -3   0   33.73    1.19
  -1   3   0   32.57    1.05
  -1   3   0   34.19    1.10
  -1   3   0   32.63    1.10
   0  -3   0   30.64    0.99
   0  -3   0   30.67    1.09
   0  -3   0   30.31    0.97
   0  -3   0   30.23    1.02
   0   3   0   31.19    1.02
   0   3   0   30.45    0.97
   0   3   0   30.77    1.02
   0   3   0   30.43    1.09
  -1  -3   0  141.09    4.24
  -1  -3   0  140.24    4.25
  -1  -3   0  137.90    4.40
  -1  -3   0  139.12    4.78
   1   3   0  134.62    4.23
   1   3   0  138.91    4.41
   1   3   0  141.54    4.78
  -2  -3   0  174.04    5.57
  -2  -3   0  178.74    5.36
  -2  -3   0  169.56    6.05
  -2  -3   0  178.89    5.37
   2   3   0  174.62    5.36
   2   3   0  184.23    7.05
   2   3   0  178.11    6.05
   2   3   0  167.87    5.57
  -3  -3   0   61.68    2.28
  -3  -3   0   63.00    2.02
  -3  -3   0   65.29    2.01
  -3  -3   0   61.85    2.59
  -3  -3   0   63.49    2.09
   3   3   0   67.34    2.28
   3   3   0   63.10    2.09
   3   3   0   62.54    2.00
  -4  -3   0   18.90    0.76
  -4  -3   0   17.95    0.73
  -4  -3   0   17.53    0.84
  -4  -3   0   18.61    0.75
   4   3   0   17.77    0.72
   4   3   0   18.73    0.75
  -5  -3   0   72.96    2.37
  -5  -3   0   70.52    2.26
  -5  -3   0   63.52    2.87
  -5  -3   0   72.39    2.28
   5   3   0   70.48    2.34
   5   3   0   69.21    2.25
  -6  -3   0    0.85    0.43
  -6  -3   0    0.26    0.31
   6   3   0    0.28    0.42
  -7  -3   0    2.60    0.56
   7   3   0    1.37    0.54
  -8  -3   0    1.12    0.61
   8   3   0    1.35    0.55
  -9  -3   0    7.96    0.79
   9   3   0    6.59    0.79
   9  -4   0    3.54    0.72
  -9   4   0    3.97    0.73
   8  -4   0    3.46    0.56
  -8   4   0    2.91    0.61
   7  -4   0    0.01    0.47
  -7   4   0   -0.02    0.42
   6  -4   0  120.52    3.90
   6  -4   0  117.71    3.75
  -6   4   0  118.95    3.91
   5  -4   0   15.18    0.72
   5  -4   0   15.30    0.70
   5  -4   0   14.38    0.66
  -5   4   0   15.07    0.71
   4  -4   0   15.82    0.71
   4  -4   0   15.70    0.64
   4  -4   0   15.43    0.67
  -4   4   0   15.35    0.70
   3  -4   0   34.40    1.15
   3  -4   0   34.41    1.16
   3  -4   0   34.44    1.19
  -3   4   0   34.80    1.21
   2  -4   0  122.78    3.69
   2  -4   0  116.56    3.70
   2  -4   0  120.88    3.83
  -2   4   0  119.99    3.84
   1  -4   0   18.20    0.65
   1  -4   0   17.95    0.71
   1  -4   0   18.38    0.66
   1  -4   0   17.49    0.64
  -1   4   0   18.17    0.67
   0  -4   0  181.84    6.30
   0  -4   0  184.25    5.59
   0  -4   0  181.96    5.81
   0  -4   0  186.16    5.61
   0   4   0  186.50    6.30
   0   4   0  181.19    5.82
  -1  -4   0    1.60    0.20
  -1  -4   0    1.14    0.20
  -1  -4   0    1.24    0.18
  -1  -4   0    1.39    0.20
   1   4   0    1.60    0.21
   1   4   0    1.41    0.19
  -2  -4   0   49.88    1.87
  -2  -4   0   50.71    1.72
  -2  -4   0   54.24    1.68
  -2  -4   0   52.30    1.66
   2   4   0   52.82    2.14
   2   4   0   51.01    1.72
   2   4   0   53.01    1.88
  -3  -4   0   54.78    2.02
  -3  -4   0   56.27    1.78
  -3  -4   0   52.76    1.84
  -3  -4   0   56.58    1.79
   3   4   0   54.02    1.84
  -4  -4   0   59.25    2.33
  -4  -4   0   65.90    2.16
  -4  -4   0   66.17    2.08
  -4  -4   0   63.95    2.06
   4   4   0   62.68    2.13
  -5  -4   0    6.77    0.52
  -5  -4   0    6.15    0.49
  -5  -4   0    5.84    0.45
   5   4   0    6.32    0.51
  -6  -4   0    1.78    0.47
   6   4   0    1.87    0.48
  -7  -4   0   26.71    1.24
   7   4   0   24.27    1.19
  -8  -4   0    5.67    0.72
   8   4   0    5.79    0.68
  -9   5   0    1.19    0.69
   8  -5   0    5.27    0.66
  -8   5   0    4.21    0.62
   7  -5   0   15.38    0.95
  -7   5   0   13.77    0.89
   6  -5   0   23.62    0.99
   6  -5   0   26.63    1.09
  -6   5   0   23.53    1.04
   5  -5   0   13.04    0.68
   5  -5   0   10.52    0.65
   5  -5   0   11.96    0.71
   5  -5   0   11.30    0.62
  -5   5   0   12.32    0.72
   4  -5   0   46.40    1.59
   4  -5   0   47.01    1.63
   4  -5   0   47.68    1.58
  -4   5   0   47.50    1.63
   3  -5   0   75.05    2.46
   3  -5   0   74.94    2.39
   3  -5   0   74.81    2.38
  -3   5   0   75.42    2.48
   2  -5   0   16.02    0.70
   2  -5   0   16.77    0.67
   2  -5   0   16.64    0.65
   2  -5   0   16.29    0.65
  -2   5   0   16.47    0.70
   1  -5   0  147.15    4.58
   1  -5   0  151.38    5.14
   1  -5   0  149.18    4.57
   1  -5   0  148.72    4.74
  -1   5   0  148.07    4.75
   0  -5   0    4.00    0.30
   0  -5   0    3.87    0.27
   0  -5   0    4.35    0.32
   0  -5   0    3.73    0.28
   0   5   0    4.54    0.34
   0   5   0    4.05    0.31
   0   5   0    4.27    0.31
  -1  -5   0   16.07    0.62
  -1  -5   0   15.14    0.65
  -1  -5   0   15.06    0.68
  -1  -5   0   16.81    0.65
   1   5   0   15.96    0.69
   1   5   0   15.46    0.66
  -2  -5   0  173.72    5.24
  -2  -5   0  162.51    5.89
  -2  -5   0  176.91    5.22
  -2  -5   0  168.96    5.42
   2   5   0  161.16    5.42
   2   5   0  171.70    6.85
   2   5   0  175.22    5.89
  -3  -5   0    4.02    0.35
  -3  -5   0    3.67    0.37
  -3  -5   0    3.64    0.35
  -3  -5   0    3.57    0.39
   3   5   0    4.24    0.38
   3   5   0    3.59    0.33
  -4  -5   0    4.22    0.47
  -4  -5   0    4.87    0.38
  -4  -5   0    4.59    0.42
  -4  -5   0    5.54    0.45
   4   5   0    4.90    0.45
  -5  -5   0    0.10    0.39
  -5  -5   0   -0.07    0.37
   5   5   0    0.13    0.39
  -6  -5   0   18.59    1.04
   6   5   0   16.87    0.96
  -7  -5   0    0.48    0.58
   7   5   0   -0.12    0.57
  -8  -5   0    1.55    0.64
   8   5   0    2.21    0.65
  -8   6   0    0.14    0.62
   7  -6   0    0.98    0.52
  -7   6   0    1.21    0.55
   6  -6   0    0.28    0.44
   6  -6   0    0.03    0.37
  -6   6   0    0.30    0.47
   5  -6   0   13.63    0.80
   5  -6   0   13.79    0.75
  -5   6   0   13.18    0.79
   4  -6   0   13.90    0.72
   4  -6   0   13.88    0.69
   4  -6   0   12.76    0.69
  -4   6   0   13.20    0.75
   3  -6   0   63.49    2.01
   3  -6   0   61.95    2.00
   3  -6   0   60.67    2.21
   3  -6   0   61.74    2.05
  -3   6   0   58.26    2.06
   2  -6   0   61.73    2.02
   2  -6   0   62.85    2.08
   2  -6   0   64.45    2.24
   2  -6   0   62.63    2.02
  -2   6   0   60.70    2.09
   1  -6   0    2.47    0.30
   1  -6   0    2.93    0.30
   1  -6   0    2.39    0.28
   1  -6   0    2.52    0.29
  -1   6   0    2.63    0.32
   0  -6   0    8.27    0.47
   0  -6   0    7.91    0.53
   0  -6   0    8.04    0.49
   0  -6   0    8.16    0.49
   0   6   0    7.36    0.52
   0   6   0    8.91    0.52
   0   6   0    7.45    0.52
  -1  -6   0   65.39    2.12
  -1  -6   0   64.15    2.36
  -1  -6   0   64.16    2.18
  -1  -6   0   65.96    2.10
   1   6   0   64.97    2.19
   1   6   0   67.73    2.36
  -2  -6   0    2.82    0.35
  -2  -6   0    3.28    0.36
  -2  -6   0    3.57    0.36
  -2  -6   0    2.64    0.33
   2   6   0    3.04    0.34
   2   6   0    2.71    0.34
  -3  -6   0    3.07    0.44
  -3  -6   0    3.33    0.38
  -3  -6   0    3.42    0.40
  -3  -6   0    3.41    0.41
   3   6   0    2.93    0.39
   3   6   0    3.58    0.35
  -4  -6   0   18.91    0.98
  -4  -6   0   21.28    0.95
  -4  -6   0   21.33    0.93
   4   6   0   20.20    0.90
  -5  -6   0    6.97    0.60
   5   6   0    5.99    0.55
  -6  -6   0    0.20    0.53
   6   6   0    0.67    0.54
  -7  -6   0    0.71    0.57
   7   6   0    0.90    0.58
  -8   7   0    0.02    0.65
  -7   7   0    1.62    0.60
   6  -7   0    5.78    0.59
  -6   7   0    5.19    0.61
   5  -7   0   25.18    1.08
   5  -7   0   22.43    1.02
  -5   7   0   21.61    1.07
   4  -7   0   45.09    1.61
   4  -7   0   44.73    1.57
   4  -7   0   44.16    1.70
  -4   7   0   44.23    1.64
   3  -7   0   25.63    1.00
   3  -7   0   25.48    1.06
   3  -7   0   25.24    1.02
   3  -7   0   24.81    1.00
  -3   7   0   24.60    1.06
   2  -7   0   42.20    1.44
   2  -7   0   40.49    1.41
   2  -7   0   39.81    1.41
   2  -7   0   39.86    1.53
  -2   7   0   40.09    1.48
   1  -7   0   23.06    0.90
   1  -7   0   22.09    0.88
   1  -7   0   21.02    0.89
   1  -7   0   22.53    0.93
  -1   7   0   20.98    0.92
   0  -7   0   12.42    0.67
   0  -7   0   12.32    0.64
   0  -7   0   13.75    0.68
   0  -7   0   12.84    0.67
   0   7   0   13.75    0.70
   0   7   0   12.05    0.69
  -1  -7   0    0.77    0.33
  -1  -7   0    0.46    0.30
  -1  -7   0    0.71    0.33
  -1  -7   0    1.19    0.35
   1   7   0    0.69    0.35
  -2  -7   0    1.70    0.39
  -2  -7   0    1.86    0.40
  -2  -7   0    1.32    0.35
  -2  -7   0    1.25    0.36
   2   7   0    1.50    0.35
   2   7   0    1.57    0.39
  -3  -7   0   34.61    1.48
  -3  -7   0   35.57    1.35
  -3  -7   0   35.99    1.37
   3   7   0   34.09    1.36
   3   7   0   36.73    1.58
  -4  -7   0    1.76    0.52
  -4  -7   0    1.35    0.47
   4   7   0    0.91    0.49
  -5  -7   0    3.08    0.57
   5   7   0    3.11    0.59
  -6  -7   0   -0.58    0.59
   6   7   0   -0.31    0.59
  -7   8   0    0.42    0.64
  -6   8   0    4.92    0.64
   5  -8   0    2.46    0.44
   5  -8   0    1.20    0.47
  -5   8   0    1.83    0.53
   4  -8   0   -0.06    0.43
   4  -8   0    0.33    0.42
   4  -8   0    1.41    0.40
  -4   8   0    0.75    0.43
   3  -8   0    3.18    0.44
   3  -8   0    3.39    0.42
   3  -8   0    3.44    0.45
  -3   8   0    3.08    0.48
   2  -8   0   28.02    1.10
   2  -8   0   26.77    1.14
   2  -8   0   27.25    1.10
  -2   8   0   27.36    1.11
   1  -8   0   -0.32    0.37
   1  -8   0    0.36    0.34
   1  -8   0   -0.41    0.33
   1  -8   0    1.16    0.35
  -1   8   0    0.13    0.39
   0  -8   0    4.13    0.46
   0  -8   0    3.58    0.41
   0  -8   0    3.11    0.42
   0   8   0    3.01    0.45
  -1  -8   0    8.25    0.58
  -1  -8   0    9.28    0.66
  -1  -8   0    7.96    0.59
   1   8   0    7.90    0.58
   1   8   0    8.03    0.58
  -2  -8   0   17.93    0.94
  -2  -8   0   20.82    0.94
  -2  -8   0   19.34    0.94
   2   8   0   18.07    0.99
   2   8   0   17.32    0.92
  -3  -8   0    3.22    0.55
  -3  -8   0    3.43    0.51
   3   8   0    1.73    0.50
  -4  -8   0    1.49    0.58
  -4  -8   0   -0.07    0.51
   4   8   0    0.41    0.52
   5   8   0   -0.09    0.56
  -6   9   0   -0.24    0.62
  -5   9   0    0.73    0.57
   4  -9   0    4.13    0.54
  -4   9   0    3.85    0.59
   3  -9   0    7.31    0.60
  -3   9   0    7.24    0.65
   2  -9   0    6.72    0.57
  -2   9   0    6.78    0.61
   1  -9   0    0.41    0.46
   1  -9   0   -0.46    0.38
  -1   9   0   -0.24    0.41
   0  -9   0    7.07    0.59
   0  -9   0    7.49    0.62
   0   9   0    6.59    0.60
  -1  -9   0   -0.17    0.47
  -1  -9   0   -0.51    0.44
   1   9   0    0.63    0.47
   1   9   0    0.60    0.48
  -2  -9   0    5.45    0.62
   2   9   0    5.53    0.61
   2   9   0    5.40    0.60
  -3  -9   0    0.04    0.55
   3   9   0    0.84    0.49
  -4  -9   0    3.94    0.69
   4   9   0    3.16    0.63
  -5  10   0    3.92    0.70
  -4  10   0   -0.21    0.57
  -3  10   0    0.93    0.57
  -2  10   0    0.62    0.54
  -1  10   0    4.16    0.60
   0  10   0   -0.01    0.52
   1  10   0   -0.76    0.53
   2  10   0    0.98    0.56
   2  10   0    0.45    0.58
   3  10   0    3.98    0.66
  -1  11   0    4.40    0.69
  -1  11  -1    1.25    0.63
   3  10  -1    0.82    0.61
   3  10  -1    0.44    0.62
  -3 -10   1    0.45    0.66
   2  10  -1    4.75    0.66
   2  10  -1    4.30    0.60
  -2 -10   1    5.97    0.70
   1  10  -1    0.84    0.56
   0  10  -1   -0.52    0.53
  -1  10  -1    0.32    0.54
  -2  10  -1    5.15    0.61
  -3  10  -1    0.68    0.60
  -4  10  -1    2.00    0.59
   4   9  -1    2.42    0.62
  -4  -9   1    3.05    0.71
   3   9  -1    1.73    0.57
  -3  -9   1    1.71    0.61
  -3  -9   1    2.79    0.58
   2   9  -1    0.49    0.48
   2   9  -1    0.17    0.49
  -2  -9   1    1.18    0.50
  -2  -9   1   -0.67    0.50
   1   9  -1   -0.06    0.49
  -1  -9   1   -0.27    0.47
  -1  -9   1    0.33    0.44
   0   9  -1    4.28    0.51
   0  -9   1    4.18    0.51
   0  -9   1    5.43    0.57
   0  -9   1    4.79    0.54
  -1   9  -1    0.50    0.43
   1  -9   1    0.07    0.45
   1  -9   1   -0.26    0.41
   1  -9   1    0.32    0.44
  -2   9  -1    1.24    0.50
   2  -9   1    1.70    0.47
   2  -9   1    1.13    0.46
   2  -9   1    1.64    0.45
  -3   9  -1    2.44    0.55
   3  -9   1    1.79    0.48
   3  -9   1    0.64    0.49
  -4   9  -1   15.30    0.97
  -5   9  -1   -0.26    0.59
  -6   9  -1    1.12    0.67
   6   8  -1    0.53    0.65
  -6  -8   1    1.02    0.68
   5   8  -1    7.17    0.69
  -5  -8   1    9.43    0.86
  -5  -8   1    8.91    0.75
   4   8  -1    0.62    0.52
  -4  -8   1    0.10    0.47
  -4  -8   1    0.70    0.53
   3   8  -1   -0.02    0.48
  -3  -8   1   -0.36    0.49
  -3  -8   1   -0.20    0.45
   2   8  -1    0.43    0.36
   2   8  -1   -0.04    0.41
  -2  -8   1    0.53    0.44
  -2  -8   1    0.52    0.43
  -2  -8   1   -0.28    0.43
   1   8  -1    9.00    0.63
   1   8  -1    9.56    0.67
  -1  -8   1   12.07    0.69
  -1  -8   1   11.40    0.73
  -1  -8   1    9.97    0.71
   0   8  -1   13.40    0.73
   0  -8   1   12.97    0.78
   0  -8   1   12.20    0.76
   0  -8   1   14.51    0.79
  -1   8  -1   24.40    1.05
   1  -8   1   26.37    1.08
   1  -8   1   25.84    1.08
   1  -8   1   25.65    1.11
  -2   8  -1    1.34    0.45
   2  -8   1    0.77    0.39
   2  -8   1    1.32    0.42
   2  -8   1    1.16    0.41
  -3   8  -1   24.26    1.13
   3  -8   1   25.52    1.08
   3  -8   1   26.35    1.14
   3  -8   1   24.44    1.09
  -4   8  -1   12.69    0.88
   4  -8   1   14.66    0.90
   4  -8   1   15.64    0.88
   4  -8   1   15.34    0.86
  -5   8  -1    0.01    0.53
   5  -8   1    1.08    0.44
   5  -8   1    0.69    0.50
  -6   8  -1    0.36    0.59
  -7   8  -1    0.07    0.61
   6   7  -1    2.66    0.63
  -6  -7   1    3.06    0.65
   5   7  -1    0.55    0.50
  -5  -7   1    0.51    0.53
  -5  -7   1    1.04    0.54
   4   7  -1    2.33    0.47
  -4  -7   1    2.81    0.46
  -4  -7   1    2.94    0.52
   3   7  -1    7.54    0.52
   3   7  -1    7.17    0.53
  -3  -7   1    6.58    0.54
  -3  -7   1    6.54    0.53
  -3  -7   1    6.37    0.59
   2   7  -1   16.75    0.84
   2   7  -1   16.59    0.85
  -2  -7   1   17.42    0.84
  -2  -7   1   15.94    0.86
  -2  -7   1   16.48    0.78
   1   7  -1    5.48    0.46
   1   7  -1    6.40    0.47
  -1  -7   1    6.36    0.50
  -1  -7   1    6.19    0.44
  -1  -7   1    7.18    0.49
  -1  -7   1    6.07    0.46
   0   7  -1   -0.11    0.35
   0  -7   1    0.51    0.30
   0  -7   1    0.31    0.31
   0  -7   1   -0.46    0.32
   0  -7   1   -0.01    0.31
  -1   7  -1   44.58    1.61
   1  -7   1   46.04    1.56
   1  -7   1   44.33    1.58
   1  -7   1   44.19    1.53
   1  -7   1   44.19    1.70
  -2   7  -1    7.59    0.53
   2  -7   1    7.24    0.55
   2  -7   1    6.69    0.47
   2  -7   1    6.89    0.49
   2  -7   1    7.96    0.50
  -3   7  -1   71.28    2.51
   3  -7   1   76.00    2.49
   3  -7   1   73.57    2.68
   3  -7   1   74.31    2.42
  -4   7  -1    1.40    0.45
   4  -7   1    1.05    0.40
   4  -7   1    0.98    0.39
   4  -7   1    0.53    0.40
  -5   7  -1   31.18    1.40
   5  -7   1   36.99    1.42
   5  -7   1   35.51    1.36
  -6   7  -1    0.32    0.55
   6  -7   1    1.44    0.48
  -7   7  -1    5.26    0.68
   7  -7   1    7.77    0.73
   7   6  -1    1.26    0.57
  -7  -6   1    1.27    0.63
   6   6  -1    0.48    0.53
  -6  -6   1    0.48    0.53
   5   6  -1    3.59    0.52
  -5  -6   1    3.46    0.57
  -5  -6   1    3.15    0.53
   4   6  -1   23.78    1.04
  -4  -6   1   23.26    1.10
  -4  -6   1   24.02    1.00
  -4  -6   1   24.00    1.01
   3   6  -1    2.99    0.29
   3   6  -1    2.23    0.37
  -3  -6   1    2.63    0.37
  -3  -6   1    2.96    0.36
  -3  -6   1    3.00    0.40
  -3  -6   1    2.34    0.40
   2   6  -1    8.78    0.54
   2   6  -1   10.00    0.61
  -2  -6   1    8.29    0.56
  -2  -6   1    9.70    0.57
  -2  -6   1    8.92    0.61
  -2  -6   1    9.08    0.59
   1   6  -1    7.21    0.49
  -1  -6   1    8.17    0.53
  -1  -6   1    7.07    0.49
  -1  -6   1    7.32    0.48
  -1  -6   1    7.47    0.50
   0   6  -1   11.25    0.60
   0   6  -1   10.52    0.57
   0  -6   1   11.24    0.59
   0  -6   1   10.55    0.59
   0  -6   1   10.79    0.58
   0  -6   1   11.04    0.55
  -1   6  -1    8.73    0.56
   1  -6   1    8.52    0.52
   1  -6   1    8.02    0.52
   1  -6   1    8.38    0.53
   1  -6   1    8.39    0.50
  -2   6  -1   12.42    0.66
   2  -6   1   11.06    0.62
   2  -6   1   11.07    0.60
   2  -6   1   11.87    0.62
   2  -6   1   11.86    0.57
  -3   6  -1    8.39    0.61
   3  -6   1    8.68    0.59
   3  -6   1    8.56    0.59
   3  -6   1    8.45    0.52
   3  -6   1    9.13    0.59
  -4   6  -1   28.93    1.20
   4  -6   1   31.92    1.19
   4  -6   1   28.21    1.14
   4  -6   1   30.15    1.14
  -5   6  -1   52.84    1.93
   5  -6   1   52.85    1.86
   5  -6   1   55.25    1.93
  -6   6  -1   12.00    0.85
   6  -6   1   12.50    0.90
  -7   6  -1   -0.46    0.51
   7  -6   1   -0.10    0.54
  -8   6  -1    0.47    0.59
   8  -6   1    0.78    0.65
   8   5  -1    0.11    0.64
  -8  -5   1    0.24    0.67
   7   5  -1    0.67    0.53
  -7  -5   1    0.20    0.58
   6   5  -1    1.88    0.50
  -6  -5   1    2.05    0.54
   5   5  -1   23.64    1.03
  -5  -5   1   20.66    1.07
  -5  -5   1   23.66    0.99
   4   5  -1   22.98    0.96
  -4  -5   1   26.68    0.99
  -4  -5   1   23.24    0.98
  -4  -5   1   23.05    1.06
   3   5  -1   29.62    1.14
   3   5  -1   30.60    1.31
  -3  -5   1   30.56    1.26
  -3  -5   1   31.26    1.12
  -3  -5   1   32.78    1.14
  -3  -5   1   30.78    1.16
   2   5  -1   46.39    1.91
   2   5  -1   43.97    1.50
   2   5  -1   49.37    1.73
   2   5  -1   45.44    1.59
  -2  -5   1   46.63    1.58
  -2  -5   1   44.20    1.71
  -2  -5   1   44.95    1.51
  -2  -5   1   48.24    1.55
   1   5  -1   35.16    1.24
   1   5  -1   35.49    1.32
  -1  -5   1   35.25    1.23
  -1  -5   1   33.90    1.32
  -1  -5   1   35.43    1.17
  -1  -5   1   35.22    1.21
   0   5  -1   30.59    1.12
   0   5  -1   32.85    1.21
   0  -5   1   30.84    1.12
   0  -5   1   32.45    1.10
   0  -5   1   31.67    1.07
   0  -5   1   31.46    1.19
  -1   5  -1   16.91    0.69
   1  -5   1   16.79    0.67
   1  -5   1   17.10    0.73
   1  -5   1   16.94    0.67
   1  -5   1   17.21    0.65
  -2   5  -1   14.04    0.64
   2  -5   1   14.69    0.63
   2  -5   1   13.95    0.62
   2  -5   1   14.76    0.67
   2  -5   1   15.58    0.65
  -3   5  -1    0.26    0.29
   3  -5   1   -0.31    0.25
   3  -5   1    0.40    0.25
   3  -5   1   -0.18    0.26
  -4   5  -1   95.32    3.16
   4  -5   1   93.98    3.05
   4  -5   1   99.05    3.05
   4  -5   1   95.64    3.14
  -5   5  -1    4.43    0.45
   5  -5   1    3.88    0.43
   5  -5   1    3.97    0.46
  -6   5  -1   -0.23    0.41
   6  -5   1    0.64    0.44
  -7   5  -1    0.96    0.50
   7  -5   1   -0.45    0.50
  -8   5  -1   10.39    0.85
   8  -5   1   12.39    0.83
   8   4  -1    1.22    0.57
  -8  -4   1    1.33    0.59
   7   4  -1    9.91    0.73
  -7  -4   1   10.49    0.76
   6   4  -1   14.44    0.85
  -6  -4   1   14.51    0.89
   5   4  -1   25.92    1.05
  -5  -4   1   25.67    1.19
  -5  -4   1   27.38    1.06
  -5  -4   1   28.02    1.08
   4   4  -1    6.63    0.40
   4   4  -1    6.51    0.44
  -4  -4   1    5.50    0.40
  -4  -4   1    5.17    0.46
  -4  -4   1    6.73    0.41
  -4  -4   1    5.92    0.45
   3   4  -1  162.82    4.94
   3   4  -1  154.71    5.13
  -3  -4   1  168.68    4.97
  -3  -4   1  166.82    4.95
  -3  -4   1  153.37    5.59
  -3  -4   1  159.40    5.14
   2   4  -1   90.50    2.93
   2   4  -1   88.78    2.81
   2   4  -1   91.89    3.18
   2   4  -1   92.93    3.65
  -2  -4   1   86.47    2.92
  -2  -4   1   91.01    2.83
  -2  -4   1   93.43    2.82
  -2  -4   1   89.01    3.19
   1   4  -1  203.42    6.33
   1   4  -1  212.87    7.15
   1   4  -1  206.80    6.59
  -1  -4   1  203.18    7.15
  -1  -4   1  212.36    6.34
  -1  -4   1  213.59    6.35
  -1  -4   1  203.79    6.58
   0   4  -1   18.04    0.74
   0   4  -1   19.20    0.71
   0   4  -1   18.26    0.70
   0   4  -1   18.36    0.66
   0  -4   1   17.75    0.68
   0  -4   1   17.67    0.74
   0  -4   1   19.27    0.67
   0  -4   1   18.49    0.65
  -1   4  -1    2.71    0.24
   1  -4   1    2.33    0.21
   1  -4   1    2.14    0.21
   1  -4   1    2.66    0.24
   1  -4   1    2.64    0.22
  -2   4  -1   16.87    0.68
  -2   4  -1   16.66    0.65
   2  -4   1   17.84    0.67
   2  -4   1   18.15    0.69
   2  -4   1   17.94    0.67
  -3   4  -1  149.03    4.63
  -3   4  -1  150.15    4.82
   3  -4   1  152.91    4.64
   3  -4   1  151.79    4.80
   3  -4   1  148.68    4.64
  -4   4  -1    1.86    0.33
  -4   4  -1    2.04    0.28
   4  -4   1    2.86    0.33
   4  -4   1    2.14    0.29
   4  -4   1    2.27    0.30
  -5   4  -1    0.54    0.36
   5  -4   1   -0.01    0.34
   5  -4   1   -0.12    0.30
   5  -4   1   -0.05    0.31
  -6   4  -1   58.41    2.02
   6  -4   1   57.18    1.95
   6  -4   1   57.33    2.01
  -7   4  -1   10.65    0.75
   7  -4   1   11.64    0.75
  -8   4  -1    4.29    0.63
   8  -4   1    6.61    0.71
  -9   4  -1   -0.10    0.69
   9  -4   1   -0.36    0.63
   9   3  -1   -0.05    0.59
  -9  -3   1    0.44    0.69
   8   3  -1   13.73    0.99
  -8  -3   1   13.72    0.89
   7   3  -1   14.22    0.84
  -7  -3   1   15.94    0.87
   6   3  -1   21.49    0.93
  -6  -3   1   19.25    0.97
  -6  -3   1   22.79    0.95
   5   3  -1   16.08    0.74
   5   3  -1   16.16    0.73
  -5  -3   1   16.10    0.70
  -5  -3   1   14.65    0.77
  -5  -3   1   17.59    0.76
  -5  -3   1   18.45    0.76
   4   3  -1    2.45    0.29
   4   3  -1    1.89    0.24
  -4  -3   1    1.13    0.18
  -4  -3   1    1.33    0.30
  -4  -3   1    0.86    0.27
  -4  -3   1    1.92    0.27
  -4  -3   1    1.10    0.26
   3   3  -1  196.52    6.16
   3   3  -1  190.47    5.94
   3   3  -1  192.88    5.92
   3   3  -1  200.91    6.70
  -3  -3   1  188.00    6.70
  -3  -3   1  191.47    6.17
  -3  -3   1  196.56    5.93
  -3  -3   1  195.62    5.94
   2   3  -1   28.98    1.16
   2   3  -1   29.43    1.07
   2   3  -1   28.25    0.93
   2   3  -1   27.49    0.98
   2   3  -1   27.68    0.94
  -2  -3   1   27.01    1.07
  -2  -3   1   29.20    0.95
  -2  -3   1   28.33    0.99
  -2  -3   1   28.53    0.95
   1   3  -1  233.77    7.28
   1   3  -1  233.60    7.56
   1   3  -1  251.05    8.22
   1   3  -1  240.32    7.27
  -1  -3   1  239.82    8.22
  -1  -3   1  236.05    7.29
  -1  -3   1  236.94    7.56
  -1  -3   1  246.70    7.28
   0   3  -1   42.49    1.42
   0   3  -1   42.04    1.37
   0   3  -1   42.55    1.36
   0   3  -1   43.99    1.43
   0   3  -1   44.01    1.55
   0  -3   1   43.87    1.54
   0  -3   1   43.58    1.42
   0  -3   1   42.89    1.38
   0  -3   1   44.48    1.36
  -1   3  -1  176.60    5.37
  -1   3  -1  175.58    5.59
  -1   3  -1  177.24    5.37
   1  -3   1  177.28    6.06
   1  -3   1  174.86    5.38
   1  -3   1  179.04    5.58
   1  -3   1  174.16    5.38
  -2   3  -1  197.69    5.88
  -2   3  -1  189.14    5.88
  -2   3  -1  192.29    6.11
   2  -3   1  197.02    5.88
   2  -3   1  193.60    5.89
   2  -3   1  188.39    6.10
  -3   3  -1  192.55    5.97
  -3   3  -1  199.38    6.22
   3  -3   1  198.53    5.98
   3  -3   1  190.90    6.20
   3  -3   1  197.28    5.99
  -4   3  -1    4.04    0.35
  -4   3  -1    4.83    0.32
   4  -3   1    4.07    0.32
   4  -3   1    4.22    0.32
   4  -3   1    3.96    0.33
  -5   3  -1  146.41    4.77
  -5   3  -1  148.68    4.58
   5  -3   1  147.80    4.59
   5  -3   1  150.89    4.76
   5  -3   1  144.44    4.59
  -6   3  -1    0.67    0.36
   6  -3   1    0.67    0.40
   6  -3   1    1.21    0.37
  -7   3  -1    1.50    0.46
   7  -3   1    1.26    0.46
  -8   3  -1   14.59    1.00
   8  -3   1   14.36    1.05
  -9   3  -1    7.37    0.83
   9  -3   1    7.41    0.78
   9   2  -1    2.90    0.65
  -9  -2   1    3.54    0.68
   8   2  -1    7.15    0.65
  -8  -2   1    7.58    0.69
   7   2  -1    3.54    0.53
  -7  -2   1    3.58    0.52
   6   2  -1   26.42    1.11
   6   2  -1   25.43    1.01
  -6  -2   1   27.34    1.12
   5   2  -1    0.25    0.24
   5   2  -1   -0.08    0.25
   5   2  -1   -0.06    0.28
  -5  -2   1   -0.11    0.24
  -5  -2   1   -0.12    0.25
  -5  -2   1   -0.07    0.32
   4   2  -1   40.89    1.36
   4   2  -1   41.17    1.41
   4   2  -1   42.67    1.37
  -4  -2   1   41.57    1.36
  -4  -2   1   40.19    1.36
  -4  -2   1   42.88    1.44
  -4  -2   1   39.87    1.55
   3   2  -1   38.20    1.39
   3   2  -1   47.65    1.59
   3   2  -1   45.25    1.41
   3   2  -1   42.47    1.45
  -3  -2   1   43.87    1.40
  -3  -2   1   44.67    1.40
  -3  -2   1   42.63    1.59
  -3  -2   1   43.55    1.78
  -3  -2   1   44.38    1.46
   2   2  -1  217.01    6.81
   2   2  -1  223.92    7.07
   2   2  -1  226.23    7.68
  -2  -2   1  224.48    7.69
  -2  -2   1  231.84    6.81
  -2  -2   1  225.81    6.81
  -2  -2   1  219.75    7.07
   1   2  -1  799.56   25.43
   1   2  -1  859.25   27.73
   1   2  -1  764.45   25.44
   1   2  -1  804.74   24.58
  -1  -2   1  797.46   24.56
  -1  -2   1  768.84   25.50
  -1  -2   1  862.76   24.58
  -1  -2   1  814.15   27.75
   0   2  -1  896.85   28.72
   0   2  -1 1000.00   31.27
   0   2  -1  923.53   28.81
   0   2  -1  945.56   27.74
   0   2  -1  916.39   28.81
   0  -2   1  923.28   31.30
   0  -2   1  834.57   28.75
   0  -2   1  870.32   28.77
   0  -2   1  895.89   27.75
   0  -2   1  926.32   27.68
  -1   2  -1    1.64    0.13
  -1   2  -1    2.37    0.16
  -1   2  -1    2.72    0.16
  -1   2  -1    2.67    0.15
   1  -2   1    2.66    0.19
   1  -2   1    2.27    0.15
   1  -2   1    2.41    0.15
  -2   2  -1    7.22    0.32
  -2   2  -1    6.97    0.35
  -2   2  -1    6.86    0.31
   2  -2   1    6.90    0.32
   2  -2   1    6.72    0.32
   2  -2   1    7.38    0.33
  -3   2  -1  105.45    3.24
  -3   2  -1  104.66    3.24
  -3   2  -1  105.58    3.37
   3  -2   1  103.54    3.24
   3  -2   1  107.93    3.25
   3  -2   1  102.97    3.36
  -4   2  -1   87.99    2.78
  -4   2  -1   84.21    2.67
   4  -2   1   84.22    2.67
   4  -2   1   81.59    2.67
   4  -2   1   87.69    2.78
  -5   2  -1   65.49    2.20
  -5   2  -1   66.23    2.12
   5  -2   1   66.91    2.19
   5  -2   1   65.88    2.12
   5  -2   1   63.29    2.11
  -6   2  -1    1.62    0.37
   6  -2   1    1.61    0.42
   6  -2   1    2.03    0.36
  -7   2  -1   33.35    1.42
   7  -2   1   37.10    1.45
  -8   2  -1   -0.04    0.51
   8  -2   1    0.44    0.52
  -9   2  -1    3.92    0.70
   9  -2   1    5.84    0.73
   9   1  -1   13.59    0.93
  -9  -1   1   13.27    0.94
   8   1  -1   -0.09    0.52
  -8  -1   1    0.90    0.55
   7   1  -1   14.29    0.87
  -7  -1   1   13.12    0.80
   6   1  -1   46.91    1.63
   6   1  -1   45.30    1.55
  -6  -1   1   45.35    1.57
  -6  -1   1   45.52    1.63
   5   1  -1   48.87    1.64
   5   1  -1   48.14    1.58
   5   1  -1   48.68    1.59
  -5  -1   1   46.96    1.58
  -5  -1   1   46.98    1.66
   4   1  -1   46.83    1.55
   4   1  -1   45.02    1.49
   4   1  -1   47.11    1.69
   4   1  -1   45.70    1.50
  -4  -1   1   46.78    1.57
  -4  -1   1   44.60    1.49
   3   1  -1   81.23    2.53
   3   1  -1   80.55    2.62
   3   1  -1   84.16    2.86
   3   1  -1   82.18    2.52
  -3  -1   1   80.37    2.86
  -3  -1   1   80.66    2.52
  -3  -1   1   82.15    2.64
   2   1  -1    8.44    0.38
   2   1  -1    8.45    0.34
   2   1  -1    8.16    0.32
   2   1  -1    8.30    0.33
  -2  -1   1    8.10    0.38
  -2  -1   1    8.38    0.35
  -2  -1   1    7.96    0.33
   1   1  -1  156.84    4.91
   1   1  -1  158.51    5.34
   1   1  -1  151.16    4.91
   1   1  -1  150.06    4.73
   1   1  -1  161.15    4.72
  -1  -1   1  160.56    4.91
  -1  -1   1  154.54    4.91
  -1  -1   1  149.63    5.33
  -1  -1   1  159.39    4.72
   0   1  -1   50.87    1.61
   0   1  -1   52.15    1.82
   0   1  -1   49.79    1.61
   0   1  -1   50.84    1.67
   0   1  -1   52.80    1.67
   0  -1   1   52.52    1.68
   0  -1   1   53.11    1.67
   0  -1   1   52.50    1.82
   0  -1   1   50.20    1.61
  -1   1  -1   14.72    0.49
  -1   1  -1   14.15    0.50
  -1   1  -1   14.65    0.49
   1  -1   1   14.58    0.51
   1  -1   1   15.65    0.49
  -2   1  -1  353.09   10.58
  -2   1  -1  355.09   10.58
  -2   1  -1  344.96   10.99
   2  -1   1  343.57   10.58
   2  -1   1  347.31   10.58
   2  -1   1  353.85   10.99
  -3   1  -1  239.16    7.66
  -3   1  -1  243.19    7.67
  -3   1  -1  254.94    7.97
  -3   1  -1  259.93    7.67
   3  -1   1  259.75    7.67
   3  -1   1  254.44    7.67
   3  -1   1  254.70    7.97
  -4   1  -1   65.47    2.11
  -4   1  -1   67.37    2.21
   4  -1   1   67.38    2.11
   4  -1   1   65.74    2.12
   4  -1   1   68.44    2.20
  -5   1  -1   52.62    1.70
  -5   1  -1   52.48    1.79
   5  -1   1   52.55    1.78
   5  -1   1   52.23    1.72
   5  -1   1   49.57    1.70
  -6   1  -1   64.07    2.25
  -6   1  -1   65.69    2.25
  -6   1  -1   71.05    2.36
   6  -1   1   71.39    2.28
   6  -1   1   75.48    2.39
  -7   1  -1    2.86    0.51
   7  -1   1    3.48    0.53
  -8   1  -1    7.12    0.70
   8  -1   1    7.07    0.71
  -9   1  -1    3.65    0.74
   9  -1   1    4.63    0.77
   9   0  -1    2.65    0.63
  -9   0   1    2.88    0.63
   8   0  -1   -0.31    0.46
  -8   0   1   -0.01    0.52
   7   0  -1   77.98    2.76
  -7   0   1   86.37    2.81
   6   0  -1   17.62    0.75
   6   0  -1   17.04    0.80
   6   0  -1   17.02    0.74
  -6   0   1   17.10    0.81
  -6   0   1   19.28    0.78
   5   0  -1    1.41    0.25
   5   0  -1    1.31    0.29
   5   0  -1    1.07    0.24
  -5   0   1    0.81    0.27
  -5   0   1    1.17    0.25
   4   0  -1   61.75    1.93
   4   0  -1   63.66    2.20
   4   0  -1   58.67    1.93
   4   0  -1   59.86    2.00
  -4   0   1   60.60    1.93
  -4   0   1   62.45    2.03
   3   0  -1  524.73   16.04
   3   0  -1  527.46   16.09
   3   0  -1  511.17   16.69
   3   0  -1  545.96   18.14
  -3   0   1  536.65   16.03
  -3   0   1  538.29   16.05
  -3   0   1  528.05   16.72
   2   0  -1  392.08   13.00
   2   0  -1  378.50   11.50
   2   0  -1  360.38   11.95
   2   0  -1  381.28   11.52
  -2   0   1  387.70   11.49
  -2   0   1  388.56   11.90
  -2   0   1  374.71   11.45
  -2   0   1  381.68   13.01
  -2   0   1  367.61   11.93
   1   0  -1   18.28    0.63
   1   0  -1   18.33    0.60
   1   0  -1   18.89    0.63
   1   0  -1   17.99    0.69
   1   0  -1   17.82    0.61
  -1   0   1   18.14    0.63
  -1   0   1   17.68    0.60
  -1   0   1   17.79    0.61
  -1   0   1   18.26    0.69
  -1   0   1   19.45    0.63
   0   0  -1   41.71    1.33
   0   0  -1   40.56    1.38
   0   0  -1   44.54    1.33
   0   0  -1   44.15    1.38
   0   0  -1   44.59    1.77
   0   0   1   45.93    1.38
   0   0   1   45.64    1.38
   0   0   1   42.13    1.33
   0   0   1   44.41    1.33
   0   0   1   43.50    1.77
  -1   0  -1  704.23   22.18
  -1   0  -1  661.22   22.15
  -1   0  -1  711.05   21.35
  -1   0  -1  710.93   21.32
   1   0   1  726.24   21.34
   1   0   1  701.90   22.16
   1   0   1  703.25   22.18
   1   0   1  712.01   21.35
  -2   0  -1  103.59    3.38
  -2   0  -1  106.19    3.25
  -2   0  -1  107.12    3.25
   2   0   1  105.83    3.25
   2   0   1  108.59    3.26
   2   0   1  106.78    3.38
  -3   0  -1   93.87    3.02
  -3   0  -1   96.32    2.91
  -3   0  -1   94.97    2.90
   3   0   1   93.77    2.91
   3   0   1   92.09    3.02
  -4   0  -1   75.97    2.38
  -4   0  -1   77.67    2.48
  -4   0  -1   75.60    2.37
   4   0   1   73.97    2.46
   4   0   1   74.24    2.38
  -5   0  -1    0.46    0.31
  -5   0  -1    0.59    0.25
  -5   0  -1    0.86    0.26
   5   0   1    0.22    0.24
   5   0   1    0.13    0.09
   5   0   1    0.71    0.29
  -6   0  -1   45.16    1.65
  -6   0  -1   44.81    1.56
   6   0   1   48.13    1.65
  -7   0  -1   15.78    0.92
   7   0   1   14.17    0.85
  -8   0  -1   -0.21    0.51
   8   0   1    0.63    0.54
  -9   0  -1    2.86    0.71
   9   0   1    3.68    0.74
   9  -1  -1    7.47    0.71
  -9   1   1    7.96    0.78
   8  -1  -1   16.30    0.94
  -8   1   1   18.82    1.02
   7  -1  -1    3.43    0.43
   7  -1  -1    4.06    0.47
  -7   1   1    3.63    0.52
   6  -1  -1    1.26    0.32
   6  -1  -1    0.50    0.28
   6  -1  -1    0.85    0.32
  -6   1   1    0.91    0.37
   5  -1  -1  189.19    5.79
   5  -1  -1  180.51    6.01
   5  -1  -1  186.73    5.80
  -5   1   1  192.36    5.79
  -5   1   1  189.60    6.03
  -5   1   1  194.93    5.80
   4  -1  -1   89.09    2.86
   4  -1  -1   96.23    3.25
   4  -1  -1   87.25    2.97
   4  -1  -1   91.83    2.86
  -4   1   1   95.39    2.86
  -4   1   1   93.61    2.86
  -4   1   1   92.84    2.98
   3  -1  -1   12.83    0.52
   3  -1  -1   12.46    0.46
   3  -1  -1   12.58    0.46
   3  -1  -1   12.13    0.48
  -3   1   1   11.62    0.47
  -3   1   1   11.93    0.45
  -3   1   1   11.68    0.45
   2  -1  -1  129.44    4.17
   2  -1  -1  134.46    4.02
   2  -1  -1  134.48    4.53
   2  -1  -1  132.24    4.01
  -2   1   1  129.24    4.17
  -2   1   1  132.72    4.17
  -2   1   1  133.75    4.01
  -2   1   1  129.56    4.01
   1  -1  -1  288.34    9.28
   1  -1  -1  291.82    9.65
   1  -1  -1  313.15   10.48
   1  -1  -1  297.96    9.65
   1  -1  -1  306.07    9.28
  -1   1   1  322.69    9.66
  -1   1   1  324.62    9.65
   0  -1  -1   80.52    2.56
   0   1   1   79.57    2.57
   0   1   1   83.17    2.57
  -1  -1  -1  438.70   13.74
  -1  -1  -1  486.01   13.76
  -1  -1  -1  461.71   18.14
  -1  -1  -1  430.35   14.27
  -1  -1  -1  455.74   14.25
   1   1   1  418.29   13.73
   1   1   1  404.92   14.19
   1   1   1  455.20   14.27
   1   1   1  485.85   18.18
   1   1   1  486.68   13.75
  -2  -1  -1  154.03    4.79
  -2  -1  -1  155.36    6.10
  -2  -1  -1  152.26    4.61
  -2  -1  -1  153.22    4.61
   2   1   1  147.76    4.61
   2   1   1  146.19    4.61
   2   1   1  150.79    4.79
  -3  -1  -1  123.33    3.80
  -3  -1  -1  124.38    3.95
  -3  -1  -1  126.93    3.79
   3   1   1  123.19    3.94
   3   1   1  121.31    3.79
   3   1   1  124.86    4.30
   3   1   1  120.52    3.79
  -4  -1  -1    0.02    0.25
  -4  -1  -1    0.25    0.20
  -4  -1  -1    0.04    0.18
   4   1   1    0.40    0.25
   4   1   1    0.23    0.18
  -5  -1  -1   75.86    2.39
  -5  -1  -1   74.63    2.49
  -5  -1  -1   74.16    2.38
   5   1   1   75.35    2.50
   5   1   1   73.36    2.39
  -6  -1  -1    0.75    0.40
  -6  -1  -1    0.68    0.33
   6   1   1    0.36    0.40
  -7  -1  -1   18.76    1.00
   7   1   1   17.08    0.93
  -8  -1  -1    4.49    0.65
   8   1   1    4.70    0.67
  -9  -1  -1    7.71    0.82
   9   1   1    7.08    0.84
   9  -2  -1    2.05    0.64
  -9   2   1    1.86    0.63
   8  -2  -1    3.05    0.56
  -8   2   1    1.90    0.55
   7  -2  -1    3.38    0.44
   7  -2  -1    4.75    0.47
  -7   2   1    3.53    0.47
   6  -2  -1  162.03    5.09
   6  -2  -1  163.51    5.08
   6  -2  -1  165.29    5.28
  -6   2   1  165.40    5.29
   5  -2  -1   15.78    0.68
   5  -2  -1   16.45    0.68
   5  -2  -1   16.50    0.68
   5  -2  -1   15.52    0.75
  -5   2   1   17.47    0.73
   4  -2  -1   28.76    1.05
   4  -2  -1   29.86    1.00
   4  -2  -1   30.29    1.01
  -4   2   1   30.42    1.06
   3  -2  -1   84.55    2.57
   3  -2  -1   83.17    2.57
   3  -2  -1   81.16    2.67
   3  -2  -1   83.68    2.57
  -3   2   1   84.49    2.67
  -3   2   1   82.84    2.56
   2  -2  -1  449.21   13.35
   2  -2  -1  452.40   13.26
   2  -2  -1  428.31   13.79
  -2   2   1  437.77   13.80
  -2   2   1  459.53   13.86
  -2   2   1  401.50   13.25
   1  -2  -1   73.94    2.33
   1  -2  -1   74.75    2.24
   1  -2  -1   72.89    2.24
   1  -2  -1   69.74    2.32
   1  -2  -1   72.50    2.33
  -1   2   1   73.94    2.33
  -1   2   1   76.00    2.33
  -1   2   1   70.41    2.23
   0  -2  -1   83.68    2.56
   0  -2  -1   86.89    2.56
   0  -2  -1   84.04    2.66
   0  -2  -1   83.50    2.66
   0  -2  -1   86.04    2.88
   0   2   1   87.78    2.66
   0   2   1   83.80    2.88
   0   2   1   81.42    2.66
   0   2   1   80.26    2.55
   0   2   1   84.11    2.55
  -1  -2  -1  240.41    7.09
  -1  -2  -1  237.41    7.37
  -1  -2  -1  233.32    7.10
  -1  -2  -1  235.19    8.01
   1   2   1  239.75    8.01
   1   2   1  233.41    7.09
   1   2   1  227.28    7.38
   1   2   1  237.54    9.39
   1   2   1  225.66    7.37
  -2  -2  -1    0.06    0.15
  -2  -2  -1    0.31    0.13
  -2  -2  -1    0.23    0.13
  -2  -2  -1    0.03    0.13
   2   2   1    0.30    0.15
   2   2   1    0.22    0.12
   2   2   1    0.19    0.14
  -3  -2  -1  117.99    3.78
  -3  -2  -1  119.46    3.63
  -3  -2  -1  115.20    4.78
  -3  -2  -1  118.02    3.64
   3   2   1  113.57    3.63
   3   2   1  118.07    3.78
   3   2   1  123.71    4.12
  -4  -2  -1  157.46    4.77
  -4  -2  -1  145.70    6.27
  -4  -2  -1  162.47    4.96
  -4  -2  -1  159.12    4.76
   4   2   1  150.21    4.76
   4   2   1  153.80    4.95
  -5  -2  -1    5.88    0.56
  -5  -2  -1    7.47    0.54
  -5  -2  -1    7.36    0.48
  -5  -2  -1    8.09    0.45
   5   2   1    7.49    0.52
   5   2   1    8.29    0.50
  -6  -2  -1    0.95    0.36
  -6  -2  -1    0.87    0.39
   6   2   1    1.20    0.43
  -7  -2  -1   53.03    1.94
   7   2   1   50.67    1.93
  -8  -2  -1    4.97    0.68
   8   2   1    4.90    0.70
  -9  -2  -1    0.29    0.69
   9   2   1    0.19    0.71
   9  -3  -1    1.72    0.63
  -9   3   1    1.56    0.59
   8  -3  -1    7.84    0.66
  -8   3   1    6.38    0.66
   7  -3  -1   17.95    0.94
   7  -3  -1   18.35    0.87
  -7   3   1   17.54    0.92
   6  -3  -1  102.45    3.26
   6  -3  -1  103.58    3.25
   6  -3  -1  105.93    3.38
  -6   3   1   99.68    3.38
   5  -3  -1    1.44    0.27
   5  -3  -1    1.49    0.28
   5  -3  -1    1.24    0.29
  -5   3   1    1.24    0.28
   4  -3  -1  169.55    5.21
   4  -3  -1  172.91    5.21
   4  -3  -1  165.71    5.40
   4  -3  -1  169.38    5.21
  -4   3   1  172.54    5.41
   3  -3  -1  116.96    3.59
   3  -3  -1  115.06    3.72
   3  -3  -1  119.68    3.59
  -3   3   1  116.12    3.73
   2  -3  -1   95.16    3.10
   2  -3  -1   96.18    3.00
   2  -3  -1   99.31    2.99
  -2   3   1   99.12    3.11
  -2   3   1   98.73    3.11
   1  -3  -1  332.88   10.42
   1  -3  -1  318.59   11.30
   1  -3  -1  315.93   10.00
   1  -3  -1  343.22   10.04
  -1   3   1  353.35   10.39
  -1   3   1  321.36   10.41
   0  -3  -1   16.91    0.57
   0  -3  -1   17.33    0.63
   0  -3  -1   16.44    0.58
   0  -3  -1   17.50    0.60
   0   3   1   17.58    0.63
   0   3   1   17.11    0.60
   0   3   1   17.13    0.60
  -1  -3  -1    9.07    0.41
  -1  -3  -1    8.79    0.39
  -1  -3  -1    9.30    0.38
  -1  -3  -1    9.05    0.37
   1   3   1    9.41    0.41
   1   3   1    9.13    0.39
   1   3   1    8.79    0.46
   1   3   1    8.79    0.39
  -2  -3  -1  129.17    3.96
  -2  -3  -1  129.33    3.95
  -2  -3  -1  130.82    4.11
  -2  -3  -1  123.29    4.47
   2   3   1  134.65    4.47
   2   3   1  123.93    4.11
   2   3   1  132.13    5.21
  -3  -3  -1    4.65    0.38
  -3  -3  -1    4.54    0.31
  -3  -3  -1    4.98    0.34
  -3  -3  -1    4.45    0.29
   3   3   1    7.15    0.43
   3   3   1    4.10    0.34
  -4  -3  -1    7.93    0.54
  -4  -3  -1    8.78    0.52
  -4  -3  -1    8.58    0.56
  -4  -3  -1    8.61    0.49
   4   3   1    7.60    0.56
  -5  -3  -1    1.40    0.29
  -5  -3  -1    1.13    0.33
  -5  -3  -1    1.42    0.31
  -5  -3  -1    1.15    0.38
   5   3   1    0.51    0.37
  -6  -3  -1   76.46    2.56
   6   3   1   71.73    2.54
  -7  -3  -1    6.63    0.65
   7   3   1    5.36    0.59
  -8  -3  -1    0.06    0.62
   8   3   1    0.20    0.59
   9  -4  -1    7.68    0.75
  -9   4   1    5.98    0.74
   8  -4  -1    1.86    0.54
  -8   4   1    2.24    0.57
   7  -4  -1    7.51    0.56
   7  -4  -1    8.24    0.59
  -7   4   1    6.86    0.57
   6  -4  -1    1.02    0.38
   6  -4  -1    0.97    0.34
   6  -4  -1    1.58    0.32
  -6   4   1    1.12    0.38
   5  -4  -1  177.44    5.44
   5  -4  -1  175.73    5.45
   5  -4  -1  175.68    5.64
   5  -4  -1  175.63    5.45
  -5   4   1  178.23    5.66
   4  -4  -1   46.10    1.47
   4  -4  -1   44.21    1.48
   4  -4  -1   43.97    1.52
  -4   4   1   45.16    1.52
   3  -4  -1  120.68    3.94
   3  -4  -1  125.42    3.80
   3  -4  -1  122.99    3.81
  -3   4   1  125.50    3.96
   2  -4  -1   93.75    2.94
   2  -4  -1   93.97    3.04
   2  -4  -1   95.15    2.94
   2  -4  -1   97.36    3.29
  -2   4   1   96.49    3.06
  -2   4   1   94.86    3.04
   1  -4  -1    1.92    0.17
   1  -4  -1    1.62    0.17
   1  -4  -1    1.66    0.16
   1  -4  -1    1.65    0.15
  -1   4   1    1.72    0.18
  -1   4   1    1.39    0.18
   0  -4  -1    5.46    0.30
   0  -4  -1    5.34    0.30
   0  -4  -1    4.98    0.29
   0  -4  -1    5.23    0.30
   0   4   1    5.36    0.30
   0   4   1    5.75    0.34
   0   4   1    5.19    0.30
  -1  -4  -1  295.94   10.39
  -1  -4  -1  307.32    9.21
  -1  -4  -1  302.79    9.57
  -1  -4  -1  312.78    9.23
   1   4   1  307.89   12.19
   1   4   1  295.99    9.57
   1   4   1  304.56   10.39
  -2  -4  -1    4.38    0.30
  -2  -4  -1    4.30    0.34
  -2  -4  -1    4.48    0.29
  -2  -4  -1    5.06    0.31
   2   4   1    4.59    0.32
   2   4   1    5.22    0.39
   2   4   1    6.17    0.40
  -3  -4  -1   -0.04    0.22
  -3  -4  -1    0.49    0.24
  -3  -4  -1    0.99    0.25
   3   4   1    0.37    0.25
  -4  -4  -1   89.79    3.81
  -4  -4  -1   94.10    2.95
  -4  -4  -1   94.46    3.06
  -4  -4  -1   93.83    2.93
   4   4   1   92.27    3.05
  -5  -4  -1    6.56    0.49
  -5  -4  -1    6.02    0.54
  -5  -4  -1    6.24    0.46
   5   4   1    5.45    0.48
  -6  -4  -1    2.47    0.46
   6   4   1    2.48    0.50
  -7  -4  -1    0.49    0.49
   7   4   1    0.39    0.55
  -8  -4  -1    8.35    0.80
   8   4   1    7.28    0.79
  -9   5   1    1.03    0.66
   8  -5  -1    2.83    0.59
  -8   5   1    3.59    0.62
   7  -5  -1   14.67    0.88
   7  -5  -1   13.11    0.82
  -7   5   1   11.73    0.77
   6  -5  -1    2.16    0.40
   6  -5  -1    2.59    0.41
  -6   5   1    1.94    0.43
   5  -5  -1  167.18    5.34
   5  -5  -1  170.02    5.15
   5  -5  -1  162.35    5.15
  -5   5   1  165.81    5.35
   4  -5  -1    1.81    0.30
   4  -5  -1    1.34    0.29
   4  -5  -1    2.05    0.30
  -4   5   1    1.74    0.31
   3  -5  -1   13.00    0.58
   3  -5  -1   13.95    0.58
   3  -5  -1   13.91    0.58
  -3   5   1   13.48    0.62
   2  -5  -1    6.26    0.38
   2  -5  -1    7.09    0.38
   2  -5  -1    6.76    0.38
   2  -5  -1    6.83    0.38
  -2   5   1    6.78    0.43
   1  -5  -1   78.52    2.71
   1  -5  -1   76.94    2.51
   1  -5  -1   76.80    2.42
   1  -5  -1   78.47    2.43
  -1   5   1   78.29    2.53
   0  -5  -1   11.03    0.49
   0  -5  -1   11.24    0.47
   0  -5  -1   11.08    0.52
   0  -5  -1   11.06    0.52
   0   5   1   11.94    0.53
   0   5   1   12.25    0.52
  -1  -5  -1    2.08    0.25
  -1  -5  -1    2.25    0.26
  -1  -5  -1    2.02    0.23
  -1  -5  -1    2.35    0.25
   1   5   1    2.12    0.25
   1   5   1    2.26    0.26
  -2  -5  -1    0.95    0.26
  -2  -5  -1    0.83    0.28
  -2  -5  -1    0.87    0.25
  -2  -5  -1    1.19    0.24
   2   5   1    0.98    0.27
   2   5   1    0.59    0.26
   2   5   1    1.23    0.26
  -3  -5  -1  136.37    4.23
  -3  -5  -1  137.39    4.37
  -3  -5  -1  131.09    4.77
  -3  -5  -1  132.57    4.20
   3   5   1  144.21    5.52
   3   5   1  132.39    4.37
  -4  -5  -1    5.74    0.43
  -4  -5  -1    5.45    0.45
  -4  -5  -1    5.46    0.47
   4   5   1    5.47    0.48
  -5  -5  -1   -0.07    0.35
  -5  -5  -1    0.52    0.44
   5   5   1   -0.07    0.43
  -6  -5  -1    3.00    0.51
   6   5   1    3.19    0.56
  -7  -5  -1    4.49    0.66
   7   5   1    4.19    0.67
  -8   6   1    5.19    0.68
   7  -6  -1    0.01    0.51
  -7   6   1    0.74    0.52
   6  -6  -1    9.86    0.61
   6  -6  -1   10.49    0.64
  -6   6   1   10.18    0.75
   5  -6  -1    3.91    0.41
   5  -6  -1    2.88    0.39
   5  -6  -1    2.11    0.38
  -5   6   1    2.65    0.43
   4  -6  -1    0.32    0.31
   4  -6  -1    0.37    0.29
   4  -6  -1    0.13    0.29
  -4   6   1    0.08    0.34
   3  -6  -1   38.93    1.40
   3  -6  -1   37.16    1.31
   3  -6  -1   37.09    1.29
   3  -6  -1   37.28    1.28
  -3   6   1   37.41    1.35
   2  -6  -1   68.53    2.38
   2  -6  -1   66.36    2.15
   2  -6  -1   68.90    2.22
   2  -6  -1   66.77    2.15
  -2   6   1   66.80    2.25
   1  -6  -1   16.39    0.67
   1  -6  -1   15.21    0.65
   1  -6  -1   15.39    0.67
   1  -6  -1   16.11    0.68
  -1   6   1   16.39    0.70
   0  -6  -1    6.91    0.43
   0  -6  -1    5.98    0.37
   0  -6  -1    6.67    0.45
   0  -6  -1    6.77    0.43
   0   6   1    6.10    0.41
   0   6   1    7.05    0.44
   0   6   1    6.73    0.46
  -1  -6  -1   48.59    1.84
  -1  -6  -1   50.40    1.67
  -1  -6  -1   50.54    1.71
  -1  -6  -1   52.32    1.66
   1   6   1   47.85    1.72
   1   6   1   53.74    1.86
  -2  -6  -1   39.56    1.34
  -2  -6  -1   37.16    1.47
  -2  -6  -1   38.62    1.36
  -2  -6  -1   38.42    1.33
   2   6   1   37.32    1.37
   2   6   1   37.48    1.65
  -3  -6  -1   13.47    0.71
  -3  -6  -1   12.71    0.71
  -3  -6  -1   13.88    0.68
  -3  -6  -1   12.01    0.71
   3   6   1   12.40    0.71
   3   6   1   12.68    0.75
  -4  -6  -1    0.13    0.39
  -4  -6  -1   -0.97    0.39
   4   6   1   -0.24    0.41
  -5  -6  -1    5.06    0.56
   5   6   1    5.46    0.58
  -6  -6  -1   -0.41    0.54
   6   6   1   -0.17    0.54
  -7  -6  -1    0.53    0.63
   7   6   1   -0.18    0.63
  -8   7   1    4.03    0.70
  -7   7   1   10.44    0.78
   6  -7  -1   -0.53    0.44
  -6   7   1   -0.87    0.48
   5  -7  -1   16.18    0.82
   5  -7  -1   17.16    0.84
  -5   7   1   14.93    0.87
   4  -7  -1   63.43    2.14
   4  -7  -1   62.80    2.17
   4  -7  -1   66.05    2.36
   4  -7  -1   68.96    2.23
  -4   7   1   64.51    2.24
   3  -7  -1   10.04    0.63
   3  -7  -1    9.38    0.62
   3  -7  -1   10.23    0.63
   3  -7  -1   10.36    0.56
  -3   7   1    8.63    0.64
   2  -7  -1   17.37    0.79
   2  -7  -1   19.28    0.76
   2  -7  -1   18.09    0.78
   2  -7  -1   17.76    0.80
  -2   7   1   19.34    0.83
   1  -7  -1    0.92    0.27
   1  -7  -1    0.87    0.26
   1  -7  -1    0.65    0.29
   1  -7  -1    0.76    0.32
  -1   7   1    0.55    0.32
   0  -7  -1   48.92    1.61
   0  -7  -1   46.82    1.65
   0  -7  -1   49.43    1.78
   0  -7  -1   51.35    1.64
   0   7   1   49.60    1.79
   0   7   1   46.31    1.68
   0   7   1   46.29    1.68
  -1  -7  -1   11.72    0.65
  -1  -7  -1   12.18    0.66
  -1  -7  -1   11.71    0.64
  -1  -7  -1   12.12    0.62
   1   7   1   11.95    0.68
   1   7   1   11.41    0.65
   1   7   1   11.09    0.78
  -2  -7  -1    7.04    0.50
  -2  -7  -1    6.62    0.51
  -2  -7  -1    6.90    0.48
  -2  -7  -1    6.41    0.47
   2   7   1    6.53    0.60
   2   7   1    5.52    0.48
  -3  -7  -1    1.06    0.43
  -3  -7  -1    1.64    0.44
  -3  -7  -1    0.88    0.39
   3   7   1    1.73    0.40
   3   7   1    1.70    0.44
  -4  -7  -1   16.70    0.92
  -4  -7  -1   15.99    0.89
   4   7   1   14.31    0.82
  -5  -7  -1    1.16    0.57
   5   7   1    2.60    0.57
   6   7   1    5.21    0.68
  -7   8   1   -1.25    0.59
   6  -8  -1   -0.48    0.46
  -6   8   1   -0.19    0.54
   5  -8  -1   13.73    0.81
  -5   8   1   12.82    0.85
   4  -8  -1    2.39    0.44
  -4   8   1    2.36    0.48
   3  -8  -1    3.24    0.38
   3  -8  -1    3.73    0.42
   3  -8  -1    2.91    0.42
  -3   8   1    2.82    0.46
   2  -8  -1   22.17    0.94
   2  -8  -1   20.26    0.91
   2  -8  -1   21.30    0.95
   2  -8  -1   22.95    0.91
  -2   8   1   21.38    1.00
   1  -8  -1   13.10    0.68
   1  -8  -1   13.08    0.73
   1  -8  -1   14.03    0.72
   1  -8  -1   12.56    0.67
  -1   8   1   13.04    0.74
   0  -8  -1    2.89    0.37
   0  -8  -1    1.42    0.42
   0  -8  -1    2.75    0.36
   0  -8  -1    2.64    0.36
   0   8   1    1.85    0.41
  -1  -8  -1    0.16    0.36
  -1  -8  -1    0.44    0.35
  -1  -8  -1    0.20    0.40
   1   8   1   -0.19    0.38
   1   8   1   -0.06    0.41
  -2  -8  -1    1.28    0.46
  -2  -8  -1    1.80    0.45
  -2  -8  -1    2.65    0.45
   2   8   1    1.54    0.44
   2   8   1    2.30    0.45
  -3  -8  -1    9.83    0.77
  -3  -8  -1    8.98    0.67
   3   8   1    7.42    0.62
   4   8   1   20.73    1.03
   5   8   1    0.59    0.56
  -6   9   1    5.35    0.70
   5  -9  -1    3.30    0.57
  -5   9   1    1.59    0.57
   4  -9  -1    2.74    0.50
  -4   9   1    2.19    0.53
   3  -9  -1   19.36    0.96
  -3   9   1   17.75    0.95
   2  -9  -1    1.64    0.45
  -2   9   1    2.50    0.49
   1  -9  -1    2.50    0.47
  -1   9   1    3.33    0.50
   0  -9  -1    1.47    0.46
   0   9   1    0.57    0.45
  -1  -9  -1    4.37    0.54
   1   9   1    4.14    0.53
   1   9   1    3.88    0.57
   1   9   1    4.28    0.54
  -2  -9  -1    1.90    0.54
  -2  -9  -1    0.94    0.48
   2   9   1    0.46    0.49
   3   9   1    3.02    0.52
   4   9   1    0.08    0.56
  -5  10   1   -0.52    0.58
  -4  10   1    2.44    0.60
   3 -10  -1    2.82    0.58
  -3  10   1    2.28    0.58
   2 -10  -1   -0.01    0.48
  -2  10   1    1.37    0.53
   1 -10  -1    1.44    0.55
  -1  10   1    1.25    0.52
   0 -10  -1    3.45    0.56
   0  10   1    2.26    0.53
   1  10   1    1.37    0.56
   2  10   1    0.85    0.54
   2  10   1    0.40    0.56
   3  10  -2    0.86    0.64
   3  10  -2    0.68    0.62
  -3 -10   2   -0.29    0.67
   2  10  -2    0.47    0.56
  -2 -10   2    0.01    0.61
   1  10  -2    4.54    0.66
  -1 -10   2    5.97    0.73
   0  10  -2    1.05    0.53
   0 -10   2    0.01    0.56
  -1  10  -2   -0.03    0.55
   1 -10   2   -0.24    0.53
  -2  10  -2    5.47    0.68
  -3  10  -2    1.30    0.57
  -4  10  -2    3.97    0.69
   4   9  -2    1.87    0.59
  -4  -9   2    1.87    0.62
  -4  -9   2    1.53    0.69
   3   9  -2    6.39    0.68
   3   9  -2    5.23    0.66
  -3  -9   2    5.27    0.66
  -3  -9   2    5.89    0.73
   2   9  -2    0.02    0.48
   2   9  -2    0.20    0.48
  -2  -9   2   -0.33    0.53
  -2  -9   2    0.11    0.50
   1   9  -2    0.06    0.50
  -1  -9   2    0.30    0.46
  -1  -9   2    0.44    0.50
   0   9  -2    0.56    0.50
   0  -9   2    0.04    0.45
   0  -9   2    0.35    0.48
  -1   9  -2   11.18    0.75
   1  -9   2   11.09    0.81
   1  -9   2   10.13    0.77
  -2   9  -2    2.51    0.56
   2  -9   2    2.83    0.50
   2  -9   2    2.43    0.50
  -3   9  -2    1.05    0.55
   3  -9   2    1.71    0.48
   3  -9   2    0.80    0.50
  -4   9  -2   -0.01    0.57
   4  -9   2    0.55    0.54
   4  -9   2    0.37    0.47
  -5   9  -2    8.04    0.78
   6   8  -2    0.85    0.66
  -6  -8   2    0.40    0.67
   5   8  -2    0.43    0.60
  -5  -8   2   -0.22    0.58
  -5  -8   2    0.11    0.65
   4   8  -2    9.19    0.72
  -4  -8   2    9.10    0.76
  -4  -8   2    9.02    0.69
   3   8  -2    0.94    0.51
  -3  -8   2   -0.29    0.50
  -3  -8   2   -0.18    0.47
   2   8  -2    4.90    0.53
   2   8  -2    5.34    0.53
  -2  -8   2    5.02    0.54
  -2  -8   2    5.20    0.59
   1   8  -2    1.25    0.46
  -1  -8   2    0.49    0.45
  -1  -8   2    1.34    0.42
  -1  -8   2    1.73    0.45
   0   8  -2    1.12    0.40
   0  -8   2    1.96    0.45
   0  -8   2    1.08    0.41
   0  -8   2    1.93    0.44
  -1   8  -2    0.43    0.39
   1  -8   2    0.65    0.38
   1  -8   2   -0.13    0.39
   1  -8   2    0.87    0.40
  -2   8  -2    2.22    0.48
   2  -8   2    2.04    0.44
   2  -8   2    2.30    0.45
   2  -8   2    2.59    0.43
  -3   8  -2    2.43    0.52
   3  -8   2    3.86    0.50
   3  -8   2    3.41    0.48
  -4   8  -2    2.54    0.57
   4  -8   2    3.21    0.53
   4  -8   2    3.63    0.52
  -5   8  -2   14.92    1.00
   5  -8   2   13.54    0.92
   5  -8   2   18.17    1.04
  -6   8  -2   -0.20    0.62
   6  -8   2    1.10    0.58
   7   7  -2    0.82    0.64
  -7  -7   2    1.99    0.71
   6   7  -2    3.65    0.61
  -6  -7   2    3.30    0.62
  -6  -7   2    3.88    0.70
   5   7  -2    1.05    0.53
  -5  -7   2    1.19    0.60
  -5  -7   2    1.95    0.56
   4   7  -2    8.73    0.66
  -4  -7   2    9.48    0.63
  -4  -7   2    9.18    0.73
   3   7  -2    0.68    0.40
  -3  -7   2    0.61    0.42
  -3  -7   2    0.44    0.39
   2   7  -2   35.01    1.38
  -2  -7   2   37.71    1.36
  -2  -7   2   35.38    1.34
  -2  -7   2   35.13    1.47
   1   7  -2    2.81    0.41
   1   7  -2    2.73    0.40
  -1  -7   2    3.93    0.44
  -1  -7   2    3.18    0.42
  -1  -7   2    3.09    0.44
   0   7  -2   38.86    1.47
   0  -7   2   41.16    1.42
   0  -7   2   42.66    1.42
   0  -7   2   38.94    1.57
   0  -7   2   38.31    1.43
  -1   7  -2    4.29    0.46
   1  -7   2    4.76    0.46
   1  -7   2    5.14    0.45
   1  -7   2    4.42    0.41
   1  -7   2    3.58    0.39
  -2   7  -2   12.28    0.76
   2  -7   2   12.10    0.66
   2  -7   2   12.95    0.74
   2  -7   2   13.13    0.74
  -3   7  -2    7.04    0.56
   3  -7   2    6.48    0.49
   3  -7   2    6.52    0.53
   3  -7   2    7.10    0.53
  -4   7  -2   18.99    0.97
   4  -7   2   18.43    0.97
   4  -7   2   18.76    0.95
  -5   7  -2    0.79    0.53
   5  -7   2    0.13    0.50
  -6   7  -2    0.50    0.53
   6  -7   2    0.82    0.58
  -7   7  -2   -0.51    0.59
   7  -7   2    0.51    0.64
   7   6  -2    5.56    0.69
  -7  -6   2    6.86    0.71
   6   6  -2    0.53    0.52
  -6  -6   2    0.70    0.51
  -6  -6   2    0.03    0.58
   5   6  -2    2.05    0.48
  -5  -6   2    1.58    0.47
  -5  -6   2    2.41    0.56
   4   6  -2   11.78    0.71
  -4  -6   2   11.35    0.80
  -4  -6   2   12.48    0.72
   3   6  -2   19.24    0.89
   3   6  -2   19.71    0.84
  -3  -6   2   16.40    0.90
  -3  -6   2   17.44    0.89
  -3  -6   2   21.28    0.89
   2   6  -2   26.71    1.10
  -2  -6   2   30.13    1.09
  -2  -6   2   30.05    1.06
  -2  -6   2   28.85    1.19
  -2  -6   2   28.52    1.10
   1   6  -2   31.10    1.20
   1   6  -2   32.15    1.21
  -1  -6   2   32.10    1.20
  -1  -6   2   31.66    1.12
  -1  -6   2   33.09    1.17
  -1  -6   2   30.17    1.27
   0   6  -2    2.22    0.35
   0  -6   2    2.11    0.31
   0  -6   2    2.45    0.31
   0  -6   2    2.22    0.30
   0  -6   2    2.20    0.35
  -1   6  -2   14.32    0.72
   1  -6   2   14.00    0.73
   1  -6   2   14.00    0.70
   1  -6   2   15.10    0.70
   1  -6   2   14.64    0.64
  -2   6  -2   85.11    2.87
   2  -6   2   87.29    3.09
   2  -6   2   85.28    2.76
   2  -6   2   87.39    2.76
   2  -6   2   86.41    2.85
  -3   6  -2    2.29    0.38
   3  -6   2    3.23    0.39
   3  -6   2    2.02    0.38
   3  -6   2    2.20    0.36
   3  -6   2    2.85    0.38
  -4   6  -2    0.07    0.37
   4  -6   2    0.55    0.36
   4  -6   2    0.15    0.38
  -5   6  -2    2.05    0.51
   5  -6   2    1.96    0.44
  -6   6  -2   18.81    1.02
   6  -6   2   23.81    1.14
  -7   6  -2   -0.31    0.56
   7  -6   2    1.96    0.62
  -8   6  -2    1.06    0.70
   8  -6   2    3.63    0.74
   8   5  -2   -0.16    0.62
  -8  -5   2    0.23    0.67
   7   5  -2    5.12    0.59
  -7  -5   2    5.83    0.65
   6   5  -2    7.49    0.59
  -6  -5   2    7.17    0.68
  -6  -5   2    8.00    0.66
   5   5  -2   -0.12    0.40
  -5  -5   2    0.13    0.39
  -5  -5   2    0.09    0.45
   4   5  -2    1.66    0.36
  -4  -5   2    1.91    0.38
  -4  -5   2    2.59    0.35
  -4  -5   2    2.03    0.41
   3   5  -2   51.25    1.84
   3   5  -2   54.98    1.77
  -3  -5   2   55.34    1.79
  -3  -5   2   53.46    1.86
  -3  -5   2   57.94    1.82
  -3  -5   2   51.50    2.01
   2   5  -2   10.11    0.58
   2   5  -2    8.89    0.48
  -2  -5   2   10.16    0.54
  -2  -5   2   10.75    0.60
  -2  -5   2   11.01    0.53
  -2  -5   2   10.30    0.54
   1   5  -2  135.90    4.55
   1   5  -2  128.14    4.02
   1   5  -2  127.13    4.18
   1   5  -2  129.90    4.18
  -1  -5   2  134.53    4.03
  -1  -5   2  130.57    4.18
  -1  -5   2  123.47    4.54
  -1  -5   2  131.38    4.04
   0   5  -2   -0.14    0.25
   0   5  -2    0.18    0.21
   0  -5   2    0.01    0.22
   0  -5   2    0.17    0.22
   0  -5   2    0.16    0.25
   0  -5   2   -0.13    0.24
  -1   5  -2  122.76    3.96
  -1   5  -2  123.52    3.81
   1  -5   2  126.68    4.31
   1  -5   2  123.95    3.82
   1  -5   2  121.49    3.83
   1  -5   2  119.34    3.95
  -2   5  -2    0.33    0.28
  -2   5  -2    0.18    0.23
   2  -5   2    0.13    0.26
   2  -5   2    0.29    0.27
   2  -5   2    0.24    0.23
   2  -5   2    0.59    0.25
  -3   5  -2    2.24    0.30
  -3   5  -2    2.37    0.35
   3  -5   2    1.80    0.30
   3  -5   2    1.66    0.28
   3  -5   2    2.24    0.29
  -4   5  -2   18.19    0.88
  -4   5  -2   18.98    0.81
   4  -5   2   19.32    0.84
   4  -5   2   19.76    0.83
   4  -5   2   17.80    0.80
  -5   5  -2   32.17    1.31
   5  -5   2   33.20    1.26
   5  -5   2   32.28    1.27
  -6   5  -2   -0.61    0.43
   6  -5   2    0.89    0.48
  -7   5  -2    7.61    0.72
   7  -5   2    7.40    0.67
  -8   5  -2    4.07    0.67
   8  -5   2    4.18    0.69
   8   4  -2    1.99    0.58
  -8  -4   2    2.59    0.67
   7   4  -2    2.79    0.57
  -7  -4   2    3.89    0.60
   6   4  -2    7.18    0.57
  -6  -4   2    5.79    0.59
  -6  -4   2    7.00    0.57
   5   4  -2   -0.37    0.33
  -5  -4   2    0.41    0.40
  -5  -4   2    0.06    0.37
  -5  -4   2    0.45    0.33
   4   4  -2   52.26    1.80
   4   4  -2   57.75    1.90
  -4  -4   2   51.43    2.06
  -4  -4   2   59.36    1.85
  -4  -4   2   56.07    1.92
  -4  -4   2   56.22    1.83
   3   4  -2    1.05    0.26
   3   4  -2    1.21    0.23
  -3  -4   2    0.71    0.26
  -3  -4   2    0.54    0.28
  -3  -4   2    0.69    0.28
  -3  -4   2    0.68    0.24
   2   4  -2   35.09    1.23
   2   4  -2   38.50    1.51
   2   4  -2   38.17    1.28
   2   4  -2   35.68    1.22
   2   4  -2   39.13    1.40
  -2  -4   2   35.28    1.39
  -2  -4   2   35.73    1.24
  -2  -4   2   37.82    1.24
  -2  -4   2   37.37    1.28
   1   4  -2  532.12   17.07
   1   4  -2  557.10   18.54
   1   4  -2  548.70   16.42
   1   4  -2  547.37   16.44
  -1  -4   2  531.55   16.44
  -1  -4   2  562.89   16.43
  -1  -4   2  539.82   18.54
  -1  -4   2  523.21   17.06
   0   4  -2  157.16    4.77
   0   4  -2  155.35    4.78
   0   4  -2  154.81    4.96
   0  -4   2  155.16    4.78
   0  -4   2  152.36    5.39
   0  -4   2  151.86    4.95
   0  -4   2  163.31    4.78
  -1   4  -2   15.47    0.64
  -1   4  -2   14.43    0.60
  -1   4  -2   14.90    0.58
   1  -4   2   15.67    0.61
   1  -4   2   15.07    0.60
   1  -4   2   14.99    0.60
   1  -4   2   14.81    0.67
  -2   4  -2   20.97    0.83
  -2   4  -2   20.84    0.77
   2  -4   2   21.05    0.79
   2  -4   2   19.85    0.77
   2  -4   2   21.09    0.78
  -3   4  -2   37.23    1.29
  -3   4  -2   39.74    1.35
   3  -4   2   36.35    1.29
   3  -4   2   40.12    1.35
   3  -4   2   38.73    1.31
  -4   4  -2   15.08    0.67
  -4   4  -2   14.05    0.69
   4  -4   2   14.78    0.73
   4  -4   2   14.65    0.69
   4  -4   2   13.89    0.68
   4  -4   2   14.75    0.69
  -5   4  -2   22.02    0.99
   5  -4   2   22.06    0.91
   5  -4   2   22.27    0.95
  -6   4  -2    0.85    0.46
   6  -4   2    1.41    0.47
  -7   4  -2   10.85    0.78
   7  -4   2   12.58    0.84
  -8   4  -2    0.64    0.57
   8  -4   2    0.29    0.65
   9   3  -2    2.59    0.68
  -9  -3   2    1.70    0.70
   8   3  -2    0.87    0.52
  -8  -3   2    1.48    0.60
   7   3  -2    4.01    0.54
  -7  -3   2    3.97    0.57
   6   3  -2   36.30    1.31
  -6  -3   2   31.86    1.47
  -6  -3   2   37.37    1.34
   5   3  -2   29.47    1.04
   5   3  -2   27.84    1.02
   5   3  -2   27.64    1.08
  -5  -3   2   27.04    1.06
  -5  -3   2   24.35    1.13
  -5  -3   2   27.62    1.15
   4   3  -2    0.63    0.22
   4   3  -2    0.55    0.23
   4   3  -2    0.51    0.27
  -4  -3   2   -0.02    0.27
  -4  -3   2    0.64    0.30
  -4  -3   2   -0.01    0.20
  -4  -3   2    1.00    0.25
   3   3  -2    4.31    0.33
   3   3  -2    4.68    0.30
   3   3  -2    4.63    0.31
   3   3  -2    4.39    0.28
  -3  -3   2    3.70    0.33
  -3  -3   2    3.87    0.31
  -3  -3   2    4.34    0.29
  -3  -3   2    4.34    0.30
   2   3  -2  173.28    5.35
   2   3  -2  182.05    6.05
   2   3  -2  169.49    5.36
   2   3  -2  175.23    5.57
  -2  -3   2  174.58    5.56
  -2  -3   2  179.58    5.36
  -2  -3   2  173.32    6.05
  -2  -3   2  175.64    5.37
   1   3  -2   44.85    1.55
   1   3  -2   44.32    1.43
   1   3  -2   36.24    1.35
   1   3  -2   43.45    1.38
  -1  -3   2   43.62    1.38
  -1  -3   2   44.03    1.37
  -1  -3   2   44.85    1.56
  -1  -3   2   42.65    1.42
   0   3  -2    4.29    0.32
   0   3  -2    3.95    0.26
   0  -3   2    4.34    0.28
   0  -3   2    4.32    0.28
   0  -3   2    3.89    0.28
   0  -3   2    4.57    0.29
  -1   3  -2    4.31    0.29
  -1   3  -2    3.77    0.25
   1  -3   2    4.38    0.29
   1  -3   2    3.62    0.26
   1  -3   2    3.88    0.28
  -2   3  -2  350.32   10.98
  -2   3  -2  350.38   10.57
   2  -3   2  350.59   10.57
   2  -3   2  352.76   10.97
   2  -3   2  337.52   10.57
  -3   3  -2   56.70    1.81
  -3   3  -2   58.54    1.90
   3  -3   2   55.25    1.88
   3  -3   2   57.03    1.83
   3  -3   2   56.87    1.83
   3  -3   2   57.00    1.83
  -4   3  -2  104.33    3.20
  -4   3  -2   99.48    3.33
   4  -3   2  102.15    3.20
   4  -3   2  103.39    3.32
   4  -3   2  100.70    3.20
  -5   3  -2   21.45    0.92
  -5   3  -2   21.48    0.86
   5  -3   2   21.84    0.90
   5  -3   2   22.11    0.91
   5  -3   2   23.05    0.97
  -6   3  -2   43.40    1.65
   6  -3   2   45.00    1.66
  -7   3  -2   11.80    0.87
   7  -3   2   12.95    0.94
  -8   3  -2    2.12    0.64
   8  -3   2    2.26    0.65
  -9   3  -2    1.22    0.72
   9  -3   2    1.28    0.74
   9   2  -2    2.20    0.61
  -9  -2   2    2.98    0.71
   8   2  -2    2.25    0.56
  -8  -2   2    2.30    0.56
   7   2  -2   48.79    1.80
  -7  -2   2   49.09    1.79
   6   2  -2    7.52    0.47
   6   2  -2    6.22    0.48
  -6  -2   2    6.58    0.51
   5   2  -2    2.81    0.32
   5   2  -2    4.02    0.37
   5   2  -2    4.08    0.33
  -5  -2   2    2.33    0.38
  -5  -2   2    3.16    0.33
  -5  -2   2    3.83    0.40
   4   2  -2  254.07    7.61
   4   2  -2  250.25    7.62
   4   2  -2  249.21    7.91
  -4  -2   2  254.30    7.62
  -4  -2   2  242.31    8.60
  -4  -2   2  249.06    7.92
  -4  -2   2  248.55    7.61
   3   2  -2   32.47    1.05
   3   2  -2   31.96    1.07
   3   2  -2   32.54    1.11
  -3  -2   2   33.07    1.06
  -3  -2   2   31.72    1.07
  -3  -2   2   30.19    1.30
  -3  -2   2   33.06    1.22
  -3  -2   2   31.70    1.10
   2   2  -2  146.81    4.99
   2   2  -2  143.53    4.41
   2   2  -2  146.89    4.59
   2   2  -2  141.86    4.42
  -2  -2   2  146.45    4.59
  -2  -2   2  138.31    4.99
  -2  -2   2  148.61    4.41
   1   2  -2   23.18    0.76
   1   2  -2   22.47    0.77
   1   2  -2   23.94    0.87
  -1  -2   2   23.36    0.77
  -1  -2   2   23.80    0.87
  -1  -2   2   23.51    0.79
   0   2  -2  657.64   20.04
   0   2  -2  657.26   20.87
   0   2  -2  695.22   20.10
   0  -2   2  673.26   20.07
   0  -2   2  615.48   20.80
  -1   2  -2   92.47    2.87
  -1   2  -2   94.66    2.98
  -1   2  -2   94.96    2.87
   1  -2   2   91.06    2.87
   1  -2   2   93.10    2.97
  -2   2  -2  124.03    3.77
  -2   2  -2  122.35    3.91
  -2   2  -2  123.89    3.77
   2  -2   2  121.44    3.77
   2  -2   2  122.09    3.91
  -3   2  -2   32.59    1.12
  -3   2  -2   33.96    1.17
  -3   2  -2   36.05    1.12
   3  -2   2   33.98    1.12
   3  -2   2   32.77    1.13
   3  -2   2   34.25    1.17
  -4   2  -2   33.83    1.15
  -4   2  -2   33.04    1.19
  -4   2  -2   34.16    1.16
   4  -2   2   33.65    1.19
   4  -2   2   33.84    1.17
   4  -2   2   32.78    1.14
  -5   2  -2   -0.13    0.32
  -5   2  -2    0.43    0.20
   5  -2   2    0.35    0.28
   5  -2   2    0.02    0.30
   5  -2   2    0.87    0.30
  -6   2  -2   53.86    1.90
   6  -2   2   52.59    1.88
  -7   2  -2    1.02    0.45
   7  -2   2    1.34    0.48
  -8   2  -2    5.58    0.65
   8  -2   2    5.20    0.66
  -9   2  -2    0.22    0.64
   9  -2   2    0.56    0.66
   9   1  -2   12.06    0.86
  -9  -1   2   11.73    0.85
   8   1  -2    9.11    0.70
  -8  -1   2    9.57    0.74
   7   1  -2    2.25    0.47
  -7  -1   2    1.77    0.45
   6   1  -2    8.21    0.52
   6   1  -2    8.49    0.49
   6   1  -2    7.38    0.51
  -6  -1   2    7.86    0.48
  -6  -1   2    7.21    0.54
   5   1  -2   67.89    2.21
   5   1  -2   68.65    2.20
   5   1  -2   67.60    2.28
  -5  -1   2   71.12    2.32
  -5  -1   2   70.50    2.21
   4   1  -2  216.59    6.67
   4   1  -2  210.15    6.93
   4   1  -2  231.23    7.54
   4   1  -2  218.49    6.68
  -4  -1   2  222.16    6.68
  -4  -1   2  211.15    7.54
  -4  -1   2  221.41    6.94
   3   1  -2   51.49    1.72
   3   1  -2   54.21    1.66
   3   1  -2   52.38    1.67
   3   1  -2   53.67    1.89
  -3  -1   2   51.95    1.73
  -3  -1   2   52.95    1.89
  -3  -1   2   50.98    1.66
  -3  -1   2   53.64    1.67
   2   1  -2  352.88   11.06
   2   1  -2  361.84   11.48
   2   1  -2  380.75   12.48
   2   1  -2  372.44   11.05
  -2  -1   2  359.57   12.48
  -2  -1   2  353.22   11.48
  -2  -1   2  371.14   11.05
  -2  -1   2  383.33   11.48
  -2  -1   2  351.90   11.05
   1   1  -2   80.04    2.52
   1   1  -2   80.04    2.52
   1   1  -2   77.82    2.42
   1   1  -2   80.23    2.75
   1   1  -2   80.08    2.42
   1   1  -2   80.54    3.18
  -1  -1   2   78.38    2.52
  -1  -1   2   75.19    2.42
  -1  -1   2   76.77    2.42
  -1  -1   2   79.48    2.75
  -1  -1   2   82.94    2.52
   0   1  -2  113.49    3.31
   0   1  -2  110.42    3.44
   0   1  -2  106.32    3.31
   0   1  -2  110.03    3.44
   0  -1   2  109.11    3.44
   0  -1   2  107.85    3.44
   0  -1   2  106.52    3.31
   0  -1   2  104.88    3.31
   0  -1   2  108.22    3.75
  -1   1  -2  445.73   14.24
  -1   1  -2  479.65   14.82
  -1   1  -2  501.33   14.31
   1  -1   2  449.19   14.27
   1  -1   2  463.17   14.77
   1  -1   2  442.14   14.71
   1  -1   2  488.11   14.19
   1  -1   2  482.15   14.20
  -2   1  -2   78.73    2.44
  -2   1  -2   80.35    2.53
  -2   1  -2   81.91    2.44
   2  -1   2   79.23    2.53
   2  -1   2   75.96    2.44
   2  -1   2   77.44    2.44
  -3   1  -2  180.35    5.54
  -3   1  -2  182.06    5.54
  -3   1  -2  186.87    5.54
  -3   1  -2  182.22    5.76
   3  -1   2  181.21    5.55
   3  -1   2  176.83    5.54
   3  -1   2  180.97    5.76
  -4   1  -2   36.88    1.25
  -4   1  -2   35.96    1.21
  -4   1  -2   35.87    1.19
  -4   1  -2   35.47    1.21
   4  -1   2   36.56    1.25
   4  -1   2   34.45    1.19
   4  -1   2   34.10    1.20
  -5   1  -2   28.99    1.06
  -5   1  -2   29.38    1.11
  -5   1  -2   30.56    1.07
  -5   1  -2   29.17    1.06
   5  -1   2   30.99    1.12
   5  -1   2   28.50    1.06
  -6   1  -2   14.00    0.74
   6  -1   2   12.87    0.74
  -7   1  -2    1.34    0.48
   7  -1   2    2.03    0.54
  -8   1  -2    6.76    0.67
   8  -1   2    6.68    0.73
  -9   1  -2    2.31    0.68
   9  -1   2    2.79    0.76
   9   0  -2    0.24    0.59
  -9   0   2    1.56    0.59
   8   0  -2    0.26    0.50
  -8   0   2    1.07    0.50
   7   0  -2   40.81    1.52
   7   0  -2   38.40    1.40
  -7   0   2   39.64    1.49
   6   0  -2  123.71    4.04
   6   0  -2  127.09    3.89
   6   0  -2  123.86    3.91
  -6   0   2  124.11    4.06
   5   0  -2    0.32    0.23
   5   0  -2    0.07    0.23
   5   0  -2    0.29    0.26
  -5   0   2    0.49    0.28
  -5   0   2    0.19    0.22
   4   0  -2   10.69    0.54
   4   0  -2   11.33    0.50
   4   0  -2   10.28    0.46
   4   0  -2   10.49    0.47
  -4   0   2    9.83    0.54
  -4   0   2   10.56    0.49
  -4   0   2   10.04    0.45
   3   0  -2   34.89    1.12
   3   0  -2   34.90    1.17
   3   0  -2   36.23    1.28
   3   0  -2   35.45    1.13
  -3   0   2   35.71    1.18
  -3   0   2   33.82    1.28
  -3   0   2   35.14    1.12
   2   0  -2  841.35   25.36
   2   0  -2  877.45   28.65
   2   0  -2  811.95   26.34
   2   0  -2  824.18   25.35
  -2   0   2  868.00   26.37
  -2   0   2  865.66   28.69
  -2   0   2  772.94   26.37
  -2   0   2  845.42   25.36
  -2   0   2  823.82   25.34
   1   0  -2  268.77    8.49
   1   0  -2  259.09    8.19
   1   0  -2  279.78    8.19
   1   0  -2  275.76    9.25
   1   0  -2  266.57    8.49
  -1   0   2  267.38    8.51
  -1   0   2  266.33    9.22
  -1   0   2  284.44    8.18
  -1   0   2  250.42    8.18
  -1   0   2  279.85    8.51
   0   0  -2  122.09    3.90
   0   0  -2  131.98    3.75
   0   0  -2  117.65    3.75
   0   0  -2  123.89    3.90
   0   0  -2  119.41    4.98
   0   0   2  120.22    4.98
   0   0   2  127.26    3.76
   0   0   2  131.64    3.90
   0   0   2  131.22    3.90
   0   0   2  114.31    3.75
  -1   0  -2  349.52   11.20
  -1   0  -2  365.85   10.73
  -1   0  -2  358.88   10.77
  -1   0  -2  339.44   11.15
   1   0   2  358.99   11.16
   1   0   2  355.68   11.16
   1   0   2  353.67   10.72
   1   0   2  353.74   10.77
  -2   0  -2   39.24    1.22
  -2   0  -2   39.77    1.22
  -2   0  -2   37.44    1.27
   2   0   2   39.47    1.27
   2   0   2   36.91    1.21
   2   0   2   37.43    1.22
  -3   0  -2  183.69    5.89
  -3   0  -2  188.74    5.67
  -3   0  -2  186.82    5.67
   3   0   2  184.00    5.67
   3   0   2  186.08    5.89
  -4   0  -2  118.90    3.82
  -4   0  -2  120.16    3.67
  -4   0  -2  116.18    3.68
   4   0   2  122.72    3.83
   4   0   2  115.29    3.68
  -5   0  -2    7.24    0.50
  -5   0  -2    7.50    0.49
  -5   0  -2    7.65    0.44
   5   0   2    6.93    0.47
   5   0   2    7.29    0.45
  -6   0  -2    6.34    0.47
  -6   0  -2    6.06    0.52
   6   0   2    5.57    0.53
  -7   0  -2   76.33    2.66
   7   0   2   76.16    2.63
  -8   0  -2    3.05    0.64
   8   0   2    1.29    0.63
  -9   0  -2    4.15    0.72
   9   0   2    4.48    0.76
 -10   1   2    0.61    0.72
   9  -1  -2    0.45    0.54
  -9   1   2    1.15    0.58
   8  -1  -2   28.53    1.22
  -8   1   2   29.03    1.23
   7  -1  -2    8.56    0.57
   7  -1  -2    8.63    0.54
  -7   1   2    7.71    0.59
   6  -1  -2   21.74    0.92
   6  -1  -2   20.63    0.87
   6  -1  -2   20.69    0.86
  -6   1   2   20.36    0.93
   5  -1  -2   51.94    1.84
   5  -1  -2   47.66    1.61
   5  -1  -2   50.37    1.63
   5  -1  -2   49.05    1.69
  -5   1   2   50.54    1.71
   4  -1  -2  144.56    4.63
   4  -1  -2  141.79    4.46
   4  -1  -2  143.55    4.46
   4  -1  -2  150.88    5.05
  -4   1   2  147.88    4.65
   3  -1  -2  135.30    4.63
   3  -1  -2  135.90    4.10
   3  -1  -2  130.43    4.26
   3  -1  -2  135.64    4.11
  -3   1   2  134.05    4.27
  -3   1   2  135.62    4.27
   2  -1  -2  540.06   18.23
   2  -1  -2  514.90   16.75
   2  -1  -2  545.86   16.16
   2  -1  -2  527.38   16.77
   2  -1  -2  530.60   16.13
  -2   1   2  524.64   18.22
  -2   1   2  517.04   16.74
  -2   1   2  560.34   16.82
   1  -1  -2    5.45    0.24
  -1   1   2    5.10    0.21
  -1   1   2    5.25    0.24
  -1   1   2    5.84    0.21
   0  -1  -2  255.83    7.81
   0  -1  -2  231.73    9.97
   0   1   2  274.23    7.83
   0   1   2  249.35    7.84
   0   1   2  233.87    9.97
  -1  -1  -2   87.11    2.86
  -1  -1  -2   92.67    2.75
  -1  -1  -2   91.10    2.75
  -1  -1  -2   89.22    2.86
  -1  -1  -2   92.91    3.66
   1   1   2   91.30    2.87
   1   1   2   92.33    3.66
   1   1   2   90.98    2.86
   1   1   2   85.76    2.75
  -2  -1  -2   51.50    1.58
  -2  -1  -2   50.29    1.64
  -2  -1  -2   51.70    2.10
  -2  -1  -2   51.59    1.57
   2   1   2   47.34    1.57
   2   1   2   48.97    1.64
  -3  -1  -2   41.78    1.37
  -3  -1  -2   43.57    1.38
  -3  -1  -2   41.46    1.83
  -3  -1  -2   44.14    1.44
   3   1   2   41.32    1.37
   3   1   2   43.54    1.44
  -4  -1  -2   25.22    0.92
  -4  -1  -2   24.50    0.87
  -4  -1  -2   23.84    0.86
   4   1   2   24.02    0.88
   4   1   2   24.00    0.92
  -5  -1  -2   63.41    2.10
  -5  -1  -2   66.15    2.11
  -5  -1  -2   68.11    2.22
   5   1   2   62.29    2.11
   5   1   2   65.27    2.21
  -6  -1  -2   33.01    1.30
  -6  -1  -2   35.34    1.27
   6   1   2   32.75    1.34
  -7  -1  -2    6.44    0.62
   7   1   2    5.08    0.59
  -8  -1  -2    2.05    0.58
   8   1   2    1.66    0.64
  -9  -1  -2   11.00    0.94
   9   1   2   13.17    0.98
   9  -2  -2    8.22    0.73
  -9   2   2    7.66    0.77
   8  -2  -2    0.83    0.48
  -8   2   2    0.88    0.48
   7  -2  -2    6.11    0.46
   7  -2  -2    6.63    0.50
  -7   2   2    6.41    0.53
   6  -2  -2   51.63    1.78
   6  -2  -2   50.39    1.70
   6  -2  -2   50.57    1.71
  -6   2   2   51.63    1.79
   5  -2  -2   92.73    3.08
   5  -2  -2   99.43    3.36
   5  -2  -2   95.88    2.98
   5  -2  -2   92.95    2.97
  -5   2   2   94.40    3.10
   4  -2  -2  147.76    5.01
   4  -2  -2  144.68    4.44
   4  -2  -2  141.70    4.60
   4  -2  -2  146.23    4.44
  -4   2   2  143.85    4.61
   3  -2  -2  223.13    6.65
   3  -2  -2  215.85    6.90
   3  -2  -2  221.51    6.65
   3  -2  -2  221.31    7.50
   3  -2  -2  214.28    6.64
  -3   2   2  223.65    6.91
  -3   2   2  214.37    6.91
   2  -2  -2   28.41    0.93
   2  -2  -2   29.14    1.01
   2  -2  -2   28.88    0.89
   2  -2  -2   28.82    0.90
  -2   2   2   28.14    0.94
  -2   2   2   28.77    0.94
  -1   2   2  129.40    3.97
  -1   2   2  123.28    3.97
   0  -2  -2  408.30   12.90
   0  -2  -2  428.65   12.42
   0  -2  -2  459.02   12.42
   0   2   2  438.88   14.05
   0   2   2  367.70   16.41
   0   2   2  381.04   12.90
   0   2   2  389.66   12.91
  -1  -2  -2  142.15    4.22
  -1  -2  -2  135.75    5.60
  -1  -2  -2  138.58    4.39
  -1  -2  -2  136.18    4.22
   1   2   2  139.31    4.40
   1   2   2  141.20    4.39
   1   2   2  142.00    4.78
   1   2   2  137.14    5.60
  -2  -2  -2   81.33    2.51
  -2  -2  -2   80.20    3.31
  -2  -2  -2   78.72    2.50
  -2  -2  -2   82.57    2.61
   2   2   2   80.29    2.60
   2   2   2   82.79    2.84
  -3  -2  -2  126.41    3.97
  -3  -2  -2  128.76    3.98
  -3  -2  -2  130.32    4.13
  -3  -2  -2  126.93    5.25
   3   2   2  132.59    4.51
   3   2   2  130.23    4.13
  -4  -2  -2   40.70    1.44
  -4  -2  -2   40.52    1.82
  -4  -2  -2   43.18    1.39
  -4  -2  -2   42.40    1.39
   4   2   2   41.32    1.46
  -5  -2  -2   12.66    0.65
  -5  -2  -2   12.32    0.72
  -5  -2  -2   14.26    0.66
  -5  -2  -2   11.19    0.77
   5   2   2   12.09    0.67
  -6  -2  -2    5.70    0.54
  -6  -2  -2    5.23    0.48
   6   2   2    4.75    0.54
  -7  -2  -2    1.53    0.53
   7   2   2    1.75    0.55
  -8  -2  -2   18.17    1.06
   8   2   2   18.93    1.16
   9  -3  -2    1.12    0.59
  -9   3   2    1.24    0.62
   8  -3  -2    8.88    0.67
  -8   3   2    8.90    0.70
   7  -3  -2   19.48    0.88
   7  -3  -2   18.77    0.93
  -7   3   2   18.03    0.88
   6  -3  -2    3.20    0.38
   6  -3  -2    3.28    0.36
   6  -3  -2    3.45    0.36
  -6   3   2    3.54    0.40
   5  -3  -2  222.73    7.36
   5  -3  -2  235.73    7.10
   5  -3  -2  238.40    8.01
   5  -3  -2  230.91    7.09
  -5   3   2  233.31    7.38
   4  -3  -2   15.22    0.62
   4  -3  -2   15.17    0.58
   4  -3  -2   14.50    0.60
   4  -3  -2   15.10    0.65
   4  -3  -2   15.13    0.59
  -4   3   2   14.88    0.62
   3  -3  -2   29.45    1.03
   3  -3  -2   31.24    0.99
   3  -3  -2   30.39    1.11
   3  -3  -2   31.52    1.00
  -3   3   2   30.05    1.03
  -3   3   2   30.96    1.03
   2  -3  -2    0.26    0.11
   2  -3  -2    0.36    0.11
   2  -3  -2    0.41    0.11
  -2   3   2    0.40    0.13
  -2   3   2    0.37    0.11
   1  -3  -2  163.34    4.93
   1  -3  -2  157.82    5.12
   1  -3  -2  156.04    4.93
  -1   3   2  171.75    5.13
  -1   3   2  165.91    5.14
   0  -3  -2   17.88    0.63
   0  -3  -2   18.44    0.60
   0  -3  -2   18.59    0.61
   0   3   2   19.50    0.68
   0   3   2   18.84    0.64
   0   3   2   18.43    0.64
  -1  -3  -2   30.42    1.03
  -1  -3  -2   30.52    0.99
  -1  -3  -2   30.79    0.99
   1   3   2   32.26    1.13
   1   3   2   30.73    1.33
   1   3   2   31.59    1.05
   1   3   2   30.41    1.03
  -2  -3  -2  120.11    3.78
  -2  -3  -2  125.64    3.93
  -2  -3  -2  120.24    5.00
  -2  -3  -2  123.41    3.78
   2   3   2  127.92    4.28
   2   3   2  121.66    3.93
   2   3   2  123.77    5.00
  -3  -3  -2  132.84    4.23
  -3  -3  -2  128.85    5.37
  -3  -3  -2  130.99    4.08
  -3  -3  -2  135.41    4.07
   3   3   2  124.63    4.22
   3   3   2  139.86    4.62
  -4  -3  -2    8.72    0.52
  -4  -3  -2    9.34    0.59
  -4  -3  -2    8.59    0.53
  -4  -3  -2    8.92    0.60
   4   3   2    9.37    0.59
  -5  -3  -2    4.13    0.42
  -5  -3  -2    4.17    0.38
  -5  -3  -2    5.23    0.47
   5   3   2    4.84    0.47
  -6  -3  -2    8.98    0.60
   6   3   2    7.61    0.60
  -7  -3  -2    4.37    0.57
   7   3   2    4.25    0.60
  -8  -3  -2    6.66    0.71
   8   3   2    5.36    0.71
  -9   4   2    1.27    0.62
   8  -4  -2   19.14    1.08
  -8   4   2   20.79    1.06
   7  -4  -2    3.36    0.44
   7  -4  -2    3.55    0.48
  -7   4   2    3.26    0.49
   6  -4  -2   18.55    0.82
   6  -4  -2   19.51    0.90
   6  -4  -2   18.82    0.82
  -6   4   2   19.36    0.87
   5  -4  -2    1.31    0.29
   5  -4  -2    1.63    0.29
   5  -4  -2    1.58    0.29
   5  -4  -2    1.52    0.29
   5  -4  -2    1.80    0.28
  -5   4   2    1.87    0.32
   4  -4  -2    4.63    0.30
   4  -4  -2    4.41    0.30
   4  -4  -2    4.63    0.30
  -4   4   2    4.53    0.33
   3  -4  -2  166.37    4.99
   3  -4  -2  158.64    5.18
   3  -4  -2  163.72    5.00
  -3   4   2  168.82    5.20
  -3   4   2  160.90    5.18
   2  -4  -2  338.73   10.98
   2  -4  -2  369.49   10.58
   2  -4  -2  340.90   11.93
   2  -4  -2  339.15   10.58
  -2   4   2  354.05   10.99
  -2   4   2  356.02   11.00
   1  -4  -2    1.65    0.15
   1  -4  -2    1.72    0.15
   1  -4  -2    1.85    0.16
   1  -4  -2    1.58    0.12
  -1   4   2    1.84    0.17
  -1   4   2    2.10    0.19
   0  -4  -2   52.83    1.62
   0  -4  -2   51.87    1.61
   0  -4  -2   50.70    1.81
   0  -4  -2   49.86    1.66
   0   4   2   51.86    1.80
   0   4   2   50.66    1.68
   0   4   2   53.28    1.68
  -1  -4  -2  182.35    5.52
  -1  -4  -2  182.88    5.72
  -1  -4  -2  181.49    5.51
   1   4   2  178.19    5.73
   1   4   2  179.39    5.73
   1   4   2  183.00    6.22
   1   4   2  179.13    7.30
  -2  -4  -2   33.29    1.15
  -2  -4  -2   32.41    1.09
  -2  -4  -2   31.50    1.12
   2   4   2   33.50    1.44
   2   4   2   34.85    1.26
   2   4   2   32.33    1.15
  -3  -4  -2   17.93    0.73
  -3  -4  -2   18.24    0.77
  -3  -4  -2   18.93    0.72
   3   4   2   18.05    0.77
  -4  -4  -2    0.34    0.29
  -4  -4  -2    0.72    0.30
  -4  -4  -2    0.21    0.33
  -4  -4  -2    0.53    0.31
   4   4   2    0.46    0.34
  -5  -4  -2   22.80    1.00
  -5  -4  -2   24.90    1.07
   5   4   2   24.20    1.05
  -6  -4  -2    0.35    0.43
   6   4   2    0.35    0.45
  -7  -4  -2    7.06    0.68
   7   4   2    3.99    0.61
  -8  -4  -2    1.28    0.66
   8   4   2    0.27    0.67
  -9   5   2    1.53    0.61
  -8   5   2   21.31    1.10
   7  -5  -2    1.26    0.42
   7  -5  -2    0.69    0.43
  -7   5   2    0.36    0.46
   6  -5  -2   33.72    1.27
   6  -5  -2   32.31    1.20
   6  -5  -2   31.58    1.20
  -6   5   2   31.82    1.26
   5  -5  -2    2.97    0.33
   5  -5  -2    2.72    0.33
   5  -5  -2    2.44    0.34
  -5   5   2    2.76    0.37
   4  -5  -2  144.27    4.69
   4  -5  -2  142.17    4.53
   4  -5  -2  152.19    4.53
  -4   5   2  149.12    4.71
   3  -5  -2    0.32    0.21
   3  -5  -2    0.71    0.21
   3  -5  -2    0.32    0.21
   3  -5  -2    0.53    0.17
  -3   5   2    0.40    0.24
   2  -5  -2    6.89    0.36
   2  -5  -2    6.34    0.31
   2  -5  -2    6.79    0.37
   2  -5  -2    6.02    0.36
  -2   5   2    6.84    0.41
  -2   5   2    6.58    0.39
   1  -5  -2   34.60    1.17
   1  -5  -2   35.46    1.14
   1  -5  -2   35.82    1.16
   1  -5  -2   34.35    1.25
  -1   5   2   35.72    1.21
  -1   5   2   35.74    1.20
   0  -5  -2  132.01    3.90
   0  -5  -2  124.61    4.37
   0  -5  -2  122.78    4.03
   0  -5  -2  125.67    3.88
   0   5   2  124.68    4.04
   0   5   2  129.66    4.04
   0   5   2  127.49    4.36
  -1  -5  -2   82.96    2.56
  -1  -5  -2   77.24    2.87
  -1  -5  -2   84.18    2.64
  -1  -5  -2   82.73    2.54
   1   5   2   83.14    2.86
   1   5   2   80.81    2.65
   1   5   2   80.52    3.37
  -2  -5  -2    0.95    0.26
  -2  -5  -2    1.15    0.25
  -2  -5  -2    1.05    0.24
   2   5   2    1.36    0.28
   2   5   2    0.76    0.26
   2   5   2    0.91    0.30
  -3  -5  -2   32.98    1.22
  -3  -5  -2   32.61    1.17
  -3  -5  -2   32.84    1.19
   3   5   2   32.01    1.23
   3   5   2   36.02    1.50
  -4  -5  -2   58.99    1.97
  -4  -5  -2   60.42    1.95
  -4  -5  -2   59.15    2.04
   4   5   2   56.77    2.03
  -5  -5  -2    6.06    0.56
  -5  -5  -2    5.71    0.52
   5   5   2    6.11    0.56
  -6  -5  -2    1.77    0.54
   6   5   2    1.83    0.54
  -7  -5  -2    0.19    0.59
   7   5   2   -0.30    0.59
  -8   6   2    0.21    0.57
   7  -6  -2   -0.22    0.43
  -7   6   2    0.34    0.49
   6  -6  -2    5.70    0.49
  -6   6   2    5.79    0.54
   5  -6  -2    6.25    0.45
   5  -6  -2    6.63    0.46
   5  -6  -2    5.66    0.45
  -5   6   2    6.14    0.50
   4  -6  -2    7.93    0.53
   4  -6  -2    8.43    0.55
   4  -6  -2    8.82    0.54
  -4   6   2    7.58    0.55
   3  -6  -2   15.77    0.64
   3  -6  -2   14.67    0.62
   3  -6  -2   14.98    0.63
   3  -6  -2   15.12    0.64
  -3   6   2   14.10    0.68
   2  -6  -2   37.35    1.29
   2  -6  -2   35.71    1.21
   2  -6  -2   35.43    1.22
   2  -6  -2   36.60    1.24
  -2   6   2   35.36    1.28
   1  -6  -2   62.37    1.93
   1  -6  -2   60.82    1.99
   1  -6  -2   61.30    1.94
   1  -6  -2   59.20    2.12
  -1   6   2   59.62    2.02
   0  -6  -2   23.19    0.81
   0  -6  -2   22.41    0.83
   0  -6  -2   21.95    0.88
   0  -6  -2   21.51    0.85
   0   6   2   22.25    0.88
   0   6   2   23.18    0.85
  -1  -6  -2    2.73    0.29
  -1  -6  -2    2.46    0.30
  -1  -6  -2    2.38    0.31
  -1  -6  -2    2.23    0.29
   1   6   2    2.19    0.29
   1   6   2    2.38    0.32
   1   6   2    2.20    0.38
  -2  -6  -2   80.17    2.50
  -2  -6  -2   78.30    2.52
  -2  -6  -2   80.40    2.60
   2   6   2   80.19    3.28
   2   6   2   74.37    2.60
  -3  -6  -2    4.10    0.41
  -3  -6  -2    2.30    0.38
  -3  -6  -2    1.42    0.36
   3   6   2    1.77    0.41
   3   6   2    1.98    0.40
  -4  -6  -2   25.23    1.05
  -4  -6  -2   24.91    1.09
   4   6   2   24.08    1.07
  -5  -6  -2    4.34    0.56
   5   6   2    4.18    0.57
   6   6   2    2.08    0.60
   7   6   2    0.53    0.60
  -8   7   2    0.40    0.62
   7  -7  -2   18.52    0.97
  -7   7   2   17.36    1.01
   6  -7  -2    4.55    0.50
  -6   7   2    3.54    0.54
   5  -7  -2    9.31    0.65
   5  -7  -2   10.31    0.65
  -5   7   2   10.51    0.71
   4  -7  -2    0.40    0.32
   4  -7  -2    0.58    0.27
   4  -7  -2    0.22    0.34
  -4   7   2   -0.13    0.36
   3  -7  -2   32.40    1.14
   3  -7  -2   32.05    1.19
   3  -7  -2   34.63    1.18
   3  -7  -2   31.31    1.14
  -3   7   2   30.01    1.20
   2  -7  -2    7.56    0.41
   2  -7  -2    6.98    0.45
   2  -7  -2    7.99    0.51
   2  -7  -2    7.48    0.50
  -2   7   2    7.87    0.55
   1  -7  -2    7.49    0.52
   1  -7  -2    6.80    0.41
   1  -7  -2    6.96    0.47
   1  -7  -2    6.72    0.44
  -1   7   2    6.48    0.45
   0  -7  -2    7.95    0.51
   0  -7  -2    7.69    0.49
   0  -7  -2    7.45    0.50
   0  -7  -2    7.94    0.49
   0   7   2    7.13    0.48
   0   7   2    7.86    0.52
   0   7   2    8.02    0.50
  -1  -7  -2   21.34    0.87
  -1  -7  -2   20.11    0.81
  -1  -7  -2   20.35    0.86
  -1  -7  -2   19.35    0.89
   1   7   2   19.42    0.85
   1   7   2   20.87    0.89
   1   7   2   20.13    1.06
  -2  -7  -2   25.83    1.00
  -2  -7  -2   24.02    1.01
  -2  -7  -2   26.68    1.05
   2   7   2   24.42    1.02
   2   7   2   26.39    1.27
  -3  -7  -2    5.48    0.49
  -3  -7  -2    5.37    0.51
   3   7   2    5.74    0.55
   3   7   2    5.02    0.52
  -4  -7  -2    0.24    0.45
   4   7   2   -0.41    0.46
   5   7   2    1.25    0.54
   6   7   2    0.81    0.63
  -7   8   2    0.53    0.59
   6  -8  -2    2.36    0.50
  -6   8   2    3.09    0.57
   5  -8  -2    1.74    0.44
  -5   8   2    3.50    0.55
   4  -8  -2   10.12    0.66
   4  -8  -2    9.31    0.59
  -4   8   2    9.47    0.70
   3  -8  -2   10.91    0.67
   3  -8  -2   10.59    0.68
  -3   8   2   10.73    0.74
   2  -8  -2    0.69    0.32
   2  -8  -2    0.01    0.36
  -2   8   2    0.55    0.40
   1  -8  -2   12.99    0.67
   1  -8  -2   11.18    0.65
   1  -8  -2   11.79    0.60
  -1   8   2   12.75    0.73
   0  -8  -2    4.66    0.41
   0  -8  -2    4.50    0.47
   0  -8  -2    4.77    0.40
   0   8   2    4.34    0.46
   0   8   2    4.59    0.47
  -1  -8  -2   27.76    1.07
  -1  -8  -2   25.83    1.12
  -1  -8  -2   26.86    1.07
   1   8   2   26.79    1.33
   1   8   2   25.13    1.09
  -2  -8  -2    2.05    0.47
   2   8   2    3.12    0.46
   2   8   2    2.64    0.49
  -3  -8  -2    1.62    0.49
   3   8   2    0.88    0.46
   4   8   2    0.71    0.54
   5   8   2   13.44    0.91
   6  -9  -2    4.36    0.62
  -6   9   2    5.38    0.67
   5  -9  -2    0.08    0.46
  -5   9   2   -0.04    0.54
   4  -9  -2    6.98    0.59
  -4   9   2    6.23    0.61
   3  -9  -2   -0.19    0.42
  -3   9   2    0.55    0.48
   2  -9  -2   12.42    0.74
  -2   9   2   12.22    0.78
   1  -9  -2    7.84    0.60
  -1   9   2    7.30    0.58
   0  -9  -2    2.84    0.48
   0   9   2    2.20    0.50
  -1  -9  -2    1.48    0.50
   1   9   2    0.77    0.51
   1   9   2    0.75    0.43
   1   9   2    1.16    0.49
  -2  -9  -2    1.05    0.50
   2   9   2    0.23    0.47
   3   9   2    1.31    0.54
   4   9   2    0.60    0.57
   5 -10  -2    0.02    0.52
  -5  10   2   -0.09    0.57
   4 -10  -2    1.14    0.50
  -4  10   2    0.76    0.58
   3 -10  -2    0.15    0.50
  -3  10   2   -0.02    0.51
   2 -10  -2   11.75    0.75
  -2  10   2   11.44    0.77
   1 -10  -2   -0.16    0.51
  -1  10   2   -0.31    0.49
   0 -10  -2    0.09    0.50
   0  10   2    0.93    0.54
   0  10   2    0.31    0.62
  -1 -10  -2    1.26    0.55
   1  10   2    1.89    0.56
   1  10   2    2.22    0.53
   2  10   2    3.84    0.60
   2  10   2    3.64    0.63
   3  10  -3    1.73    0.67
   3  10  -3    2.47    0.63
  -3 -10   3    2.61    0.69
  -3 -10   3    1.73    0.72
   2  10  -3   -0.27    0.62
  -2 -10   3    0.84    0.59
  -2 -10   3    0.39    0.68
   1  10  -3    0.24    0.59
  -1 -10   3    0.18    0.50
  -1 -10   3    0.48    0.61
   0  10  -3    0.54    0.57
   0 -10   3    0.41    0.50
   0 -10   3    2.03    0.62
  -1  10  -3    3.08    0.60
   1 -10   3    3.32    0.61
   1 -10   3    2.18    0.61
  -2  10  -3    0.74    0.57
   2 -10   3    1.94    0.58
   2 -10   3    1.42    0.57
  -3  10  -3    1.35    0.64
   3 -10   3    1.16    0.61
   4   9  -3    0.17    0.61
  -4  -9   3   -0.18    0.68
  -4  -9   3    0.00    0.61
   3   9  -3    0.98    0.59
   3   9  -3    1.04    0.55
  -3  -9   3    1.35    0.65
  -3  -9   3    0.46    0.59
   2   9  -3   13.14    0.93
  -2  -9   3   13.23    0.96
  -2  -9   3   12.47    0.97
   1   9  -3    2.11    0.55
  -1  -9   3    2.93    0.53
  -1  -9   3    2.70    0.59
   0   9  -3    0.42    0.48
   0  -9   3    0.62    0.44
   0  -9   3    0.62    0.48
  -1   9  -3    0.24    0.52
   1  -9   3    0.38    0.47
   1  -9   3    0.28    0.50
  -2   9  -3    2.00    0.57
   2  -9   3    2.37    0.53
   2  -9   3    1.77    0.53
  -3   9  -3    6.17    0.65
   3  -9   3    6.52    0.66
   3  -9   3    6.45    0.62
  -4   9  -3    1.41    0.58
   4  -9   3    0.40    0.58
   4  -9   3    1.12    0.54
  -5   9  -3   -0.39    0.65
   5  -9   3    1.32    0.56
   5  -9   3   -0.33    0.63
   6   8  -3   -1.33    0.64
  -6  -8   3    0.25    0.68
   5   8  -3    0.26    0.55
  -5  -8   3    0.48    0.61
  -5  -8   3    0.08    0.61
   4   8  -3    2.34    0.60
  -4  -8   3    2.25    0.64
  -4  -8   3    1.65    0.53
   3   8  -3    0.96    0.52
   3   8  -3    0.86    0.48
  -3  -8   3    0.95    0.58
  -3  -8   3    0.72    0.50
   2   8  -3    1.25    0.49
   2   8  -3    1.25    0.46
  -2  -8   3    0.77    0.48
  -2  -8   3    1.17    0.52
   1   8  -3   10.20    0.69
  -1  -8   3   10.06    0.79
  -1  -8   3   10.78    0.70
   0   8  -3    0.16    0.45
   0  -8   3    0.25    0.41
   0  -8   3    0.22    0.45
  -1   8  -3    1.37    0.47
   1  -8   3    1.09    0.46
   1  -8   3    1.16    0.44
  -2   8  -3   20.25    1.01
   2  -8   3   19.58    1.02
   2  -8   3   18.55    0.99
  -3   8  -3    0.55    0.48
   3  -8   3    0.14    0.48
   3  -8   3    0.74    0.46
  -4   8  -3    1.45    0.53
   4  -8   3    0.43    0.53
   4  -8   3    1.05    0.49
  -5   8  -3    0.61    0.62
   5  -8   3    0.88    0.52
   5  -8   3    0.56    0.58
  -6   8  -3    4.06    0.76
   6  -8   3    7.03    0.78
   7   7  -3    2.95    0.72
  -7  -7   3    3.24    0.74
   6   7  -3    0.42    0.59
  -6  -7   3    0.64    0.63
  -6  -7   3    0.20    0.61
   5   7  -3    2.51    0.53
  -5  -7   3    2.66    0.55
  -5  -7   3    2.86    0.59
   4   7  -3    1.90    0.52
  -4  -7   3    1.50    0.51
  -4  -7   3    3.17    0.54
   3   7  -3    5.47    0.56
  -3  -7   3    5.17    0.58
  -3  -7   3    6.27    0.56
   2   7  -3    2.39    0.43
   2   7  -3    2.64    0.43
  -2  -7   3    3.01    0.49
  -2  -7   3    2.47    0.42
   1   7  -3   26.90    1.10
  -1  -7   3   29.48    1.12
  -1  -7   3   27.49    1.09
  -1  -7   3   24.66    1.16
   0   7  -3    0.78    0.37
   0  -7   3    0.49    0.37
   0  -7   3    0.61    0.38
   0  -7   3    0.27    0.37
  -1   7  -3   53.38    1.85
   1  -7   3   49.58    1.82
   1  -7   3   51.41    2.00
   1  -7   3   55.21    1.82
  -2   7  -3    8.75    0.61
   2  -7   3    8.24    0.61
   2  -7   3    9.42    0.62
   2  -7   3    7.76    0.56
  -3   7  -3    3.60    0.52
   3  -7   3    4.24    0.49
   3  -7   3    2.99    0.47
  -4   7  -3   17.25    0.99
   4  -7   3   17.02    0.96
   4  -7   3   18.91    1.00
  -5   7  -3    4.23    0.64
   5  -7   3    5.20    0.63
  -6   7  -3    0.70    0.57
   6  -7   3    1.35    0.63
  -7   7  -3   -0.27    0.68
   7  -7   3    0.57    0.69
   7   6  -3    0.84    0.53
  -7  -6   3    1.33    0.66
  -7  -6   3    1.07    0.65
   6   6  -3    3.04    0.59
  -6  -6   3    2.36    0.60
  -6  -6   3    2.48    0.56
   5   6  -3    4.47    0.52
  -5  -6   3    5.39    0.59
  -5  -6   3    3.99    0.58
   4   6  -3    1.58    0.44
  -4  -6   3    1.66    0.45
  -4  -6   3    1.50    0.45
   3   6  -3    3.42    0.42
  -3  -6   3    2.81    0.48
  -3  -6   3    4.46    0.45
  -3  -6   3    3.14    0.44
   2   6  -3    3.39    0.40
   2   6  -3    3.86    0.38
   2   6  -3    3.06    0.40
  -2  -6   3    4.11    0.40
  -2  -6   3    4.53    0.47
  -2  -6   3    3.63    0.39
   1   6  -3  117.26    3.63
   1   6  -3  113.35    3.78
  -1  -6   3  114.19    3.63
  -1  -6   3  115.61    3.77
  -1  -6   3  114.02    4.11
  -1  -6   3  121.15    3.67
   0   6  -3   15.40    0.72
   0   6  -3   14.07    0.69
   0  -6   3   17.28    0.72
   0  -6   3   14.65    0.70
   0  -6   3   14.61    0.77
   0  -6   3   16.72    0.73
  -1   6  -3    1.70    0.32
  -1   6  -3    2.12    0.38
   1  -6   3    2.16    0.33
   1  -6   3    1.99    0.34
   1  -6   3    2.22    0.38
   1  -6   3    2.51    0.34
  -2   6  -3    8.30    0.58
  -2   6  -3    8.98    0.59
   2  -6   3    9.16    0.63
   2  -6   3    7.45    0.50
   2  -6   3    8.41    0.55
   2  -6   3    8.72    0.64
  -3   6  -3   48.79    1.79
   3  -6   3   51.03    1.78
   3  -6   3   49.51    1.70
  -4   6  -3    3.78    0.52
   4  -6   3    4.72    0.50
  -5   6  -3   -0.63    0.44
   5  -6   3   -0.01    0.49
  -6   6  -3    1.76    0.56
   6  -6   3    1.89    0.60
  -7   6  -3    2.53    0.69
   7  -6   3    3.58    0.72
   8   5  -3    3.37    0.67
  -8  -5   3    2.73    0.68
   7   5  -3   -0.12    0.46
  -7  -5   3    1.05    0.56
  -7  -5   3   -0.08    0.56
   6   5  -3   12.65    0.80
  -6  -5   3   12.21    0.82
  -6  -5   3   11.54    0.91
   5   5  -3   11.48    0.72
  -5  -5   3   11.34    0.81
  -5  -5   3   11.45    0.76
   4   5  -3    0.30    0.33
  -4  -5   3    0.09    0.38
  -4  -5   3    0.85    0.34
  -4  -5   3   -0.07    0.35
   3   5  -3   20.64    0.90
  -3  -5   3   20.91    0.85
  -3  -5   3   19.85    0.85
  -3  -5   3   21.20    0.87
  -3  -5   3   19.16    0.92
   2   5  -3   24.72    1.02
   2   5  -3   30.44    1.10
  -2  -5   3   29.43    1.19
  -2  -5   3   31.18    1.05
  -2  -5   3   30.83    1.07
  -2  -5   3   30.13    1.12
   1   5  -3   21.71    0.84
   1   5  -3   22.20    0.91
   1   5  -3   23.43    0.92
  -1  -5   3   24.08    0.86
  -1  -5   3   22.07    0.88
  -1  -5   3   23.37    0.86
  -1  -5   3   21.58    0.95
   0   5  -3   17.27    0.69
   0   5  -3   16.41    0.76
   0  -5   3   16.82    0.72
   0  -5   3   18.14    0.70
   0  -5   3   19.19    0.75
   0  -5   3   16.63    0.78
  -1   5  -3   22.12    0.85
  -1   5  -3   22.79    0.89
   1  -5   3   22.52    0.85
   1  -5   3   21.39    0.86
   1  -5   3   23.17    0.87
   1  -5   3   20.86    0.93
  -2   5  -3  152.01    4.48
  -2   5  -3  147.16    4.66
   2  -5   3  142.63    4.63
   2  -5   3  146.58    4.49
   2  -5   3  138.51    4.48
   2  -5   3  139.34    5.05
  -3   5  -3   12.08    0.66
  -3   5  -3   12.52    0.60
   3  -5   3   11.25    0.67
   3  -5   3   13.06    0.66
   3  -5   3   12.99    0.70
  -4   5  -3    9.84    0.67
   4  -5   3   11.36    0.73
   4  -5   3   10.32    0.68
  -5   5  -3   21.98    1.00
   5  -5   3   21.36    1.00
  -6   5  -3    1.99    0.56
   6  -5   3    2.39    0.51
  -7   5  -3    2.70    0.60
   7  -5   3    2.12    0.60
  -8   5  -3    1.11    0.66
   8  -5   3    0.78    0.71
   8   4  -3    1.92    0.56
  -8  -4   3    2.93    0.67
   7   4  -3   14.99    0.87
  -7  -4   3   16.95    0.94
  -7  -4   3   16.55    1.05
   6   4  -3    0.07    0.42
  -6  -4   3   -0.08    0.44
  -6  -4   3    0.09    0.47
   5   4  -3    0.22    0.34
  -5  -4   3    0.33    0.41
  -5  -4   3    0.08    0.38
   4   4  -3   67.52    2.16
   4   4  -3   68.59    2.19
   4   4  -3   66.77    2.26
  -4  -4   3   63.18    2.46
  -4  -4   3   69.38    2.28
   3   4  -3    7.47    0.51
   3   4  -3    6.41    0.45
   3   4  -3    6.97    0.47
  -3  -4   3    6.36    0.42
  -3  -4   3    6.63    0.49
  -3  -4   3    6.40    0.46
   2   4  -3   -0.03    0.21
   2   4  -3    0.04    0.20
   2   4  -3   -0.05    0.22
  -2  -4   3   -0.26    0.18
  -2  -4   3   -0.16    0.19
  -2  -4   3    0.02    0.25
  -2  -4   3    0.05    0.22
   1   4  -3   89.23    3.08
   1   4  -3   87.23    2.72
   1   4  -3   87.85    2.83
   1   4  -3   89.07    2.73
   1   4  -3   86.46    2.83
  -1  -4   3   84.44    3.08
  -1  -4   3   84.94    2.73
  -1  -4   3   86.53    2.72
  -1  -4   3   86.94    2.83
   0   4  -3  239.72    7.54
   0   4  -3  237.11    7.26
   0   4  -3  241.90    7.27
   0  -4   3  228.21    7.53
   0  -4   3  244.85    7.27
   0  -4   3  230.23    8.20
   0  -4   3  243.51    7.27
  -1   4  -3    1.53    0.23
  -1   4  -3    0.61    0.19
  -1   4  -3    0.95    0.26
   1  -4   3    1.20    0.23
   1  -4   3    1.16    0.23
   1  -4   3    0.80    0.25
   1  -4   3    0.67    0.22
  -2   4  -3   32.00    1.16
  -2   4  -3   32.43    1.12
   2  -4   3   32.69    1.14
   2  -4   3   31.66    1.11
   2  -4   3   32.47    1.13
  -3   4  -3    8.77    0.51
  -3   4  -3    7.65    0.56
   3  -4   3    7.86    0.50
   3  -4   3    6.60    0.46
   3  -4   3    6.80    0.46
  -4   4  -3   18.12    0.77
  -4   4  -3   19.47    0.86
   4  -4   3   18.24    0.81
   4  -4   3   20.98    0.87
   4  -4   3   22.97    0.87
   4  -4   3   20.12    0.87
  -5   4  -3    6.85    0.56
   5  -4   3    6.48    0.56
  -6   4  -3   25.83    1.17
   6  -4   3   24.70    1.12
  -7   4  -3   -0.51    0.55
   7  -4   3   -0.07    0.53
  -8   4  -3    1.24    0.62
   8  -4   3    1.57    0.65
   9   3  -3    5.13    0.70
  -9  -3   3    7.48    0.81
   8   3  -3    1.54    0.57
  -8  -3   3    1.20    0.55
   7   3  -3   -0.14    0.43
  -7  -3   3    0.48    0.50
   6   3  -3    0.79    0.40
  -6  -3   3    1.24    0.43
  -6  -3   3    1.01    0.41
   5   3  -3  120.63    3.89
   5   3  -3  127.95    3.93
   5   3  -3  121.05    4.05
  -5  -3   3  115.88    4.42
  -5  -3   3  131.52    4.09
  -5  -3   3  134.47    3.93
   4   3  -3    8.38    0.50
   4   3  -3    7.86    0.48
   4   3  -3    8.18    0.50
  -4  -3   3   10.62    0.53
  -4  -3   3    8.46    0.52
  -4  -3   3    7.76    0.53
   3   3  -3   17.04    0.67
   3   3  -3   19.22    0.69
   3   3  -3   15.89    0.66
  -3  -3   3   15.70    0.75
  -3  -3   3   16.74    0.69
  -3  -3   3   17.58    0.66
   2   3  -3   53.72    1.79
   2   3  -3   54.35    1.73
   2   3  -3   54.10    1.74
   2   3  -3   54.53    1.96
  -2  -3   3   55.81    1.74
  -2  -3   3   54.09    1.79
  -2  -3   3   55.45    1.73
  -2  -3   3   52.61    1.96
   1   3  -3  113.62    3.59
   1   3  -3  112.69    3.45
   1   3  -3  112.61    3.59
   1   3  -3  117.43    3.91
   1   3  -3  110.73    3.45
  -1  -3   3  110.50    3.45
  -1  -3   3  109.75    3.45
  -1  -3   3  113.42    3.91
  -1  -3   3  106.67    3.58
   0   3  -3   83.28    2.55
   0   3  -3   81.35    2.55
   0   3  -3   80.50    2.64
   0  -3   3   80.63    2.63
   0  -3   3   82.61    2.55
   0  -3   3   81.68    2.88
  -1   3  -3  301.48    8.92
  -1   3  -3  284.68    9.26
  -1   3  -3  305.15    8.92
   1  -3   3  289.22    9.25
   1  -3   3  286.02    8.91
  -2   3  -3   12.52    0.54
  -2   3  -3   11.93    0.58
  -2   3  -3   12.21    0.51
   2  -3   3   12.40    0.54
   2  -3   3   11.90    0.54
  -3   3  -3  103.77    3.25
  -3   3  -3  106.06    3.25
  -3   3  -3  106.07    3.39
   3  -3   3  101.70    3.26
   3  -3   3  102.48    3.26
   3  -3   3  104.77    3.37
  -4   3  -3   57.76    1.87
  -4   3  -3   57.95    1.96
  -4   3  -3   56.18    1.87
   4  -3   3   54.24    1.87
   4  -3   3   58.89    1.96
  -5   3  -3    7.77    0.52
  -5   3  -3    8.82    0.61
   5  -3   3    8.56    0.56
  -6   3  -3   10.92    0.81
   6  -3   3   10.73    0.70
  -7   3  -3    1.70    0.56
   7  -3   3    1.56    0.54
  -8   3  -3   11.46    0.84
   8  -3   3   11.89    0.90
   9   2  -3    0.43    0.55
  -9  -2   3   -0.20    0.63
   8   2  -3   -0.75    0.49
  -8  -2   3    0.44    0.52
   7   2  -3   58.30    2.09
  -7  -2   3   59.69    2.12
   6   2  -3   20.33    0.80
   6   2  -3   18.74    0.84
  -6  -2   3   19.72    0.88
  -6  -2   3   17.73    0.93
   5   2  -3    4.56    0.38
   5   2  -3    3.80    0.33
   5   2  -3    3.80    0.34
  -5  -2   3    3.91    0.43
  -5  -2   3    3.62    0.40
  -5  -2   3    4.36    0.35
   4   2  -3   44.63    1.47
   4   2  -3   46.89    1.50
   4   2  -3   45.11    1.54
  -4  -2   3   46.94    1.49
  -4  -2   3   44.24    1.56
  -4  -2   3   43.44    1.68
   3   2  -3  455.52   14.26
   3   2  -3  476.85   14.25
   3   2  -3  472.83   14.81
   3   2  -3  498.79   16.10
  -3  -2   3  466.55   14.81
  -3  -2   3  472.04   14.26
  -3  -2   3  453.49   16.09
   2   2  -3   10.98    0.43
   2   2  -3   10.69    0.45
   2   2  -3    9.84    0.43
  -2  -2   3   10.16    0.43
  -2  -2   3   10.76    0.44
  -2  -2   3   10.20    0.49
  -2  -2   3   10.69    0.44
   1   2  -3   23.12    0.95
   1   2  -3   23.28    0.87
   1   2  -3   23.00    0.79
   1   2  -3   23.16    0.75
   1   2  -3   22.10    0.79
   1   2  -3   21.58    0.76
  -1  -2   3   22.85    0.78
  -1  -2   3   22.47    0.75
  -1  -2   3   22.85    0.87
  -1  -2   3   21.63    0.76
   0   2  -3  196.17    5.81
   0   2  -3  187.51    5.81
   0   2  -3  193.66    6.03
   0  -2   3  189.79    5.81
   0  -2   3  192.57    6.03
   0  -2   3  190.09    6.57
   0  -2   3  184.98    5.80
  -1   2  -3   37.25    1.18
  -1   2  -3   36.89    1.18
  -1   2  -3   36.90    1.23
   1  -2   3   34.87    1.18
   1  -2   3   36.25    1.18
   1  -2   3   36.84    1.22
  -2   2  -3    0.58    0.17
  -2   2  -3    0.70    0.20
  -2   2  -3    0.51    0.17
   2  -2   3    0.71    0.18
   2  -2   3    0.73    0.18
   2  -2   3    0.34    0.17
   2  -2   3    0.39    0.17
  -3   2  -3  298.13    8.90
  -3   2  -3  299.16    9.25
  -3   2  -3  295.09    8.90
   3  -2   3  288.21    9.24
   3  -2   3  281.99    8.90
  -4   2  -3    5.72    0.40
  -4   2  -3    6.77    0.47
  -4   2  -3    6.04    0.38
   4  -2   3    5.92    0.39
   4  -2   3    6.22    0.43
  -5   2  -3   34.95    1.34
  -5   2  -3   37.52    1.31
   5  -2   3   36.01    1.34
   5  -2   3   36.83    1.31
  -6   2  -3   53.91    1.93
   6  -2   3   55.22    1.94
  -7   2  -3   40.68    1.67
   7  -2   3   43.54    1.70
  -8   2  -3    1.16    0.64
   8  -2   3    1.60    0.66
   9   1  -3    0.82    0.58
  -9  -1   3    1.44    0.64
   8   1  -3   12.49    0.80
  -8  -1   3   12.27    0.82
   7   1  -3    6.01    0.53
   7   1  -3    6.36    0.47
  -7  -1   3    5.09    0.53
   6   1  -3   24.50    0.97
   6   1  -3   24.30    1.01
   6   1  -3   25.29    0.96
  -6  -1   3   22.96    0.99
   5   1  -3   86.91    2.73
   5   1  -3   87.54    2.84
   5   1  -3   87.03    2.74
  -5  -1   3   83.87    3.09
  -5  -1   3   87.96    2.86
   4   1  -3   28.24    1.01
   4   1  -3   28.97    0.98
   4   1  -3   27.89    0.96
   4   1  -3   29.28    1.11
  -4  -1   3   26.65    1.10
  -4  -1   3   28.88    0.97
  -4  -1   3   27.71    1.01
   3   1  -3    2.46    0.22
   3   1  -3    1.93    0.18
   3   1  -3    1.71    0.19
   3   1  -3    1.62    0.17
  -3  -1   3    1.94    0.23
  -3  -1   3    1.57    0.20
  -3  -1   3    1.44    0.18
   2   1  -3  133.13    4.01
   2   1  -3  131.12    4.16
   2   1  -3  134.19    4.54
   2   1  -3  128.19    4.01
  -2  -1   3  127.17    4.53
  -2  -1   3  131.72    5.27
  -2  -1   3  140.54    4.17
  -2  -1   3  130.28    4.17
  -2  -1   3  126.52    4.01
   1   1  -3   10.25    0.39
   1   1  -3   11.32    0.47
   1   1  -3   10.34    0.42
   1   1  -3   11.03    0.49
   1   1  -3   10.41    0.40
  -1  -1   3   10.98    0.39
  -1  -1   3   11.47    0.47
  -1  -1   3   10.92    0.41
  -1  -1   3   11.15    0.41
  -1  -1   3   11.14    0.49
   0   1  -3  126.94    3.72
   0   1  -3  121.68    4.93
   0   1  -3  122.87    3.87
   0   1  -3  121.80    3.72
   0  -1   3  123.01    3.86
   0  -1   3  124.95    3.87
   0  -1   3  112.79    3.72
  -1   1  -3   52.59    1.64
  -1   1  -3   52.76    1.65
  -1   1  -3   53.32    1.71
   1  -1   3   52.59    1.64
   1  -1   3   52.20    1.70
   1  -1   3   52.75    1.71
  -2   1  -3  130.66    3.93
  -2   1  -3  128.63    3.93
  -2   1  -3  130.31    4.08
   2  -1   3  127.17    4.08
   2  -1   3  124.39    3.93
  -3   1  -3    8.75    0.44
  -3   1  -3    9.39    0.45
  -3   1  -3    9.51    0.46
  -3   1  -3   10.12    0.50
   3  -1   3    9.07    0.46
   3  -1   3    9.87    0.51
  -4   1  -3   12.00    0.61
  -4   1  -3   10.95    0.56
  -4   1  -3   11.66    0.52
  -4   1  -3   11.58    0.55
   4  -1   3   11.76    0.57
   4  -1   3   10.76    0.57
  -5   1  -3  106.57    3.36
  -5   1  -3  105.99    3.49
  -5   1  -3  107.68    3.36
  -5   1  -3  108.67    3.36
   5  -1   3  105.03    3.48
   5  -1   3  105.15    3.37
  -6   1  -3    0.23    0.38
   6  -1   3    0.92    0.46
  -7   1  -3    5.55    0.60
   7  -1   3    6.48    0.67
  -8   1  -3    3.13    0.68
   8  -1   3    4.86    0.68
  -9   1  -3   12.72    0.99
   9   0  -3   16.31    1.07
  -9   0   3   15.66    1.04
   8   0  -3    3.25    0.53
  -8   0   3    4.09    0.59
   7   0  -3    0.85    0.36
   7   0  -3    1.50    0.38
  -7   0   3    1.37    0.44
   6   0  -3  122.86    4.02
   6   0  -3  126.49    3.88
   6   0  -3  125.06    3.90
  -6   0   3  122.77    4.05
   5   0  -3   29.61    1.05
   5   0  -3   29.33    1.10
   5   0  -3   31.82    1.07
  -5   0   3   29.58    1.11
  -5   0   3   30.74    1.20
   4   0  -3  257.22    8.29
   4   0  -3  266.67    7.99
   4   0  -3  270.39    9.03
   4   0  -3  258.27    8.00
  -4   0   3  266.50    9.03
  -4   0   3  258.28    8.31
   3   0  -3  191.07    6.03
   3   0  -3  188.40    5.81
   3   0  -3  195.30    6.57
   3   0  -3  191.67    5.80
  -3   0   3  184.61    6.56
  -3   0   3  182.19    6.04
  -3   0   3  204.15    6.04
   2   0  -3   13.06    0.44
   2   0  -3   12.80    0.45
   2   0  -3   12.99    0.52
   2   0  -3   12.82    0.47
  -2   0   3   12.67    0.52
  -2   0   3   14.06    0.48
  -2   0   3   12.93    0.47
   1   0  -3    0.62    0.08
   1   0  -3    0.57    0.13
   1   0  -3    0.50    0.07
   1   0  -3    0.53    0.09
   1   0  -3    0.77    0.09
  -1   0   3    0.33    0.11
  -1   0   3    0.77    0.10
  -1   0   3    0.70    0.13
   0   0  -3  424.75   11.94
   0   0  -3  413.82   12.41
   0   0  -3  370.83   12.36
   0   0  -3  419.85   11.94
   0   0  -3  376.97   11.92
   0   0  -3  354.39   15.73
   0   0   3  421.53   12.41
   0   0   3  349.79   15.73
   0   0   3  410.35   12.40
  -1   0  -3  186.44    7.79
  -1   0  -3  201.54    5.87
  -1   0  -3  190.98    6.10
  -1   0  -3  198.75    5.87
   1   0   3  194.18    6.10
   1   0   3  197.59    6.10
   1   0   3  185.31    5.87
  -2   0  -3    5.66    0.30
  -2   0  -3    6.22    0.33
  -2   0  -3    5.47    0.30
   2   0   3    4.88    0.28
   2   0   3    5.78    0.31
  -3   0  -3   51.78    1.75
  -3   0  -3   52.81    1.68
  -3   0  -3   54.82    1.68
   3   0   3   54.13    1.75
   3   0   3   48.67    1.67
  -4   0  -3  120.35    3.85
  -4   0  -3  122.59    3.70
  -4   0  -3  122.44    3.71
   4   0   3  114.25    3.70
   4   0   3  116.22    3.84
  -5   0  -3    2.06    0.31
  -5   0  -3    1.63    0.33
  -5   0  -3    1.22    0.34
   5   0   3    0.95    0.35
  -6   0  -3    3.52    0.49
   6   0   3    3.45    0.48
  -7   0  -3    5.40    0.61
   7   0   3    5.35    0.59
  -8   0  -3    8.88    0.80
   8   0   3    9.71    0.80
 -10   1   3    0.82    0.70
   9  -1  -3    0.89    0.57
  -9   1   3    1.05    0.62
   8  -1  -3    7.48    0.61
  -8   1   3    7.55    0.67
   7  -1  -3   29.24    1.21
   7  -1  -3   30.36    1.14
  -7   1   3   29.33    1.23
   6  -1  -3   54.48    1.87
   6  -1  -3   57.05    1.86
   6  -1  -3   57.60    1.94
  -6   1   3   57.92    1.97
   5  -1  -3  160.88    5.24
   5  -1  -3  171.52    5.71
   5  -1  -3  164.36    5.06
   5  -1  -3  163.60    5.05
  -5   1   3  162.08    5.26
   4  -1  -3   17.88    0.69
   4  -1  -3   19.04    0.67
   4  -1  -3   18.90    0.76
   4  -1  -3   18.54    0.66
  -4   1   3   18.15    0.72
  -4   1   3   19.34    0.77
   3  -1  -3  111.91    3.59
   3  -1  -3  116.78    3.92
   3  -1  -3  113.14    3.47
   3  -1  -3  111.16    3.46
  -3   1   3  109.72    3.61
  -3   1   3  113.39    3.92
  -3   1   3  117.97    3.60
   2  -1  -3   11.11    0.36
   2  -1  -3   10.19    0.38
   2  -1  -3   10.66    0.37
   2  -1  -3   11.59    0.44
  -2   1   3   10.87    0.44
  -2   1   3   10.78    0.40
  -2   1   3   11.89    0.40
  -1   1   3  413.13   12.72
  -1   1   3  417.25   12.72
  -1   1   3  409.67   16.19
  -1   1   3  394.39   13.85
  -1   1   3  389.44   12.71
   0  -1  -3    3.71    0.14
   0  -1  -3    3.24    0.14
   0  -1  -3    3.51    0.26
   0   1   3    3.15    0.16
   0   1   3    3.17    0.26
   0   1   3    3.10    0.16
  -1  -1  -3   45.99    1.48
  -1  -1  -3   46.18    1.42
  -1  -1  -3   45.24    1.92
  -1  -1  -3   46.06    1.42
   1   1   3   45.53    1.49
   1   1   3   45.29    1.48
   1   1   3   47.01    1.91
  -2  -1  -3  449.49   13.56
  -2  -1  -3  434.49   17.97
  -2  -1  -3  463.71   13.56
  -2  -1  -3  443.86   14.09
   2   1   3  449.74   14.09
  -3  -1  -3   26.73    1.28
  -3  -1  -3   27.87    1.01
  -3  -1  -3   28.14    0.95
  -3  -1  -3   27.95    0.95
   3   1   3   28.63    1.01
  -4  -1  -3   10.98    0.55
  -4  -1  -3    9.70    0.70
  -4  -1  -3   11.67    0.51
  -4  -1  -3   10.80    0.60
   4   1   3   11.36    0.61
  -5  -1  -3    2.46    0.33
  -5  -1  -3    2.56    0.35
  -5  -1  -3    2.27    0.39
   5   1   3    1.74    0.36
  -6  -1  -3   42.89    1.65
  -6  -1  -3   44.58    1.57
   6   1   3   43.60    1.65
  -7  -1  -3   -0.55    0.50
   7   1   3    0.75    0.50
  -8  -1  -3   10.86    0.85
   8   1   3    9.77    0.83
   9  -2  -3    6.96    0.69
  -9   2   3    6.42    0.72
   8  -2  -3    7.96    0.63
   8  -2  -3    7.78    0.58
  -8   2   3    6.93    0.66
   7  -2  -3    7.09    0.52
   7  -2  -3    6.79    0.50
  -7   2   3    6.37    0.56
   6  -2  -3    7.04    0.45
   6  -2  -3    7.22    0.44
   6  -2  -3    7.14    0.44
  -6   2   3    7.04    0.52
   5  -2  -3   28.49    0.96
   5  -2  -3   28.20    1.02
   5  -2  -3   25.80    0.98
   5  -2  -3   28.68    1.10
  -5   2   3   26.55    1.02
   4  -2  -3    1.93    0.21
   4  -2  -3    2.37    0.21
   4  -2  -3    1.84    0.20
   4  -2  -3    1.84    0.21
  -4   2   3    1.94    0.24
   3  -2  -3  687.12   20.45
   3  -2  -3  679.61   23.10
   3  -2  -3  635.96   21.19
   3  -2  -3  657.07   20.44
   3  -2  -3  690.24   20.46
  -3   2   3  695.98   21.30
  -3   2   3  673.88   21.18
   2  -2  -3  183.22    5.73
   2  -2  -3  190.28    6.48
  -2   2   3  191.05    5.97
  -2   2   3  194.06    5.97
  -2   2   3  191.18    6.48
  -1   2   3    2.54    0.15
   0   2   3  177.84    5.58
   0   2   3  174.15    7.15
   0   2   3  180.67    5.58
  -1  -2  -3  235.53    7.40
  -1  -2  -3  233.55    9.46
  -1  -2  -3  246.00    7.12
  -1  -2  -3  230.36    7.12
   1   2   3  239.52    7.41
   1   2   3  229.76    9.45
   1   2   3  232.08    7.41
  -2  -2  -3   40.65    1.35
  -2  -2  -3   40.61    1.30
  -2  -2  -3   40.45    1.73
  -2  -2  -3   40.43    1.30
   2   2   3   40.76    1.35
  -3  -2  -3    7.09    0.53
  -3  -2  -3    7.18    0.45
  -3  -2  -3    7.35    0.44
  -3  -2  -3    7.19    0.40
   3   2   3    6.50    0.46
  -4  -2  -3   21.85    0.84
  -4  -2  -3   22.24    0.84
  -4  -2  -3   22.81    0.90
  -4  -2  -3   19.91    1.07
   4   2   3   22.15    0.90
  -5  -2  -3   34.57    1.31
  -5  -2  -3   34.99    1.24
  -5  -2  -3   35.18    1.24
   5   2   3   31.82    1.27
  -6  -2  -3    8.93    0.62
  -6  -2  -3    9.60    0.61
   6   2   3    9.52    0.67
  -7  -2  -3    5.54    0.63
   7   2   3    5.84    0.67
  -8  -2  -3    2.09    0.65
   8   2   3    0.72    0.66
  -9   3   3   -0.19    0.59
   8  -3  -3   28.50    1.28
   8  -3  -3   31.10    1.23
  -8   3   3   29.57    1.30
   7  -3  -3    8.70    0.55
   7  -3  -3    7.20    0.51
  -7   3   3    7.18    0.57
   6  -3  -3   17.88    0.80
   6  -3  -3   20.42    0.85
   6  -3  -3   20.60    0.80
  -6   3   3   19.14    0.87
   5  -3  -3   50.16    1.61
   5  -3  -3   49.39    1.63
   5  -3  -3   49.14    1.82
   5  -3  -3   49.56    1.68
  -5   3   3   51.07    1.70
   4  -3  -3  116.99    3.73
   4  -3  -3  123.56    3.73
   4  -3  -3  121.93    3.87
   4  -3  -3  126.56    4.20
   4  -3  -3  118.41    3.73
  -4   3   3  118.80    3.87
  -4   3   3  123.89    3.88
   3  -3  -3    0.63    0.13
   3  -3  -3    0.14    0.14
   3  -3  -3    0.54    0.14
   3  -3  -3    0.31    0.12
  -3   3   3    0.37    0.13
  -3   3   3    0.47    0.15
   2  -3  -3    0.39    0.09
   2  -3  -3    0.41    0.09
  -2   3   3    0.46    0.11
  -2   3   3    0.26    0.11
  -1   3   3  302.84    9.84
  -1   3   3  323.70    9.86
   0  -3  -3    9.60    0.34
   0  -3  -3    9.51    0.33
   0  -3  -3    9.49    0.35
   0  -3  -3    8.96    0.33
   0   3   3    9.75    0.37
   0   3   3   10.18    0.40
   0   3   3   10.03    0.56
   0   3   3   10.20    0.38
  -1  -3  -3   41.93    1.33
  -1  -3  -3   41.90    1.34
  -1  -3  -3   42.30    1.38
   1   3   3   43.77    1.40
   1   3   3   41.66    1.79
   1   3   3   41.07    1.39
   1   3   3   44.34    1.52
  -2  -3  -3   18.56    0.69
  -2  -3  -3   18.32    0.67
  -2  -3  -3   17.96    0.89
  -2  -3  -3   17.68    0.65
   2   3   3   18.18    0.88
   2   3   3   17.36    0.69
   2   3   3   18.01    0.77
  -3  -3  -3   88.88    2.80
  -3  -3  -3   86.47    2.69
  -3  -3  -3   84.41    3.56
  -3  -3  -3   86.55    2.68
   3   3   3   82.55    2.80
  -4  -3  -3   69.18    2.26
  -4  -3  -3   72.56    2.28
  -4  -3  -3   73.08    2.37
   4   3   3   67.74    2.36
  -5  -3  -3   19.91    0.93
  -5  -3  -3   18.97    0.83
   5   3   3   18.83    0.91
  -6  -3  -3    1.84    0.49
   6   3   3    1.56    0.46
  -7  -3  -3    6.05    0.62
   7   3   3    5.39    0.68
  -8  -3  -3    2.10    0.68
   8   3   3    1.77    0.65
  -9   4   3   17.05    1.00
   8  -4  -3    2.56    0.52
  -8   4   3    2.66    0.57
   7  -4  -3    5.62    0.48
   7  -4  -3    6.60    0.52
  -7   4   3    5.47    0.53
   6  -4  -3   44.92    1.55
   6  -4  -3   41.99    1.48
   6  -4  -3   42.55    1.48
   6  -4  -3   44.24    1.66
  -6   4   3   43.03    1.55
   5  -4  -3   22.52    0.84
   5  -4  -3   24.08    0.93
   5  -4  -3   22.46    0.85
   5  -4  -3   21.80    0.87
   5  -4  -3   22.68    0.88
  -5   4   3   23.07    0.92
   4  -4  -3    0.52    0.20
   4  -4  -3    0.50    0.18
   4  -4  -3    0.64    0.21
   4  -4  -3    0.34    0.21
  -4   4   3    0.40    0.24
   3  -4  -3   40.28    1.31
   3  -4  -3   40.55    1.34
   3  -4  -3   42.24    1.43
   3  -4  -3   40.66    1.30
  -3   4   3   41.10    1.35
  -3   4   3   41.10    1.36
   2  -4  -3   91.58    2.84
   2  -4  -3   94.08    2.84
   2  -4  -3   92.08    2.93
  -2   4   3   92.06    2.96
  -2   4   3   95.08    2.96
   1  -4  -3   93.28    2.79
   1  -4  -3   91.02    2.79
  -1   4   3   88.82    2.91
  -1   4   3   89.03    2.91
  -1   4   3   95.06    2.91
   0  -4  -3   20.16    0.67
   0  -4  -3   20.29    0.68
   0   4   3   19.65    0.71
   0   4   3   20.48    0.71
   0   4   3   19.00    0.96
   0   4   3   20.27    0.74
  -1  -4  -3   27.53    0.94
  -1  -4  -3   26.95    0.91
  -1  -4  -3   27.32    0.92
   1   4   3   27.77    1.04
   1   4   3   28.05    0.96
   1   4   3   27.08    1.24
   1   4   3   27.68    0.96
  -2  -4  -3  132.40    4.17
  -2  -4  -3  134.72    4.16
  -2  -4  -3  137.18    4.32
   2   4   3  135.40    4.34
   2   4   3  139.29    4.72
   2   4   3  134.90    5.52
  -3  -4  -3   16.62    0.68
  -3  -4  -3   15.81    0.70
  -3  -4  -3   18.02    0.77
   3   4   3   16.52    0.75
  -4  -4  -3   76.59    2.48
  -4  -4  -3   77.47    2.47
  -4  -4  -3   81.24    2.58
   4   4   3   72.95    2.56
  -5  -4  -3    0.87    0.42
  -5  -4  -3    0.93    0.39
   5   4   3    0.62    0.40
  -6  -4  -3    3.44    0.53
   6   4   3    2.84    0.56
  -7  -4  -3    2.38    0.60
   7   4   3    1.64    0.61
  -9   5   3    0.73    0.64
   8  -5  -3    2.33    0.51
  -8   5   3    2.00    0.55
   7  -5  -3   89.27    2.86
  -7   5   3   87.11    2.98
   6  -5  -3   15.71    0.77
   6  -5  -3   15.56    0.77
   6  -5  -3   15.80    0.79
  -6   5   3   16.86    0.80
   5  -5  -3    1.62    0.31
   5  -5  -3    1.48    0.31
   5  -5  -3    2.01    0.27
   5  -5  -3    2.24    0.30
  -5   5   3    2.18    0.36
   4  -5  -3   58.66    2.07
   4  -5  -3   59.15    1.89
   4  -5  -3   57.97    1.94
   4  -5  -3   59.11    1.88
  -4   5   3   59.98    1.97
   3  -5  -3   12.46    0.52
   3  -5  -3   12.41    0.53
   3  -5  -3   13.46    0.53
  -3   5   3   13.63    0.57
  -3   5   3   13.41    0.57
   2  -5  -3   12.77    0.51
   2  -5  -3   13.24    0.50
  -2   5   3   12.92    0.57
  -2   5   3   14.53    0.57
   1  -5  -3   26.55    0.88
   1  -5  -3   25.90    0.89
  -1   5   3   26.67    0.94
  -1   5   3   26.88    0.94
  -1   5   3   27.53    0.94
   0  -5  -3   49.29    1.63
   0  -5  -3   51.22    1.60
   0  -5  -3   50.44    1.58
   0   5   3   49.11    2.14
   0   5   3   49.59    1.65
   0   5   3   51.08    1.77
   0   5   3   50.29    1.66
  -1  -5  -3   12.63    0.55
  -1  -5  -3   12.42    0.53
  -1  -5  -3   13.10    0.57
   1   5   3   13.60    0.60
   1   5   3   12.92    0.74
   1   5   3   11.90    0.58
  -2  -5  -3  113.89    3.56
  -2  -5  -3  112.13    3.58
  -2  -5  -3  114.83    3.69
   2   5   3  112.96    3.70
   2   5   3  116.66    4.72
   2   5   3  119.45    4.03
  -3  -5  -3    0.10    0.30
  -3  -5  -3    0.17    0.30
  -3  -5  -3   -0.19    0.29
   3   5   3    0.59    0.36
   3   5   3    0.07    0.33
  -4  -5  -3    2.63    0.37
  -4  -5  -3    1.90    0.40
  -4  -5  -3    2.96    0.43
   4   5   3    2.54    0.43
  -5  -5  -3   19.38    0.97
  -5  -5  -3   18.55    0.91
   5   5   3   15.61    0.92
   6   5   3    7.63    0.69
   7   5   3    0.71    0.62
  -8   6   3    5.69    0.67
   7  -6  -3    1.23    0.46
  -7   6   3    0.87    0.48
   6  -6  -3    4.60    0.47
   6  -6  -3    5.66    0.48
   6  -6  -3    4.84    0.46
  -6   6   3    4.68    0.49
   5  -6  -3   38.95    1.37
   5  -6  -3   39.99    1.39
  -5   6   3   39.83    1.43
   4  -6  -3    2.20    0.27
   4  -6  -3    1.66    0.31
   4  -6  -3    2.28    0.30
   4  -6  -3    2.17    0.21
   4  -6  -3    2.50    0.22
  -4   6   3    2.27    0.34
   3  -6  -3    9.62    0.48
   3  -6  -3    8.86    0.48
   3  -6  -3    9.21    0.48
  -3   6   3   10.65    0.55
   2  -6  -3   18.50    0.68
   2  -6  -3   18.01    0.69
   2  -6  -3   16.07    0.65
  -2   6   3   17.32    0.73
  -2   6   3   20.69    0.74
   1  -6  -3   37.38    1.25
   1  -6  -3   38.11    1.26
   1  -6  -3   38.12    1.26
  -1   6   3   39.07    1.32
  -1   6   3   37.43    1.32
   0  -6  -3    0.47    0.25
   0  -6  -3    0.22    0.20
   0  -6  -3    0.21    0.22
   0   6   3    0.34    0.20
   0   6   3    0.30    0.25
  -1  -6  -3   49.48    1.58
  -1  -6  -3   49.65    1.64
  -1  -6  -3   48.49    1.60
   1   6   3   45.05    1.64
   1   6   3   50.44    1.78
   1   6   3   47.83    2.10
  -2  -6  -3    3.51    0.38
  -2  -6  -3    3.52    0.34
  -2  -6  -3    3.51    0.35
   2   6   3    3.77    0.46
   2   6   3    3.70    0.40
  -3  -6  -3   20.39    0.87
  -3  -6  -3   19.47    0.86
  -3  -6  -3   20.38    0.91
   3   6   3   19.69    1.06
   3   6   3   18.60    0.89
  -4  -6  -3   44.92    1.57
   4   6   3   42.28    1.62
  -5  -6  -3    8.76    0.65
   5   6   3    8.15    0.64
   6   6   3    0.32    0.58
  -8   7   3    1.04    0.61
   7  -7  -3   -0.16    0.47
  -7   7   3    0.53    0.55
   6  -7  -3   18.34    0.91
  -6   7   3   18.97    0.95
   5  -7  -3    4.72    0.43
   5  -7  -3    4.44    0.42
  -5   7   3    5.20    0.50
   4  -7  -3    9.37    0.59
   4  -7  -3    9.44    0.58
  -4   7   3    8.27    0.60
   3  -7  -3   16.72    0.73
   3  -7  -3   18.48    0.75
  -3   7   3   16.01    0.79
   2  -7  -3    7.65    0.46
   2  -7  -3    7.74    0.50
  -2   7   3    7.64    0.47
   1  -7  -3   23.06    0.92
   1  -7  -3   25.68    0.91
  -1   7   3   24.34    0.97
   0  -7  -3   11.47    0.57
   0  -7  -3   12.22    0.62
   0   7   3   11.13    0.58
   0   7   3   11.00    0.83
  -1  -7  -3    1.24    0.35
  -1  -7  -3    1.43    0.31
   1   7   3    1.71    0.46
   1   7   3    1.23    0.35
  -2  -7  -3    1.18    0.38
  -2  -7  -3    0.31    0.33
   2   7   3    1.54    0.45
   2   7   3    1.00    0.38
  -3  -7  -3    5.73    0.53
   3   7   3    5.94    0.60
   3   7   3    4.55    0.51
  -4  -7  -3    1.17    0.47
   4   7   3    0.53    0.48
   5   7   3    2.57    0.60
   7  -8  -3    2.72    0.54
  -7   8   3    3.53    0.65
   6  -8  -3    6.22    0.57
  -6   8   3    5.92    0.63
   5  -8  -3    0.65    0.41
  -5   8   3    0.47    0.44
   4  -8  -3    7.00    0.51
   4  -8  -3    7.33    0.52
  -4   8   3    6.35    0.55
   3  -8  -3    0.37    0.34
   3  -8  -3    0.45    0.36
  -3   8   3    0.21    0.39
   2  -8  -3   42.86    1.45
   2  -8  -3   42.31    1.44
  -2   8   3   39.33    1.51
   1  -8  -3    3.60    0.42
   1  -8  -3    2.15    0.35
  -1   8   3    2.80    0.41
   0  -8  -3    8.19    0.57
   0  -8  -3    7.29    0.53
   0   8   3    6.51    0.50
   0   8   3    6.97    0.51
   0   8   3    7.23    0.69
  -1  -8  -3   -0.20    0.35
  -1  -8  -3    0.02    0.39
   1   8   3    0.13    0.48
   1   8   3    0.04    0.39
  -2  -8  -3   17.99    0.87
   2   8   3   14.94    0.83
   2   8   3   19.68    1.07
  -3  -8  -3    1.13    0.50
   3   8   3    0.62    0.52
   3   8   3    1.21    0.49
   4   8   3    0.44    0.55
   6  -9  -3    0.87    0.50
  -6   9   3    0.05    0.57
   5  -9  -3    7.35    0.61
  -5   9   3    7.16    0.67
   4  -9  -3   11.29    0.72
  -4   9   3   11.76    0.78
   3  -9  -3   -0.08    0.41
   3  -9  -3    0.28    0.39
  -3   9   3   -0.27    0.42
   2  -9  -3    0.02    0.37
   2  -9  -3   -0.45    0.41
  -2   9   3    0.50    0.44
   1  -9  -3    0.26    0.38
   1  -9  -3    0.69    0.44
  -1   9   3    0.44    0.41
   0  -9  -3    5.41    0.54
   0   9   3    5.53    0.70
   0   9   3    5.24    0.55
  -1  -9  -3    2.93    0.49
   1   9   3    3.11    0.48
   1   9   3    3.37    0.63
  -2  -9  -3    1.17    0.50
   2   9   3    0.15    0.48
  -3  -9  -3    0.43    0.53
   3   9   3    0.13    0.51
   4 -10  -3    1.80    0.53
  -4  10   3    1.66    0.57
   3 -10  -3    4.04    0.57
  -3  10   3    1.98    0.56
   2 -10  -3   -0.16    0.50
  -2  10   3   -0.30    0.51
   1 -10  -3   13.82    0.89
  -1  10   3   12.97    0.90
   0 -10  -3   -0.26    0.52
   0  10   3   -0.12    0.63
   0  10   3   -0.81    0.50
  -1 -10  -3    1.07    0.56
   1  10   3    1.75    0.53
   1  10   3    1.28    0.53
   2  10  -4    3.55    0.69
  -2 -10   4    2.65    0.76
  -2 -10   4    2.88    0.67
   1  10  -4    0.32    0.57
  -1 -10   4    1.11    0.68
  -1 -10   4    0.74    0.59
   0  10  -4    1.05    0.59
   0 -10   4    1.97    0.66
   0 -10   4    1.95    0.61
  -1  10  -4    0.14    0.56
   1 -10   4   -0.17    0.59
   1 -10   4   -0.98    0.51
  -2  10  -4    2.29    0.61
   2 -10   4    0.72    0.61
   2 -10   4    1.88    0.62
  -3  10  -4    0.02    0.64
   3 -10   4    0.37    0.64
   3 -10   4    0.13    0.59
   4   9  -4    4.50    0.71
   4   9  -4    3.98    0.65
  -4  -9   4    2.98    0.75
  -4  -9   4    4.71    0.73
   3   9  -4    0.83    0.61
   3   9  -4    0.78    0.61
  -3  -9   4    0.64    0.56
  -3  -9   4    0.38    0.67
   2   9  -4    1.74    0.55
  -2  -9   4    1.43    0.64
  -2  -9   4    1.97    0.54
   1   9  -4   10.62    0.78
  -1  -9   4   11.16    0.77
  -1  -9   4   11.46    0.86
   0   9  -4    4.95    0.62
   0  -9   4    5.35    0.60
   0  -9   4    4.02    0.64
  -1   9  -4    0.51    0.55
   1  -9   4    0.05    0.51
   1  -9   4    0.25    0.54
  -2   9  -4   -0.11    0.51
   2  -9   4   -0.39    0.53
   2  -9   4    0.05    0.53
  -3   9  -4   -0.44    0.53
   3  -9   4    0.19    0.55
   3  -9   4    0.27    0.57
  -4   9  -4    3.42    0.65
   4  -9   4    2.95    0.69
   4  -9   4    3.54    0.65
  -5   9  -4    0.73    0.65
   5  -9   4    0.85    0.60
   5  -9   4    0.52    0.70
   5   8  -4    1.53    0.64
  -5  -8   4    1.02    0.67
  -5  -8   4    1.11    0.60
   4   8  -4    1.01    0.54
  -4  -8   4    0.79    0.60
  -4  -8   4    0.68    0.58
   3   8  -4   -0.58    0.51
   3   8  -4   -0.68    0.51
  -3  -8   4    0.34    0.55
  -3  -8   4   -0.58    0.52
   2   8  -4    6.10    0.63
  -2  -8   4    6.15    0.65
  -2  -8   4    7.60    0.63
   1   8  -4   10.96    0.80
  -1  -8   4   10.71    0.79
  -1  -8   4   11.33    0.83
   0   8  -4   -0.28    0.42
   0  -8   4    1.46    0.50
   0  -8   4    0.44    0.44
  -1   8  -4    0.59    0.49
   1  -8   4    1.14    0.50
   1  -8   4    0.97    0.43
  -2   8  -4   -0.12    0.50
   2  -8   4    0.58    0.48
   2  -8   4    0.65    0.47
  -3   8  -4    4.75    0.59
   3  -8   4    5.20    0.58
   3  -8   4    4.33    0.57
  -4   8  -4    0.68    0.60
   4  -8   4    1.17    0.50
   4  -8   4    1.46    0.59
  -5   8  -4   -0.07    0.58
   5  -8   4    0.54    0.57
   5  -8   4    0.39    0.55
  -6   8  -4    0.46    0.72
   6  -8   4   -0.76    0.71
   6   7  -4    4.38    0.64
  -6  -7   4    6.98    0.74
  -6  -7   4    4.13    0.75
   5   7  -4    0.25    0.50
  -5  -7   4   -0.50    0.55
  -5  -7   4    0.12    0.51
   4   7  -4    1.26    0.49
  -4  -7   4    1.63    0.52
  -4  -7   4    0.92    0.56
   3   7  -4    9.15    0.63
   3   7  -4    8.08    0.61
  -3  -7   4    8.49    0.64
  -3  -7   4    9.30    0.70
   2   7  -4    2.34    0.43
   2   7  -4    3.03    0.48
  -2  -7   4    3.21    0.45
  -2  -7   4    1.93    0.48
   1   7  -4    2.03    0.41
  -1  -7   4    0.97    0.39
  -1  -7   4    0.79    0.42
   0   7  -4    3.65    0.48
   0  -7   4    4.15    0.44
   0  -7   4    3.59    0.48
  -1   7  -4   21.06    0.99
   1  -7   4   19.97    0.97
   1  -7   4   20.13    1.02
  -2   7  -4   14.67    0.87
   2  -7   4   13.64    0.87
   2  -7   4   15.11    0.79
  -3   7  -4   10.01    0.70
   3  -7   4    9.78    0.65
   3  -7   4    9.46    0.71
  -4   7  -4    0.65    0.49
   4  -7   4    1.25    0.52
   4  -7   4    0.91    0.46
  -5   7  -4    5.99    0.68
   5  -7   4    6.96    0.71
  -6   7  -4   -0.01    0.61
   6  -7   4   -0.41    0.66
   7   6  -4   -0.59    0.58
  -7  -6   4    1.12    0.61
   6   6  -4    0.95    0.51
  -6  -6   4    0.24    0.58
  -6  -6   4    0.56    0.59
   5   6  -4    0.26    0.47
  -5  -6   4   -0.37    0.49
  -5  -6   4   -0.04    0.53
   4   6  -4   12.83    0.77
  -4  -6   4   14.61    0.86
  -4  -6   4   13.69    0.90
   3   6  -4    1.77    0.40
  -3  -6   4    1.72    0.43
  -3  -6   4    2.06    0.45
   2   6  -4    1.90    0.38
   2   6  -4    1.53    0.37
  -2  -6   4    1.53    0.44
  -2  -6   4    1.16    0.36
  -2  -6   4    1.14    0.37
   1   6  -4   14.37    0.72
   1   6  -4   15.15    0.80
  -1  -6   4   16.61    0.74
  -1  -6   4   15.39    0.74
  -1  -6   4   15.01    0.80
   0   6  -4   86.96    2.89
   0   6  -4   88.97    2.77
   0  -6   4   87.96    3.15
   0  -6   4   84.35    2.86
   0  -6   4   84.25    2.78
  -1   6  -4    4.89    0.47
  -1   6  -4    5.11    0.43
   1  -6   4    5.26    0.51
   1  -6   4    4.54    0.43
   1  -6   4    5.75    0.47
  -2   6  -4    2.18    0.40
   2  -6   4    1.79    0.39
   2  -6   4    2.54    0.38
   2  -6   4    2.16    0.38
  -3   6  -4    2.65    0.45
   3  -6   4    3.23    0.47
   3  -6   4    3.04    0.45
  -4   6  -4    7.99    0.62
   4  -6   4    8.15    0.63
  -5   6  -4   10.93    0.78
   5  -6   4   10.98    0.76
  -6   6  -4    3.03    0.62
   6  -6   4    4.56    0.65
  -7   6  -4   -0.72    0.63
   7  -6   4   -0.14    0.65
   8   5  -4   -0.24    0.57
  -8  -5   4    0.80    0.69
   7   5  -4    0.07    0.51
  -7  -5   4    0.05    0.55
  -7  -5   4    1.19    0.58
   6   5  -4    2.39    0.48
  -6  -5   4    1.31    0.53
  -6  -5   4    2.32    0.56
   5   5  -4   21.19    1.00
  -5  -5   4   18.85    1.02
  -5  -5   4   21.46    0.96
   4   5  -4    0.08    0.37
  -4  -5   4   -0.10    0.36
  -4  -5   4    0.17    0.40
   3   5  -4    1.39    0.34
   3   5  -4    1.07    0.31
   3   5  -4    1.69    0.32
  -3  -5   4    1.69    0.32
  -3  -5   4    0.95    0.38
  -3  -5   4    1.01    0.36
   2   5  -4   42.09    1.41
   2   5  -4   40.28    1.43
   2   5  -4   39.33    1.38
   2   5  -4   40.48    1.44
  -2  -5   4   41.44    1.43
  -2  -5   4   38.06    1.57
   1   5  -4   25.92    1.03
   1   5  -4   27.01    0.95
   1   5  -4   27.12    0.98
  -1  -5   4   25.87    1.00
  -1  -5   4   24.92    1.09
  -1  -5   4   24.31    0.95
   0   5  -4  112.57    3.50
   0   5  -4  113.35    3.65
   0   5  -4  109.93    3.50
   0  -5   4  114.58    3.52
   0  -5   4  110.81    3.63
   0  -5   4  110.38    3.97
  -1   5  -4    2.05    0.34
  -1   5  -4    2.66    0.30
  -1   5  -4    2.68    0.33
   1  -5   4    2.69    0.33
   1  -5   4    2.54    0.33
   1  -5   4    2.10    0.36
   1  -5   4    2.72    0.30
  -2   5  -4   51.56    1.78
   2  -5   4   52.43    1.78
   2  -5   4   48.01    1.92
   2  -5   4   52.07    1.73
   2  -5   4   51.39    1.72
  -3   5  -4    4.58    0.47
   3  -5   4    3.61    0.40
   3  -5   4    3.68    0.44
  -4   5  -4    5.50    0.52
   4  -5   4    6.60    0.54
  -5   5  -4    8.47    0.66
   5  -5   4    9.32    0.65
  -6   5  -4    6.37    0.66
   6  -5   4    6.80    0.70
  -7   5  -4   -0.23    0.59
   7  -5   4   -0.16    0.66
   8   4  -4    3.30    0.62
  -8  -4   4    2.97    0.69
   7   4  -4   14.42    0.86
  -7  -4   4   12.91    0.93
  -7  -4   4   15.90    0.99
   6   4  -4    6.42    0.54
  -6  -4   4    6.10    0.60
  -6  -4   4    5.93    0.62
   5   4  -4    0.52    0.33
   5   4  -4    0.96    0.39
  -5  -4   4    0.35    0.38
  -5  -4   4    0.41    0.40
   4   4  -4    1.95    0.36
   4   4  -4    2.72    0.33
   4   4  -4    1.79    0.32
  -4  -4   4    2.23    0.35
  -4  -4   4    2.30    0.40
  -4  -4   4    2.10    0.36
   3   4  -4   81.02    2.56
   3   4  -4   80.03    2.54
   3   4  -4   79.75    2.64
  -3  -4   4   82.31    2.56
  -3  -4   4   80.60    2.64
  -3  -4   4   77.24    2.89
   2   4  -4    3.43    0.31
   2   4  -4    2.55    0.30
   2   4  -4    2.72    0.30
   2   4  -4    3.00    0.23
   2   4  -4    3.29    0.29
  -2  -4   4    3.06    0.31
  -2  -4   4    3.02    0.31
  -2  -4   4    2.53    0.34
   1   4  -4    0.36    0.22
   1   4  -4    0.36    0.24
   1   4  -4    0.75    0.23
  -1  -4   4    1.31    0.25
  -1  -4   4    0.94    0.31
  -1  -4   4    0.38    0.24
   0   4  -4   71.98    2.28
   0   4  -4   72.17    2.37
   0   4  -4   72.59    2.27
   0  -4   4   68.71    2.57
   0  -4   4   71.34    2.28
   0  -4   4   71.09    2.35
  -1   4  -4   35.28    1.18
  -1   4  -4   33.31    1.21
  -1   4  -4   34.14    1.17
   1  -4   4   30.57    1.31
   1  -4   4   34.51    1.19
   1  -4   4   34.10    1.16
  -2   4  -4   29.31    1.05
  -2   4  -4   28.19    1.07
  -2   4  -4   28.45    1.05
   2  -4   4   28.86    1.06
   2  -4   4   28.55    1.03
  -3   4  -4   57.07    1.86
  -3   4  -4   57.84    1.87
  -3   4  -4   56.79    1.95
   3  -4   4   49.86    1.85
   3  -4   4   60.06    1.94
  -4   4  -4    6.99    0.48
  -4   4  -4    8.11    0.56
   4  -4   4    7.38    0.54
  -5   4  -4    0.42    0.41
   5  -4   4    0.81    0.43
  -6   4  -4   23.54    1.11
   6  -4   4   23.58    1.12
  -7   4  -4    9.17    0.80
   7  -4   4    9.46    0.77
  -8   4  -4    0.08    0.69
   8  -4   4    0.12    0.68
   9   3  -4    0.50    0.62
  -9  -3   4    0.24    0.68
   8   3  -4    5.78    0.65
  -8  -3   4    6.02    0.70
   7   3  -4    2.96    0.51
  -7  -3   4    4.03    0.58
  -7  -3   4    4.16    0.58
   6   3  -4   34.11    1.26
   6   3  -4   34.85    1.34
  -6  -3   4   35.24    1.49
  -6  -3   4   34.52    1.34
   5   3  -4    1.37    0.29
   5   3  -4    1.09    0.32
   5   3  -4    1.54    0.31
  -5  -3   4    1.31    0.40
  -5  -3   4    1.29    0.39
   4   3  -4  114.25    3.45
   4   3  -4  110.13    3.57
   4   3  -4  107.54    3.42
  -4  -3   4  107.37    3.57
  -4  -3   4  113.83    3.45
  -4  -3   4  105.92    3.90
   3   3  -4   75.96    2.57
   3   3  -4   78.70    2.47
   3   3  -4   79.23    2.48
  -3  -3   4   75.70    2.81
  -3  -3   4   80.88    2.59
  -3  -3   4   81.68    2.49
   2   3  -4    9.25    0.42
   2   3  -4    8.98    0.44
   2   3  -4    9.04    0.43
   2   3  -4    8.64    0.52
   2   3  -4    8.41    0.46
  -2  -3   4    8.63    0.51
  -2  -3   4    9.67    0.46
  -2  -3   4    9.08    0.46
   1   3  -4   29.55    1.04
   1   3  -4   30.71    1.14
   1   3  -4   28.95    0.99
   1   3  -4   28.63    0.98
  -1  -3   4   28.35    1.13
  -1  -3   4   29.23    1.03
  -1  -3   4   28.04    0.98
   0   3  -4   13.92    0.55
   0   3  -4   13.95    0.57
   0   3  -4   14.33    0.61
   0  -3   4   13.49    0.60
   0  -3   4   13.90    0.57
  -1   3  -4   40.33    1.34
  -1   3  -4   40.10    1.39
  -1   3  -4   42.72    1.34
   1  -3   4   40.06    1.39
   1  -3   4   39.69    1.34
  -2   3  -4   57.53    1.93
  -2   3  -4   59.60    1.87
  -2   3  -4   58.53    1.87
   2  -3   4   57.40    1.93
   2  -3   4   55.42    1.86
  -3   3  -4    4.65    0.34
  -3   3  -4    3.83    0.36
  -3   3  -4    4.55    0.35
   3  -3   4    4.57    0.37
   3  -3   4    4.91    0.36
  -4   3  -4    0.73    0.30
  -4   3  -4    0.55    0.36
  -4   3  -4   -0.19    0.27
   4  -3   4    0.40    0.29
   4  -3   4    0.50    0.36
  -5   3  -4   38.52    1.46
   5  -3   4   36.62    1.46
  -6   3  -4   -0.20    0.48
   6  -3   4    1.01    0.53
  -7   3  -4    0.53    0.52
   7  -3   4    0.00    0.56
  -8   3  -4    0.49    0.68
   8  -3   4    0.78    0.72
   9   2  -4    1.73    0.61
  -9  -2   4    1.97    0.66
   8   2  -4   -0.32    0.50
  -8  -2   4    0.53    0.56
   7   2  -4    2.80    0.44
  -7  -2   4    2.87    0.48
  -7  -2   4    3.00    0.52
   6   2  -4  160.29    5.12
   6   2  -4  164.97    4.93
  -6  -2   4  159.65    5.15
  -6  -2   4  150.37    5.59
   5   2  -4    6.97    0.44
   5   2  -4    6.58    0.41
   5   2  -4    6.83    0.44
  -5  -2   4    6.81    0.53
  -5  -2   4    6.44    0.46
   4   2  -4  192.80    5.80
   4   2  -4  192.10    6.04
   4   2  -4  190.71    5.82
  -4  -2   4  194.76    6.05
  -4  -2   4  183.58    7.59
  -4  -2   4  184.57    6.58
   3   2  -4    7.84    0.43
   3   2  -4    7.94    0.39
   3   2  -4    8.34    0.53
   3   2  -4    7.19    0.41
  -3  -2   4    7.58    0.46
  -3  -2   4    8.03    0.47
   2   2  -4   81.90    2.59
   2   2  -4   79.97    2.49
   2   2  -4   79.47    2.49
   2   2  -4   80.74    2.83
  -2  -2   4   77.78    2.83
  -2  -2   4   80.13    2.49
  -2  -2   4   80.61    2.58
   1   2  -4   76.77    3.06
   1   2  -4   75.56    2.35
   1   2  -4   79.05    2.67
   1   2  -4   73.56    2.43
   1   2  -4   76.94    2.35
  -1  -2   4   72.70    2.42
  -1  -2   4   72.94    2.66
  -1  -2   4   74.66    2.34
   0   2  -4  211.54    6.21
   0   2  -4  205.93    6.45
   0   2  -4  201.44    6.21
   0  -2   4  202.16    6.44
   0  -2   4  195.92    6.20
   0  -2   4  205.80    7.03
  -1   2  -4   68.69    2.14
  -1   2  -4   66.22    2.21
  -1   2  -4   70.13    2.14
   1  -2   4   67.71    2.21
   1  -2   4   67.35    2.13
  -2   2  -4   13.17    0.56
  -2   2  -4   13.55    0.54
  -2   2  -4   12.97    0.56
   2  -2   4   12.58    0.55
   2  -2   4   12.87    0.59
  -3   2  -4   56.19    1.81
  -3   2  -4   58.30    1.81
  -3   2  -4   57.18    1.89
   3  -2   4   55.81    1.87
   3  -2   4   51.31    1.81
  -4   2  -4   67.51    2.22
  -4   2  -4   70.53    2.32
  -4   2  -4   70.12    2.22
   4  -2   4   64.26    2.22
   4  -2   4   70.33    2.32
  -5   2  -4   29.50    1.15
  -5   2  -4   29.62    1.18
   5  -2   4   30.33    1.19
  -6   2  -4    4.22    0.54
   6  -2   4    3.90    0.56
  -7   2  -4   18.40    1.03
   7  -2   4   20.47    1.06
  -8   2  -4    3.38    0.67
   8  -2   4    3.64    0.76
   9   1  -4    1.71    0.59
  -9  -1   4    1.92    0.61
   8   1  -4    6.35    0.59
  -8  -1   4    6.46    0.62
   7   1  -4    0.77    0.41
   7   1  -4    1.21    0.39
  -7  -1   4    1.34    0.46
   6   1  -4   33.41    1.19
   6   1  -4   34.12    1.21
   6   1  -4   33.11    1.24
  -6  -1   4   30.83    1.34
  -6  -1   4   33.07    1.28
   5   1  -4   46.18    1.55
   5   1  -4   44.40    1.48
   5   1  -4   45.03    1.49
  -5  -1   4   44.36    1.69
  -5  -1   4   44.03    1.56
   4   1  -4   80.76    2.67
   4   1  -4   83.57    2.59
   4   1  -4   82.74    2.57
   4   1  -4   88.70    2.94
  -4  -1   4   78.94    2.68
  -4  -1   4   80.12    2.92
   3   1  -4  125.44    4.34
   3   1  -4  126.50    3.83
   3   1  -4  125.32    3.97
   3   1  -4  124.55    3.82
  -3  -1   4  124.61    5.02
  -3  -1   4  122.12    3.98
  -3  -1   4  124.36    4.34
   2   1  -4  205.25    6.44
   2   1  -4  215.64    6.69
   2   1  -4  213.47    6.44
   2   1  -4  219.57    7.29
  -2  -1   4  226.18    6.70
  -2  -1   4  204.82    7.28
  -2  -1   4  207.35    8.50
  -2  -1   4  204.17    6.69
   1   1  -4  154.82    6.12
   1   1  -4  149.32    4.82
   1   1  -4  149.77    4.63
   1   1  -4  152.58    4.64
  -1  -1   4  148.89    5.26
  -1  -1   4  150.36    4.81
  -1  -1   4  159.65    4.83
   0   1  -4   28.70    0.99
   0   1  -4   29.36    1.25
   0   1  -4   29.42    0.95
   0   1  -4   29.83    0.95
   0  -1   4   28.40    0.98
   0  -1   4   29.20    0.99
  -1   1  -4    5.81    0.34
  -1   1  -4    6.59    0.33
  -1   1  -4    6.29    0.31
   1  -1   4    6.47    0.34
  -2   1  -4  237.23    7.07
  -2   1  -4  235.24    7.07
  -2   1  -4  225.88    7.33
   2  -1   4  229.26    7.33
  -3   1  -4    8.71    0.51
  -3   1  -4    8.71    0.47
  -3   1  -4    7.90    0.43
   3  -1   4    9.00    0.47
  -4   1  -4    1.26    0.28
  -4   1  -4    0.21    0.24
  -4   1  -4    0.11    0.27
  -4   1  -4    0.34    0.26
   4  -1   4    0.20    0.29
  -5   1  -4   44.68    1.57
  -5   1  -4   40.72    1.49
  -5   1  -4   41.38    1.48
   5  -1   4   43.03    1.57
  -6   1  -4   30.78    1.29
   6  -1   4   29.36    1.29
  -7   1  -4   10.95    0.79
   7  -1   4   10.23    0.77
  -8   1  -4    0.20    0.60
   8  -1   4    0.84    0.70
   9   0  -4    6.06    0.66
  -9   0   4    4.43    0.68
   8   0  -4    2.93    0.46
  -8   0   4    3.48    0.53
   7   0  -4    7.78    0.50
   7   0  -4    6.51    0.51
  -7   0   4    6.58    0.54
   6   0  -4    7.49    0.47
   6   0  -4    7.62    0.47
   6   0  -4    7.76    0.47
  -6   0   4    6.93    0.49
  -6   0   4    7.55    0.57
   5   0  -4   23.55    0.86
   5   0  -4   23.22    0.84
   5   0  -4   22.33    0.88
  -5   0   4   22.44    0.96
  -5   0   4   23.23    0.92
   4   0  -4   27.27    0.89
   4   0  -4   26.97    0.91
   4   0  -4   25.30    0.94
   4   0  -4   26.78    1.03
  -4   0   4   26.42    0.96
  -4   0   4   26.12    1.04
   3   0  -4  463.89   14.04
   3   0  -4  462.28   14.03
   3   0  -4  452.96   14.58
   3   0  -4  476.59   15.85
  -3   0   4  451.63   15.85
  -3   0   4  438.51   14.59
  -3   0   4  504.00   14.59
   2   0  -4   75.70    2.64
   2   0  -4   75.40    2.41
   2   0  -4   75.26    2.32
   2   0  -4   74.98    2.41
   2   0  -4   73.53    2.32
  -2   0   4   78.67    2.41
  -2   0   4   73.74    2.64
  -2   0   4   76.28    3.08
  -2   0   4   76.41    2.41
   1   0  -4   14.51    0.64
   1   0  -4   13.19    0.47
   1   0  -4   13.50    0.46
   1   0  -4   13.88    0.49
  -1   0   4   13.62    0.58
  -1   0   4   13.45    0.49
  -1   0   4   14.20    0.51
  -1   0   4   14.62    0.51
  -1   0   4   13.76    0.64
   0   0  -4  109.85    3.50
   0   0  -4  110.53    3.38
   0   0  -4  112.00    3.37
   0   0  -4  110.08    4.49
   0   0   4  107.33    4.49
   0   0   4  114.62    3.51
   0   0   4  110.72    3.51
  -1   0  -4  314.19   13.53
  -1   0  -4  346.87   10.20
  -1   0  -4  340.06   10.59
  -1   0  -4  351.23   10.20
   1   0   4  328.58   10.60
   1   0   4  340.53   10.59
  -2   0  -4    5.50    0.35
  -2   0  -4    5.44    0.31
  -2   0  -4    4.83    0.36
  -2   0  -4    4.70    0.42
   2   0   4    5.82    0.36
  -3   0  -4    8.60    0.45
  -3   0  -4    9.07    0.46
  -3   0  -4    8.15    0.48
  -3   0  -4    7.21    0.62
   3   0   4    9.32    0.51
  -4   0  -4   25.59    0.93
  -4   0  -4   23.65    0.92
  -4   0  -4   25.03    0.99
   4   0   4   24.65    0.96
  -5   0  -4   20.62    0.96
  -5   0  -4   21.33    0.90
   5   0   4   22.60    0.98
  -6   0  -4    6.53    0.58
   6   0   4    7.36    0.62
  -7   0  -4    9.53    0.73
   7   0   4    8.82    0.73
  -8   0  -4    3.39    0.70
   8   0   4    3.60    0.73
   9  -1  -4    7.00    0.68
  -9   1   4    8.87    0.76
   8  -1  -4   17.41    0.94
   8  -1  -4   16.22    0.89
  -8   1   4   17.38    0.92
   7  -1  -4   11.52    0.72
   7  -1  -4   12.48    0.69
  -7   1   4   11.84    0.77
   6  -1  -4    0.89    0.29
   6  -1  -4    0.79    0.30
   6  -1  -4    0.91    0.30
  -6   1   4    1.06    0.35
   5  -1  -4   44.60    1.51
   5  -1  -4   45.01    1.55
   5  -1  -4   47.38    1.72
   5  -1  -4   46.07    1.50
  -5   1   4   47.27    1.72
  -5   1   4   46.95    1.59
   4  -1  -4  176.36    5.40
   4  -1  -4  184.74    6.10
   4  -1  -4  176.07    5.60
   4  -1  -4  176.65    5.39
  -4   1   4  173.41    5.62
  -4   1   4  174.29    6.10
   3  -1  -4   38.59    1.24
   3  -1  -4   38.03    1.23
   3  -1  -4   38.33    1.28
   3  -1  -4   39.59    1.41
  -3   1   4   37.37    1.30
  -3   1   4   42.78    1.30
  -3   1   4   39.77    1.41
   2  -1  -4    1.42    0.10
   2  -1  -4    1.79    0.10
   2  -1  -4    1.49    0.17
   2  -1  -4    1.66    0.12
   2  -1  -4    1.41    0.10
  -2   1   4    1.70    0.12
  -2   1   4    1.46    0.16
  -2   1   4    1.56    0.13
  -1   1   4  379.92   15.35
  -1   1   4  408.68   12.07
  -1   1   4  360.86   12.04
  -1   1   4  382.98   13.13
   0  -1  -4   49.75    2.01
   0  -1  -4   48.93    1.52
   0  -1  -4   47.62    1.47
   0  -1  -4   45.78    1.52
   0  -1  -4   48.41    1.47
   0   1   4   47.98    2.00
   0   1   4   48.90    1.53
   0   1   4   46.26    1.53
  -1  -1  -4   16.19    0.57
  -1  -1  -4   16.31    0.59
  -1  -1  -4   16.15    0.56
  -1  -1  -4   17.39    0.80
   1   1   4   16.01    0.60
   1   1   4   16.90    0.78
   1   1   4   15.54    0.59
  -2  -1  -4   10.11    0.45
  -2  -1  -4   10.18    0.44
  -2  -1  -4   10.38    0.63
  -2  -1  -4    9.78    0.42
   2   1   4   10.16    0.48
  -3  -1  -4  212.11    9.02
  -3  -1  -4  223.02    7.06
  -3  -1  -4  228.10    6.79
  -3  -1  -4  223.84    6.79
   3   1   4  225.06    7.06
  -4  -1  -4   11.81    0.65
  -4  -1  -4   12.80    0.61
  -4  -1  -4   11.80    0.60
   4   1   4   12.29    0.63
  -5  -1  -4   18.51    0.90
  -5  -1  -4   19.19    0.85
   5   1   4   19.09    0.91
  -6  -1  -4    2.92    0.50
   6   1   4    2.98    0.49
  -7  -1  -4    1.34    0.56
   7   1   4    2.46    0.57
  -8  -1  -4    1.13    0.67
   8   1   4    0.94    0.70
  -9   2   4    2.86    0.64
   8  -2  -4    4.45    0.51
   8  -2  -4    3.93    0.53
  -8   2   4    4.44    0.60
   7  -2  -4    1.53    0.36
   7  -2  -4    1.45    0.36
   7  -2  -4    1.42    0.37
  -7   2   4    0.94    0.43
   6  -2  -4   73.80    2.43
   6  -2  -4   75.39    2.35
   6  -2  -4   72.24    2.35
  -6   2   4   70.89    2.45
   5  -2  -4   13.36    0.59
   5  -2  -4   13.04    0.55
   5  -2  -4   12.93    0.57
   5  -2  -4   13.02    0.64
  -5   2   4   12.64    0.61
   4  -2  -4   34.16    1.11
   4  -2  -4   33.62    1.12
   4  -2  -4   33.86    1.15
   4  -2  -4   35.45    1.27
  -4   2   4   34.59    1.17
  -4   2   4   34.32    1.17
   3  -2  -4    3.93    0.23
   3  -2  -4    4.25    0.22
   3  -2  -4    3.98    0.21
   3  -2  -4    4.46    0.28
  -3   2   4    4.01    0.27
  -3   2   4    4.04    0.27
  -3   2   4    4.11    0.26
  -2   2   4  485.52   14.87
  -2   2   4  478.38   14.89
  -2   2   4  456.85   16.18
  -1   2   4    0.59    0.21
  -1   2   4    0.14    0.12
   0   2   4    1.15    0.11
   0   2   4    0.59    0.21
   0   2   4    0.95    0.11
  -1  -2  -4  320.09   13.20
  -1  -2  -4  339.93    9.95
  -1  -2  -4  321.06    9.94
  -1  -2  -4  335.00   10.32
   1   2   4  334.01   10.33
   1   2   4  317.43   13.19
   1   2   4  332.02   10.33
  -2  -2  -4   32.24    1.06
  -2  -2  -4   32.31    1.11
  -2  -2  -4   32.58    1.46
  -2  -2  -4   31.92    1.06
   2   2   4   31.43    1.11
  -3  -2  -4   84.52    2.72
  -3  -2  -4   84.86    2.61
  -3  -2  -4   82.29    2.61
   3   2   4   80.50    2.71
  -4  -2  -4   49.13    1.66
  -4  -2  -4   46.81    1.58
  -4  -2  -4   47.20    1.58
   4   2   4   45.49    1.63
  -5  -2  -4    0.06    0.35
  -5  -2  -4    0.64    0.38
   5   2   4    0.28    0.40
  -6  -2  -4    7.27    0.62
   6   2   4    7.18    0.60
  -7  -2  -4    7.90    0.72
   7   2   4    9.60    0.79
  -8  -2  -4    0.18    0.65
   8   2   4    1.47    0.64
  -9   3   4   -0.56    0.59
   8  -3  -4   22.81    1.04
  -8   3   4   21.69    1.09
   7  -3  -4   42.64    1.51
   7  -3  -4   38.33    1.41
   7  -3  -4   40.24    1.43
  -7   3   4   40.01    1.52
   6  -3  -4    0.57    0.31
   6  -3  -4    0.88    0.31
   6  -3  -4    0.19    0.28
   6  -3  -4    0.93    0.30
  -6   3   4    1.01    0.34
   5  -3  -4    6.36    0.42
   5  -3  -4    6.38    0.43
   5  -3  -4    6.80    0.43
   5  -3  -4    7.13    0.46
  -5   3   4    6.57    0.42
   4  -3  -4  112.43    3.48
   4  -3  -4  112.64    3.48
   4  -3  -4  115.92    3.91
   4  -3  -4  114.17    3.47
   4  -3  -4  113.53    3.59
  -4   3   4  111.54    3.62
  -4   3   4  111.49    3.61
   3  -3  -4    5.46    0.27
   3  -3  -4    5.79    0.28
   3  -3  -4    5.56    0.26
  -3   3   4    5.23    0.29
  -3   3   4    5.16    0.31
  -2   3   4   51.36    1.64
  -2   3   4   51.41    1.63
  -1   3   4   24.86    0.79
  -1   3   4   25.16    0.79
  -1   3   4   23.53    0.86
   0  -3  -4  203.12    6.08
   0  -3  -4  203.13    6.08
   0   3   4  198.74    6.33
   0   3   4  199.49    6.33
  -1  -3  -4   48.35    1.64
  -1  -3  -4   50.42    1.59
  -1  -3  -4   52.31    1.59
   1   3   4   50.63    1.68
   1   3   4   52.27    2.16
   1   3   4   51.97    1.67
  -2  -3  -4   54.55    2.34
  -2  -3  -4   54.05    1.74
  -2  -3  -4   53.76    1.73
  -2  -3  -4   54.74    1.80
   2   3   4   51.96    1.80
   2   3   4   55.65    2.32
   2   3   4   58.62    2.00
  -3  -3  -4   11.70    0.60
  -3  -3  -4   12.10    0.56
  -3  -3  -4   10.60    0.54
   3   3   4    9.76    0.58
  -4  -3  -4   22.68    0.95
  -4  -3  -4   26.32    1.03
  -4  -3  -4   23.68    0.94
   4   3   4   23.05    1.00
  -5  -3  -4    4.65    0.46
  -5  -3  -4    4.38    0.51
   5   3   4    4.51    0.51
  -6  -3  -4   18.23    0.99
   6   3   4   16.37    0.96
  -7  -3  -4    0.17    0.56
   7   3   4   -0.06    0.59
  -9   4   4   11.72    0.85
   8  -4  -4   13.63    0.82
  -8   4   4   13.93    0.90
   7  -4  -4   12.14    0.70
   7  -4  -4   11.61    0.73
  -7   4   4   11.17    0.77
   6  -4  -4    6.69    0.52
   6  -4  -4    6.45    0.43
   6  -4  -4    6.34    0.44
   6  -4  -4    7.43    0.45
  -6   4   4    7.48    0.49
   5  -4  -4   83.73    2.70
   5  -4  -4   85.76    2.93
   5  -4  -4   81.85    2.63
   5  -4  -4   82.17    2.62
  -5   4   4   84.43    2.74
   4  -4  -4    8.09    0.40
   4  -4  -4    7.54    0.41
   4  -4  -4    8.34    0.39
  -4   4   4    8.27    0.42
  -4   4   4    7.45    0.46
   3  -4  -4   61.85    1.91
   3  -4  -4   61.85    1.92
  -3   4   4   61.59    1.99
  -3   4   4   62.01    2.00
   2  -4  -4   56.13    1.75
   2  -4  -4   56.60    1.75
  -2   4   4   59.35    1.83
  -2   4   4   56.92    1.84
   1  -4  -4   88.22    2.76
   1  -4  -4   90.03    2.76
  -1   4   4   95.05    2.88
  -1   4   4   90.20    2.88
   0  -4  -4   42.71    1.36
   0  -4  -4   43.90    1.37
   0   4   4   44.21    1.43
   0   4   4   42.02    1.89
   0   4   4   44.21    1.44
   0   4   4   45.43    1.55
  -1  -4  -4   25.24    0.85
  -1  -4  -4   24.68    0.85
  -1  -4  -4   24.33    0.86
   1   4   4   26.91    0.98
   1   4   4   25.36    0.92
   1   4   4   25.81    1.19
   1   4   4   24.49    0.89
  -2  -4  -4    8.72    0.47
  -2  -4  -4    9.90    0.50
  -2  -4  -4    9.20    0.46
   2   4   4    8.55    0.50
   2   4   4    8.66    0.54
   2   4   4   10.11    0.66
  -3  -4  -4    0.38    0.30
  -3  -4  -4    0.32    0.26
  -3  -4  -4    0.63    0.29
   3   4   4    0.24    0.31
  -4  -4  -4   62.33    2.08
  -4  -4  -4   59.68    1.99
  -4  -4  -4   60.92    2.01
   4   4   4   59.03    2.09
  -5  -4  -4   29.46    1.16
  -5  -4  -4   29.30    1.26
   5   4   4   27.26    1.21
   6   4   4   -0.57    0.52
   7   4   4   -0.62    0.61
  -9   5   4    8.56    0.80
   8  -5  -4   -0.23    0.47
  -8   5   4    0.54    0.54
   7  -5  -4   12.69    0.76
  -7   5   4   12.74    0.83
   6  -5  -4   25.72    1.00
   6  -5  -4   25.38    1.01
  -6   5   4   27.12    1.08
   5  -5  -4   23.84    0.92
   5  -5  -4   25.67    0.91
  -5   5   4   25.30    0.99
   4  -5  -4   20.43    0.78
   4  -5  -4   22.14    0.75
   4  -5  -4   20.58    0.76
  -4   5   4   21.34    0.82
   3  -5  -4   63.58    1.99
   3  -5  -4   62.75    2.00
  -3   5   4   64.85    2.08
  -3   5   4   64.84    2.08
   2  -5  -4    0.14    0.15
   2  -5  -4    0.39    0.15
  -2   5   4    0.41    0.18
  -2   5   4    0.32    0.19
   1  -5  -4   60.91    1.90
   1  -5  -4   62.00    1.91
  -1   5   4   62.88    1.99
  -1   5   4   61.05    1.99
  -1   5   4   59.90    1.99
   0  -5  -4   16.41    0.62
   0  -5  -4   16.33    0.60
   0   5   4   16.76    0.65
   0   5   4   15.93    0.64
   0   5   4   16.43    0.88
   0   5   4   16.85    0.65
  -1  -5  -4    9.74    0.48
  -1  -5  -4    9.40    0.46
  -1  -5  -4    9.36    0.45
   1   5   4    8.69    0.67
   1   5   4   10.28    0.51
   1   5   4    9.87    0.52
   1   5   4    8.97    0.52
  -2  -5  -4    4.27    0.33
  -2  -5  -4    4.78    0.34
  -2  -5  -4    4.01    0.35
   2   5   4    4.80    0.49
   2   5   4    4.83    0.39
   2   5   4    4.17    0.38
  -3  -5  -4   71.80    2.28
  -3  -5  -4   66.27    2.19
  -3  -5  -4   67.34    2.21
   3   5   4   63.67    2.27
   3   5   4   69.70    2.89
  -4  -5  -4    1.87    0.41
   4   5   4    2.06    0.44
  -5  -5  -4    1.44    0.48
   5   5   4    0.98    0.49
   6   5   4    0.08    0.56
   8  -6  -4   12.03    0.83
  -8   6   4   12.04    0.82
   7  -6  -4    0.51    0.41
  -7   6   4    0.67    0.46
   6  -6  -4    5.13    0.46
   6  -6  -4    6.90    0.49
   6  -6  -4    6.58    0.49
  -6   6   4    5.24    0.52
   5  -6  -4    7.33    0.52
   5  -6  -4    6.92    0.45
  -5   6   4    7.44    0.49
   4  -6  -4   15.72    0.66
   4  -6  -4   14.26    0.64
  -4   6   4   15.15    0.69
   3  -6  -4   13.64    0.57
   3  -6  -4   13.86    0.58
  -3   6   4   13.35    0.62
   2  -6  -4   67.52    2.14
   2  -6  -4   68.95    2.13
  -2   6   4   68.08    2.23
   1  -6  -4    1.20    0.25
   1  -6  -4    1.05    0.23
  -1   6   4    1.10    0.26
  -1   6   4    1.04    0.26
   0  -6  -4   41.52    1.34
   0  -6  -4   42.36    1.36
   0   6   4   41.07    1.47
   0   6   4   39.67    1.40
   0   6   4   39.87    1.85
  -1  -6  -4   51.07    1.74
  -1  -6  -4   55.16    1.74
   1   6   4   55.32    1.95
   1   6   4   53.84    1.82
   1   6   4   53.26    2.34
  -2  -6  -4    3.19    0.35
  -2  -6  -4    3.34    0.38
   2   6   4    3.88    0.50
   2   6   4    2.87    0.39
  -3  -6  -4   -0.24    0.34
  -3  -6  -4   -0.27    0.34
   3   6   4    0.59    0.46
   3   6   4    0.79    0.39
  -4  -6  -4    0.26    0.41
   4   6   4    0.20    0.46
  -5  -6  -4   18.94    0.97
   5   6   4   15.83    0.98
   6   6   4    0.41    0.55
   8  -7  -4    7.01    0.67
  -8   7   4    7.02    0.71
   7  -7  -4    3.49    0.51
  -7   7   4    2.81    0.57
   6  -7  -4    3.91    0.47
   6  -7  -4    4.72    0.47
  -6   7   4    5.48    0.55
   5  -7  -4   -0.19    0.33
   5  -7  -4    0.08    0.33
  -5   7   4    0.20    0.38
   4  -7  -4   15.76    0.74
   4  -7  -4   18.38    0.75
  -4   7   4   17.48    0.82
   3  -7  -4    5.71    0.39
   3  -7  -4    6.27    0.40
  -3   7   4    5.60    0.43
   2  -7  -4    0.03    0.25
   2  -7  -4   -0.06    0.27
  -2   7   4   -0.28    0.30
   1  -7  -4    0.89    0.27
   1  -7  -4    1.11    0.31
  -1   7   4    1.10    0.32
   0  -7  -4   41.54    1.36
   0  -7  -4   41.05    1.38
   0   7   4   40.05    1.84
   0   7   4   37.91    1.40
  -1  -7  -4    4.04    0.41
  -1  -7  -4    3.94    0.37
   1   7   4    3.60    0.54
   1   7   4    3.64    0.39
  -2  -7  -4    1.16    0.37
  -2  -7  -4    1.13    0.36
   2   7   4    1.66    0.42
   2   7   4    2.16    0.50
  -3  -7  -4    1.49    0.42
   3   7   4    0.89    0.44
   3   7   4    1.82    0.53
  -4  -7  -4    0.68    0.47
   4   7   4    1.02    0.50
   5   7   4    0.36    0.57
   7  -8  -4    0.76    0.51
  -7   8   4    1.10    0.55
   6  -8  -4    1.11    0.44
  -6   8   4   -0.12    0.50
   5  -8  -4    8.75    0.56
   5  -8  -4    8.59    0.57
  -5   8   4    8.79    0.62
   4  -8  -4    1.95    0.38
   4  -8  -4    1.59    0.37
  -4   8   4    1.26    0.41
   3  -8  -4    9.37    0.58
   3  -8  -4    9.23    0.59
  -3   8   4    8.81    0.56
   2  -8  -4   13.99    0.70
   2  -8  -4   14.62    0.67
  -2   8   4   13.54    0.74
   1  -8  -4   49.03    1.62
   1  -8  -4   45.65    1.56
  -1   8   4   46.02    1.66
   0  -8  -4   11.80    0.63
   0  -8  -4   11.08    0.70
   0   8   4   13.10    0.95
   0   8   4   11.89    0.71
   0   8   4   11.59    0.66
  -1  -8  -4    1.10    0.40
  -1  -8  -4    1.05    0.38
   1   8   4    0.53    0.39
   1   8   4    0.89    0.53
  -2  -8  -4    5.10    0.53
   2   8   4    4.98    0.65
   2   8   4    4.90    0.51
  -3  -8  -4    0.51    0.49
   3   8   4    0.08    0.57
   3   8   4    0.51    0.49
   4   8   4   -0.03    0.56
   6  -9  -4    3.83    0.56
  -6   9   4    3.45    0.61
   5  -9  -4    0.82    0.45
  -5   9   4    0.39    0.50
   4  -9  -4    0.58    0.43
   4  -9  -4    0.28    0.41
  -4   9   4    1.82    0.47
   3  -9  -4   12.11    0.73
   3  -9  -4   13.68    0.76
  -3   9   4   13.53    0.80
   2  -9  -4    1.44    0.38
   2  -9  -4    1.34    0.42
  -2   9   4    1.72    0.46
   1  -9  -4    4.34    0.45
   1  -9  -4    3.78    0.49
  -1   9   4    3.51    0.72
  -1   9   4    3.13    0.47
   0  -9  -4   -0.38    0.38
   0  -9  -4   -0.18    0.45
   0   9   4    0.00    0.44
   0   9   4    0.33    0.54
  -1  -9  -4    3.73    0.53
   1   9   4    4.57    0.67
   1   9   4    4.57    0.52
  -2  -9  -4    0.67    0.52
   2   9   4    0.90    0.60
   2   9   4    0.52    0.46
  -3  -9  -4    1.91    0.59
   3   9   4    1.28    0.52
   4 -10  -4    6.43    0.61
  -4  10   4    6.27    0.66
   3 -10  -4    3.26    0.55
  -3  10   4    3.64    0.58
   2 -10  -4    1.77    0.52
  -2  10   4    2.21    0.52
   1 -10  -4    0.36    0.50
  -1  10   4    0.84    0.50
   0 -10  -4    3.72    0.59
   0  10   4    3.45    0.57
   1  10  -5    2.05    0.63
  -1 -10   5    2.93    0.65
  -1 -10   5    1.93    0.72
   0  10  -5   -0.25    0.65
   0 -10   5    0.08    0.61
   0 -10   5    1.82    0.69
  -1  10  -5    2.02    0.63
   1 -10   5    1.82    0.67
   1 -10   5    1.54    0.59
  -2  10  -5   -0.12    0.67
   2 -10   5    1.32    0.64
   2 -10   5   -0.10    0.58
   4   9  -5    0.68    0.66
   4   9  -5   -0.30    0.65
  -4  -9   5    0.78    0.63
   3   9  -5    5.24    0.72
  -3  -9   5    5.15    0.80
  -3  -9   5    3.72    0.69
   2   9  -5    0.38    0.58
  -2  -9   5    0.11    0.60
  -2  -9   5    0.68    0.54
   1   9  -5    1.31    0.59
  -1  -9   5    0.95    0.62
  -1  -9   5   -0.78    0.50
   0   9  -5   -0.02    0.53
   0  -9   5    1.52    0.62
   0  -9   5    1.79    0.57
  -1   9  -5    8.91    0.77
   1  -9   5    8.79    0.77
   1  -9   5    8.78    0.70
  -2   9  -5   -0.02    0.55
   2  -9   5    0.32    0.57
   2  -9   5    0.36    0.52
  -3   9  -5    0.43    0.59
   3  -9   5    1.64    0.62
   3  -9   5    0.66    0.62
  -4   9  -5   -0.37    0.66
   4  -9   5    0.14    0.61
   4  -9   5    0.05    0.66
   5   8  -5   -0.34    0.57
  -5  -8   5    0.80    0.62
   4   8  -5    0.31    0.59
   4   8  -5    1.35    0.60
  -4  -8   5    0.41    0.59
  -4  -8   5    0.81    0.63
   3   8  -5   -0.48    0.50
  -3  -8   5    0.82    0.59
  -3  -8   5    0.97    0.57
   2   8  -5   -0.25    0.51
  -2  -8   5    0.09    0.57
  -2  -8   5   -0.25    0.48
   1   8  -5    8.46    0.67
  -1  -8   5   10.81    0.80
  -1  -8   5    8.99    0.68
   0   8  -5    8.04    0.67
   0  -8   5   10.08    0.77
   0  -8   5    9.58    0.67
  -1   8  -5    2.75    0.56
   1  -8   5    1.34    0.46
   1  -8   5    1.53    0.51
  -2   8  -5    1.04    0.56
   2  -8   5    0.50    0.49
   2  -8   5    1.00    0.48
  -3   8  -5    1.34    0.60
   3  -8   5    1.69    0.58
   3  -8   5    1.80    0.53
  -4   8  -5    0.77    0.58
   4  -8   5    0.59    0.57
   4  -8   5    0.73    0.57
  -5   8  -5    2.34    0.68
   5  -8   5    1.43    0.64
   5  -8   5    1.67    0.64
   6   7  -5    1.83    0.63
  -6  -7   5    2.69    0.69
   5   7  -5    1.30    0.57
  -5  -7   5    0.82    0.62
  -5  -7   5    0.44    0.59
   4   7  -5   -0.16    0.50
   4   7  -5   -0.13    0.51
  -4  -7   5   -0.91    0.52
  -4  -7   5    0.21    0.55
   3   7  -5    0.08    0.44
   3   7  -5    0.31    0.44
  -3  -7   5    0.43    0.50
  -3  -7   5   -0.31    0.47
   2   7  -5    5.83    0.58
  -2  -7   5    5.04    0.59
  -2  -7   5    6.21    0.55
   1   7  -5    0.22    0.45
  -1  -7   5   -0.57    0.38
  -1  -7   5    0.60    0.45
   0   7  -5   13.84    0.81
   0  -7   5   14.61    0.84
   0  -7   5   14.58    0.90
  -1   7  -5    0.52    0.43
   1  -7   5    0.35    0.46
   1  -7   5    0.27    0.44
  -2   7  -5   18.90    0.98
   2  -7   5   16.11    0.87
   2  -7   5   16.09    0.93
  -3   7  -5   -0.09    0.51
   3  -7   5    0.86    0.46
   3  -7   5    0.22    0.50
  -4   7  -5    1.75    0.59
   4  -7   5    1.18    0.53
   4  -7   5    2.04    0.56
  -5   7  -5    0.43    0.58
   5  -7   5    0.07    0.62
  -6   7  -5    4.15    0.79
   6  -7   5    5.06    0.81
   7   6  -5    8.90    0.75
  -7  -6   5    9.64    0.85
   6   6  -5    0.08    0.54
  -6  -6   5   -1.01    0.57
  -6  -6   5   -0.35    0.63
   5   6  -5   -0.32    0.48
  -5  -6   5   -0.32    0.47
  -5  -6   5   -0.61    0.50
   4   6  -5    1.47    0.44
  -4  -6   5    3.31    0.55
  -4  -6   5    1.80    0.46
   3   6  -5    4.08    0.47
   3   6  -5    4.33    0.47
  -3  -6   5    4.23    0.49
  -3  -6   5    4.68    0.53
   2   6  -5    0.13    0.37
  -2  -6   5   -0.03    0.37
  -2  -6   5    1.09    0.45
   1   6  -5    9.34    0.63
  -1  -6   5    9.62    0.74
  -1  -6   5   10.15    0.70
   0   6  -5    1.55    0.39
   0  -6   5    1.68    0.40
   0  -6   5    1.59    0.44
  -1   6  -5   21.56    0.94
   1  -6   5   20.57    0.91
   1  -6   5   20.36    0.99
  -2   6  -5   39.73    1.51
   2  -6   5   41.33    1.66
   2  -6   5   40.43    1.49
  -3   6  -5    0.17    0.43
   3  -6   5    0.32    0.45
   3  -6   5   -0.22    0.40
  -4   6  -5    1.99    0.52
   4  -6   5    2.94    0.52
  -5   6  -5   -0.11    0.58
   5  -6   5    0.52    0.58
  -6   6  -5    8.27    0.82
   6  -6   5    7.80    0.82
  -7   6  -5    0.00    0.69
   7  -6   5   -0.13    0.77
   8   5  -5    0.23    0.62
  -8  -5   5    0.01    0.62
   7   5  -5    2.00    0.58
  -7  -5   5    2.41    0.64
  -7  -5   5    0.87    0.67
   6   5  -5    0.11    0.48
  -6  -5   5    0.28    0.54
  -6  -5   5    0.10    0.54
   5   5  -5   21.62    0.98
  -5  -5   5   21.35    1.05
  -5  -5   5   20.16    1.11
   4   5  -5    7.32    0.53
  -4  -5   5    7.64    0.58
  -4  -5   5    8.46    0.66
   3   5  -5   34.57    1.27
   3   5  -5   31.59    1.17
   3   5  -5   33.56    1.27
  -3  -5   5   32.69    1.26
  -3  -5   5   30.44    1.36
   2   5  -5    0.31    0.19
   2   5  -5    0.44    0.34
   2   5  -5    0.13    0.30
   2   5  -5    0.60    0.30
  -2  -5   5   -0.05    0.36
  -2  -5   5    0.61    0.32
  -2  -5   5    0.24    0.31
   1   5  -5   16.49    0.75
   1   5  -5   16.53    0.71
   1   5  -5   15.70    0.79
  -1  -5   5   17.64    0.79
  -1  -5   5   15.51    0.83
  -1  -5   5   16.57    0.76
   0   5  -5    6.45    0.44
   0   5  -5    5.76    0.45
   0   5  -5    6.28    0.41
   0  -5   5    5.05    0.42
   0  -5   5    6.21    0.43
   0  -5   5    5.63    0.48
  -1   5  -5   53.96    1.90
  -1   5  -5   54.21    1.84
  -1   5  -5   53.80    1.84
   1  -5   5   56.01    1.85
   1  -5   5   54.81    2.09
   1  -5   5   56.42    1.90
  -2   5  -5    1.45    0.35
  -2   5  -5    1.01    0.38
   2  -5   5    0.50    0.34
   2  -5   5    0.94    0.37
  -3   5  -5   11.48    0.79
   3  -5   5   14.38    0.79
  -4   5  -5   13.10    0.82
   4  -5   5   14.98    0.81
  -5   5  -5    2.67    0.55
   5  -5   5    4.11    0.61
  -6   5  -5    0.77    0.62
   6  -5   5    0.77    0.64
  -7   5  -5    0.27    0.64
   7  -5   5    0.22    0.71
   8   4  -5    0.61    0.56
  -8  -4   5    1.19    0.60
  -8  -4   5   -0.07    0.62
   7   4  -5   16.49    1.03
  -7  -4   5   17.15    1.10
  -7  -4   5   16.01    1.03
   6   4  -5   21.75    1.06
  -6  -4   5   21.98    1.07
  -6  -4   5   20.38    1.09
   5   4  -5    6.99    0.47
   5   4  -5    6.98    0.53
  -5  -4   5    6.17    0.60
  -5  -4   5    6.39    0.56
   4   4  -5   17.88    0.78
   4   4  -5   18.59    0.84
  -4  -4   5   15.75    0.87
  -4  -4   5   17.78    0.81
   3   4  -5   21.91    0.87
   3   4  -5   21.28    0.91
   3   4  -5   21.64    0.86
  -3  -4   5   23.67    0.89
  -3  -4   5   20.29    0.97
  -3  -4   5   20.84    0.87
   2   4  -5   11.19    0.58
   2   4  -5   12.44    0.57
   2   4  -5   12.35    0.65
   2   4  -5   12.26    0.60
  -2  -4   5   11.96    0.60
  -2  -4   5   12.57    0.61
  -2  -4   5   11.06    0.67
   1   4  -5   56.77    1.86
   1   4  -5   56.98    1.94
   1   4  -5   58.84    1.87
  -1  -4   5   58.90    1.87
  -1  -4   5   55.17    2.12
  -1  -4   5   55.72    1.92
   0   4  -5   60.16    1.94
   0   4  -5   57.38    2.00
   0   4  -5   61.25    1.94
   0  -4   5   60.04    1.94
   0  -4   5   58.08    2.00
  -1   4  -5    0.80    0.26
  -1   4  -5    0.72    0.32
  -1   4  -5    0.77    0.28
   1  -4   5    0.65    0.28
   1  -4   5    1.20    0.27
   1  -4   5    0.63    0.33
  -2   4  -5    0.39    0.27
  -2   4  -5    0.35    0.33
  -2   4  -5    0.17    0.29
   2  -4   5    0.26    0.27
   2  -4   5   -0.20    0.32
  -3   4  -5   52.63    1.85
  -3   4  -5   53.27    1.77
   3  -4   5   50.04    1.82
  -4   4  -5    1.25    0.42
   4  -4   5    1.00    0.44
  -5   4  -5    0.46    0.45
   5  -4   5    0.15    0.46
  -6   4  -5    1.61    0.55
   6  -4   5    1.87    0.60
  -7   4  -5   11.70    0.88
   7  -4   5   13.72    1.00
   9   3  -5    0.71    0.60
  -9  -3   5    2.16    0.71
   8   3  -5   -0.18    0.49
  -8  -3   5    1.24    0.59
  -8  -3   5    0.54    0.60
   7   3  -5    3.09    0.50
  -7  -3   5    0.87    0.55
  -7  -3   5    1.49    0.54
   6   3  -5   17.81    0.90
   6   3  -5   20.76    0.88
  -6  -3   5   19.72    0.92
  -6  -3   5   18.23    0.98
   5   3  -5   18.74    0.86
   5   3  -5   18.67    0.83
  -5  -3   5   19.46    0.94
  -5  -3   5   19.70    0.87
   4   3  -5   41.21    1.41
   4   3  -5   38.49    1.35
   4   3  -5   39.68    1.37
  -4  -3   5   39.37    1.43
  -4  -3   5   38.37    1.56
   3   3  -5   24.63    0.93
   3   3  -5   25.43    0.93
   3   3  -5   25.08    0.98
  -3  -3   5   27.83    1.10
  -3  -3   5   24.42    0.95
   2   3  -5  122.47    4.85
   2   3  -5  121.03    3.73
   2   3  -5  119.60    3.88
   2   3  -5  122.38    3.73
  -2  -3   5  115.31    4.23
  -2  -3   5  120.88    3.87
   1   3  -5   27.42    1.02
   1   3  -5   28.89    0.98
   1   3  -5   26.33    0.96
   1   3  -5   27.73    1.21
  -1  -3   5   29.00    1.02
   0   3  -5   13.66    0.63
   0   3  -5   13.81    0.60
   0   3  -5   13.54    0.60
   0  -3   5   13.86    0.68
   0  -3   5   14.11    0.62
   0  -3   5   13.67    0.58
  -1   3  -5    8.97    0.50
  -1   3  -5    8.05    0.48
  -1   3  -5    8.18    0.49
   1  -3   5    8.96    0.51
   1  -3   5    8.87    0.47
  -2   3  -5   88.67    2.95
  -2   3  -5   94.12    2.85
  -2   3  -5   90.39    2.84
   2  -3   5   88.52    2.94
   2  -3   5   88.63    2.84
  -3   3  -5    9.42    0.65
  -3   3  -5   10.58    0.60
  -3   3  -5    9.82    0.55
   3  -3   5   10.57    0.65
   3  -3   5    9.56    0.58
  -4   3  -5    7.52    0.57
  -4   3  -5    9.04    0.53
   4  -3   5    7.84    0.54
  -5   3  -5   21.66    1.08
   5  -3   5   23.80    1.11
  -6   3  -5    4.25    0.61
   6  -3   5    4.45    0.63
  -7   3  -5    4.27    0.70
   7  -3   5    3.48    0.66
  -8   3  -5    0.51    0.68
   8  -3   5    1.18    0.78
   9   2  -5    5.79    0.69
  -9  -2   5    6.61    0.77
   8   2  -5   -0.43    0.47
  -8  -2   5    0.52    0.56
   7   2  -5    5.59    0.52
  -7  -2   5    5.02    0.59
  -7  -2   5    4.95    0.57
   6   2  -5    2.33    0.37
   6   2  -5    1.26    0.38
  -6  -2   5    1.39    0.45
  -6  -2   5    1.42    0.45
   5   2  -5   38.65    1.30
   5   2  -5   39.10    1.36
   5   2  -5   38.79    1.30
  -5  -2   5   36.85    1.55
  -5  -2   5   35.48    1.48
  -5  -2   5   36.03    1.35
   4   2  -5   93.88    2.88
   4   2  -5   92.42    2.97
   4   2  -5   91.38    2.86
  -4  -2   5   91.88    2.98
  -4  -2   5   90.99    3.26
  -4  -2   5   87.92    3.68
   3   2  -5  124.12    3.93
   3   2  -5  123.79    3.78
   3   2  -5  123.30    3.79
  -3  -2   5  123.63    3.94
  -3  -2   5  118.22    4.30
   2   2  -5   21.40    0.89
   2   2  -5   21.44    0.77
   2   2  -5   22.76    0.93
   2   2  -5   21.26    0.80
   2   2  -5   20.53    0.76
  -2  -2   5   20.80    0.80
  -2  -2   5   20.70    0.89
   1   2  -5   22.90    0.84
   1   2  -5   21.95    0.80
   1   2  -5   24.27    1.02
   1   2  -5   23.90    0.81
  -1  -2   5   22.33    0.84
  -1  -2   5   22.52    0.94
   0   2  -5   76.23    2.49
   0   2  -5   78.01    2.40
   0   2  -5   74.88    3.17
   0   2  -5   78.42    2.41
   0  -2   5   76.76    2.49
   0  -2   5   75.96    2.74
  -1   2  -5  178.99    5.38
  -1   2  -5  176.02    5.59
  -1   2  -5  173.53    5.39
   1  -2   5  174.14    5.59
  -2   2  -5   24.13    0.87
  -2   2  -5   23.09    0.91
  -2   2  -5   23.74    0.88
   2  -2   5   23.43    0.91
  -3   2  -5   17.45    0.75
  -3   2  -5   18.20    0.80
  -3   2  -5   17.01    0.75
   3  -2   5   17.92    0.80
  -4   2  -5   52.49    1.80
  -4   2  -5   54.05    1.83
  -4   2  -5   56.45    1.91
   4  -2   5   54.57    1.91
  -5   2  -5    7.72    0.60
  -5   2  -5    9.80    0.68
   5  -2   5    9.35    0.64
  -6   2  -5   16.70    0.92
   6  -2   5   16.78    0.99
  -7   2  -5    1.87    0.64
   7  -2   5    2.54    0.67
  -8   2  -5    2.81    0.70
   8  -2   5    2.76    0.78
   9   1  -5    5.75    0.66
  -9  -1   5    6.06    0.68
   8   1  -5   12.96    0.85
  -8  -1   5   10.01    0.73
   7   1  -5    9.34    0.59
   7   1  -5    8.63    0.57
  -7  -1   5    7.36    0.64
  -7  -1   5    8.28    0.63
   6   1  -5    1.87    0.33
   6   1  -5    1.42    0.33
   6   1  -5    1.80    0.35
  -6  -1   5    1.44    0.38
  -6  -1   5    1.59    0.42
   5   1  -5  121.37    3.68
   5   1  -5  118.70    3.65
   5   1  -5  120.27    3.80
  -5  -1   5  114.39    4.16
  -5  -1   5  113.93    3.82
   4   1  -5    2.62    0.27
   4   1  -5    2.34    0.27
   4   1  -5    2.31    0.24
  -4  -1   5    2.31    0.26
  -4  -1   5    2.37    0.30
  -4  -1   5    2.46    0.34
   3   1  -5    0.36    0.22
   3   1  -5    0.44    0.19
   3   1  -5    0.60    0.20
   3   1  -5    0.84    0.19
  -3  -1   5    0.27    0.23
  -3  -1   5    0.48    0.22
  -3  -1   5    0.57    0.19
   2   1  -5   53.66    1.88
   2   1  -5   50.78    1.69
   2   1  -5   50.44    1.62
   2   1  -5   52.09    1.62
  -2  -1   5   51.37    2.12
  -2  -1   5   50.43    1.68
  -2  -1   5   51.82    1.87
   1   1  -5   65.70    2.14
   1   1  -5   66.64    2.22
   1   1  -5   69.97    2.83
   1   1  -5   66.67    2.14
  -1  -1   5   73.81    2.24
  -1  -1   5   72.46    2.24
  -1  -1   5   68.69    2.23
  -1  -1   5   66.92    2.46
   0   1  -5    3.08    0.30
   0   1  -5    2.89    0.22
   0   1  -5    3.44    0.22
   0   1  -5    2.87    0.23
   0  -1   5    3.38    0.23
  -1   1  -5   11.07    0.48
  -1   1  -5   10.35    0.47
  -1   1  -5   10.32    0.65
  -1   1  -5   11.61    0.49
   1  -1   5   11.16    0.50
  -2   1  -5   51.49    1.65
  -2   1  -5   51.53    1.59
  -2   1  -5   41.19    2.11
  -2   1  -5   51.73    1.60
   2  -1   5   49.28    1.65
  -3   1  -5  160.34    4.92
  -3   1  -5  162.40    4.92
  -3   1  -5  158.80    5.10
   3  -1   5  155.80    5.10
  -4   1  -5   10.42    0.61
  -4   1  -5   13.48    0.66
  -4   1  -5   13.89    0.71
   4  -1   5   12.76    0.66
  -5   1  -5    0.36    0.40
  -5   1  -5    1.10    0.37
   5  -1   5    0.15    0.43
  -6   1  -5    6.89    0.63
   6  -1   5    6.51    0.65
  -7   1  -5    1.72    0.61
   7  -1   5    0.87    0.63
  -8   1  -5    2.83    0.68
   8  -1   5    2.62    0.78
  -9   0   5    0.89    0.61
   8   0  -5    7.87    0.60
  -8   0   5    5.79    0.65
   7   0  -5   12.92    0.76
   7   0  -5   14.05    0.72
  -7   0   5   12.57    0.80
   6   0  -5   40.35    1.37
   6   0  -5   39.00    1.34
   6   0  -5   39.47    1.42
  -6   0   5   38.17    1.55
  -6   0   5   38.38    1.44
   5   0  -5    3.58    0.29
   5   0  -5    4.32    0.34
   5   0  -5    3.50    0.30
  -5   0   5    3.85    0.38
  -5   0   5    3.18    0.36
   4   0  -5    7.51    0.44
   4   0  -5    8.13    0.43
   4   0  -5    8.38    0.39
   4   0  -5    8.11    0.51
  -4   0   5    7.34    0.46
  -4   0   5    8.50    0.50
   3   0  -5  108.63    3.43
   3   0  -5  110.98    3.42
   3   0  -5  112.46    3.56
   3   0  -5  112.17    3.90
  -3   0   5  122.13    3.57
  -3   0   5  107.73    3.56
  -3   0   5  112.23    4.54
  -3   0   5  107.63    3.89
   2   0  -5  263.12    8.17
   2   0  -5  261.04    8.48
   2   0  -5  282.18    9.26
   2   0  -5  270.49    8.17
  -2   0   5  262.76    8.48
  -2   0   5  269.71   10.82
  -2   0   5  261.13    9.24
  -2   0   5  287.27    8.49
   1   0  -5    1.12    0.13
   1   0  -5    1.31    0.14
   1   0  -5    1.15    0.13
   1   0  -5    1.51    0.23
  -1   0   5    1.39    0.16
  -1   0   5    1.28    0.23
  -1   0   5    1.58    0.16
  -1   0   5    1.13    0.20
   0   0  -5  176.83    5.42
   0   0  -5  176.40    5.62
   0   0  -5  175.56    7.20
   0   0  -5  183.51    5.41
   0   0   5  172.19    7.19
   0   0   5  179.52    5.62
   0   0   5  182.95    5.63
  -1   0  -5  130.43    3.93
  -1   0  -5  130.02    3.92
  -1   0  -5  122.57    4.07
  -1   0  -5  131.91    3.93
  -1   0  -5  125.61    5.24
   1   0   5  129.26    4.08
   1   0   5  127.59    4.08
  -2   0  -5   24.20    0.84
  -2   0  -5   23.90    0.86
  -2   0  -5   22.98    0.83
  -2   0  -5   21.77    1.18
  -2   0  -5   23.74    0.84
   2   0   5   24.10    0.88
  -3   0  -5  162.88    5.20
  -3   0  -5  164.70    5.01
  -3   0  -5  163.52    5.01
   3   0   5  159.65    5.20
  -4   0  -5    3.50    0.37
  -4   0  -5    4.38    0.37
  -4   0  -5    4.09    0.40
   4   0   5    3.67    0.42
  -5   0  -5    9.05    0.56
  -5   0  -5    8.89    0.57
  -5   0  -5    9.10    0.60
   5   0   5    8.32    0.60
  -6   0  -5    1.11    0.45
   6   0   5    1.66    0.54
  -7   0  -5    2.45    0.61
   7   0   5    3.54    0.67
  -8   0  -5    0.48    0.68
   8   0   5    1.28    0.74
  -9   1   5    1.85    0.62
   8  -1  -5   35.92    1.34
  -8   1   5   33.46    1.38
   7  -1  -5   23.16    1.01
   7  -1  -5   22.64    0.93
   7  -1  -5   22.01    0.95
  -7   1   5   23.21    1.04
   6  -1  -5   -0.15    0.29
   6  -1  -5    0.08    0.29
   6  -1  -5   -0.19    0.28
  -6   1   5    0.52    0.35
   5  -1  -5   33.98    1.14
   5  -1  -5   34.32    1.19
   5  -1  -5   33.06    1.16
   5  -1  -5   35.54    1.33
  -5   1   5   34.88    1.33
  -5   1   5   34.00    1.25
   4  -1  -5   56.63    1.86
   4  -1  -5   59.39    2.07
   4  -1  -5   55.89    1.80
   4  -1  -5   55.77    1.81
  -4   1   5   56.61    2.06
  -4   1   5   62.26    1.89
  -4   1   5   55.42    1.90
   3  -1  -5    6.61    0.42
   3  -1  -5    6.93    0.32
   3  -1  -5    6.73    0.31
  -3   1   5    5.71    0.34
  -3   1   5    6.92    0.40
  -3   1   5    7.59    0.35
   2  -1  -5   53.12    1.71
   2  -1  -5   54.32    1.71
  -2   1   5   59.69    1.79
  -2   1   5   57.37    2.33
  -2   1   5   54.72    1.79
  -2   1   5   56.10    1.97
   1  -1  -5   41.19    1.25
   1  -1  -5   40.02    1.25
  -1   1   5   41.27    1.32
  -1   1   5   39.59    1.48
  -1   1   5   40.45    1.74
  -1   1   5   42.87    1.32
   0  -1  -5  187.15    5.47
   0  -1  -5  178.14    5.48
   0  -1  -5  173.82    7.30
   0  -1  -5  184.99    5.68
   0   1   5  183.64    5.69
   0   1   5  174.63    7.30
   0   1   5  181.71    5.69
  -1  -1  -5   89.84    2.78
  -1  -1  -5   93.15    3.74
  -1  -1  -5   91.41    2.89
  -1  -1  -5   92.68    2.78
   1   1   5   87.34    2.89
   1   1   5   87.96    2.89
  -2  -1  -5   64.27    1.98
  -2  -1  -5   63.12    2.05
  -2  -1  -5   61.00    1.97
  -2  -1  -5   62.56    2.68
   2   1   5   62.42    2.06
  -3  -1  -5   16.99    0.71
  -3  -1  -5   15.97    0.66
  -3  -1  -5   15.33    0.69
   3   1   5   16.42    0.73
  -4  -1  -5   56.86    1.91
  -4  -1  -5   60.44    1.93
  -4  -1  -5   57.98    2.00
   4   1   5   57.54    2.00
  -5  -1  -5    1.02    0.42
  -5  -1  -5    1.71    0.38
   5   1   5    1.55    0.46
  -6  -1  -5   13.95    0.91
   6   1   5   14.86    0.94
  -7  -1  -5    1.03    0.59
   7   1   5    0.05    0.56
  -9   2   5   24.43    1.25
   8  -2  -5    0.05    0.42
  -8   2   5   -0.02    0.50
   7  -2  -5    2.41    0.39
   7  -2  -5    1.55    0.38
   7  -2  -5    2.03    0.37
  -7   2   5    2.06    0.45
   6  -2  -5   16.97    0.73
   6  -2  -5   16.40    0.73
   6  -2  -5   16.92    0.72
  -6   2   5   15.95    0.78
   5  -2  -5  160.46    5.32
   5  -2  -5  152.31    4.87
   5  -2  -5  150.01    4.70
   5  -2  -5  155.48    4.71
  -5   2   5  148.38    4.90
   4  -2  -5    3.40    0.27
   4  -2  -5    2.85    0.23
   4  -2  -5    2.87    0.21
  -4   2   5    3.46    0.28
  -4   2   5    2.89    0.28
  -4   2   5    3.43    0.26
   3  -2  -5  103.65    3.43
   3  -2  -5   95.60    3.00
   3  -2  -5   97.45    3.01
  -3   2   5   98.26    3.42
  -3   2   5   93.80    3.14
  -3   2   5  104.32    3.14
  -2   2   5   87.80    2.89
  -2   2   5   96.62    2.89
  -2   2   5   90.71    3.16
  -2   2   5   91.33    3.77
  -1   2   5   50.21    1.81
  -1   2   5   50.51    1.62
  -1   2   5   51.25    2.16
  -1   2   5   52.79    1.62
   0  -2  -5   83.89    2.51
   0  -2  -5   80.53    2.51
   0   2   5   82.37    3.41
   0   2   5   82.77    2.62
   0   2   5   83.45    2.63
  -1  -2  -5    2.41    0.18
  -1  -2  -5    3.42    0.37
  -1  -2  -5    3.68    0.22
  -1  -2  -5    3.30    0.21
   1   2   5    3.39    0.24
   1   2   5    3.34    0.23
   1   2   5    2.90    0.35
  -2  -2  -5   47.00    1.49
  -2  -2  -5   44.12    1.43
  -2  -2  -5   41.43    1.42
   2   2   5   43.70    1.49
  -3  -2  -5    1.57    0.30
  -3  -2  -5    1.19    0.25
  -3  -2  -5    1.26    0.28
   3   2   5    1.39    0.31
  -4  -2  -5  145.64    4.59
  -4  -2  -5  151.36    4.77
  -4  -2  -5  144.81    4.58
   4   2   5  149.02    4.78
  -5  -2  -5   14.74    0.86
  -5  -2  -5   15.81    0.80
   5   2   5   15.48    0.86
  -6  -2  -5   -0.34    0.49
   6   2   5    0.85    0.54
   7   2   5    0.30    0.63
  -9   3   5    2.06    0.64
   8  -3  -5    0.78    0.45
  -8   3   5    0.60    0.51
   7  -3  -5   37.98    1.36
   7  -3  -5   36.18    1.32
  -7   3   5   36.32    1.44
   6  -3  -5    2.47    0.32
   6  -3  -5    1.95    0.31
   6  -3  -5    1.68    0.32
  -6   3   5    2.35    0.37
   5  -3  -5   30.30    1.15
   5  -3  -5   30.25    1.03
   5  -3  -5   29.22    1.03
   5  -3  -5   29.38    1.02
  -5   3   5   30.38    1.10
   4  -3  -5   37.42    1.32
   4  -3  -5   35.80    1.17
   4  -3  -5   36.81    1.16
  -4   3   5   35.67    1.22
  -4   3   5   35.40    1.23
   3  -3  -5  104.71    3.16
   3  -3  -5  104.37    3.15
  -3   3   5  103.29    3.30
  -3   3   5  103.07    3.29
  -2   3   5   11.77    0.44
  -1   3   5   52.14    1.82
  -1   3   5   52.02    2.22
   0  -3  -5   39.44    1.24
   0  -3  -5   39.85    1.24
   0   3   5   40.62    1.31
   0   3   5   40.21    1.30
   0   3   5   40.33    1.74
  -1  -3  -5   32.51    1.08
  -1  -3  -5   34.04    1.10
  -1  -3  -5   35.81    1.11
   1   3   5   33.38    1.15
   1   3   5   32.92    1.15
  -2  -3  -5   27.66    0.97
  -2  -3  -5   27.86    0.96
  -2  -3  -5   30.14    1.00
   2   3   5   28.46    1.32
   2   3   5   26.52    1.02
  -3  -3  -5   40.57    1.38
  -3  -3  -5   39.55    1.33
  -3  -3  -5   37.99    1.30
   3   3   5   36.75    1.37
  -4  -3  -5    5.57    0.44
  -4  -3  -5    5.90    0.45
  -4  -3  -5    6.01    0.47
   4   3   5    5.77    0.48
  -5  -3  -5    2.25    0.47
  -5  -3  -5    2.23    0.43
   5   3   5    1.97    0.50
   6   3   5   10.13    0.72
   7   3   5    7.48    0.77
  -9   4   5    1.87    0.65
   8  -4  -5   13.48    0.86
  -8   4   5   14.54    0.91
   7  -4  -5    1.05    0.39
   7  -4  -5    1.62    0.38
  -7   4   5    1.48    0.47
   6  -4  -5   19.36    0.80
   6  -4  -5   19.16    0.81
  -6   4   5   20.59    0.90
   5  -4  -5   13.36    0.60
   5  -4  -5   14.13    0.60
   5  -4  -5   14.38    0.62
  -5   4   5   13.75    0.65
   4  -4  -5   20.40    0.74
   4  -4  -5   21.05    0.73
   4  -4  -5   22.75    0.78
  -4   4   5   20.06    0.77
  -4   4   5   20.46    0.79
   3  -4  -5   89.83    2.72
   3  -4  -5   87.61    2.72
  -3   4   5   89.23    2.83
  -3   4   5   89.77    2.84
  -2   4   5   42.21    1.32
  -2   4   5   39.89    1.32
  -1   4   5   27.99    0.91
  -1   4   5   27.04    0.91
  -1   4   5   27.91    1.29
   0  -4  -5    0.85    0.14
   0  -4  -5    0.75    0.15
   0   4   5    1.12    0.18
   0   4   5    0.79    0.35
   0   4   5    0.77    0.20
   0   4   5    1.05    0.18
  -1  -4  -5   42.52    1.38
  -1  -4  -5   42.98    1.38
  -1  -4  -5   42.00    1.37
   1   4   5   43.05    1.90
   1   4   5   42.83    1.44
   1   4   5   40.73    1.45
   1   4   5   45.12    1.58
  -2  -4  -5   19.04    0.74
  -2  -4  -5   20.73    0.77
  -2  -4  -5   19.81    0.75
   2   4   5   18.53    0.79
   2   4   5   19.84    0.89
   2   4   5   20.84    1.07
  -3  -4  -5    0.29    0.33
  -3  -4  -5    0.09    0.27
  -3  -4  -5   -0.58    0.30
   3   4   5   -0.08    0.32
  -4  -4  -5    5.83    0.44
  -4  -4  -5    3.88    0.45
   4   4   5    4.58    0.48
  -5  -4  -5   26.82    1.09
   5   4   5   23.69    1.14
   6   4   5   -0.29    0.57
  -9   5   5    3.15    0.66
   8  -5  -5   27.11    1.13
  -8   5   5   27.18    1.24
   7  -5  -5    2.14    0.42
   7  -5  -5    2.66    0.41
  -7   5   5    2.22    0.49
   6  -5  -5   18.44    0.80
   6  -5  -5   18.36    0.82
  -6   5   5   19.18    0.87
   5  -5  -5    7.88    0.47
   5  -5  -5    7.72    0.47
  -5   5   5    8.79    0.53
   4  -5  -5   27.19    0.96
   4  -5  -5   27.67    0.94
  -4   5   5   29.17    1.01
   3  -5  -5   12.87    0.50
   3  -5  -5   13.47    0.50
  -3   5   5   14.07    0.54
  -3   5   5   12.97    0.54
   2  -5  -5    2.99    0.19
   2  -5  -5    3.72    0.24
  -2   5   5    3.04    0.24
  -2   5   5    3.79    0.23
   1  -5  -5    1.98    0.17
   1  -5  -5    2.35    0.20
  -1   5   5    2.18    0.21
  -1   5   5    2.06    0.20
  -1   5   5    1.42    0.40
   0  -5  -5  147.01    4.50
   0  -5  -5  144.03    4.51
   0   5   5  153.29    5.08
   0   5   5  148.27    6.06
   0   5   5  146.54    4.69
   0   5   5  147.54    4.70
  -1  -5  -5    1.45    0.25
  -1  -5  -5    1.21    0.25
   1   5   5    1.03    0.42
   1   5   5    1.76    0.27
   1   5   5    0.99    0.27
  -2  -5  -5    8.09    0.50
  -2  -5  -5    7.22    0.49
   2   5   5    8.19    0.67
   2   5   5    7.63    0.47
  -3  -5  -5    0.10    0.30
  -3  -5  -5    0.52    0.34
   3   5   5    0.32    0.38
  -4  -5  -5   10.52    0.67
   4   5   5    8.92    0.64
  -5  -5  -5    5.54    0.56
   5   5   5    5.49    0.61
   6   5   5    0.55    0.59
   8  -6  -5    0.18    0.49
  -8   6   5    1.19    0.57
   7  -6  -5    8.96    0.59
  -7   6   5    7.92    0.64
   6  -6  -5   15.18    0.75
   6  -6  -5   15.54    0.73
   6  -6  -5   15.29    0.75
  -6   6   5   15.64    0.85
   5  -6  -5    2.88    0.35
   5  -6  -5    3.47    0.34
  -5   6   5    3.09    0.39
   4  -6  -5    4.70    0.36
   4  -6  -5    5.41    0.35
  -4   6   5    5.88    0.38
   3  -6  -5    1.56    0.24
   3  -6  -5    1.59    0.23
  -3   6   5    1.83    0.26
   2  -6  -5  107.19    3.32
   2  -6  -5  108.39    3.33
  -2   6   5  108.94    3.47
   1  -6  -5   23.52    0.84
   1  -6  -5   23.70    0.82
  -1   6   5   23.95    1.23
  -1   6   5   24.14    0.88
  -1   6   5   23.28    0.87
   0  -6  -5    7.21    0.43
   0  -6  -5    7.00    0.44
   0   6   5    7.66    0.64
   0   6   5    6.56    0.44
  -1  -6  -5    1.41    0.29
  -1  -6  -5    1.84    0.29
   1   6   5    1.98    0.31
   1   6   5    1.66    0.44
  -2  -6  -5   40.38    1.37
  -2  -6  -5   38.30    1.38
   2   6   5   38.66    1.45
   2   6   5   42.89    1.89
  -3  -6  -5    0.60    0.34
  -3  -6  -5   -0.48    0.37
   3   6   5    0.24    0.41
   3   6   5   -0.20    0.52
  -4  -6  -5    0.32    0.42
   4   6   5    0.29    0.46
  -5  -6  -5    0.86    0.53
   5   6   5    0.75    0.57
   8  -7  -5    0.13    0.52
   7  -7  -5   16.02    0.86
  -7   7   5   15.61    0.95
   6  -7  -5    1.38    0.41
   6  -7  -5    1.78    0.41
  -6   7   5    1.94    0.48
   5  -7  -5    1.94    0.36
   5  -7  -5    1.19    0.36
  -5   7   5    2.08    0.41
   4  -7  -5    6.06    0.42
   4  -7  -5    6.72    0.47
  -4   7   5    6.61    0.46
   3  -7  -5    8.44    0.48
   3  -7  -5    7.83    0.50
  -3   7   5    9.45    0.56
   2  -7  -5    1.53    0.26
   2  -7  -5    1.09    0.29
  -2   7   5    1.57    0.31
   1  -7  -5   11.85    0.55
   1  -7  -5   12.41    0.61
  -1   7   5   11.73    0.62
  -1   7   5   12.34    0.89
   0  -7  -5    0.26    0.31
   0  -7  -5    0.23    0.29
   0   7   5    0.23    0.30
   0   7   5    0.32    0.47
  -1  -7  -5   29.74    1.12
  -1  -7  -5   30.38    1.09
   1   7   5   32.09    1.55
   1   7   5   29.10    1.14
  -2  -7  -5    1.16    0.38
  -2  -7  -5    0.85    0.35
   2   7   5    0.90    0.53
   2   7   5    0.46    0.41
  -3  -7  -5    0.90    0.44
   3   7   5    1.74    0.58
   3   7   5    1.39    0.45
  -4  -7  -5    3.52    0.56
   4   7   5    2.63    0.55
   7  -8  -5    0.29    0.48
  -7   8   5   -0.25    0.53
   6  -8  -5   -0.15    0.42
  -6   8   5   -0.11    0.47
   5  -8  -5    9.52    0.64
   5  -8  -5    9.56    0.68
  -5   8   5   12.00    0.76
   4  -8  -5    5.89    0.46
   4  -8  -5    6.22    0.46
  -4   8   5    5.87    0.48
   3  -8  -5    4.03    0.41
   3  -8  -5    4.21    0.39
  -3   8   5    4.95    0.44
   2  -8  -5    4.38    0.43
   2  -8  -5    4.70    0.38
  -2   8   5    4.31    0.43
   1  -8  -5   15.36    0.74
   1  -8  -5   15.46    0.69
  -1   8   5   15.59    1.11
  -1   8   5   14.79    0.77
   0  -8  -5    2.77    0.39
   0  -8  -5    2.96    0.42
   0   8   5    2.83    0.41
   0   8   5    2.26    0.42
   0   8   5    3.25    0.60
  -1  -8  -5    6.01    0.51
  -1  -8  -5    6.75    0.49
   1   8   5    6.70    0.73
   1   8   5    6.47    0.52
  -2  -8  -5    0.30    0.44
   2   8   5    0.99    0.44
   2   8   5    1.37    0.59
  -3  -8  -5    1.81    0.52
   3   8   5    2.12    0.66
   3   8   5    1.62    0.55
   5  -9  -5    0.20    0.42
  -5   9   5   -0.43    0.47
   4  -9  -5    1.38    0.43
   4  -9  -5    0.65    0.43
  -4   9   5    1.03    0.45
   3  -9  -5    0.45    0.38
   3  -9  -5   -0.53    0.40
  -3   9   5   -0.03    0.41
   2  -9  -5    5.55    0.52
   2  -9  -5    5.08    0.45
  -2   9   5    5.59    0.51
   1  -9  -5    3.02    0.49
   1  -9  -5    3.19    0.43
  -1   9   5    3.60    0.47
  -1   9   5    3.13    0.72
   0  -9  -5    4.05    0.45
   0  -9  -5    4.33    0.51
   0   9   5    4.36    0.52
   0   9   5    4.67    0.71
   0   9   5    4.05    0.49
  -1  -9  -5    0.30    0.48
   1   9   5   -0.16    0.58
   1   9   5   -0.36    0.43
  -2  -9  -5    2.65    0.54
   2   9   5    2.19    0.70
   2   9   5    0.81    0.51
   3 -10  -5    0.46    0.48
   2 -10  -5    1.19    0.52
  -2  10   5    2.40    0.51
   1 -10  -5    0.86    0.52
  -1  10   5    0.72    0.49
   3   9  -6   -0.27    0.64
  -3  -9   6    0.45    0.60
   2   9  -6    1.92    0.65
  -2  -9   6    3.47    0.69
  -2  -9   6    2.67    0.66
   1   9  -6    1.16    0.58
  -1  -9   6    3.13    0.59
  -1  -9   6    2.51    0.70
   0   9  -6    0.49    0.60
   0  -9   6    0.72    0.64
   0  -9   6    0.19    0.58
  -1   9  -6    0.46    0.57
   1  -9   6    0.52    0.55
   1  -9   6   -0.15    0.58
  -2   9  -6    2.42    0.67
   2  -9   6    1.75    0.65
   2  -9   6    2.88    0.65
  -3   9  -6    0.90    0.68
   3  -9   6    0.79    0.64
   3  -9   6    1.40    0.62
   5   8  -6    0.19    0.62
   5   8  -6   -0.20    0.64
  -5  -8   6   -0.15    0.67
   4   8  -6    0.30    0.58
   4   8  -6    1.50    0.63
  -4  -8   6    0.87    0.65
  -4  -8   6    0.50    0.65
   3   8  -6    0.39    0.52
  -3  -8   6    0.51    0.61
  -3  -8   6   -0.07    0.60
   2   8  -6   -0.04    0.48
  -2  -8   6    1.04    0.59
  -2  -8   6    0.70    0.52
   1   8  -6    1.04    0.54
  -1  -8   6    0.24    0.48
  -1  -8   6    0.31    0.55
   0   8  -6    5.13    0.61
   0  -8   6    4.38    0.63
   0  -8   6    4.47    0.60
  -1   8  -6    0.03    0.52
   1  -8   6    0.56    0.49
   1  -8   6    0.27    0.56
  -2   8  -6    3.13    0.63
   2  -8   6    3.15    0.60
   2  -8   6    2.85    0.60
  -3   8  -6    0.12    0.62
   3  -8   6   -0.03    0.54
   3  -8   6    0.59    0.60
  -4   8  -6   -1.11    0.63
   4  -8   6    0.32    0.61
   4  -8   6   -0.02    0.66
   6   7  -6   -0.53    0.61
  -6  -7   6    0.07    0.67
   5   7  -6    8.65    0.72
   5   7  -6    8.77    0.72
  -5  -7   6    8.29    0.83
  -5  -7   6    8.29    0.78
   4   7  -6   -0.30    0.53
   4   7  -6    0.10    0.53
  -4  -7   6    0.81    0.58
  -4  -7   6   -0.30    0.55
   3   7  -6    0.33    0.47
  -3  -7   6    0.47    0.52
  -3  -7   6    0.24    0.54
   2   7  -6    0.25    0.42
  -2  -7   6    0.26    0.45
  -2  -7   6    0.53    0.52
   1   7  -6    6.71    0.57
  -1  -7   6    7.06    0.68
  -1  -7   6    5.71    0.55
   0   7  -6    1.23    0.49
   0  -7   6    0.26    0.51
   0  -7   6    0.18    0.41
  -1   7  -6   10.35    0.77
   1  -7   6    9.63    0.78
   1  -7   6   11.32    0.74
  -2   7  -6    0.18    0.51
   2  -7   6    0.82    0.47
   2  -7   6    1.03    0.48
  -3   7  -6    0.78    0.57
   3  -7   6    0.21    0.55
   3  -7   6    0.85    0.51
  -4   7  -6    2.59    0.62
   4  -7   6    3.68    0.65
   4  -7   6    2.40    0.65
  -5   7  -6   -0.08    0.68
   5  -7   6   -0.03    0.68
   7   6  -6    2.61    0.65
  -7  -6   6    1.79    0.65
   6   6  -6    4.16    0.59
  -6  -6   6    3.08    0.70
  -6  -6   6    3.75    0.68
   5   6  -6    1.03    0.52
  -5  -6   6    1.05    0.51
  -5  -6   6    0.58    0.58
   4   6  -6    2.93    0.49
   4   6  -6    4.21    0.54
  -4  -6   6    3.96    0.56
  -4  -6   6    3.25    0.62
   3   6  -6    3.37    0.50
  -3  -6   6    3.02    0.57
  -3  -6   6    2.87    0.47
   2   6  -6    0.55    0.39
  -2  -6   6    0.44    0.44
  -2  -6   6    0.39    0.41
   1   6  -6   15.51    0.79
  -1  -6   6   14.94    0.83
  -1  -6   6   15.53    0.88
   0   6  -6    2.55    0.47
   0  -6   6    2.50    0.47
   0  -6   6    2.57    0.45
  -1   6  -6    1.13    0.45
   1  -6   6    0.59    0.43
   1  -6   6    0.63    0.41
  -2   6  -6    0.58    0.43
   2  -6   6    0.65    0.41
   2  -6   6    0.50    0.46
  -3   6  -6   15.34    0.89
   3  -6   6   14.92    0.96
   3  -6   6   15.16    0.86
  -4   6  -6   -0.33    0.50
   4  -6   6   -0.04    0.55
  -5   6  -6   -0.72    0.56
   5  -6   6    0.76    0.63
  -6   6  -6    1.52    0.74
   6  -6   6    2.14    0.71
  -8  -5   6   -0.33    0.69
   7   5  -6    0.35    0.56
  -7  -5   6    1.49    0.65
  -7  -5   6    0.53    0.63
   6   5  -6    7.35    0.62
  -6  -5   6    7.21    0.74
  -6  -5   6    7.91    0.70
   5   5  -6   -0.47    0.41
  -5  -5   6   -0.02    0.49
  -5  -5   6   -0.20    0.48
   4   5  -6   27.94    1.18
   4   5  -6   29.29    1.20
  -4  -5   6   26.90    1.26
  -4  -5   6   27.85    1.19
   3   5  -6    1.15    0.37
   3   5  -6    1.05    0.40
   3   5  -6    0.46    0.39
  -3  -5   6    1.24    0.43
  -3  -5   6    1.39    0.43
   2   5  -6   41.39    1.75
   2   5  -6   42.07    1.54
   2   5  -6   41.82    1.46
  -2  -5   6   42.52    1.51
  -2  -5   6   40.52    1.67
   1   5  -6    0.29    0.33
   1   5  -6    0.66    0.34
  -1  -5   6    0.64    0.36
  -1  -5   6    0.26    0.39
   0   5  -6   13.30    0.75
   0   5  -6   12.20    0.68
   0  -5   6   10.47    0.72
   0  -5   6   12.65    0.71
  -1   5  -6   13.73    0.74
  -1   5  -6   14.14    0.68
   1  -5   6   12.43    0.70
   1  -5   6   12.45    0.81
  -2   5  -6   16.94    0.83
  -2   5  -6   17.46    0.83
   2  -5   6   13.74    0.85
   2  -5   6   16.33    0.79
  -3   5  -6    0.08    0.45
   3  -5   6    0.03    0.44
  -4   5  -6    0.30    0.47
   4  -5   6    0.56    0.47
  -5   5  -6    4.90    0.68
   5  -5   6    4.89    0.68
  -6   5  -6    1.97    0.70
   6  -5   6    2.32    0.68
   8   4  -6    0.40    0.57
  -8  -4   6    0.05    0.60
   7   4  -6   -0.30    0.49
  -7  -4   6    0.10    0.56
  -7  -4   6    0.65    0.58
   6   4  -6    4.40    0.52
  -6  -4   6    3.89    0.58
  -6  -4   6    4.20    0.58
   5   4  -6    0.71    0.37
   5   4  -6    0.66    0.40
  -5  -4   6    0.83    0.46
  -5  -4   6    0.60    0.47
   4   4  -6   43.02    1.46
   4   4  -6   42.55    1.53
  -4  -4   6   38.71    1.66
  -4  -4   6   41.93    1.54
   3   4  -6   16.41    0.80
   3   4  -6   19.96    0.81
   3   4  -6   18.52    0.82
   3   4  -6   17.97    0.80
  -3  -4   6   17.18    0.94
  -3  -4   6   18.90    0.84
   2   4  -6   -0.29    0.30
   2   4  -6   -0.19    0.29
   2   4  -6    0.07    0.21
   2   4  -6    0.06    0.27
  -2  -4   6   -0.27    0.28
  -2  -4   6   -0.37    0.32
   1   4  -6   -0.13    0.31
   1   4  -6    0.33    0.25
   1   4  -6    0.05    0.27
   1   4  -6    0.12    0.29
  -1  -4   6    0.69    0.34
  -1  -4   6   -0.33    0.31
   0   4  -6   86.70    2.84
   0   4  -6   86.44    2.73
   0   4  -6   89.08    2.74
   0  -4   6   83.63    2.80
   0  -4   6   81.01    3.09
  -1   4  -6    1.62    0.33
  -1   4  -6    2.99    0.35
  -1   4  -6    1.97    0.35
   1  -4   6    1.69    0.38
   1  -4   6    2.44    0.34
  -2   4  -6    2.81    0.41
  -2   4  -6    3.97    0.41
   2  -4   6    3.40    0.43
  -3   4  -6    0.28    0.37
  -3   4  -6    0.14    0.42
   3  -4   6    0.25    0.41
  -4   4  -6   15.74    0.87
   4  -4   6   15.49    0.91
  -5   4  -6    0.66    0.50
   5  -4   6   -0.42    0.55
  -6   4  -6    2.50    0.65
   6  -4   6    1.84    0.66
  -7   4  -6    0.87    0.73
   7  -4   6    0.03    0.67
   8   3  -6   10.06    0.72
  -8  -3   6   11.38    0.81
  -8  -3   6   11.99    0.95
   7   3  -6   -0.08    0.41
  -7  -3   6   -0.18    0.49
  -7  -3   6    0.10    0.54
   6   3  -6    1.37    0.39
   6   3  -6    1.38    0.42
  -6  -3   6    0.93    0.46
  -6  -3   6    1.19    0.48
   5   3  -6   50.78    1.77
   5   3  -6   53.11    1.72
  -5  -3   6   48.24    1.97
  -5  -3   6   50.56    1.81
   4   3  -6    1.53    0.32
   4   3  -6    0.68    0.30
   4   3  -6    1.57    0.32
  -4  -3   6    0.73    0.36
  -4  -3   6    1.07    0.36
   3   3  -6    4.81    0.35
   3   3  -6    4.74    0.37
   3   3  -6    3.65    0.35
   3   3  -6    4.92    0.37
  -3  -3   6    4.32    0.45
  -3  -3   6    5.34    0.41
   2   3  -6   30.88    1.32
   2   3  -6   30.74    1.08
   2   3  -6   31.45    1.09
   2   3  -6   31.02    1.13
  -2  -3   6   31.00    1.13
  -2  -3   6   28.61    1.24
   1   3  -6   20.94    0.81
   1   3  -6   20.81    0.96
   1   3  -6   21.66    0.81
   1   3  -6   19.54    0.81
  -1  -3   6   21.83    0.82
  -1  -3   6   19.71    0.92
   0   3  -6    0.44    0.25
   0   3  -6    0.48    0.26
   0   3  -6    0.37    0.26
   0   3  -6    0.06    0.27
   0  -3   6    0.57    0.25
   0  -3   6    0.96    0.32
  -1   3  -6   18.10    0.75
  -1   3  -6   17.24    0.78
  -1   3  -6   16.93    0.73
   1  -3   6   16.47    0.76
   1  -3   6   16.72    0.82
  -2   3  -6   42.62    1.45
  -2   3  -6   41.59    1.45
  -2   3  -6   41.73    1.52
   2  -3   6   41.68    1.48
  -3   3  -6   15.59    0.77
  -3   3  -6   15.19    0.76
   3  -3   6   15.62    0.76
  -4   3  -6   -0.64    0.36
  -4   3  -6    0.19    0.43
   4  -3   6    0.72    0.45
  -5   3  -6    2.71    0.54
   5  -3   6    2.52    0.58
  -6   3  -6    0.91    0.58
   6  -3   6    0.24    0.61
  -7   3  -6    0.60    0.66
   7  -3   6    0.80    0.72
  -9  -2   6    1.03    0.62
   8   2  -6    5.27    0.58
  -8  -2   6    5.12    0.68
  -8  -2   6    4.90    0.66
   7   2  -6    6.00    0.54
  -7  -2   6    6.79    0.68
  -7  -2   6    6.03    0.58
   6   2  -6   28.05    1.16
   6   2  -6   31.80    1.14
  -6  -2   6   29.19    1.20
  -6  -2   6   31.36    1.34
   5   2  -6    2.22    0.35
   5   2  -6    1.86    0.33
   5   2  -6    2.23    0.32
  -5  -2   6    1.51    0.43
  -5  -2   6    1.80    0.23
  -5  -2   6    1.65    0.37
   4   2  -6    0.48    0.26
   4   2  -6    0.10    0.27
   4   2  -6   -0.13    0.26
  -4  -2   6    0.39    0.29
  -4  -2   6   -0.16    0.30
  -4  -2   6    0.55    0.19
   3   2  -6  149.20    4.77
   3   2  -6  155.79    4.78
   3   2  -6  155.42    4.96
   3   2  -6  156.18    4.96
  -3  -2   6  156.92    5.43
  -3  -2   6  157.78    4.96
   2   2  -6   58.31    1.90
   2   2  -6   62.35    2.46
   2   2  -6   60.02    1.98
   2   2  -6   59.21    1.90
  -2  -2   6   59.46    1.97
  -2  -2   6   56.36    2.17
   1   2  -6    4.94    0.31
   1   2  -6    4.53    0.32
   1   2  -6    4.23    0.33
   1   2  -6    4.54    0.41
  -1  -2   6    4.88    0.35
  -1  -2   6    4.59    0.39
   0   2  -6   57.80    1.97
   0   2  -6   60.50    1.90
   0   2  -6   58.53    2.50
   0   2  -6   62.38    1.91
   0  -2   6   59.24    1.96
   0  -2   6   56.73    2.17
  -1   2  -6  119.25    3.64
  -1   2  -6  120.07    3.63
  -1   2  -6  114.48    3.77
   1  -2   6  113.90    3.77
  -2   2  -6   -0.39    0.26
  -2   2  -6    0.40    0.27
  -2   2  -6   -0.26    0.28
   2  -2   6    0.16    0.30
  -3   2  -6  127.36    3.90
  -3   2  -6  122.47    4.03
  -3   2  -6  127.23    3.89
   3  -2   6  119.10    4.02
  -4   2  -6    2.35    0.40
  -4   2  -6    2.71    0.40
   4  -2   6    1.86    0.46
  -5   2  -6    2.17    0.50
   5  -2   6    2.89    0.53
  -6   2  -6    1.41    0.56
   6  -2   6    0.32    0.57
  -7   2  -6    2.93    0.70
   7  -2   6    4.69    0.74
  -9  -1   6    0.31    0.58
   8   1  -6   21.61    1.08
  -8  -1   6   21.99    1.05
   7   1  -6    3.05    0.43
   7   1  -6    3.28    0.45
  -7  -1   6    2.90    0.51
  -7  -1   6    2.15    0.51
   6   1  -6    0.35    0.31
   6   1  -6    0.44    0.34
   6   1  -6   -0.18    0.33
  -6  -1   6    0.56    0.40
  -6  -1   6    0.22    0.41
   5   1  -6    6.73    0.49
   5   1  -6    7.56    0.47
   5   1  -6    7.39    0.50
  -5  -1   6    6.94    0.54
  -5  -1   6    6.61    0.49
  -5  -1   6    6.93    0.48
   4   1  -6   65.28    2.04
   4   1  -6   65.52    2.11
   4   1  -6   64.59    2.03
  -4  -1   6   62.19    2.63
  -4  -1   6   62.86    2.32
  -4  -1   6   62.27    2.13
   3   1  -6    5.55    0.37
   3   1  -6    5.87    0.41
   3   1  -6    6.28    0.39
  -3  -1   6    5.93    0.43
  -3  -1   6    6.09    0.42
  -3  -1   6    5.69    0.44
   2   1  -6    0.45    0.20
   2   1  -6    0.06    0.18
   2   1  -6    0.15    0.19
  -2  -1   6    0.32    0.27
  -2  -1   6    0.97    0.24
  -2  -1   6    0.57    0.20
   1   1  -6  141.25    4.39
   1   1  -6  144.76    4.40
   1   1  -6  143.77    4.56
   1   1  -6  143.91    5.82
  -1  -1   6  143.08    4.56
  -1  -1   6  143.78    5.01
   0   1  -6    6.93    0.37
   0   1  -6    6.34    0.39
   0   1  -6    6.20    0.38
   0   1  -6    5.87    0.53
   0  -1   6    6.09    0.39
   0  -1   6    5.83    0.43
  -1   1  -6   34.47    1.67
  -1   1  -6   38.69    1.24
  -1   1  -6   38.24    1.25
  -1   1  -6   37.33    1.29
   1  -1   6   37.41    1.29
  -2   1  -6   14.80    0.64
  -2   1  -6   14.95    0.67
  -2   1  -6   15.32    0.66
   2  -1   6   14.21    0.68
  -3   1  -6   45.13    1.56
  -3   1  -6   44.90    1.61
  -3   1  -6   47.97    1.56
   3  -1   6   45.61    1.62
  -4   1  -6   60.68    1.99
  -4   1  -6   57.18    2.05
   4  -1   6   59.41    2.07
  -5   1  -6   27.15    1.09
  -5   1  -6   26.99    1.18
   5  -1   6   27.39    1.20
  -6   1  -6    3.67    0.60
   6  -1   6    4.82    0.60
  -7   1  -6    0.02    0.61
   7  -1   6    0.32    0.60
  -9   0   6    8.47    0.75
   8   0  -6    0.81    0.44
  -8   0   6    0.14    0.53
   7   0  -6    0.35    0.36
   7   0  -6    0.69    0.39
  -7   0   6    0.87    0.46
  -7   0   6    0.29    0.45
   6   0  -6   52.54    1.83
   6   0  -6   54.28    1.78
   6   0  -6   54.53    1.75
  -6   0   6   54.56    2.03
  -6   0   6   49.64    1.85
   5   0  -6   50.65    1.72
   5   0  -6   53.38    1.69
   5   0  -6   50.55    1.66
  -5   0   6   51.70    1.92
  -5   0   6   50.35    1.76
   4   0  -6   21.67    0.79
   4   0  -6   22.72    0.82
   4   0  -6   21.19    0.78
   4   0  -6   22.41    0.91
  -4   0   6   20.74    1.01
  -4   0   6   21.95    0.92
  -4   0   6   21.32    0.83
   3   0  -6   68.19    2.21
   3   0  -6   66.21    2.13
   3   0  -6   69.21    2.45
   3   0  -6   67.58    2.13
  -3   0   6   67.28    2.83
  -3   0   6   74.51    2.23
  -3   0   6   66.05    2.22
  -3   0   6   67.63    2.44
   2   0  -6   36.27    1.18
   2   0  -6   36.48    1.17
   2   0  -6   35.62    1.21
  -2   0   6   37.46    1.58
  -2   0   6   35.22    1.37
  -2   0   6   39.67    1.24
  -2   0   6   35.59    1.22
   1   0  -6   10.46    0.44
   1   0  -6   11.06    0.44
   1   0  -6   11.90    0.64
   1   0  -6   10.69    0.43
  -1   0   6   10.86    0.46
  -1   0   6   10.60    0.63
  -1   0   6   11.15    0.57
  -1   0   6   11.36    0.48
   0   0  -6   21.82    1.05
   0   0  -6   22.97    0.76
   0   0  -6   22.48    0.77
   0   0  -6   21.57    0.77
   0   0   6   22.11    0.80
   0   0   6   21.93    0.80
  -1   0  -6   14.78    0.61
  -1   0  -6   15.65    0.59
  -1   0  -6   15.05    0.86
  -1   0  -6   15.24    0.61
   1   0   6   14.85    0.61
  -2   0  -6   38.44    1.37
  -2   0  -6   40.05    1.33
  -2   0  -6   39.09    1.33
  -2   0  -6   40.09    1.32
   2   0   6   40.89    1.38
  -3   0  -6   40.45    1.38
  -3   0  -6   39.46    1.37
  -3   0  -6   39.60    1.40
  -3   0  -6   38.68    1.35
   3   0   6   39.77    1.43
  -4   0  -6   97.62    3.19
  -4   0  -6   93.64    3.07
  -4   0  -6   97.20    3.08
  -4   0  -6   99.58    3.08
   4   0   6   94.38    3.18
  -5   0  -6    0.63    0.39
  -5   0  -6    0.25    0.40
  -5   0  -6    0.37    0.43
   5   0   6    0.58    0.47
  -6   0  -6    1.91    0.54
   6   0   6    1.54    0.59
  -7   0  -6    0.21    0.60
   7   0   6    1.30    0.67
  -9   1   6    1.38    0.62
   8  -1  -6    6.74    0.56
  -8   1   6    6.85    0.64
   7  -1  -6   16.80    0.80
   7  -1  -6   16.35    0.77
  -7   1   6   16.34    0.88
   6  -1  -6    0.06    0.31
   6  -1  -6   -0.21    0.28
   6  -1  -6    0.25    0.28
  -6   1   6    0.59    0.36
  -6   1   6    0.10    0.35
   5  -1  -6   32.58    1.10
   5  -1  -6   33.46    1.13
   5  -1  -6   32.12    1.13
  -5   1   6   33.10    1.18
  -5   1   6   31.23    1.27
   4  -1  -6   47.04    1.55
   4  -1  -6   46.35    1.52
   4  -1  -6   45.45    1.50
   4  -1  -6   49.59    1.74
  -4   1   6   52.67    1.59
  -4   1   6   44.02    1.59
  -4   1   6   46.64    1.73
   3  -1  -6   79.98    2.75
   3  -1  -6   75.35    2.46
   3  -1  -6   76.17    2.39
   3  -1  -6   73.75    2.39
  -3   1   6   77.19    2.49
  -3   1   6   76.69    3.22
  -3   1   6   84.41    2.49
  -3   1   6   77.33    2.73
   2  -1  -6   29.40    0.96
   2  -1  -6   29.99    0.96
  -2   1   6   30.61    1.36
  -2   1   6   30.69    1.14
  -2   1   6   32.40    1.02
  -2   1   6   29.42    1.01
   1  -1  -6   84.62    2.57
   1  -1  -6   86.36    2.57
  -1   1   6   81.30    2.96
  -1   1   6   83.03    2.68
  -1   1   6   86.20    2.69
  -1   1   6   83.58    3.48
   0  -1  -6   25.72    0.82
   0  -1  -6   25.75    1.18
   0  -1  -6   23.86    0.81
   0  -1  -6   24.61    0.80
   0   1   6   23.57    0.85
   0   1   6   24.40    1.14
   0   1   6   23.61    0.86
  -1  -1  -6    7.30    0.37
  -1  -1  -6    8.22    0.39
  -1  -1  -6    7.63    0.41
   1   1   6    7.82    0.43
   1   1   6    7.32    0.42
  -2  -1  -6   54.29    1.77
  -2  -1  -6   54.31    1.70
  -2  -1  -6   50.93    1.69
   2   1   6   51.74    1.77
  -3  -1  -6    7.15    0.48
  -3  -1  -6    7.44    0.45
  -3  -1  -6    6.63    0.46
   3   1   6    6.13    0.44
  -4  -1  -6    0.60    0.38
  -4  -1  -6    0.45    0.33
  -4  -1  -6    0.20    0.32
   4   1   6    0.48    0.39
  -5  -1  -6    0.75    0.46
  -5  -1  -6    0.48    0.39
   5   1   6    0.20    0.47
  -6  -1  -6   13.19    0.94
   6   1   6   12.45    0.83
   7   1   6    3.32    0.66
  -9   2   6    6.79    0.73
   8  -2  -6   14.27    0.79
  -8   2   6   14.34    0.90
   7  -2  -6    9.87    0.64
   7  -2  -6    9.85    0.67
  -7   2   6    9.64    0.64
   6  -2  -6   28.13    1.03
   6  -2  -6   28.33    1.05
  -6   2   6   28.85    1.11
   5  -2  -6    9.22    0.45
   5  -2  -6    9.31    0.57
   5  -2  -6    8.39    0.44
   5  -2  -6    8.40    0.48
  -5   2   6    9.34    0.55
  -5   2   6    9.08    0.54
   4  -2  -6   19.55    0.67
   4  -2  -6   19.01    0.68
   4  -2  -6   20.08    0.81
  -4   2   6   20.00    0.73
  -4   2   6   19.30    0.79
  -4   2   6   17.41    0.74
   3  -2  -6  172.27    5.45
   3  -2  -6  181.59    5.45
  -3   2   6  173.83    5.68
  -3   2   6  177.95    6.18
  -3   2   6  194.40    5.68
  -2   2   6   15.04    0.49
  -2   2   6   14.33    0.78
  -2   2   6   13.50    0.49
  -2   2   6   12.94    0.59
  -1   2   6   79.86    2.39
  -1   2   6   75.33    3.13
  -1   2   6   72.30    2.64
  -1   2   6   72.91    2.38
   0  -2  -6    6.31    0.30
   0  -2  -6    5.70    0.28
   0   2   6    6.33    0.50
   0   2   6    5.36    0.32
   0   2   6    5.45    0.31
  -1  -2  -6   84.69    3.00
  -1  -2  -6   93.05    2.91
  -1  -2  -6   99.26    2.91
   1   2   6   97.08    3.92
   1   2   6   95.58    3.03
   1   2   6   97.67    3.04
  -2  -2  -6    6.84    0.43
  -2  -2  -6    7.72    0.44
  -2  -2  -6    8.09    0.47
   2   2   6    7.36    0.49
  -3  -2  -6    1.36    0.32
  -3  -2  -6    1.53    0.29
  -3  -2  -6    0.99    0.29
   3   2   6    1.63    0.36
  -4  -2  -6   12.33    0.67
  -4  -2  -6   11.98    0.66
  -4  -2  -6   12.86    0.78
   4   2   6   11.61    0.73
  -5  -2  -6   27.22    1.14
   5   2   6   28.30    1.21
   6   2   6    0.02    0.51
   7   2   6    0.69    0.68
   9  -3  -6    2.43    0.54
  -9   3   6    1.54    0.63
   8  -3  -6   11.25    0.73
  -8   3   6   10.36    0.77
   7  -3  -6   13.25    0.74
   7  -3  -6   13.48    0.70
  -7   3   6   14.10    0.78
   6  -3  -6    8.40    0.54
   6  -3  -6    8.74    0.54
  -6   3   6    9.21    0.63
   5  -3  -6   11.16    0.52
   5  -3  -6   11.14    0.50
   5  -3  -6   11.56    0.58
  -5   3   6   10.20    0.57
   4  -3  -6   74.10    2.32
   4  -3  -6   79.45    2.63
   4  -3  -6   74.58    2.31
  -4   3   6   72.41    2.43
  -4   3   6   74.47    2.41
  -3   3   6    3.89    0.23
  -3   3   6    4.60    0.26
  -3   3   6    4.41    0.28
  -2   3   6   41.34    1.83
  -2   3   6   41.72    1.47
  -1   3   6  137.73    4.88
  -1   3   6  146.21    5.80
   0  -3  -6   50.69    1.59
   0  -3  -6   50.73    1.59
   0   3   6   52.26    2.22
   0   3   6   53.28    1.67
   0   3   6   50.20    1.66
  -1  -3  -6    2.07    0.22
  -1  -3  -6    2.15    0.21
   1   3   6    2.32    0.25
   1   3   6    2.12    0.41
   1   3   6    2.12    0.25
  -2  -3  -6    0.20    0.24
  -2  -3  -6    0.25    0.24
  -2  -3  -6   -0.15    0.23
   2   3   6   -0.31    0.27
  -3  -3  -6   11.96    0.61
  -3  -3  -6   11.91    0.61
   3   3   6   10.97    0.65
  -4  -3  -6    2.89    0.42
  -4  -3  -6    2.87    0.38
   4   3   6    2.85    0.47
  -5  -3  -6    7.71    0.58
   5   3   6    8.47    0.66
   6   3   6    0.54    0.59
   9  -4  -6    3.45    0.58
  -9   4   6    3.50    0.67
   8  -4  -6    1.89    0.47
  -8   4   6    2.17    0.58
   7  -4  -6    3.97    0.44
   7  -4  -6    5.11    0.45
  -7   4   6    3.85    0.52
   6  -4  -6   20.74    0.84
   6  -4  -6   21.26    0.86
  -6   4   6   22.02    0.95
   5  -4  -6   10.54    0.52
   5  -4  -6   10.89    0.50
  -5   4   6   10.39    0.58
   4  -4  -6   10.55    0.43
   4  -4  -6    9.33    0.43
  -4   4   6   10.49    0.50
  -3   4   6    7.26    0.32
  -3   4   6    6.67    0.33
  -2   4   6  198.55    8.08
  -1   4   6    3.87    0.49
  -1   4   6    3.81    0.26
  -1   4   6    4.05    0.25
  -1   4   6    4.57    0.28
  -1   4   6    4.30    0.24
   0  -4  -6    4.29    0.27
   0  -4  -6    4.61    0.28
   0   4   6    4.54    0.49
   0   4   6    5.73    0.36
   0   4   6    5.04    0.29
   0   4   6    5.80    0.40
  -1  -4  -6   37.12    1.24
  -1  -4  -6   36.47    1.25
   1   4   6   41.13    1.46
   1   4   6   37.56    1.31
   1   4   6   39.39    1.74
  -2  -4  -6   16.94    0.68
  -2  -4  -6   15.38    0.67
   2   4   6   17.26    1.00
   2   4   6   16.75    0.77
  -3  -4  -6    1.77    0.33
  -3  -4  -6    2.47    0.34
   3   4   6    1.91    0.37
  -4  -4  -6    3.84    0.44
   4   4   6    3.20    0.47
  -5  -4  -6    1.52    0.47
   5   4   6    2.03    0.53
   6   4   6    4.79    0.67
   8  -5  -6    0.45    0.43
  -8   5   6    0.78    0.55
   7  -5  -6   27.46    1.05
   7  -5  -6   26.65    1.07
  -7   5   6   25.36    1.17
   6  -5  -6    3.33    0.37
   6  -5  -6    3.17    0.38
  -6   5   6    3.57    0.44
   5  -5  -6    1.04    0.26
   5  -5  -6    0.27    0.26
   5  -5  -6    0.56    0.26
  -5   5   6    1.29    0.32
   4  -5  -6   17.77    0.66
   4  -5  -6   17.68    0.64
  -4   5   6   18.13    0.71
   3  -5  -6   20.34    0.69
   3  -5  -6   20.66    0.68
  -3   5   6   21.10    0.73
  -2   5   6   27.17    0.86
  -2   5   6   24.49    0.86
  -2   5   6   24.51    1.29
   1  -5  -6    2.43    0.18
   1  -5  -6    2.18    0.20
  -1   5   6    2.44    0.21
  -1   5   6    2.80    0.46
   0  -5  -6    3.53    0.26
   0  -5  -6    3.91    0.25
   0   5   6    3.57    0.27
   0   5   6    3.97    0.49
  -1  -5  -6   67.83    2.15
  -1  -5  -6   68.48    2.17
   1   5   6   67.91    2.26
   1   5   6   70.41    2.95
  -2  -5  -6    7.82    0.49
  -2  -5  -6    8.60    0.52
   2   5   6    7.52    0.49
   2   5   6    8.98    0.81
  -3  -5  -6    4.56    0.41
  -3  -5  -6    3.84    0.43
   3   5   6    3.80    0.46
  -4  -5  -6    5.75    0.53
   4   5   6    5.13    0.57
  -5  -5  -6    0.58    0.47
   5   5   6    0.64    0.56
   8  -6  -6    1.68    0.49
  -8   6   6    1.66    0.59
   7  -6  -6    0.53    0.39
   7  -6  -6    0.16    0.40
  -7   6   6    0.24    0.47
   6  -6  -6    0.07    0.33
   6  -6  -6    0.26    0.35
  -6   6   6    0.61    0.40
   5  -6  -6   37.20    1.29
   5  -6  -6   37.52    1.27
  -5   6   6   38.54    1.35
   4  -6  -6    1.36    0.25
   4  -6  -6    0.44    0.25
  -4   6   6    0.79    0.27
   3  -6  -6    0.03    0.20
   3  -6  -6    0.20    0.20
  -3   6   6    0.11    0.22
   2  -6  -6    0.38    0.20
   2  -6  -6    0.68    0.18
  -2   6   6    0.37    0.22
  -2   6   6   -0.09    0.48
   1  -6  -6   72.14    2.21
   1  -6  -6   69.45    2.19
  -1   6   6   72.78    3.06
  -1   6   6   69.75    2.29
  -1   6   6   69.75    2.30
   0  -6  -6    1.36    0.26
   0  -6  -6    1.23    0.25
   0   6   6    1.00    0.50
   0   6   6    1.15    0.28
  -1  -6  -6   12.18    0.61
  -1  -6  -6   12.58    0.59
   1   6   6   12.67    0.88
   1   6   6   12.73    0.66
  -2  -6  -6    1.68    0.37
  -2  -6  -6    1.68    0.34
   2   6   6    0.98    0.40
   2   6   6    1.62    0.56
  -3  -6  -6    3.39    0.42
  -3  -6  -6    3.74    0.46
   3   6   6    3.18    0.48
  -4  -6  -6    1.89    0.50
   4   6   6    2.36    0.51
   5   6   6    1.45    0.58
   7  -7  -6    3.56    0.48
  -7   7   6    3.62    0.57
   6  -7  -6    8.30    0.53
   6  -7  -6    6.84    0.52
   6  -7  -6    8.31    0.54
  -6   7   6   10.08    0.61
   5  -7  -6    0.29    0.32
   5  -7  -6   -0.12    0.32
  -5   7   6   -0.11    0.36
   4  -7  -6    4.27    0.35
   4  -7  -6    2.97    0.35
  -4   7   6    4.08    0.36
   3  -7  -6    3.20    0.31
   3  -7  -6    3.07    0.32
  -3   7   6    3.78    0.33
   2  -7  -6    7.86    0.48
   2  -7  -6    9.22    0.44
  -2   7   6    7.66    0.51
  -2   7   6    9.15    0.78
   1  -7  -6   26.35    0.95
   1  -7  -6   25.84    0.92
  -1   7   6   26.22    1.43
  -1   7   6   26.13    0.99
   0  -7  -6    2.50    0.34
   0  -7  -6    2.09    0.32
   0   7   6    2.19    0.34
   0   7   6    2.39    0.58
  -1  -7  -6    1.51    0.37
  -1  -7  -6    1.05    0.33
   1   7   6    1.62    0.57
   1   7   6    1.40    0.38
  -2  -7  -6    3.40    0.46
  -2  -7  -6    3.60    0.41
   2   7   6    3.40    0.48
   2   7   6    3.58    0.67
  -3  -7  -6    4.65    0.53
   3   7   6    4.15    0.55
  -4  -7  -6    0.09    0.51
   4   7   6   -0.21    0.56
   6  -8  -6    2.81    0.46
   6  -8  -6    3.27    0.45
  -6   8   6    2.42    0.51
   5  -8  -6    0.40    0.37
   5  -8  -6   -0.26    0.36
  -5   8   6    0.37    0.40
   4  -8  -6    9.28    0.59
   4  -8  -6    8.93    0.60
  -4   8   6   10.37    0.65
   3  -8  -6    1.46    0.33
   3  -8  -6    1.41    0.36
  -3   8   6    1.23    0.35
   2  -8  -6    4.35    0.37
   2  -8  -6    5.04    0.44
  -2   8   6    5.68    0.78
  -2   8   6    4.74    0.41
   1  -8  -6    0.02    0.35
   1  -8  -6    0.56    0.31
  -1   8   6    0.09    0.35
  -1   8   6    0.49    0.60
   0  -8  -6    5.02    0.42
   0  -8  -6    4.62    0.44
   0   8   6    4.22    0.43
   0   8   6    4.84    0.67
  -1  -8  -6    4.50    0.44
  -1  -8  -6    4.45    0.49
   1   8   6    5.58    0.48
   1   8   6    5.85    0.73
  -2  -8  -6    1.47    0.46
   2   8   6    1.63    0.62
   2   8   6    1.10    0.48
  -3  -8  -6    1.10    0.52
   5  -9  -6    6.66    0.55
   5  -9  -6    5.32    0.54
  -5   9   6    6.84    0.58
   4  -9  -6    3.01    0.44
   4  -9  -6    3.15    0.47
  -4   9   6    3.49    0.46
   3  -9  -6    4.27    0.49
   3  -9  -6    3.55    0.42
  -3   9   6    3.75    0.45
   2  -9  -6    0.26    0.36
   2  -9  -6   -0.38    0.42
  -2   9   6   -0.40    0.38
   1  -9  -6    0.98    0.39
   1  -9  -6    1.76    0.45
  -1   9   6    1.50    0.43
   0  -9  -6    3.35    0.49
   0  -9  -6    3.46    0.44
   0   9   6    3.57    0.49
   0   9   6    3.12    0.46
  -1  -9  -6   -0.08    0.46
   1   9   6    0.57    0.46
   2   9  -7    0.75    0.60
  -2  -9   7   -0.55    0.62
   1   9  -7    2.01    0.63
  -1  -9   7    2.18    0.66
   0   9  -7    1.97    0.62
   0  -9   7    1.86    0.66
  -1   9  -7    0.41    0.65
   1  -9   7    0.24    0.65
  -2   9  -7   -0.23    0.61
   2  -9   7    1.02    0.67
   4   8  -7   -0.71    0.57
  -4  -8   7    0.30    0.68
   3   8  -7    1.15    0.60
  -3  -8   7    0.77    0.63
  -3  -8   7    1.57    0.64
   2   8  -7   -0.34    0.56
  -2  -8   7   -0.34    0.57
  -2  -8   7    0.47    0.61
   1   8  -7    0.63    0.57
  -1  -8   7    1.44    0.61
  -1  -8   7    0.96    0.53
   0   8  -7    0.37    0.53
   0  -8   7    0.16    0.51
   0  -8   7    0.39    0.56
  -1   8  -7    2.77    0.65
   1  -8   7    2.21    0.64
   1  -8   7    2.00    0.57
  -2   8  -7    1.14    0.57
   2  -8   7    0.30    0.55
   2  -8   7    0.30    0.58
  -3   8  -7    3.41    0.72
   3  -8   7    1.25    0.62
   6   7  -7   -0.44    0.59
  -6  -7   7   -0.03    0.64
   5   7  -7    0.50    0.54
   5   7  -7    0.02    0.56
  -5  -7   7    0.53    0.65
   4   7  -7    6.31    0.69
  -4  -7   7    6.59    0.67
  -4  -7   7    6.31    0.76
   3   7  -7    1.25    0.54
  -3  -7   7    1.55    0.65
  -3  -7   7    0.73    0.52
   2   7  -7    3.55    0.52
  -2  -7   7    2.24    0.59
  -2  -7   7    2.29    0.52
   1   7  -7    0.40    0.51
  -1  -7   7    0.20    0.50
  -1  -7   7   -0.04    0.50
   0   7  -7    2.52    0.55
   0  -7   7    0.19    0.49
   0  -7   7    1.33    0.57
  -1   7  -7    2.99    0.55
   1  -7   7    2.89    0.60
   1  -7   7    2.95    0.56
  -2   7  -7    1.29    0.57
   2  -7   7    1.71    0.56
   2  -7   7    1.77    0.60
  -3   7  -7    0.46    0.55
   3  -7   7    0.11    0.58
   3  -7   7    1.22    0.56
  -4   7  -7    0.00    0.65
   4  -7   7   -1.03    0.64
   4  -7   7   -0.55    0.57
   6   6  -7    1.87    0.59
  -6  -6   7    0.94    0.65
   5   6  -7    0.14    0.54
   5   6  -7    0.28    0.53
  -5  -6   7    0.23    0.52
  -5  -6   7    1.53    0.63
   4   6  -7    3.87    0.54
  -4  -6   7    4.41    0.65
  -4  -6   7    5.42    0.62
   3   6  -7    3.62    0.52
  -3  -6   7    2.25    0.53
  -3  -6   7    2.13    0.57
   2   6  -7   -0.44    0.40
  -2  -6   7   -0.33    0.50
  -2  -6   7   -0.95    0.41
   1   6  -7   -0.11    0.45
  -1  -6   7    0.44    0.41
  -1  -6   7    0.91    0.47
   0   6  -7   28.81    1.18
   0  -6   7   25.36    1.26
   0  -6   7   23.81    1.07
  -1   6  -7    1.06    0.45
   1  -6   7    0.10    0.46
   1  -6   7    0.96    0.52
  -2   6  -7   -0.16    0.50
   2  -6   7    1.65    0.51
   2  -6   7    1.11    0.47
  -3   6  -7    0.30    0.54
   3  -6   7    0.22    0.52
   3  -6   7   -0.42    0.52
  -4   6  -7   -0.31    0.55
   4  -6   7    0.66    0.61
  -5   6  -7    0.02    0.67
   5  -6   7   -0.66    0.62
   7   5  -7    0.97    0.58
  -7  -5   7    1.18    0.65
   6   5  -7    4.27    0.59
  -6  -5   7    4.87    0.73
  -6  -5   7    3.17    0.63
   5   5  -7    6.54    0.61
   5   5  -7    7.43    0.61
  -5  -5   7    5.72    0.70
  -5  -5   7    6.97    0.61
   4   5  -7    0.59    0.40
   4   5  -7   -0.36    0.39
  -4  -5   7    0.01    0.42
  -4  -5   7   -0.13    0.52
   3   5  -7    0.27    0.38
   3   5  -7    0.28    0.39
  -3  -5   7    0.47    0.40
  -3  -5   7    0.27    0.46
   2   5  -7    3.22    0.43
   2   5  -7    2.72    0.42
  -2  -5   7    5.10    0.55
  -2  -5   7    2.79    0.44
   1   5  -7   13.07    0.76
   1   5  -7   14.00    0.80
   1   5  -7   13.18    0.74
  -1  -5   7   12.78    0.82
  -1  -5   7   13.36    0.71
   0   5  -7    8.27    0.55
   0   5  -7    8.45    0.58
   0  -5   7    6.71    0.52
   0  -5   7    8.01    0.62
  -1   5  -7    0.42    0.39
  -1   5  -7    0.09    0.35
   1  -5   7   -0.10    0.44
   1  -5   7    0.26    0.39
  -2   5  -7   28.26    1.22
   2  -5   7   25.51    1.24
   2  -5   7   27.89    1.17
  -3   5  -7    3.68    0.57
   3  -5   7    2.88    0.54
  -4   5  -7    2.54    0.56
   4  -5   7    2.90    0.60
  -5   5  -7    0.28    0.63
   5  -5   7   -0.36    0.57
  -6   5  -7    0.92    0.72
   6  -5   7    0.49    0.74
   8   4  -7    0.11    0.59
  -8  -4   7    0.78    0.67
   7   4  -7    2.64    0.56
  -7  -4   7    3.09    0.67
  -7  -4   7    2.12    0.63
   6   4  -7    2.41    0.49
  -6  -4   7    1.42    0.60
  -6  -4   7    1.68    0.56
   5   4  -7   -0.24    0.41
   5   4  -7    0.15    0.39
  -5  -4   7   -0.18    0.45
  -5  -4   7   -0.07    0.49
   4   4  -7    1.73    0.36
   4   4  -7    2.59    0.43
   4   4  -7    1.69    0.41
  -4  -4   7    1.69    0.45
  -4  -4   7    1.76    0.51
   3   4  -7   50.78    1.76
   3   4  -7   48.41    1.68
  -3  -4   7   51.63    1.77
  -3  -4   7   46.71    1.92
   2   4  -7    8.91    0.58
   2   4  -7    8.61    0.53
   2   4  -7    8.82    0.52
   2   4  -7    7.22    0.52
  -2  -4   7    7.62    0.61
  -2  -4   7    7.20    0.53
   1   4  -7    2.31    0.35
   1   4  -7    2.51    0.39
   1   4  -7    2.51    0.37
   1   4  -7    3.31    0.37
  -1  -4   7    3.00    0.47
  -1  -4   7    2.16    0.38
   0   4  -7   18.58    1.02
   0   4  -7   22.21    0.92
   0   4  -7   21.31    0.86
   0   4  -7   20.96    0.88
   0  -4   7   18.28    0.96
   0  -4   7   18.11    0.83
  -1   4  -7   64.70    2.17
  -1   4  -7   65.48    2.08
   1  -4   7   62.78    2.12
   1  -4   7   55.85    2.33
  -2   4  -7   40.90    1.51
  -2   4  -7   40.59    1.47
   2  -4   7   40.29    1.52
  -3   4  -7    1.71    0.44
   3  -4   7    1.26    0.45
  -4   4  -7   -0.08    0.51
   4  -4   7    0.05    0.52
  -5   4  -7    2.42    0.58
   5  -4   7    1.61    0.59
  -6   4  -7    1.60    0.69
   6  -4   7    1.24    0.71
  -8  -3   7    3.56    0.74
  -8  -3   7    3.43    0.68
   7   3  -7    1.51    0.50
  -7  -3   7    0.82    0.55
  -7  -3   7    0.82    0.52
   6   3  -7    0.30    0.40
   6   3  -7    0.79    0.41
  -6  -3   7    0.18    0.44
  -6  -3   7    0.50    0.48
   5   3  -7    4.70    0.47
   5   3  -7    4.45    0.43
  -5  -3   7    3.76    0.56
  -5  -3   7    5.08    0.49
   4   3  -7   16.31    0.80
   4   3  -7   17.77    0.77
   4   3  -7   16.53    0.78
   4   3  -7   16.77    0.81
  -4  -3   7   16.26    0.92
  -4  -3   7   17.72    0.83
   3   3  -7    2.25    0.33
   3   3  -7    2.68    0.36
   3   3  -7    2.25    0.33
  -3  -3   7    2.15    0.34
  -3  -3   7    1.86    0.42
   2   3  -7    5.86    0.42
   2   3  -7    5.36    0.44
   2   3  -7    4.72    0.39
   2   3  -7    5.18    0.39
  -2  -3   7    4.79    0.48
  -2  -3   7    5.70    0.43
   1   3  -7   16.85    0.90
   1   3  -7   17.68    0.79
   1   3  -7   18.65    0.75
   1   3  -7   18.50    0.75
  -1  -3   7   17.22    0.86
  -1  -3   7   17.56    0.78
   0   3  -7    0.39    0.29
   0   3  -7    0.29    0.30
   0   3  -7    0.13    0.29
   0   3  -7   -0.12    0.31
   0  -3   7    0.24    0.35
   0  -3   7    0.30    0.31
  -1   3  -7    0.54    0.34
  -1   3  -7    0.78    0.31
  -1   3  -7    0.56    0.32
   1  -3   7    0.88    0.32
   1  -3   7    0.86    0.37
  -2   3  -7   17.17    0.81
  -2   3  -7   17.12    0.86
  -2   3  -7   15.95    0.79
   2  -3   7   16.68    0.79
  -3   3  -7   59.56    2.10
  -3   3  -7   59.41    2.01
   3  -3   7   59.02    2.09
  -4   3  -7    3.80    0.54
   4  -3   7    3.36    0.52
  -5   3  -7   13.26    0.96
   5  -3   7   12.21    0.85
  -6   3  -7    0.04    0.56
   6  -3   7    0.57    0.62
  -9  -2   7    2.32    0.70
  -8  -2   7    1.11    0.60
  -8  -2   7    0.64    0.60
   7   2  -7    0.98    0.46
   7   2  -7    0.06    0.41
  -7  -2   7    0.69    0.52
  -7  -2   7    0.18    0.51
   6   2  -7   29.13    1.20
   6   2  -7   31.11    1.17
  -6  -2   7   30.64    1.26
  -6  -2   7   30.78    1.37
   5   2  -7    6.17    0.45
   5   2  -7    6.77    0.44
   5   2  -7    6.07    0.46
  -5  -2   7    5.82    0.57
  -5  -2   7    6.15    0.45
  -5  -2   7    6.23    0.50
   4   2  -7   22.70    0.88
   4   2  -7   22.69    0.91
   4   2  -7   22.73    0.91
   4   2  -7   23.65    0.91
  -4  -2   7   23.52    0.95
  -4  -2   7   20.54    1.01
   3   2  -7    6.35    0.41
   3   2  -7    7.47    0.47
   3   2  -7    7.44    0.53
  -3  -2   7    6.88    0.52
  -3  -2   7    8.53    0.52
   2   2  -7   35.79    1.26
   2   2  -7   37.16    1.55
   2   2  -7   35.44    1.22
   2   2  -7   34.98    1.21
  -2  -2   7   32.90    1.40
  -2  -2   7   36.33    1.26
   1   2  -7    0.33    0.24
   1   2  -7   -0.15    0.26
   1   2  -7   -0.09    0.26
   1   2  -7   -0.02    0.27
  -1  -2   7    0.20    0.26
  -1  -2   7   -0.05    0.33
   0   2  -7   32.00    1.06
   0   2  -7   28.81    1.05
   0   2  -7   27.51    1.38
   0   2  -7   30.95    1.10
   0  -2   7   28.18    1.23
   0  -2   7   29.38    1.09
  -1   2  -7    0.70    0.29
  -1   2  -7    0.34    0.28
  -1   2  -7    1.23    0.31
   1  -2   7    1.00    0.29
  -2   2  -7    9.40    0.58
  -2   2  -7    8.96    0.53
  -2   2  -7    8.70    0.60
   2  -2   7    7.60    0.54
  -3   2  -7   32.44    1.20
  -3   2  -7   31.33    1.25
   3  -2   7   30.82    1.25
  -4   2  -7   31.07    1.27
  -4   2  -7   30.51    1.21
   4  -2   7   29.89    1.28
  -5   2  -7    0.16    0.49
   5  -2   7    0.19    0.50
  -6   2  -7    0.91    0.61
   6  -2   7    2.10    0.60
  -9  -1   7    1.24    0.65
  -8  -1   7    2.49    0.60
  -8  -1   7    2.69    0.59
   7   1  -7   19.89    0.90
  -7  -1   7   18.95    0.98
  -7  -1   7   18.17    1.01
   6   1  -7    6.94    0.46
   6   1  -7    6.23    0.47
   6   1  -7    5.91    0.47
  -6  -1   7    5.69    0.47
  -6  -1   7    5.78    0.57
  -6  -1   7    6.28    0.54
   5   1  -7    8.04    0.52
   5   1  -7    7.00    0.49
   5   1  -7    7.33    0.45
  -5  -1   7    7.52    0.54
  -5  -1   7    7.69    0.51
  -5  -1   7    6.43    0.55
   4   1  -7   70.75    2.30
   4   1  -7   69.27    2.23
   4   1  -7   70.60    2.30
   4   1  -7   68.86    2.22
  -4  -1   7   69.26    2.32
  -4  -1   7   70.35    2.55
  -4  -1   7   68.63    2.88
   3   1  -7    8.20    0.46
   3   1  -7    8.83    0.48
   3   1  -7    8.60    0.46
  -3  -1   7    8.75    0.56
  -3  -1   7    7.67    0.49
  -3  -1   7    8.02    0.54
   2   1  -7   31.71    1.08
   2   1  -7   31.58    1.08
   2   1  -7   30.66    1.11
  -2  -1   7   33.16    1.42
  -2  -1   7   32.13    1.13
  -2  -1   7   32.01    1.29
   1   1  -7   36.17    1.20
   1   1  -7   38.02    1.59
   1   1  -7   34.97    1.19
   1   1  -7   34.49    1.22
  -1  -1   7   35.16    1.23
  -1  -1   7   34.99    1.39
   0   1  -7   14.02    0.60
   0   1  -7   14.09    0.59
   0   1  -7   14.59    0.61
   0  -1   7   13.29    0.64
   0  -1   7   12.98    0.70
  -1   1  -7    0.94    0.26
  -1   1  -7    0.51    0.25
  -1   1  -7    0.39    0.26
   1  -1   7    0.53    0.29
  -2   1  -7   61.18    2.10
  -2   1  -7   62.86    2.04
  -2   1  -7   61.86    2.03
   2  -1   7   64.34    2.11
  -3   1  -7    0.48    0.33
  -3   1  -7    0.84    0.35
  -3   1  -7    0.48    0.34
   3  -1   7    1.02    0.40
  -4   1  -7    0.17    0.39
  -4   1  -7    0.32    0.42
   4  -1   7    0.81    0.47
  -5   1  -7   -0.36    0.47
   5  -1   7   -0.20    0.48
  -6   1  -7   15.39    1.05
   6  -1   7   15.14    1.00
   7  -1   7    1.29    0.68
  -9   0   7   14.62    1.02
   8   0  -7    2.01    0.45
  -8   0   7    1.65    0.55
   7   0  -7   12.44    0.70
  -7   0   7   12.39    0.80
  -7   0   7   11.37    0.83
   6   0  -7    5.14    0.44
   6   0  -7    5.24    0.40
  -6   0   7    5.26    0.48
  -6   0   7    5.80    0.53
   5   0  -7   29.64    1.05
   5   0  -7   28.58    1.02
   5   0  -7   29.78    1.06
  -5   0   7   28.28    1.33
  -5   0   7   27.35    1.11
  -5   0   7   28.14    1.20
   4   0  -7    1.53    0.25
   4   0  -7    1.10    0.25
   4   0  -7    1.88    0.25
  -4   0   7    1.17    0.29
  -4   0   7    1.70    0.33
  -4   0   7    0.85    0.32
   3   0  -7   52.56    1.76
   3   0  -7   57.86    2.01
   3   0  -7   52.18    1.71
   3   0  -7   51.89    1.71
  -3   0   7   52.53    1.78
  -3   0   7   58.28    1.79
  -3   0   7   53.50    2.28
  -3   0   7   51.85    1.97
   2   0  -7   71.74    2.21
   2   0  -7   70.07    2.20
  -2   0   7   67.55    2.54
  -2   0   7   76.19    2.31
  -2   0   7   69.64    2.95
  -2   0   7   68.92    2.29
   1   0  -7   16.44    0.61
   1   0  -7   16.71    0.87
   1   0  -7   17.15    0.62
   1   0  -7   14.45    0.59
  -1   0   7   17.31    0.88
  -1   0   7   16.49    0.78
  -1   0   7   16.89    0.67
  -1   0   7   17.79    0.67
   0   0  -7   16.77    0.66
   0   0  -7   16.53    0.64
   0   0  -7   16.42    0.64
   0   0   7   16.61    0.68
   0   0   7   17.41    0.68
  -1   0  -7   83.96    2.64
  -1   0  -7   83.68    2.63
  -1   0  -7   85.21    2.72
   1   0   7   82.50    2.73
  -2   0  -7    2.30    0.31
  -2   0  -7    2.37    0.31
  -2   0  -7    2.23    0.32
   2   0   7    2.53    0.34
  -3   0  -7    2.10    0.36
  -3   0  -7    1.97    0.37
  -3   0  -7    2.27    0.35
   3   0   7    2.16    0.41
  -4   0  -7   50.00    1.71
  -4   0  -7   49.53    1.71
  -4   0  -7   51.22    1.78
   4   0   7   47.51    1.76
  -5   0  -7    9.79    0.64
  -5   0  -7    8.81    0.66
   5   0   7    8.98    0.70
   6   0   7    0.96    0.63
  -9   1   7    2.68    0.68
   8  -1  -7    5.93    0.53
  -8   1   7    5.98    0.64
   7  -1  -7   17.88    0.80
   7  -1  -7   18.78    0.89
  -7   1   7   18.64    0.93
  -7   1   7   17.27    0.96
   6  -1  -7    1.72    0.34
   6  -1  -7    1.72    0.30
  -6   1   7    0.84    0.38
  -6   1   7    1.08    0.40
   5  -1  -7   22.19    0.83
   5  -1  -7   22.18    0.81
  -5   1   7   22.57    0.96
  -5   1   7   21.40    0.90
   4  -1  -7   44.91    1.46
   4  -1  -7   45.44    1.49
   4  -1  -7   46.38    1.48
   4  -1  -7   47.86    1.72
  -4   1   7   45.46    2.00
  -4   1   7   45.95    1.56
  -4   1   7   44.94    1.69
   3  -1  -7   11.66    0.48
   3  -1  -7   12.04    0.48
  -3   1   7   11.62    0.60
  -3   1   7   11.67    0.73
  -3   1   7   13.73    0.53
  -3   1   7   11.28    0.52
   2  -1  -7    3.89    0.27
   2  -1  -7    4.16    0.27
  -2   1   7    4.53    0.33
  -2   1   7    4.18    0.43
  -2   1   7    4.26    0.35
  -2   1   7    4.10    0.26
   1  -1  -7   91.31    2.82
   1  -1  -7   90.38    2.82
  -1   1   7   95.06    2.94
  -1   1   7   92.58    2.93
  -1   1   7   89.58    3.25
  -1   1   7   92.16    3.81
   0  -1  -7   41.73    1.26
   0  -1  -7   37.65    1.25
   0  -1  -7   38.48    1.25
   0  -1  -7   38.09    1.26
   0   1   7   38.42    1.30
   0   1   7   37.00    1.30
   0   1   7   40.12    1.74
  -1  -1  -7    0.39    0.22
  -1  -1  -7    0.49    0.22
  -1  -1  -7    1.20    0.22
   1   1   7    0.45    0.25
   1   1   7    0.92    0.24
  -2  -1  -7    0.47    0.28
  -2  -1  -7    0.49    0.26
  -2  -1  -7    0.64    0.27
   2   1   7    0.22    0.31
  -3  -1  -7   26.59    1.04
  -3  -1  -7   29.47    1.11
  -3  -1  -7   27.15    1.02
   3   1   7   26.62    1.09
  -4  -1  -7    3.16    0.42
   4   1   7    3.02    0.48
  -5  -1  -7    0.12    0.42
  -5  -1  -7    0.59    0.44
   5   1   7   -0.42    0.51
   6   1   7    3.63    0.62
   9  -2  -7    0.19    0.47
  -9   2   7    0.27    0.60
   8  -2  -7    5.39    0.52
  -8   2   7    4.89    0.63
   7  -2  -7    1.37    0.38
   7  -2  -7    0.36    0.36
  -7   2   7    0.41    0.42
   6  -2  -7   21.08    0.84
   6  -2  -7   20.49    0.82
  -6   2   7   19.96    0.92
  -6   2   7   21.75    0.96
   5  -2  -7   16.29    0.64
   5  -2  -7   15.81    0.67
   5  -2  -7   18.02    0.80
  -5   2   7   16.18    0.76
  -5   2   7   16.20    0.75
   4  -2  -7    5.05    0.37
   4  -2  -7    4.54    0.28
   4  -2  -7    4.66    0.32
  -4   2   7    4.28    0.35
  -4   2   7    3.71    0.50
  -4   2   7    4.01    0.31
   3  -2  -7   36.70    1.24
   3  -2  -7   37.56    1.24
  -3   2   7   43.80    1.31
  -3   2   7   38.05    1.30
  -3   2   7   40.47    1.46
  -3   2   7   41.75    1.78
  -2   2   7  192.19    6.82
  -2   2   7  196.89    6.24
  -2   2   7  194.75    8.05
  -2   2   7  209.05    6.24
   1  -2  -7    0.77    0.13
   1  -2  -7    0.69    0.13
  -1   2   7    0.71    0.26
  -1   2   7    0.62    0.34
  -1   2   7    0.89    0.17
  -1   2   7    0.63    0.16
   0  -2  -7    0.03    0.18
   0  -2  -7    0.22    0.16
   0   2   7    0.29    0.19
   0   2   7   -0.34    0.33
   0   2   7    0.09    0.17
  -1  -2  -7   24.05    0.74
  -1  -2  -7   20.28    0.76
  -1  -2  -7   19.84    0.77
   1   2   7   20.58    0.82
   1   2   7   20.26    1.10
  -2  -2  -7   40.61    1.36
  -2  -2  -7   39.86    1.35
   2   2   7   40.55    1.42
  -3  -2  -7    0.21    0.30
  -3  -2  -7    0.04    0.32
   3   2   7   -0.03    0.35
  -4  -2  -7    6.57    0.50
   4   2   7    5.69    0.56
  -5  -2  -7    4.08    0.53
   5   2   7    4.55    0.60
   6   2   7   -0.39    0.60
   9  -3  -7    1.75    0.54
  -9   3   7    2.05    0.63
   8  -3  -7    8.69    0.59
  -8   3   7    9.40    0.72
   7  -3  -7   21.75    0.89
   7  -3  -7   20.36    0.92
  -7   3   7   21.49    1.02
   6  -3  -7    3.78    0.36
   6  -3  -7    4.10    0.38
  -6   3   7    3.99    0.43
   5  -3  -7    0.89    0.25
   5  -3  -7    0.35    0.23
  -5   3   7    0.51    0.29
   4  -3  -7   41.44    1.35
   4  -3  -7   43.29    1.37
  -4   3   7   42.17    1.44
  -4   3   7   45.69    1.56
  -3   3   7    2.69    0.18
  -3   3   7    2.91    0.25
  -3   3   7    1.96    0.43
  -3   3   7    2.73    0.18
  -2   3   7   32.97    1.20
  -2   3   7   32.25    1.54
  -1   3   7   10.53    0.70
  -1   3   7    8.98    0.52
  -1   3   7    9.64    0.39
  -1   3   7   10.88    0.40
   0  -3  -7  112.93    3.47
   0  -3  -7  112.12    3.47
   0   3   7  119.83    4.72
   0   3   7  111.25    3.61
   0   3   7  112.75    3.62
  -1  -3  -7   14.53    0.59
  -1  -3  -7   14.55    0.60
   1   3   7   14.64    0.64
   1   3   7   15.91    0.90
  -2  -3  -7   15.20    0.65
  -2  -3  -7   15.09    0.66
   2   3   7   15.72    0.72
  -3  -3  -7    3.24    0.38
  -3  -3  -7    3.21    0.37
   3   3   7    3.53    0.43
  -4  -3  -7    8.66    0.57
   4   3   7    9.49    0.63
  -5  -3  -7    0.20    0.47
   5   3   7    0.64    0.53
   6   3   7    1.39    0.64
   8  -4  -7    1.83    0.47
  -8   4   7    2.65    0.57
   7  -4  -7   -0.17    0.37
   7  -4  -7    0.50    0.36
  -7   4   7    0.51    0.45
   6  -4  -7    4.84    0.40
   6  -4  -7    5.70    0.40
  -6   4   7    6.11    0.47
   5  -4  -7   37.73    1.22
   5  -4  -7   36.76    1.24
  -5   4   7   36.67    1.31
   4  -4  -7    0.57    0.17
   4  -4  -7    0.50    0.18
   4  -4  -7    0.19    0.18
  -4   4   7    0.22    0.22
  -3   4   7    4.59    0.56
  -2   4   7   73.88    3.15
  -1   4   7   27.40    1.06
  -1   4   7   29.86    1.39
   0  -4  -7    5.77    0.33
   0  -4  -7    5.63    0.33
   0   4   7    6.34    0.40
   0   4   7    6.68    0.60
  -1  -4  -7   11.43    0.51
  -1  -4  -7    9.81    0.50
   1   4   7   11.84    0.85
   1   4   7    9.40    0.55
  -2  -4  -7    5.66    0.41
  -2  -4  -7    6.10    0.39
   2   4   7    5.58    0.45
   2   4   7    6.41    0.66
  -3  -4  -7    3.19    0.38
  -3  -4  -7    2.27    0.38
   3   4   7    2.46    0.44
  -4  -4  -7    7.45    0.55
   4   4   7    6.48    0.59
  -5  -4  -7    1.79    0.49
   5   4   7    1.18    0.54
   8  -5  -7   -0.29    0.44
  -8   5   7   -0.12    0.54
   7  -5  -7    8.68    0.57
   7  -5  -7    7.84    0.53
  -7   5   7    8.83    0.63
   6  -5  -7   17.77    0.76
   6  -5  -7   17.12    0.76
  -6   5   7   18.42    0.85
   5  -5  -7    2.45    0.29
   5  -5  -7    2.19    0.28
  -5   5   7    2.40    0.34
   4  -5  -7    2.75    0.24
   4  -5  -7    2.87    0.23
  -4   5   7    3.24    0.27
  -3   5   7   13.74    0.94
  -2   5   7    3.87    0.55
   1  -5  -7   46.97    1.49
   1  -5  -7   48.03    1.50
  -1   5   7   49.00    1.56
  -1   5   7   49.99    2.18
   0  -5  -7    5.83    0.38
   0  -5  -7    5.89    0.36
   0   5   7    6.34    0.43
   0   5   7    6.50    0.65
  -1  -5  -7    6.60    0.45
  -1  -5  -7    6.50    0.45
   1   5   7    6.73    0.41
   1   5   7    6.13    0.64
  -2  -5  -7    0.86    0.32
  -2  -5  -7    1.48    0.31
   2   5   7    1.26    0.52
   2   5   7    0.83    0.37
  -3  -5  -7    6.36    0.48
  -3  -5  -7    6.66    0.51
   3   5   7    5.89    0.53
  -4  -5  -7   -0.19    0.44
   4   5   7   -0.08    0.46
  -5  -5  -7    2.28    0.56
   5   5   7    2.26    0.62
   7  -6  -7    1.03    0.40
   7  -6  -7    1.51    0.42
  -7   6   7    0.85    0.49
   6  -6  -7    0.04    0.33
   6  -6  -7    0.45    0.35
  -6   6   7    0.16    0.39
   5  -6  -7    4.38    0.35
   5  -6  -7    4.96    0.36
  -5   6   7    5.46    0.41
   4  -6  -7   24.61    0.85
   4  -6  -7   23.99    0.86
  -4   6   7   24.89    0.90
   3  -6  -7    0.37    0.19
   3  -6  -7    0.52    0.19
  -3   6   7    0.70    0.19
  -3   6   7   -0.17    0.52
   2  -6  -7    3.13    0.22
   2  -6  -7    3.77    0.25
  -2   6   7    3.41    0.22
  -2   6   7    3.65    0.62
   1  -6  -7    1.49    0.22
   1  -6  -7    1.52    0.24
  -1   6   7    1.70    0.23
  -1   6   7    1.77    0.24
  -1   6   7    1.49    0.52
   0  -6  -7    3.55    0.31
   0  -6  -7    3.91    0.30
   0   6   7    2.94    0.58
   0   6   7    3.98    0.33
  -1  -6  -7    6.70    0.44
  -1  -6  -7    7.81    0.51
   1   6   7    7.10    0.46
   1   6   7    7.72    0.71
  -2  -6  -7   10.30    0.62
  -2  -6  -7   10.45    0.65
   2   6   7   12.31    0.75
   2   6   7   11.59    0.94
  -3  -6  -7    0.38    0.41
   3   6   7    0.49    0.45
  -4  -6  -7    1.34    0.50
   4   6   7    0.03    0.53
   7  -7  -7    0.42    0.44
   7  -7  -7    0.28    0.44
  -7   7   7   -0.14    0.50
   6  -7  -7    6.85    0.49
   6  -7  -7    6.22    0.51
   6  -7  -7    6.73    0.50
  -6   7   7    7.59    0.55
   5  -7  -7    1.68    0.34
   5  -7  -7    1.23    0.34
  -5   7   7    1.41    0.36
   4  -7  -7    8.38    0.48
   4  -7  -7    8.23    0.49
  -4   7   7    9.01    0.54
   3  -7  -7    5.40    0.35
   3  -7  -7    5.06    0.34
  -3   7   7    5.23    0.73
   2  -7  -7    0.86    0.29
   2  -7  -7    0.62    0.24
  -2   7   7    0.57    0.61
  -2   7   7    0.90    0.25
   1  -7  -7    2.50    0.29
   1  -7  -7    2.62    0.32
  -1   7   7    3.04    0.65
  -1   7   7    3.02    0.31
   0  -7  -7   18.14    0.76
   0  -7  -7   18.62    0.77
   0   7   7   19.42    1.17
   0   7   7   18.85    0.77
  -1  -7  -7    1.02    0.34
  -1  -7  -7    0.84    0.37
   1   7   7    1.28    0.63
   1   7   7    0.24    0.37
  -2  -7  -7    0.98    0.42
  -2  -7  -7    0.77    0.38
   2   7   7    1.10    0.45
   2   7   7    1.81    0.64
  -3  -7  -7    0.98    0.46
   3   7   7    0.44    0.50
   5  -8  -7    4.54    0.44
   5  -8  -7    5.23    0.45
   4  -8  -7   -0.25    0.34
   4  -8  -7   -0.12    0.33
   3  -8  -7    1.32    0.35
   3  -8  -7    2.05    0.33
   2  -8  -7    0.36    0.30
   2  -8  -7    0.21    0.35
   1  -8  -7    2.75    0.38
   1  -8  -7    3.34    0.35
   0  -8  -7    0.12    0.37
   0  -8  -7   -0.01    0.35
   0   8   7   -0.19    0.35
  -1  -8  -7    1.13    0.40
  -1  -8  -7    0.88    0.42
   1   8   7    0.85    0.42
   3  -9  -7    4.29    0.48
   3  -9  -7    3.46    0.42
   2  -9  -7    1.14    0.37
   2  -9  -7    0.38    0.42
   1  -9  -7   -0.17    0.42
   1  -9  -7    0.05    0.36
   3   8  -8    0.09    0.57
  -3  -8   8   -0.28    0.65
   2   8  -8    1.63    0.64
  -2  -8   8    1.24    0.63
   1   8  -8    3.35    0.66
  -1  -8   8    4.49    0.66
   0   8  -8    1.49    0.64
   0  -8   8    0.52    0.56
  -1   8  -8    0.30    0.63
   1  -8   8    0.00    0.62
  -2   8  -8    0.77    0.67
   2  -8   8    0.19    0.59
   5   7  -8    1.08    0.65
  -5  -7   8    0.03    0.61
   4   7  -8   -0.52    0.57
  -4  -7   8    0.06    0.58
   3   7  -8    0.98    0.57
  -3  -7   8    0.56    0.62
  -3  -7   8    0.28    0.59
   2   7  -8    1.43    0.56
  -2  -7   8    0.54    0.55
  -2  -7   8    0.66    0.65
   1   7  -8    0.33    0.50
  -1  -7   8    0.81    0.59
  -1  -7   8   -0.04    0.53
   0   7  -8    0.02    0.55
   0  -7   8    0.39    0.56
   0  -7   8   -0.78    0.53
  -1   7  -8    1.85    0.60
   1  -7   8    0.34    0.53
   1  -7   8    0.97    0.60
  -2   7  -8    8.26    0.75
   2  -7   8    9.17    0.85
   2  -7   8    8.91    0.77
  -3   7  -8    0.12    0.64
   3  -7   8    0.26    0.63
   6   6  -8   -0.16    0.60
   6   6  -8    0.35    0.57
  -6  -6   8   -1.19    0.59
   5   6  -8    0.18    0.55
  -5  -6   8    0.55    0.57
  -5  -6   8    0.50    0.69
   4   6  -8    2.51    0.57
  -4  -6   8    3.57    0.61
  -4  -6   8    1.98    0.64
   3   6  -8    6.15    0.59
  -3  -6   8    7.26    0.64
  -3  -6   8    7.15    0.72
   2   6  -8    0.08    0.43
  -2  -6   8    0.27    0.49
  -2  -6   8    0.59    0.53
   1   6  -8    0.56    0.44
  -1  -6   8    0.79    0.52
  -1  -6   8    0.59    0.49
   0   6  -8    6.28    0.58
   0  -6   8    6.38    0.58
   0  -6   8    6.07    0.66
  -1   6  -8    3.19    0.56
   1  -6   8    2.84    0.62
   1  -6   8    2.66    0.56
  -2   6  -8    3.26    0.62
   2  -6   8    2.11    0.53
   2  -6   8    2.97    0.61
  -3   6  -8    0.49    0.61
   3  -6   8    1.00    0.59
   3  -6   8   -0.17    0.56
  -4   6  -8   -0.06    0.60
   4  -6   8    0.21    0.66
  -7  -5   8   -0.54    0.65
   6   5  -8    0.53    0.55
   6   5  -8    1.44    0.51
  -6  -5   8    0.61    0.55
  -6  -5   8    0.86    0.66
   5   5  -8    3.00    0.53
   5   5  -8    3.07    0.55
  -5  -5   8    2.75    0.69
  -5  -5   8    3.28    0.59
   4   5  -8    1.10    0.48
  -4  -5   8    1.48    0.56
  -4  -5   8    1.70    0.50
   3   5  -8    1.92    0.47
  -3  -5   8    1.96    0.50
  -3  -5   8    2.16    0.52
   2   5  -8   -0.36    0.40
   2   5  -8    0.35    0.42
  -2  -5   8    0.06    0.43
  -2  -5   8    0.37    0.46
   1   5  -8    1.30    0.43
   1   5  -8    1.89    0.46
  -1  -5   8    1.01    0.44
  -1  -5   8    1.37    0.50
   0   5  -8    2.03    0.44
   0   5  -8    1.64    0.44
   0  -5   8    2.18    0.46
   0  -5   8    1.26    0.50
  -1   5  -8    3.49    0.52
   1  -5   8    3.46    0.53
   1  -5   8    2.91    0.54
  -2   5  -8    3.62    0.56
   2  -5   8    2.83    0.56
   2  -5   8    2.98    0.51
  -3   5  -8   19.51    1.09
   3  -5   8   17.51    0.94
   3  -5   8   15.26    1.03
  -4   5  -8    1.85    0.58
   4  -5   8    0.54    0.57
  -5   5  -8    3.50    0.69
   5  -5   8    2.73    0.69
  -7  -4   8    1.00    0.62
  -7  -4   8    1.08    0.67
   6   4  -8    9.40    0.68
   6   4  -8    7.96    0.67
  -6  -4   8    7.77    0.68
  -6  -4   8    9.69    0.85
   5   4  -8    0.42    0.44
   5   4  -8    0.05    0.44
  -5  -4   8   -0.47    0.55
  -5  -4   8    0.27    0.45
   4   4  -8    3.15    0.47
   4   4  -8    3.09    0.44
  -4  -4   8    3.01    0.50
  -4  -4   8    2.51    0.54
   3   4  -8    2.17    0.41
   3   4  -8    3.63    0.45
  -3  -4   8    2.99    0.52
  -3  -4   8    2.07    0.46
   2   4  -8   18.51    0.87
   2   4  -8   18.10    0.82
   2   4  -8   17.10    0.89
  -2  -4   8   15.13    0.80
  -2  -4   8   16.96    0.94
   1   4  -8   15.81    0.80
   1   4  -8   14.14    0.75
   1   4  -8   13.88    0.86
  -1  -4   8   13.73    0.72
   0   4  -8    0.64    0.39
   0   4  -8    0.80    0.38
   0  -4   8    0.65    0.44
   0  -4   8    0.23    0.37
  -1   4  -8    2.51    0.43
  -1   4  -8    2.21    0.43
   1  -4   8    2.43    0.49
   1  -4   8    2.33    0.46
  -2   4  -8    0.65    0.39
  -2   4  -8    1.02    0.46
   2  -4   8    0.51    0.47
   2  -4   8    0.50    0.46
  -3   4  -8   24.76    1.19
   3  -4   8   24.04    1.15
  -4   4  -8    1.84    0.58
   4  -4   8    1.09    0.55
  -5   4  -8   -0.20    0.64
   5  -4   8   -0.27    0.64
  -8  -3   8    2.52    0.66
  -7  -3   8    2.86    0.60
  -7  -3   8    1.40    0.67
   6   3  -8    2.13    0.49
   6   3  -8    2.70    0.46
  -6  -3   8    1.80    0.60
  -6  -3   8    1.92    0.54
   5   3  -8    5.36    0.49
   5   3  -8    4.12    0.48
   5   3  -8    4.78    0.49
  -5  -3   8    5.36    0.54
  -5  -3   8    4.94    0.62
   4   3  -8   19.66    0.86
   4   3  -8   18.76    0.88
  -4  -3   8   19.43    0.91
  -4  -3   8   17.89    0.98
   3   3  -8    1.19    0.34
   3   3  -8    2.01    0.37
   3   3  -8    1.70    0.35
  -3  -3   8    1.58    0.48
  -3  -3   8    1.89    0.39
   2   3  -8   11.38    0.67
   2   3  -8   10.39    0.60
   2   3  -8   10.87    0.61
   2   3  -8   10.21    0.64
  -2  -3   8   10.27    0.65
  -2  -3   8    8.52    0.70
   1   3  -8   21.69    0.87
   1   3  -8   20.22    1.06
   1   3  -8   21.42    0.94
   1   3  -8   21.27    0.87
  -1  -3   8   22.14    0.91
  -1  -3   8   19.76    1.00
   0   3  -8    7.70    0.49
   0   3  -8    6.94    0.48
   0   3  -8    8.02    0.51
   0  -3   8    6.97    0.50
   0  -3   8    5.81    0.57
  -1   3  -8   19.47    0.93
  -1   3  -8   19.79    0.85
  -1   3  -8   18.45    0.86
   1  -3   8   16.57    0.98
   1  -3   8   17.81    0.82
  -2   3  -8    3.73    0.46
  -2   3  -8    3.84    0.48
   2  -3   8    3.92    0.49
  -3   3  -8   -0.06    0.42
  -3   3  -8   -0.11    0.45
   3  -3   8    0.31    0.48
  -4   3  -8    2.10    0.55
   4  -3   8    1.40    0.57
  -5   3  -8    0.54    0.59
   5  -3   8    0.97    0.65
   6  -3   8    7.49    0.86
  -8  -2   8    0.12    0.61
  -8  -2   8    0.65    0.67
   7   2  -8    5.38    0.52
  -7  -2   8    5.58    0.71
  -7  -2   8    5.57    0.63
   6   2  -8    0.82    0.38
  -6  -2   8    1.39    0.48
  -6  -2   8    0.67    0.48
   5   2  -8   21.50    0.94
   5   2  -8   22.53    0.91
   5   2  -8   22.96    0.94
   5   2  -8   21.54    0.92
  -5  -2   8   20.04    1.05
  -5  -2   8   22.10    1.02
   4   2  -8    4.61    0.40
   4   2  -8    5.33    0.43
   4   2  -8    5.56    0.42
  -4  -2   8    5.10    0.47
  -4  -2   8    4.84    0.53
   3   2  -8   32.54    1.15
   3   2  -8   31.57    1.14
   3   2  -8   32.03    1.18
  -3  -2   8   31.34    1.18
  -3  -2   8   29.78    1.32
   2   2  -8   12.76    0.66
   2   2  -8   12.23    0.64
   2   2  -8   14.63    0.76
   2   2  -8   13.48    0.64
  -2  -2   8   12.04    0.79
  -2  -2   8   12.04    0.66
   1   2  -8    9.05    0.59
   1   2  -8    9.66    0.57
   1   2  -8   10.05    0.54
  -1  -2   8    9.11    0.65
  -1  -2   8   10.72    0.62
   0   2  -8   15.35    0.68
   0   2  -8   14.26    0.69
   0   2  -8   12.99    0.67
   0  -2   8   12.59    0.77
   0  -2   8   14.77    0.70
  -1   2  -8   26.60    1.01
  -1   2  -8   24.82    1.01
  -1   2  -8   25.20    0.98
   1  -2   8   24.96    1.02
  -2   2  -8    0.03    0.36
  -2   2  -8    0.63    0.37
  -2   2  -8    0.57    0.37
   2  -2   8    0.27    0.39
  -3   2  -8    4.47    0.50
  -3   2  -8    4.99    0.49
   3  -2   8    4.05    0.52
  -4   2  -8   24.33    1.20
   4  -2   8   24.42    1.15
   5  -2   8    2.97    0.65
   6  -2   8    1.12    0.68
  -8  -1   8    5.14    0.68
  -8  -1   8    6.01    0.74
   7   1  -8    3.19    0.44
  -7  -1   8    2.53    0.54
  -7  -1   8    2.36    0.55
   6   1  -8    1.20    0.35
  -6  -1   8    0.62    0.44
  -6  -1   8    0.63    0.44
   5   1  -8   32.09    1.18
   5   1  -8   35.92    1.19
  -5  -1   8   30.77    1.24
  -5  -1   8   30.54    1.36
  -5  -1   8   33.85    1.48
   4   1  -8    1.12    0.30
   4   1  -8    1.05    0.29
   4   1  -8    0.96    0.28
  -4  -1   8    0.76    0.34
  -4  -1   8    0.60    0.40
  -4  -1   8    1.18    0.34
   3   1  -8   30.26    1.09
   3   1  -8   31.44    1.14
   3   1  -8   31.32    1.10
  -3  -1   8   32.53    1.17
  -3  -1   8   32.03    1.43
  -3  -1   8   31.99    1.32
   2   1  -8    0.59    0.26
   2   1  -8    1.07    0.27
   2   1  -8    0.73    0.25
  -2  -1   8    0.67    0.29
  -2  -1   8    1.02    0.35
   1   1  -8   45.45    1.55
   1   1  -8   47.36    1.53
   1   1  -8   46.30    1.53
  -1  -1   8   45.36    1.57
  -1  -1   8   46.41    1.79
   0   1  -8    9.93    0.55
   0   1  -8   10.75    0.58
   0   1  -8   11.66    0.59
   0  -1   8   10.21    0.58
   0  -1   8   10.47    0.66
  -1   1  -8    0.71    0.32
  -1   1  -8    0.41    0.29
  -1   1  -8    0.44    0.31
   1  -1   8   -0.10    0.33
  -2   1  -8    0.26    0.34
  -2   1  -8    0.69    0.34
  -2   1  -8    0.84    0.33
   2  -1   8    0.34    0.36
  -3   1  -8   14.91    0.85
  -3   1  -8   15.69    0.79
   3  -1   8   14.41    0.83
  -4   1  -8    1.07    0.44
   4  -1   8    1.02    0.47
   5  -1   8    0.20    0.58
   6  -1   8    4.55    0.73
  -9   0   8    0.38    0.63
   8   0  -8    8.08    0.62
  -8   0   8    6.79    0.69
  -8   0   8    8.83    0.76
   7   0  -8    0.18    0.37
  -7   0   8   -0.15    0.49
  -7   0   8    0.38    0.50
   6   0  -8   15.88    0.71
   6   0  -8   17.29    0.79
  -6   0   8   14.79    0.86
  -6   0   8   14.84    0.90
  -6   0   8   15.23    0.88
   5   0  -8    9.33    0.53
   5   0  -8    8.38    0.55
  -5   0   8    8.16    0.52
  -5   0   8    8.14    0.65
  -5   0   8    7.92    0.66
   4   0  -8    0.08    0.27
   4   0  -8    0.90    0.26
  -4   0   8    0.68    0.35
  -4   0   8   -0.01    0.29
  -4   0   8    0.94    0.35
   3   0  -8  101.00    3.12
   3   0  -8   99.15    3.12
  -3   0   8   98.80    3.24
  -3   0   8   99.77    3.57
  -3   0   8  103.25    4.15
   2   0  -8   43.37    1.44
   2   0  -8   43.88    1.44
   2   0  -8   44.34    1.43
  -2   0   8   42.50    1.69
  -2   0   8   45.17    1.94
  -2   0   8   45.13    1.49
   1   0  -8    0.40    0.08
   1   0  -8    0.43    0.24
   1   0  -8    0.34    0.23
  -1   0   8   -0.18    0.24
  -1   0   8    0.68    0.35
  -1   0   8    0.48    0.35
   0   0  -8    0.65    0.27
   0   0  -8    0.64    0.22
   0   0  -8    0.43    0.26
   0   0   8    0.62    0.27
   0   0   8    0.38    0.35
  -1   0  -8   31.37    1.08
  -1   0  -8   31.28    1.11
  -1   0  -8   30.83    1.11
   1   0   8   29.14    1.12
  -2   0  -8   26.89    1.01
  -2   0  -8   24.90    0.96
   2   0   8   25.29    1.03
  -3   0  -8    8.76    0.60
  -3   0  -8    8.56    0.61
   3   0   8    8.41    0.59
  -4   0  -8    1.00    0.45
   4   0   8    1.32    0.50
   5   0   8    3.59    0.62
   6   0   8    2.20    0.70
  -9   1   8    0.38    0.64
   8  -1  -8   10.24    0.71
  -8   1   8   10.54    0.74
   7  -1  -8   10.45    0.71
   7  -1  -8   10.68    0.68
  -7   1   8   10.61    0.69
  -7   1   8   11.39    0.79
   6  -1  -8    1.79    0.36
   6  -1  -8    2.39    0.34
  -6   1   8    2.44    0.42
  -6   1   8    2.38    0.45
  -6   1   8    2.14    0.51
   5  -1  -8    3.78    0.34
   5  -1  -8    3.14    0.30
  -5   1   8    2.63    0.46
  -5   1   8    3.07    0.37
  -5   1   8    3.20    0.41
   4  -1  -8   24.49    0.84
   4  -1  -8   23.53    0.85
  -4   1   8   23.86    1.19
  -4   1   8   22.80    0.90
  -4   1   8   23.86    1.02
   3  -1  -8    0.41    0.21
   3  -1  -8    0.38    0.21
  -3   1   8    0.24    0.23
  -3   1   8    0.64    0.37
  -3   1   8    0.04    0.29
   2  -1  -8    0.56    0.21
   2  -1  -8    0.82    0.19
  -2   1   8    0.34    0.22
  -2   1   8    0.99    0.36
  -2   1   8    0.11    0.30
   1  -1  -8    7.19    0.40
   1  -1  -8    8.29    0.41
  -1   1   8    8.01    0.56
  -1   1   8    8.40    0.69
  -1   1   8    8.07    0.44
   0  -1  -8   86.28    2.72
   0  -1  -8   89.60    2.73
   0   1   8   86.27    2.83
  -1  -1  -8   -0.14    0.24
  -1  -1  -8   -0.19    0.26
  -1  -1  -8    0.34    0.25
   1   1   8   -0.08    0.28
  -2  -1  -8    3.80    0.37
  -2  -1  -8    3.71    0.37
  -2  -1  -8    4.26    0.37
   2   1   8    3.15    0.40
  -3  -1  -8    6.23    0.46
  -3  -1  -8    6.35    0.47
  -3  -1  -8    6.37    0.47
   3   1   8    5.98    0.53
  -4  -1  -8    9.09    0.61
  -4  -1  -8    9.75    0.61
   4   1   8    8.68    0.65
  -5  -1  -8    0.63    0.48
  -5  -1  -8    0.45    0.46
   5   1   8    2.16    0.57
   6   1   8    1.16    0.67
   9  -2  -8    6.92    0.65
  -9   2   8    7.37    0.77
   8  -2  -8    1.26    0.45
  -8   2   8    1.47    0.56
   7  -2  -8    0.03    0.36
   7  -2  -8   -0.15    0.38
  -7   2   8    0.40    0.44
   6  -2  -8    8.07    0.56
   6  -2  -8    7.82    0.49
  -6   2   8    7.96    0.63
  -6   2   8    7.39    0.51
   5  -2  -8   32.30    1.11
   5  -2  -8   32.48    1.09
  -5   2   8   32.03    1.18
  -5   2   8   32.67    1.28
  -5   2   8   31.69    1.56
   4  -2  -8    1.20    0.23
   4  -2  -8    1.16    0.21
  -4   2   8    0.53    0.42
  -4   2   8    1.70    0.26
  -4   2   8    1.49    0.31
   3  -2  -8    5.21    0.31
   3  -2  -8    5.33    0.31
  -3   2   8    5.24    0.52
  -3   2   8    6.26    0.41
  -3   2   8    5.59    0.36
   2  -2  -8   56.71    1.81
   2  -2  -8   57.01    1.81
  -2   2   8   60.08    2.54
  -2   2   8   58.15    2.13
  -2   2   8   63.25    1.90
  -2   2   8   57.04    1.89
   1  -2  -8   28.55    0.93
   1  -2  -8   28.09    0.92
   1  -2  -8   28.09    0.92
  -1   2   8   26.60    1.12
  -1   2   8   28.41    0.96
  -1   2   8   28.14    1.35
   0  -2  -8   13.98    0.56
   0  -2  -8   13.89    0.57
   0   2   8   14.52    0.88
   0   2   8   13.92    0.61
  -1  -2  -8   11.28    0.56
  -1  -2  -8   12.13    0.55
   1   2   8   12.24    0.63
  -2  -2  -8    6.54    0.43
  -2  -2  -8    6.91    0.43
   2   2   8    6.03    0.46
  -3  -2  -8    0.00    0.34
  -3  -2  -8    0.30    0.35
   3   2   8    0.90    0.40
  -4  -2  -8    6.20    0.52
   4   2   8    6.43    0.61
  -5  -2  -8    1.89    0.49
   5   2   8    1.83    0.58
   8  -3  -8    0.18    0.44
  -8   3   8    1.55    0.55
   7  -3  -8   14.88    0.80
   7  -3  -8   15.28    0.74
  -7   3   8   16.54    0.92
   6  -3  -8   12.17    0.63
   6  -3  -8   12.21    0.59
  -6   3   8   11.30    0.71
   5  -3  -8    6.17    0.42
   5  -3  -8    6.86    0.45
  -5   3   8    6.97    0.51
  -5   3   8    6.45    0.48
   4  -3  -8    0.43    0.19
   4  -3  -8    0.55    0.18
  -4   3   8    0.63    0.22
  -4   3   8    0.32    0.45
  -4   3   8    0.47    0.25
  -3   3   8   72.66    2.37
  -3   3   8   75.90    3.19
  -3   3   8   75.25    2.62
  -2   3   8   14.78    0.93
  -2   3   8   13.85    0.66
   1  -3  -8   41.42    1.31
  -1   3   8   40.38    1.56
  -1   3   8   44.51    1.91
  -1   3   8   41.12    1.36
   0  -3  -8    2.28    0.24
   0  -3  -8    2.28    0.23
   0   3   8    2.39    0.48
   0   3   8    2.18    0.25
  -1  -3  -8   21.74    0.83
  -1  -3  -8   22.37    0.84
   1   3   8   24.86    1.24
   1   3   8   22.87    0.89
  -2  -3  -8    1.06    0.30
  -2  -3  -8    1.22    0.31
   2   3   8    1.06    0.37
  -3  -3  -8    5.03    0.45
  -3  -3  -8    5.21    0.45
   3   3   8    5.97    0.50
  -4  -3  -8    0.22    0.43
   4   3   8    1.11    0.51
  -5  -3  -8    1.43    0.50
   5   3   8    1.97    0.60
   8  -4  -8    6.01    0.54
  -8   4   8    4.92    0.61
   7  -4  -8    0.28    0.38
   7  -4  -8    0.49    0.37
  -7   4   8    0.67    0.45
   6  -4  -8    2.78    0.35
   6  -4  -8    2.10    0.36
  -6   4   8    2.16    0.39
   5  -4  -8   18.21    0.71
   5  -4  -8   18.11    0.68
  -5   4   8   17.72    0.77
   4  -4  -8   15.82    0.58
   4  -4  -8   15.86    0.56
  -4   4   8   15.53    0.60
  -4   4   8   15.94    1.01
  -3   4   8    3.64    0.57
  -2   4   8    0.61    0.49
  -1   4   8   26.65    1.08
  -1   4   8   29.48    1.42
   0  -4  -8    0.00    0.21
   0  -4  -8    0.15    0.20
   0   4   8    0.23    0.48
   0   4   8    0.36    0.23
  -1  -4  -8   16.64    0.69
  -1  -4  -8   17.12    0.69
   1   4   8   16.98    0.77
   1   4   8   19.18    1.08
  -2  -4  -8   11.13    0.61
  -2  -4  -8   12.05    0.62
   2   4   8   10.81    0.72
  -3  -4  -8    0.02    0.37
  -3  -4  -8    0.20    0.38
   3   4   8   -0.07    0.42
  -4  -4  -8   -0.09    0.42
   4   4   8   -0.43    0.50
   8  -5  -8    3.50    0.49
  -8   5   8    4.15    0.64
   7  -5  -8    1.37    0.39
   7  -5  -8    0.88    0.41
  -7   5   8    1.43    0.49
   6  -5  -8    9.36    0.56
   6  -5  -8    9.46    0.59
  -6   5   8   10.14    0.70
   5  -5  -8    1.66    0.26
   5  -5  -8    1.14    0.27
  -5   5   8    1.08    0.30
   4  -5  -8   27.34    0.88
   4  -5  -8   25.26    0.89
  -4   5   8   29.47    1.47
  -3   5   8    1.43    0.55
  -2   5   8    7.45    0.70
   1  -5  -8    3.03    0.20
  -1   5   8    4.21    0.60
   0  -5  -8    6.67    0.41
   0  -5  -8    7.99    0.42
   0   5   8    7.66    0.73
   0   5   8    7.27    0.47
  -1  -5  -8    0.88    0.28
  -1  -5  -8    0.76    0.30
   1   5   8    1.35    0.54
   1   5   8    0.94    0.32
  -2  -5  -8    1.13    0.34
  -2  -5  -8    0.50    0.35
   2   5   8    0.72    0.39
  -3  -5  -8    1.62    0.39
  -3  -5  -8    1.02    0.41
   3   5   8    0.95    0.46
  -4  -5  -8    0.40    0.47
   4   5   8    0.20    0.54
   7  -6  -8    6.16    0.52
   7  -6  -8    6.97    0.54
  -7   6   8    7.84    0.61
   6  -6  -8    9.76    0.61
   6  -6  -8   10.10    0.57
   5  -6  -8    3.49    0.33
   5  -6  -8    4.16    0.34
   5  -6  -8    4.00    0.33
   4  -6  -8    1.45    0.23
   4  -6  -8    2.11    0.25
  -4   6   8    1.50    0.64
  -3   6   8    2.51    0.61
  -2   6   8    4.52    0.70
   1  -6  -8    9.08    0.43
   1  -6  -8    8.98    0.43
  -1   6   8   10.31    0.87
   0  -6  -8    0.08    0.26
   0  -6  -8    0.05    0.27
   0   6   8   -0.14    0.27
   0   6   8    0.86    0.55
  -1  -6  -8    0.53    0.31
  -1  -6  -8    0.32    0.33
   1   6   8   -0.01    0.35
   1   6   8   -0.09    0.56
  -2  -6  -8    9.58    0.65
  -2  -6  -8   10.20    0.65
   2   6   8   10.25    0.75
  -3  -6  -8    0.44    0.46
   3   6   8   -0.15    0.49
   6  -7  -8    0.28    0.36
   6  -7  -8    0.32    0.36
   5  -7  -8    2.11    0.34
   5  -7  -8    2.23    0.34
   4  -7  -8    0.02    0.26
   4  -7  -8    0.18    0.28
   3  -7  -8   18.00    0.68
   3  -7  -8   17.29    0.65
   2  -7  -8   -0.27    0.27
   2  -7  -8   -0.15    0.22
   1  -7  -8   -0.30    0.27
   1  -7  -8    0.27    0.26
   0  -7  -8    0.89    0.33
   0  -7  -8    1.12    0.31
  -1  -7  -8    3.26    0.42
  -1  -7  -8    3.31    0.40
   1   7   8    3.70    0.45
  -2  -7  -8    1.08    0.42
  -2  -7  -8    1.07    0.43
   2   7   8    1.07    0.46
   4  -8  -8    4.32    0.40
   4  -8  -8    4.19    0.41
   3  -8  -8    0.68    0.31
   3  -8  -8    0.63    0.35
   2  -8  -8   -0.32    0.33
   2  -8  -8    0.42    0.29
   1  -8  -8    6.26    0.45
   1  -8  -8    6.44    0.43
   0  -8  -8   -0.38    0.38
   0  -8  -8   -0.09    0.36
   1   8  -9    0.89    0.65
  -1  -8   9   -0.25    0.57
   0   8  -9    1.75    0.68
   0  -8   9    1.18    0.66
   4   7  -9    0.45    0.61
  -4  -7   9   -0.37    0.66
   3   7  -9   -0.51    0.57
  -3  -7   9   -0.27    0.61
   2   7  -9    0.28    0.59
  -2  -7   9    0.24    0.58
   1   7  -9    0.55    0.58
  -1  -7   9    0.16    0.52
  -1  -7   9    0.66    0.63
   0   7  -9    0.62    0.59
   0  -7   9   -0.13    0.58
  -1   7  -9   -0.26    0.59
   1  -7   9    0.33    0.60
  -2   7  -9    1.15    0.62
   2  -7   9    2.25    0.63
   5   6  -9    0.40    0.59
  -5  -6   9    0.31    0.58
   4   6  -9   -0.49    0.53
  -4  -6   9   -0.24    0.66
  -4  -6   9   -0.55    0.60
   3   6  -9    1.97    0.55
  -3  -6   9    1.89    0.55
  -3  -6   9    2.36    0.69
   2   6  -9    1.01    0.53
  -2  -6   9    0.54    0.53
  -2  -6   9    1.05    0.63
   1   6  -9    0.60    0.52
  -1  -6   9    0.69    0.57
  -1  -6   9    0.16    0.50
   0   6  -9    0.07    0.52
   0  -6   9    0.00    0.55
   0  -6   9    0.15    0.52
  -1   6  -9    1.83    0.58
   1  -6   9    1.12    0.52
   1  -6   9    1.72    0.61
  -2   6  -9    1.54    0.62
   2  -6   9    1.78    0.57
   2  -6   9    1.69    0.67
  -3   6  -9    3.72    0.67
   3  -6   9    3.72    0.70
  -6  -5   9    1.30    0.58
  -5  -5   9    1.57    0.61
  -5  -5   9    0.19    0.63
   4   5  -9    3.11    0.54
  -4  -5   9    2.65    0.69
  -4  -5   9    3.87    0.56
   3   5  -9    2.99    0.51
  -3  -5   9    2.89    0.56
  -3  -5   9    2.86    0.65
   2   5  -9   13.91    0.88
  -2  -5   9   12.08    0.82
  -2  -5   9   13.14    0.99
   1   5  -9    1.67    0.49
  -1  -5   9    1.34    0.44
  -1  -5   9    1.19    0.55
   0   5  -9    0.62    0.48
   0  -5   9   -0.59    0.50
   0  -5   9    0.39    0.47
  -1   5  -9    2.23    0.55
   1  -5   9    2.58    0.56
   1  -5   9    2.79    0.54
  -2   5  -9    0.71    0.56
   2  -5   9    0.99    0.52
   2  -5   9    1.26    0.56
  -3   5  -9    0.36    0.59
   3  -5   9   -0.13    0.59
   3  -5   9    1.14    0.64
  -4   5  -9   -0.59    0.64
   4  -5   9    0.31    0.67
  -7  -4   9    0.81    0.64
  -6  -4   9    1.12    0.59
  -6  -4   9    1.53    0.71
  -5  -4   9    2.09    0.51
  -5  -4   9    1.90    0.60
   4   4  -9    4.02    0.51
   4   4  -9    3.86    0.51
  -4  -4   9    4.15    0.64
  -4  -4   9    4.63    0.56
   3   4  -9    1.21    0.44
   3   4  -9    1.09    0.42
  -3  -4   9    0.48    0.52
  -3  -4   9    0.87    0.48
   2   4  -9    3.87    0.48
   2   4  -9    2.49    0.46
  -2  -4   9    2.70    0.56
  -2  -4   9    3.33    0.49
   1   4  -9   14.62    0.84
   1   4  -9   13.42    0.78
  -1  -4   9   13.36    0.80
  -1  -4   9   14.80    0.90
   0   4  -9   24.68    1.08
   0   4  -9   24.01    1.02
   0  -4   9   24.32    1.05
   0  -4   9   20.64    1.14
  -1   4  -9    0.07    0.45
  -1   4  -9    0.71    0.43
   1  -4   9    0.40    0.53
   1  -4   9    1.20    0.44
  -2   4  -9    0.26    0.49
   2  -4   9   -0.04    0.52
   2  -4   9    0.27    0.50
  -3   4  -9    4.40    0.64
   3  -4   9    4.44    0.64
   4  -4   9    7.63    0.78
  -7  -3   9    0.55    0.59
  -7  -3   9    0.18    0.62
  -6  -3   9   -0.94    0.61
  -6  -3   9    1.19    0.55
   5   3  -9    3.28    0.48
  -5  -3   9    2.89    0.53
  -5  -3   9    3.34    0.63
   4   3  -9    3.40    0.45
  -4  -3   9    4.14    0.51
  -4  -3   9    3.78    0.57
   3   3  -9    5.83    0.49
   3   3  -9    5.39    0.47
  -3  -3   9    5.95    0.52
  -3  -3   9    4.97    0.62
   2   3  -9    2.85    0.40
   2   3  -9    3.08    0.43
   2   3  -9    2.60    0.40
  -2  -3   9    3.14    0.53
  -2  -3   9    2.77    0.43
   1   3  -9    7.22    0.52
   1   3  -9    7.47    0.51
   1   3  -9    7.22    0.51
  -1  -3   9    7.14    0.53
  -1  -3   9    7.23    0.63
   0   3  -9    0.04    0.37
   0   3  -9    0.47    0.38
   0  -3   9    0.12    0.47
   0  -3   9    0.17    0.40
  -1   3  -9    5.83    0.52
  -1   3  -9    5.68    0.53
   1  -3   9    6.05    0.54
   1  -3   9    5.05    0.62
  -2   3  -9    5.15    0.54
  -2   3  -9    5.24    0.55
   2  -3   9    5.54    0.56
   3  -3   9    0.69    0.54
   4  -3   9    0.54    0.61
   5  -3   9    0.13    0.70
  -8  -2   9    1.43    0.68
  -8  -2   9    2.53    0.66
  -7  -2   9   -0.06    0.57
  -7  -2   9    0.33    0.54
   6   2  -9   11.39    0.77
  -6  -2   9    9.29    0.71
  -6  -2   9   10.60    0.82
   5   2  -9    0.22    0.37
  -5  -2   9    0.14    0.42
  -5  -2   9    0.89    0.52
   4   2  -9    0.33    0.36
   4   2  -9    0.53    0.34
  -4  -2   9    0.35    0.40
  -4  -2   9    0.35    0.47
   3   2  -9   45.21    1.52
   3   2  -9   45.05    1.52
  -3  -2   9   44.33    1.58
  -3  -2   9   41.70    1.76
   2   2  -9   12.28    0.66
   2   2  -9   11.79    0.63
  -2  -2   9    9.24    0.74
  -2  -2   9   11.40    0.66
   1   2  -9    0.25    0.34
   1   2  -9    0.29    0.32
   1   2  -9    0.52    0.33
  -1  -2   9    0.40    0.34
  -1  -2   9    0.18    0.44
   0   2  -9    0.37    0.34
   0   2  -9    0.16    0.34
   0   2  -9    0.76    0.34
   0  -2   9    1.35    0.39
   0  -2   9    0.54    0.45
  -1   2  -9   17.08    0.80
  -1   2  -9   17.06    0.82
  -1   2  -9   19.69    0.88
   1  -2   9   14.74    0.92
   1  -2   9   16.29    0.84
  -2   2  -9    0.71    0.40
   2  -2   9    0.79    0.45
  -3   2  -9    1.34    0.47
   3  -2   9    2.29    0.53
   4  -2   9    0.25    0.58
   5  -2   9    0.60    0.66
  -8  -1   9    7.15    0.81
  -8  -1   9    7.44    0.73
   7   1  -9    2.54    0.45
  -7  -1   9    1.85    0.59
  -7  -1   9    1.25    0.56
   6   1  -9    2.40    0.40
  -6  -1   9    2.43    0.49
  -6  -1   9    1.81    0.50
   5   1  -9    1.54    0.38
   5   1  -9    2.13    0.38
  -5  -1   9    1.63    0.42
  -5  -1   9    2.48    0.51
  -5  -1   9    1.92    0.41
   4   1  -9   13.37    0.68
   4   1  -9   13.36    0.65
  -4  -1   9   15.28    0.76
  -4  -1   9   14.10    0.84
  -4  -1   9   11.94    0.77
   3   1  -9    0.36    0.30
   3   1  -9    0.84    0.31
  -3  -1   9    0.66    0.43
  -3  -1   9    0.35    0.34
   2   1  -9   -0.15    0.28
   2   1  -9    0.18    0.28
  -2  -1   9   -0.09    0.32
  -2  -1   9   -0.06    0.41
   1   1  -9   13.10    0.64
   1   1  -9   11.68    0.62
  -1  -1   9   13.31    0.81
  -1  -1   9   12.43    0.68
   0   1  -9   36.96    1.30
   0   1  -9   36.56    1.27
   0  -1   9   33.78    1.51
   0  -1   9   36.89    1.34
  -1   1  -9    0.09    0.35
  -1   1  -9   -0.17    0.34
   1  -1   9    0.87    0.36
  -2   1  -9    3.26    0.44
  -2   1  -9    3.37    0.43
   2  -1   9    3.49    0.48
  -3   1  -9    5.66    0.52
   3  -1   9    5.46    0.58
  -4   1  -9    3.41    0.53
   4  -1   9    3.75    0.61
   5  -1   9    2.28    0.68
   8   0  -9    0.20    0.46
  -8   0   9    0.23    0.59
  -8   0   9    0.23    0.57
   7   0  -9    0.25    0.38
  -7   0   9    0.30    0.53
  -7   0   9    0.11    0.52
   6   0  -9   14.41    0.71
   6   0  -9   13.24    0.71
  -6   0   9   12.00    0.77
  -6   0   9   14.01    0.89
  -6   0   9   13.91    0.89
   5   0  -9    5.53    0.42
   5   0  -9    6.56    0.44
  -5   0   9    5.54    0.56
  -5   0   9    6.25    0.49
  -5   0   9    6.41    0.58
   4   0  -9    1.24    0.32
   4   0  -9    0.97    0.28
  -4   0   9    1.61    0.42
  -4   0   9    1.70    0.42
  -4   0   9    1.32    0.33
   3   0  -9    6.35    0.41
   3   0  -9    6.41    0.46
  -3   0   9    7.60    0.56
  -3   0   9    8.08    0.66
  -3   0   9    7.12    0.44
   2   0  -9   58.53    1.88
   2   0  -9   57.00    1.88
  -2   0   9   59.64    1.95
  -2   0   9   60.02    2.53
  -2   0   9   56.38    2.19
   1   0  -9    8.52    0.51
   1   0  -9    7.89    0.50
  -1   0   9    8.15    0.56
  -1   0   9    8.61    0.67
   0   0  -9   27.89    1.01
   0   0  -9   29.04    1.04
   0   0   9   24.83    1.21
   0   0   9   27.25    1.05
  -1   0  -9    0.30    0.33
  -1   0  -9    0.25    0.32
   1   0   9    0.43    0.36
  -2   0  -9    8.03    0.54
  -2   0  -9    9.07    0.56
   2   0   9    8.73    0.59
  -3   0  -9    0.07    0.39
   3   0   9    0.42    0.49
  -4   0  -9    4.08    0.52
   4   0   9    3.08    0.59
   5   0   9    0.17    0.60
   8  -1  -9    1.65    0.48
  -8   1   9    1.42    0.55
   7  -1  -9   14.64    0.76
  -7   1   9   13.30    0.85
  -7   1   9   15.97    0.96
   6  -1  -9    1.42    0.36
   6  -1  -9    1.35    0.37
  -6   1   9    1.51    0.48
  -6   1   9    1.37    0.48
  -6   1   9    1.37    0.44
   5  -1  -9    0.14    0.29
   5  -1  -9    0.19    0.28
  -5   1   9    0.33    0.43
  -5   1   9   -0.07    0.32
  -5   1   9   -0.04    0.41
   4  -1  -9   15.44    0.63
   4  -1  -9   16.04    0.66
  -4   1   9   16.90    0.96
  -4   1   9   16.22    0.72
  -4   1   9   15.90    0.81
   3  -1  -9    9.91    0.48
   3  -1  -9    8.74    0.47
  -3   1   9   10.83    0.78
  -3   1   9   10.28    0.52
  -3   1   9    8.19    0.61
   2  -1  -9   19.02    0.72
   2  -1  -9   17.88    0.71
  -2   1   9   20.68    1.05
  -2   1   9   19.29    0.92
  -2   1   9   18.75    0.74
   1  -1  -9    9.85    0.49
   1  -1  -9    8.89    0.46
  -1   1   9   10.17    0.54
  -1   1   9    7.98    0.64
   0  -1  -9    9.36    0.50
   0  -1  -9    9.39    0.54
   0   1   9    8.97    0.68
   0   1   9    9.91    0.58
  -1  -1  -9   25.02    0.95
  -1  -1  -9   22.28    0.90
   1   1   9   24.90    0.98
  -2  -1  -9   11.03    0.65
  -2  -1  -9    9.77    0.61
   2   1   9   10.42    0.72
  -3  -1  -9    1.00    0.41
   3   1   9    1.88    0.48
  -4  -1  -9    2.56    0.48
   4   1   9    2.24    0.58
   5   1   9    0.93    0.62
   8  -2  -9    3.75    0.51
  -8   2   9    3.92    0.59
   7  -2  -9   -0.37    0.39
   7  -2  -9    0.31    0.40
  -7   2   9   -0.02    0.44
  -7   2   9    0.37    0.58
   6  -2  -9    7.05    0.45
   6  -2  -9    7.44    0.48
  -6   2   9    7.25    0.71
  -6   2   9    7.49    0.53
   5  -2  -9    9.74    0.53
   5  -2  -9    9.24    0.49
  -5   2   9    8.83    0.60
  -5   2   9    7.99    0.49
  -5   2   9    8.58    0.80
   4  -2  -9   12.96    0.53
   4  -2  -9   12.90    0.56
  -4   2   9   13.12    0.91
  -4   2   9   12.31    0.68
  -4   2   9   13.29    0.59
   3  -2  -9   -0.14    0.21
   3  -2  -9    0.32    0.20
  -3   2   9    0.06    0.31
  -3   2   9    0.50    0.43
  -3   2   9    0.27    0.23
   2  -2  -9   11.62    0.47
   2  -2  -9   10.63    0.47
  -2   2   9   10.31    0.67
  -2   2   9   12.07    0.86
  -2   2   9   10.90    0.51
   1  -2  -9   10.75    0.50
   1  -2  -9   10.26    0.47
  -1   2   9   11.65    0.86
  -1   2   9    9.84    0.68
  -1   2   9   10.49    0.51
   0  -2  -9    0.23    0.27
   0  -2  -9   -0.29    0.25
   0  -2  -9   -0.19    0.24
   0   2   9    0.16    0.50
   0   2   9    0.26    0.36
   0   2   9    0.12    0.27
  -1  -2  -9   30.39    1.08
  -1  -2  -9   30.71    1.08
  -1  -2  -9   29.95    1.10
   1   2   9   30.82    1.16
  -2  -2  -9    2.56    0.39
  -2  -2  -9    2.66    0.37
  -2  -2  -9    2.83    0.38
   2   2   9    3.07    0.44
  -3  -2  -9    1.96    0.42
  -3  -2  -9    2.04    0.41
  -3  -2  -9    1.64    0.42
   3   2   9    2.46    0.49
  -4  -2  -9    6.34    0.59
  -4  -2  -9    7.32    0.59
   4   2   9    6.92    0.64
   8  -3  -9    1.72    0.48
  -8   3   9    3.82    0.60
   7  -3  -9    2.33    0.43
   7  -3  -9    2.40    0.41
  -7   3   9    2.69    0.49
   6  -3  -9   18.67    0.83
   6  -3  -9   20.30    0.79
  -6   3   9   19.62    1.26
  -6   3   9   18.74    0.90
   5  -3  -9    2.16    0.28
   5  -3  -9    2.43    0.30
  -5   3   9    2.08    0.32
  -5   3   9    2.24    0.56
   4  -3  -9   31.55    1.07
   4  -3  -9   31.22    1.06
  -4   3   9   34.51    1.62
  -4   3   9   33.62    1.12
   3  -3  -9    0.32    0.18
   3  -3  -9    0.44    0.17
  -3   3   9    0.27    0.45
  -2   3   9   15.43    0.76
  -2   3   9   17.34    1.06
   1  -3  -9   12.65    0.51
   1  -3  -9   11.80    0.49
  -1   3   9   12.53    0.53
  -1   3   9   13.47    0.89
  -1   3   9   11.91    0.70
   0  -3  -9    5.16    0.35
   0  -3  -9    5.73    0.39
   0   3   9    5.68    0.35
   0   3   9    6.06    0.64
  -1  -3  -9    1.69    0.31
  -1  -3  -9    1.66    0.31
   1   3   9    2.05    0.35
  -2  -3  -9    0.30    0.32
  -2  -3  -9    0.24    0.35
   2   3   9    0.20    0.39
  -3  -3  -9    2.44    0.42
  -3  -3  -9    2.84    0.44
   3   3   9    3.43    0.51
  -4  -3  -9    0.19    0.46
   4   3   9    0.31    0.54
   7  -4  -9    0.46    0.38
   7  -4  -9    0.31    0.39
  -7   4   9    0.43    0.45
   6  -4  -9    8.04    0.53
   6  -4  -9    9.26    0.59
  -6   4   9    9.71    0.64
   5  -4  -9    3.27    0.30
   5  -4  -9    3.87    0.31
  -5   4   9    4.35    0.66
  -5   4   9    3.59    0.32
   4  -4  -9    9.98    0.41
   4  -4  -9    9.84    0.43
  -4   4   9   10.35    0.94
  -3   4   9    0.49    0.55
  -2   4   9   22.10    1.24
   1  -4  -9    4.13    0.28
   1  -4  -9    3.50    0.25
  -1   4   9    4.10    0.59
   0  -4  -9    0.01    0.24
   0  -4  -9    0.45    0.24
   0   4   9    0.17    0.26
   0   4   9    0.70    0.53
  -1  -4  -9    2.87    0.34
  -1  -4  -9    2.47    0.32
   1   4   9    3.09    0.37
   1   4   9    3.80    0.63
  -2  -4  -9   12.32    0.68
  -2  -4  -9   12.84    0.65
   2   4   9   13.09    0.79
  -3  -4  -9    0.07    0.42
   3   4   9    0.17    0.47
  -4  -4  -9    0.05    0.48
   7  -5  -9    6.10    0.51
   7  -5  -9    5.81    0.48
   6  -5  -9    0.06    0.31
   6  -5  -9   -0.29    0.32
   5  -5  -9    4.28    0.32
   5  -5  -9    4.77    0.35
  -5   5   9    5.05    0.78
  -4   5   9    7.06    0.77
  -3   5   9   15.79    1.08
  -2   5   9    0.19    0.52
   1  -5  -9    0.28    0.20
   1  -5  -9    0.03    0.18
  -1   5   9    0.45    0.55
   0  -5  -9    6.21    0.41
   0  -5  -9    5.96    0.41
   0   5   9    6.81    0.74
  -1  -5  -9    0.85    0.33
  -1  -5  -9    1.30    0.31
   1   5   9    0.77    0.34
  -2  -5  -9   -0.52    0.36
  -2  -5  -9    0.41    0.35
   2   5   9   -0.11    0.41
  -3  -5  -9    0.00    0.42
   3   5   9   -0.10    0.47
   6  -6  -9   -0.25    0.34
   6  -6  -9    0.68    0.33
   5  -6  -9   10.67    0.54
   5  -6  -9   11.03    0.51
   4  -6  -9    3.09    0.23
   4  -6  -9    2.98    0.25
   1  -6  -9    6.73    0.39
   1  -6  -9    6.60    0.38
   0  -6  -9    0.40    0.28
   0  -6  -9    1.04    0.30
  -1  -6  -9    1.06    0.33
  -1  -6  -9    0.86    0.37
  -2  -6  -9    0.69    0.38
  -2  -6  -9   -0.05    0.40
   2   6   9   -0.06    0.43
   5  -7  -9    0.61    0.29
   5  -7  -9    0.96    0.30
   5  -7  -9    0.16    0.29
   4  -7  -9    0.23    0.26
   4  -7  -9    0.32    0.25
   3  -7  -9    1.09    0.23
   3  -7  -9    0.33    0.25
   2  -7  -9    3.25    0.27
   2  -7  -9    3.66    0.30
   1  -7  -9    1.32    0.28
   1  -7  -9    1.01    0.30
   0  -7  -9    0.00    0.34
   0  -7  -9    0.28    0.32
  -2  -7  10   -0.11    0.61
   1   7 -10    0.47    0.62
  -1  -7  10    0.20    0.61
   0   7 -10    1.00    0.64
   0  -7  10    0.16    0.62
  -4  -6  10   -0.10    0.57
  -3  -6  10   -0.42    0.57
  -2  -6  10    2.65    0.62
  -1  -6  10    0.24    0.50
   0   6 -10    0.26    0.58
   0  -6  10    1.59    0.53
   1  -6  10    0.55    0.55
   2  -6  10    0.23    0.58
  -5  -5  10    1.28    0.62
  -4  -5  10    0.95    0.69
  -4  -5  10    1.02    0.59
  -3  -5  10   -0.40    0.53
  -3  -5  10   -0.34    0.59
  -2  -5  10   -0.35    0.59
  -2  -5  10    0.14    0.51
  -1  -5  10    2.01    0.49
  -1  -5  10    1.71    0.59
   0  -5  10    0.04    0.57
   0  -5  10   -0.42    0.51
   1  -5  10    0.72    0.64
   1  -5  10    0.90    0.55
   2  -5  10    0.89    0.61
   3  -5  10   -0.27    0.65
  -6  -4  10   -0.25    0.59
  -5  -4  10   -0.26    0.60
  -5  -4  10   -0.01    0.56
  -4  -4  10    0.44    0.58
  -4  -4  10    0.99    0.52
   3   4 -10   23.27    1.04
  -3  -4  10   21.51    1.22
  -3  -4  10   24.18    1.10
   2   4 -10    0.32    0.47
  -2  -4  10    0.16    0.46
  -2  -4  10   -0.18    0.55
   1   4 -10    0.28    0.45
  -1  -4  10    0.01    0.46
  -1  -4  10    0.15    0.56
   0   4 -10    0.58    0.45
   0  -4  10   -0.10    0.47
   0  -4  10   -0.24    0.53
   1  -4  10    4.24    0.59
   1  -4  10    5.09    0.68
   2  -4  10    1.04    0.62
   2  -4  10    0.75    0.55
   3  -4  10    0.79    0.62
  -7  -3  10    1.67    0.64
  -6  -3  10   -0.75    0.61
  -6  -3  10   -0.16    0.55
   5   3 -10    0.92    0.46
  -5  -3  10    1.21    0.58
  -5  -3  10    1.26    0.52
   4   3 -10    0.09    0.46
  -4  -3  10    0.37    0.48
  -4  -3  10    1.39    0.55
   3   3 -10    0.08    0.41
  -3  -3  10   -0.06    0.55
  -3  -3  10    0.36    0.45
   2   3 -10    0.76    0.41
  -2  -3  10    0.25    0.54
  -2  -3  10    0.50    0.43
   1   3 -10   18.87    0.88
  -1  -3  10   20.64    0.97
  -1  -3  10   17.58    1.04
   0   3 -10    7.72    0.58
   0  -3  10    6.31    0.58
   0  -3  10    6.73    0.72
  -1   3 -10    1.12    0.47
   1  -3  10    1.75    0.55
   1  -3  10    1.17    0.49
   2  -3  10    0.43    0.53
   2  -3  10    1.09    0.57
   3  -3  10    4.71    0.66
   4  -3  10   -0.52    0.67
  -7  -2  10   -0.19    0.57
  -7  -2  10   -0.03    0.64
   6   2 -10    3.19    0.50
  -6  -2  10    2.01    0.63
  -6  -2  10    2.01    0.54
   5   2 -10    3.21    0.47
  -5  -2  10    3.30    0.61
  -5  -2  10    2.34    0.49
   4   2 -10   -0.30    0.38
  -4  -2  10    0.27    0.44
  -4  -2  10    0.00    0.51
   3   2 -10    7.21    0.50
   3   2 -10    6.71    0.51
  -3  -2  10    7.12    0.54
  -3  -2  10    6.82    0.65
   2   2 -10   25.24    1.03
   2   2 -10   25.34    1.02
  -2  -2  10   25.10    1.26
  -2  -2  10   26.78    1.09
   1   2 -10    0.66    0.39
   1   2 -10    0.39    0.39
  -1  -2  10    0.46    0.39
  -1  -2  10    0.44    0.50
   0   2 -10    0.48    0.39
   0   2 -10    0.99    0.41
   0  -2  10    0.36    0.44
   0  -2  10    0.79    0.53
  -1   2 -10    1.32    0.45
   1  -2  10    0.68    0.45
   1  -2  10    0.93    0.52
  -2   2 -10    2.62    0.51
   2  -2  10    2.91    0.54
   3  -2  10    1.12    0.57
   4  -2  10    2.58    0.70
   7   1 -10   11.41    0.76
  -7  -1  10   10.03    0.75
  -7  -1  10    9.60    0.86
   6   1 -10    0.08    0.41
  -6  -1  10   -0.04    0.55
  -6  -1  10   -0.25    0.46
   5   1 -10   -0.09    0.38
   5   1 -10    0.01    0.37
  -5  -1  10   -0.38    0.43
  -5  -1  10    0.11    0.50
   4   1 -10    3.99    0.42
   4   1 -10    4.85    0.44
  -4  -1  10    5.47    0.47
  -4  -1  10    5.36    0.60
   3   1 -10    0.39    0.34
   3   1 -10   -0.24    0.33
  -3  -1  10    0.00    0.46
  -3  -1  10   -0.48    0.36
   2   1 -10    4.11    0.41
   2   1 -10    3.84    0.41
  -2  -1  10    3.91    0.43
  -2  -1  10    4.74    0.57
   1   1 -10    5.44    0.44
   1   1 -10    3.76    0.42
  -1  -1  10    4.57    0.58
  -1  -1  10    5.12    0.44
   0   1 -10   13.95    0.74
   0   1 -10   11.46    0.65
   0  -1  10   10.47    0.79
   0  -1  10   13.46    0.76
  -1   1 -10    2.99    0.42
  -1   1 -10    3.29    0.46
   1  -1  10    3.36    0.54
   1  -1  10    3.06    0.49
  -2   1 -10    4.59    0.52
   2  -1  10    3.91    0.54
  -3   1 -10    0.58    0.47
   3  -1  10    0.02    0.53
   4  -1  10    0.97    0.66
   7   0 -10    2.73    0.48
  -7   0  10    1.80    0.58
  -7   0  10    1.07    0.52
   6   0 -10    0.85    0.38
   6   0 -10    0.73    0.40
  -6   0  10    0.16    0.45
  -6   0  10   -0.38    0.50
   5   0 -10   18.36    0.81
   5   0 -10   19.07    0.84
  -5   0  10   18.45    1.00
  -5   0  10   18.88    1.10
  -5   0  10   18.96    0.90
   4   0 -10    2.06    0.35
   4   0 -10    2.07    0.35
  -4   0  10    1.74    0.51
  -4   0  10    2.06    0.48
  -4   0  10    2.05    0.39
   3   0 -10    2.03    0.34
   3   0 -10    1.69    0.33
  -3   0  10    1.77    0.49
  -3   0  10    1.60    0.35
  -3   0  10    2.15    0.47
   2   0 -10    3.77    0.38
   2   0 -10    3.21    0.37
  -2   0  10    4.49    0.39
  -2   0  10    3.46    0.51
   1   0 -10    6.07    0.45
   1   0 -10    5.79    0.42
  -1   0  10    6.42    0.59
  -1   0  10    5.93    0.46
   0   0 -10    1.97    0.36
   0   0 -10    0.60    0.36
   0   0  10    1.52    0.45
   0   0  10    1.12    0.39
  -1   0 -10   21.93    0.93
  -1   0 -10   19.84    0.88
   1   0  10   19.87    0.96
  -2   0 -10    0.66    0.41
   2   0  10    0.59    0.45
  -3   0 -10    0.66    0.46
   3   0  10    0.40    0.51
   4   0  10    7.76    0.74
   7  -1 -10    7.24    0.55
  -7   1  10    7.31    0.63
   6  -1 -10    5.80    0.45
   6  -1 -10    7.05    0.51
  -6   1  10    5.96    0.53
  -6   1  10    5.81    0.68
  -6   1  10    7.41    0.63
   5  -1 -10   10.26    0.60
   5  -1 -10   10.11    0.59
  -5   1  10   11.31    0.88
  -5   1  10    9.18    0.68
  -5   1  10   10.21    0.77
   4  -1 -10    1.57    0.32
   4  -1 -10    1.32    0.30
  -4   1  10    1.63    0.45
  -4   1  10    1.71    0.52
  -4   1  10    1.61    0.33
   3  -1 -10    8.29    0.49
   3  -1 -10    8.37    0.50
  -3   1  10    8.23    0.61
  -3   1  10    8.12    0.56
  -3   1  10    9.46    0.83
   2  -1 -10    1.13    0.30
   2  -1 -10    0.92    0.28
  -2   1  10    1.74    0.53
  -2   1  10    0.74    0.42
  -2   1  10    1.46    0.31
   1  -1 -10   13.57    0.62
   1  -1 -10   12.09    0.60
  -1   1  10   12.39    0.64
  -1   1  10   12.31    0.79
   0  -1 -10    2.44    0.36
   0  -1 -10    2.37    0.37
   0   1  10    2.20    0.35
   0   1  10    2.65    0.51
  -1  -1 -10    0.75    0.36
  -1  -1 -10    0.73    0.36
   1   1  10    0.95    0.39
  -2  -1 -10    0.70    0.40
  -2  -1 -10    0.50    0.40
   2   1  10    0.80    0.45
  -3  -1 -10    3.24    0.50
   3   1  10    3.17    0.56
  -4  -1 -10    0.36    0.49
   4   1  10    0.92    0.57
   7  -2 -10   -0.12    0.37
   7  -2 -10   -0.51    0.41
  -7   2  10   -0.26    0.48
   6  -2 -10    4.18    0.40
   6  -2 -10    4.51    0.44
  -6   2  10    3.87    0.65
  -6   2  10    4.37    0.47
   5  -2 -10   12.96    0.61
   5  -2 -10   13.26    0.64
  -5   2  10   13.80    1.00
  -5   2  10   12.75    0.69
   4  -2 -10    4.01    0.33
   4  -2 -10    4.01    0.32
  -4   2  10    4.53    0.63
  -4   2  10    4.09    0.35
   3  -2 -10   -0.21    0.24
   3  -2 -10    0.03    0.25
  -3   2  10    0.20    0.48
  -3   2  10    0.19    0.38
  -3   2  10    0.21    0.25
   2  -2 -10   15.25    0.65
   2  -2 -10   16.45    0.66
  -2   2  10   15.56    0.85
  -2   2  10   16.78    0.68
  -2   2  10   18.97    1.11
   1  -2 -10    2.29    0.31
   1  -2 -10    1.75    0.29
  -1   2  10    2.28    0.56
  -1   2  10    1.63    0.43
   0  -2 -10   -0.11    0.29
   0  -2 -10    0.12    0.30
   0   2  10    0.67    0.43
   0   2  10    0.17    0.32
  -1  -2 -10    8.86    0.56
  -1  -2 -10    8.96    0.61
   1   2  10    8.79    0.54
  -2  -2 -10    5.83    0.50
  -2  -2 -10    6.68    0.50
  -2  -2 -10    6.55    0.49
   2   2  10    6.42    0.55
  -3  -2 -10    0.87    0.43
  -3  -2 -10   -0.02    0.42
   3   2  10    0.51    0.51
   7  -3 -10    4.89    0.46
   7  -3 -10    3.88    0.47
  -7   3  10    3.93    0.52
  -7   3  10    4.09    0.74
   6  -3 -10    0.24    0.34
   6  -3 -10    0.14    0.32
  -6   3  10   -0.66    0.35
  -6   3  10    0.19    0.61
   5  -3 -10    6.61    0.42
   5  -3 -10    5.91    0.40
  -5   3  10    6.29    0.40
  -5   3  10    6.79    0.76
   4  -3 -10   13.97    0.55
   4  -3 -10   12.68    0.57
  -4   3  10   14.84    1.00
   3  -3 -10   11.52    0.48
   3  -3 -10   11.23    0.49
  -3   3  10   12.32    1.00
   2  -3 -10    0.08    0.22
   2  -3 -10    0.05    0.23
  -2   3  10    0.40    0.56
   1  -3 -10   -0.11    0.26
   1  -3 -10    0.64    0.25
  -1   3  10    0.27    0.23
  -1   3  10    0.22    0.54
   0  -3 -10    6.76    0.47
   0  -3 -10    7.52    0.47
   0  -3 -10    6.44    0.42
   0   3  10    7.54    0.52
   0   3  10    7.40    0.75
  -1  -3 -10    0.77    0.33
  -1  -3 -10    0.63    0.34
   1   3  10    0.74    0.36
  -2  -3 -10   -0.14    0.35
  -2  -3 -10   -0.01    0.36
   2   3  10    0.75    0.43
  -3  -3 -10    0.17    0.45
   3   3  10    1.18    0.50
   7  -4 -10    1.04    0.39
   7  -4 -10    0.59    0.41
   6  -4 -10    0.73    0.34
   6  -4 -10    1.03    0.33
   5  -4 -10   19.19    0.73
   5  -4 -10   19.70    0.77
  -5   4  10   22.52    1.34
   4  -4 -10    0.10    0.19
   4  -4 -10   -0.21    0.20
  -4   4  10   -0.71    0.58
  -3   4  10    1.11    0.62
  -2   4  10    3.48    0.64
   1  -4 -10   12.04    0.53
   1  -4 -10   12.25    0.52
  -1   4  10   14.81    1.03
   0  -4 -10   -0.23    0.27
   0  -4 -10    0.33    0.28
  -1  -4 -10    0.13    0.32
  -1  -4 -10    0.22    0.34
   1   4  10    0.11    0.35
  -2  -4 -10    2.73    0.43
  -2  -4 -10    2.39    0.41
   2   4  10    2.31    0.47
   6  -5 -10    1.53    0.36
   6  -5 -10    1.81    0.35
   5  -5 -10    1.33    0.28
   5  -5 -10    1.26    0.27
   1  -5 -10    0.69    0.23
   1  -5 -10    0.17    0.22
   0  -5 -10    2.39    0.31
   0  -5 -10    2.77    0.33
  -1  -5 -10    2.53    0.36
  -1  -5 -10    2.87    0.39
   5  -6 -10    0.98    0.28
   5  -6 -10    1.39    0.26
   1  -6 -10    1.92    0.26
   1  -6 -10    2.18    0.28
   0  -6 -10    3.07    0.33
   0  -6 -10    2.11    0.35
  -1  -6  11    1.74    0.63
  -4  -5  11    0.61    0.62
  -3  -5  11   -0.09    0.57
  -2  -5  11    0.14    0.54
  -1  -5  11    4.38    0.63
   0  -5  11    0.61    0.59
   1  -5  11    0.83    0.56
  -5  -4  11    0.72    0.60
  -4  -4  11   -0.05    0.56
  -4  -4  11    0.14    0.62
  -3  -4  11    0.06    0.51
  -3  -4  11    1.19    0.63
  -2  -4  11    6.27    0.63
  -2  -4  11    5.95    0.74
  -1  -4  11    0.01    0.53
  -1  -4  11    0.68    0.64
   0  -4  11    0.55    0.54
   0  -4  11    0.29    0.60
   1  -4  11    0.72    0.57
   2  -4  11    1.16    0.63
  -6  -3  11    0.01    0.58
   5   3 -11   -0.29    0.48
  -5  -3  11   -0.24    0.56
  -5  -3  11   -0.82    0.60
   4   3 -11    1.13    0.49
  -4  -3  11    1.06    0.61
  -4  -3  11    2.11    0.57
   3   3 -11   -0.27    0.44
  -3  -3  11   -0.07    0.61
  -3  -3  11   -0.46    0.49
   2   3 -11    3.73    0.51
  -2  -3  11    3.76    0.53
  -2  -3  11    4.08    0.70
   1   3 -11   -0.28    0.46
  -1  -3  11    1.31    0.49
  -1  -3  11    0.29    0.55
   0   3 -11    8.05    0.63
   0  -3  11    8.23    0.65
   0  -3  11    6.70    0.75
  -1   3 -11   -0.24    0.48
   1  -3  11   -0.67    0.51
   1  -3  11    0.01    0.62
   2  -3  11    0.58    0.59
   6   2 -11    1.05    0.49
  -6  -2  11    1.42    0.56
  -6  -2  11    0.46    0.68
   5   2 -11    5.49    0.56
  -5  -2  11    5.79    0.60
  -5  -2  11    5.18    0.69
   4   2 -11   -0.08    0.41
  -4  -2  11   -0.91    0.56
  -4  -2  11   -0.09    0.49
   3   2 -11   -0.55    0.41
  -3  -2  11    0.05    0.45
  -3  -2  11    0.25    0.52
   2   2 -11    3.25    0.47
  -2  -2  11    3.02    0.59
  -2  -2  11    3.34    0.49
   1   2 -11    3.31    0.47
  -1  -2  11    4.12    0.64
  -1  -2  11    4.11    0.52
   0   2 -11    7.14    0.58
   0  -2  11    7.22    0.75
   0  -2  11    6.34    0.59
  -1   2 -11    3.83    0.54
   1  -2  11    2.55    0.53
   1  -2  11    2.21    0.64
  -2   2 -11    1.06    0.51
   2  -2  11    0.92    0.60
   2  -2  11    0.57    0.56
   3  -2  11    0.18    0.62
   6   1 -11    1.50    0.48
  -6  -1  11    1.05    0.64
  -6  -1  11    1.58    0.55
   5   1 -11    2.33    0.45
  -5  -1  11    2.25    0.59
  -5  -1  11    3.11    0.52
   4   1 -11    1.83    0.41
   4   1 -11    2.04    0.41
  -4  -1  11    1.99    0.57
  -4  -1  11    2.15    0.47
   3   1 -11    3.23    0.43
   3   1 -11    3.34    0.44
  -3  -1  11    3.92    0.49
  -3  -1  11    3.64    0.60
   2   1 -11    0.70    0.38
   2   1 -11    0.79    0.37
  -2  -1  11   -0.01    0.40
  -2  -1  11    0.10    0.52
   1   1 -11    2.98    0.44
   1   1 -11    2.58    0.43
  -1  -1  11    2.33    0.46
  -1  -1  11    3.18    0.58
   0   1 -11    1.07    0.43
   0   1 -11    0.44    0.42
   0  -1  11    1.08    0.55
   0  -1  11    0.35    0.43
  -1   1 -11    2.55    0.48
   1  -1  11    2.57    0.53
   1  -1  11    1.32    0.55
  -2   1 -11   -0.29    0.49
   2  -1  11   -0.15    0.52
   3  -1  11    0.78    0.66
   7   0 -11   -0.51    0.45
  -7   0  11   -0.11    0.55
   6   0 -11    5.70    0.51
  -6   0  11    6.22    0.60
  -6   0  11    5.64    0.70
   5   0 -11    0.86    0.41
   5   0 -11    0.67    0.40
  -5   0  11    1.46    0.46
  -5   0  11    1.12    0.53
   4   0 -11    3.72    0.43
   4   0 -11    5.09    0.44
  -4   0  11    4.66    0.60
  -4   0  11    4.59    0.63
  -4   0  11    5.10    0.49
   3   0 -11    0.50    0.35
   3   0 -11    0.63    0.36
  -3   0  11    1.09    0.39
  -3   0  11    0.99    0.52
   2   0 -11   11.01    0.65
   2   0 -11   10.47    0.63
  -2   0  11   10.81    0.83
  -2   0  11   11.53    0.71
   1   0 -11    0.21    0.35
   1   0 -11    0.21    0.37
  -1   0  11    0.30    0.39
  -1   0  11    0.37    0.50
   0   0 -11    0.21    0.39
   0   0 -11   -0.19    0.37
   0   0  11   -0.28    0.41
   0   0  11   -0.10    0.50
  -1   0 -11    7.54    0.57
  -1   0 -11    7.79    0.59
   1   0  11    7.17    0.60
   1   0  11    7.39    0.70
  -2   0 -11    2.75    0.50
   2   0  11    1.93    0.56
  -3   0 -11    0.03    0.48
   3   0  11   -0.23    0.59
   7  -1 -11   -0.23    0.45
  -7   1  11   -0.90    0.51
   6  -1 -11    5.27    0.49
   6  -1 -11    6.28    0.47
  -6   1  11    4.93    0.54
   5  -1 -11    0.02    0.35
   5  -1 -11    0.85    0.36
  -5   1  11    0.08    0.56
  -5   1  11    0.27    0.39
   4  -1 -11   12.89    0.66
   4  -1 -11   13.01    0.69
  -4   1  11   15.19    0.77
  -4   1  11   16.13    1.06
   3  -1 -11    2.48    0.36
   3  -1 -11    2.52    0.36
  -3   1  11    1.89    0.51
  -3   1  11    2.85    0.62
  -3   1  11    2.90    0.36
   2  -1 -11    0.02    0.31
   2  -1 -11    0.40    0.33
  -2   1  11    0.63    0.34
  -2   1  11    0.63    0.49
  -2   1  11    0.61    0.55
   1  -1 -11   -0.26    0.33
   1  -1 -11    0.21    0.35
  -1   1  11    0.56    0.49
  -1   1  11    0.70    0.35
   0  -1 -11    6.90    0.49
   0  -1 -11    7.48    0.52
   0   1  11    7.12    0.67
   0   1  11    6.70    0.51
  -1  -1 -11    0.35    0.41
  -1  -1 -11    0.22    0.42
   1   1  11   -0.27    0.49
   1   1  11    0.41    0.43
  -2  -1 -11   -0.57    0.41
   2   1  11    0.68    0.50
  -3  -1 -11    0.46    0.49
   6  -2 -11    4.34    0.42
   6  -2 -11    4.35    0.45
  -6   2  11    4.69    0.71
  -6   2  11    3.90    0.48
   5  -2 -11    5.85    0.43
   5  -2 -11    5.65    0.43
  -5   2  11    6.71    0.46
  -5   2  11    5.77    0.75
   4  -2 -11    0.48    0.30
   4  -2 -11    0.79    0.30
  -4   2  11    0.88    0.56
  -4   2  11    1.18    0.32
   3  -2 -11    0.22    0.30
   3  -2 -11   -0.20    0.29
  -3   2  11   -0.31    0.28
  -3   2  11    0.54    0.62
   2  -2 -11    4.88    0.38
   2  -2 -11    4.87    0.38
  -2   2  11    5.06    0.36
  -2   2  11    7.19    0.77
   1  -2 -11    9.61    0.61
   1  -2 -11    9.88    0.57
  -1   2  11   12.23    0.98
  -1   2  11   10.62    0.62
   0  -2 -11   -0.06    0.33
   0  -2 -11    0.10    0.35
   0   2  11    0.21    0.36
  -1  -2 -11   -0.05    0.38
  -1  -2 -11    0.18    0.38
   1   2  11   -0.54    0.50
   1   2  11    0.17    0.41
  -2  -2 -11    5.62    0.52
   2   2  11    4.81    0.57
   6  -3 -11    1.08    0.35
   6  -3 -11    0.80    0.37
   5  -3 -11    0.66    0.31
   5  -3 -11    0.43    0.29
  -5   3  11    0.89    0.65
   4  -3 -11    0.08    0.27
   4  -3 -11    0.71    0.26
  -4   3  11   -0.51    0.62
   3  -3 -11    6.66    0.41
   3  -3 -11    6.06    0.40
  -3   3  11    6.91    0.79
   2  -3 -11   -0.28    0.27
   2  -3 -11   -0.04    0.26
  -2   3  11    0.75    0.59
   1  -3 -11    1.35    0.31
   1  -3 -11    1.07    0.32
   0  -3 -11    1.46    0.35
   0  -3 -11    0.99    0.35
  -1  -3 -11    4.94    0.45
   1   3  11    4.66    0.48
  -2  -3 -11   -0.04    0.40
  -2  -3 -11    0.37    0.43
   2   3  11    0.15    0.49
   5  -4 -11    1.59    0.31
   5  -4 -11    1.39    0.29
   4  -4 -11    9.13    0.45
   4  -4 -11    9.75    0.44
   2  -4 -11    0.25    0.25
   2  -4 -11    0.31    0.23
   1  -4 -11    6.43    0.42
   1  -4 -11    5.50    0.38
   0  -4 -11    0.44    0.33
   0  -4 -11    0.56    0.32
   0  -4 -11    0.36    0.33
  -1  -4 -11    5.57    0.46
  -1  -4 -11    5.79    0.48
   1  -5 -11    1.11    0.28
   1  -5 -11    1.23    0.27
   0  -5 -11   -0.12    0.31
  -3  -4  12    0.92    0.57
  -2  -4  12    0.52    0.55
  -1  -4  12    0.54    0.56
   4   3 -12   -0.55    0.52
  -4  -3  12   -0.52    0.61
  -4  -3  12    0.64    0.54
   3   3 -12    0.79    0.51
  -3  -3  12    1.11    0.53
  -3  -3  12    1.01    0.68
   2   3 -12   -0.29    0.48
  -2  -3  12    0.21    0.53
  -2  -3  12   -0.21    0.65
   1   3 -12    1.57    0.51
  -1  -3  12    1.77    0.58
  -1  -3  12    0.56    0.61
   0  -3  12   -0.36    0.57
   5   2 -12    0.59    0.52
  -5  -2  12    1.52    0.59
  -5  -2  12    0.56    0.66
   4   2 -12    1.74    0.49
  -4  -2  12    0.80    0.66
  -4  -2  12    2.14    0.53
   3   2 -12    3.31    0.52
  -3  -2  12    2.73    0.54
  -3  -2  12    3.69    0.70
   2   2 -12   -0.01    0.47
  -2  -2  12    0.15    0.50
  -2  -2  12   -0.08    0.61
   1   2 -12   -0.04    0.47
  -1  -2  12    0.06    0.58
  -1  -2  12    0.51    0.51
   0   2 -12    1.76    0.51
   0  -2  12    0.36    0.59
   0  -2  12   -0.58    0.51
  -1   2 -12    2.11    0.55
   1  -2  12    2.82    0.60
   5   1 -12    0.24    0.46
  -5  -1  12    0.05    0.60
  -5  -1  12    0.18    0.51
   4   1 -12    2.56    0.46
  -4  -1  12    2.43    0.64
  -4  -1  12    2.77    0.51
   3   1 -12    0.80    0.43
  -3  -1  12    0.30    0.53
  -3  -1  12    0.94    0.48
   2   1 -12    1.43    0.44
  -2  -1  12    0.68    0.48
  -2  -1  12    1.69    0.61
   1   1 -12    1.12    0.45
  -1  -1  12    0.74    0.47
  -1  -1  12    1.11    0.60
   0   1 -12    1.94    0.50
   0  -1  12    2.05    0.52
   0  -1  12    2.45    0.62
  -1   1 -12    0.33    0.50
   1  -1  12   -0.11    0.51
   1  -1  12   -0.76    0.55
   5   0 -12    2.92    0.48
  -5   0  12    3.53    0.53
   4   0 -12    0.10    0.39
   4   0 -12    0.05    0.40
  -4   0  12   -0.16    0.43
   3   0 -12   -0.34    0.40
   3   0 -12    0.23    0.40
  -3   0  12   -0.10    0.52
  -3   0  12   -0.04    0.41
   2   0 -12    4.86    0.49
   2   0 -12    5.16    0.50
  -2   0  12    5.40    0.51
  -2   0  12    4.82    0.66
   1   0 -12    2.76    0.46
   1   0 -12    3.26    0.48
  -1   0  12    2.42    0.46
  -1   0  12    2.56    0.59
   0   0 -12    0.12    0.44
   0   0  12   -0.09    0.45
   0   0  12   -0.32    0.56
  -1   0 -12   -0.37    0.45
   1   0  12    0.34    0.59
   1   0  12   -0.40    0.52
   5  -1 -12    0.52    0.40
   5  -1 -12    0.49    0.39
  -5   1  12    0.02    0.43
   4  -1 -12    1.28    0.38
   4  -1 -12    1.18    0.38
  -4   1  12    1.35    0.65
  -4   1  12    1.68    0.40
   3  -1 -12    3.76    0.43
   3  -1 -12    2.92    0.42
  -3   1  12    4.17    0.73
  -3   1  12    3.17    0.41
   2  -1 -12   -0.05    0.38
   2  -1 -12   -0.02    0.38
  -2   1  12   -0.31    0.37
   1  -1 -12    1.30    0.41
   1  -1 -12    0.48    0.39
  -1   1  12    1.32    0.42
   0  -1 -12    1.86    0.43
   0  -1 -12    0.98    0.44
   0   1  12    1.77    0.46
  -1  -1 -12    4.13    0.51
   1   1  12    3.21    0.65
   1   1  12    3.80    0.57
   5  -2 -12    4.76    0.45
   5  -2 -12    6.05    0.46
   4  -2 -12    2.82    0.38
   4  -2 -12    3.03    0.38
   3  -2 -12    0.37    0.35
   3  -2 -12    0.14    0.33
   2  -2 -12    0.89    0.36
   2  -2 -12    1.33    0.38
   1  -2 -12    5.04    0.47
   1  -2 -12    4.38    0.44
   0  -2 -12    0.40    0.42
   0  -2 -12    0.43    0.41
   0   2  12    0.05    0.40
   4  -3 -12    1.85    0.33
   4  -3 -12    1.72    0.32
   3  -3 -12    1.60    0.33
   3  -3 -12    1.12    0.32
   2  -3 -12    0.29    0.32
   2  -3 -12    0.51    0.34
   1  -3 -12    0.21    0.35
   1  -3 -12    0.71    0.36
   0  -3 -12    0.71    0.39
   0  -3 -12    0.37    0.39
   0   0   0    0.00    0.00
;
_shelx_hkl_checksum              35697
_shelx_res_file
;
TITL SALTBQAU_0m in P-1 COLOURLESS PRISM
    fs2.res
    created by SHELXL-2018/1 at 14:21:55 on 19-Feb-2018
CELL 0.71073 7.8282 8.5963 10.1139 91.249 102.818 95.938
ZERR 2.00 0.0005 0.0006 0.0006 0.003 0.002 0.003
LATT 1
SFAC C H O S Br
UNIT 26  18  8  2  2
L.S. 12
ACTA
BOND $H
CONF
LIST 4
FMAP 2
SIZE 0.40 0.32 0.24
PLAN 5
TEMP 23.000
EQIV $1 x,-1+y,z
EQIV $2 1+x,y,z
EQIV $3 2-x,1-y,1-z
EQIV $4 2-x,-y,-z
HTAB C3 O1_$1
HTAB C5' O2_$2
HTAB C6' O1_$3
BIND Br4' O21_$4
MPLA C2 C21 O21
MPLA 6 C1 C2 C3 C4 C5 C6  C21 O21
MPLA 6 C1' C2' C3' C4' C5' C6' Br4'
WGHT    0.036400    0.287700
EXTI    0.098171
FVAR       0.34218
BR4'  5    1.147033    0.224241   -0.020185    11.00000    0.05474    0.08770 =
         0.06970   -0.00737    0.01722    0.01169
S1    4    0.619979    0.462972    0.316431    11.00000    0.04353    0.03788 =
         0.06298   -0.00606    0.00521    0.00967
O21   3    0.572191   -0.099626    0.154458    11.00000    0.11685    0.06973 =
         0.11026   -0.03598    0.03597    0.00026
O3    3    0.527296    0.300048    0.352071    11.00000    0.03387    0.04573 =
         0.06096   -0.00315    0.00717    0.00700
O1    3    0.718529    0.542711    0.438567    11.00000    0.06326    0.04950 =
         0.07285   -0.02161    0.00627    0.00211
O2    3    0.478467    0.529404    0.233849    11.00000    0.05774    0.05562 =
         0.08963    0.00609    0.00652    0.02684
C1    1    0.630682    0.192969    0.426541    11.00000    0.03231    0.04904 =
         0.05373    0.00560    0.01290    0.00324
C2    1    0.642082    0.053097    0.359966    11.00000    0.03928    0.04196 =
         0.07034    0.00359    0.01849    0.00115
C21   1    0.553028    0.015356    0.216582    11.00000    0.06668    0.04866 =
         0.07949   -0.01053    0.01734   -0.00210
AFIX  43
H21   2    0.478109    0.084334    0.172036    11.00000   -1.20000
AFIX   0
C3    1    0.736426   -0.055968    0.433223    11.00000    0.05939    0.05323 =
         0.10760    0.02292    0.02593    0.01291
AFIX  43
H3    2    0.744716   -0.151452    0.391402    11.00000   -1.20000
AFIX   0
C4    1    0.817807   -0.024820    0.566765    11.00000    0.06252    0.09601 =
         0.11358    0.05687    0.02397    0.02425
AFIX  43
H4    2    0.882276   -0.098641    0.614871    11.00000   -1.20000
AFIX   0
C5    1    0.804984    0.113432    0.629566    11.00000    0.05989    0.12695 =
         0.06069    0.03182    0.00604    0.00888
AFIX  43
H5    2    0.860949    0.132926    0.720484    11.00000   -1.20000
AFIX   0
C6    1    0.710245    0.225787    0.560835    11.00000    0.05354    0.08159 =
         0.05458    0.00077    0.01212    0.00581
AFIX  43
H6    2    0.700826    0.320089    0.604057    11.00000   -1.20000
AFIX   0
C1'   1    0.766138    0.404736    0.221548    11.00000    0.03657    0.03795 =
         0.05053    0.00405    0.00359    0.00358
C2'   1    0.701593    0.352653    0.087796    11.00000    0.03717    0.07092 =
         0.05323   -0.00203   -0.00700    0.01004
AFIX  43
H2'   2    0.582801    0.353235    0.047226    11.00000   -1.20000
AFIX   0
C3'   1    0.815233    0.299984    0.015509    11.00000    0.04806    0.08242 =
         0.04814   -0.00880   -0.00196    0.01019
AFIX  43
H3'   2    0.773827    0.263712   -0.074387    11.00000   -1.20000
AFIX   0
C4'   1    0.990676    0.301331    0.077143    11.00000    0.04166    0.05376 =
         0.05295    0.00436    0.00902    0.00421
C5'   1    1.056107    0.356498    0.209247    11.00000    0.03461    0.06801 =
         0.05455    0.00418    0.00075    0.00206
AFIX  43
H5'   2    1.175596    0.358904    0.248774    11.00000   -1.20000
AFIX   0
C6'   1    0.942458    0.407990    0.281972    11.00000    0.04032    0.05943 =
         0.04607   -0.00153   -0.00009   -0.00210
AFIX  43
H6'   2    0.984397    0.444903    0.371650    11.00000   -1.20000
AFIX   0
HKLF 4 1 1 0 0 0 1 0 0 0 1
REM  SALTBQAU_0m in P-1 COLOURLESS PRISM
REM R1 =  0.0314 for    2262 Fo > 4sig(Fo)  and  0.0459 for all    2877 data
REM    173 parameters refined using      0 restraints
END
WGHT      0.0361      0.2909
REM Highest difference peak  0.318,  deepest hole -0.455,  1-sigma level  0.051
Q1    1   1.1362  0.1586  0.0404  11.00000  0.05    0.32
Q2    1   0.6908  0.4558  0.2657  11.00000  0.05    0.27
Q3    1   1.1938  0.2008 -0.0654  11.00000  0.05    0.25
Q4    1   1.1128  0.1126 -0.0125  11.00000  0.05    0.22
Q5    1   0.5629  0.3372  0.3001  11.00000  0.05    0.21
;
_shelx_res_checksum              23166
loop_
_space_group_symop_operation_xyz
'x, y, z'
'-x, -y, -z'
loop_
_atom_site_type_symbol
_atom_site_label
_atom_site_fract_x
_atom_site_fract_y
_atom_site_fract_z
_atom_site_U_iso_or_equiv
_atom_site_adp_type
_atom_site_calc_flag
_atom_site_occupancy
Br Br4' 1.14703(4) 0.22424(4) -0.02018(3) 0.07010(16) Uani d 1
S S1 0.61998(8) 0.46297(6) 0.31643(6) 0.04895(17) Uani d 1
O O21 0.5722(4) -0.0996(3) 0.1545(3) 0.0986(8) Uani d 1
O O3 0.5273(2) 0.30005(18) 0.35207(17) 0.0473(4) Uani d 1
O O1 0.7185(3) 0.5427(2) 0.4386(2) 0.0640(5) Uani d 1
O O2 0.4785(3) 0.5294(2) 0.2338(2) 0.0677(5) Uani d 1
C C1 0.6307(3) 0.1930(3) 0.4265(2) 0.0446(5) Uani d 1
C C2 0.6421(3) 0.0531(3) 0.3600(3) 0.0498(6) Uani d 1
C C21 0.5530(4) 0.0154(3) 0.2166(3) 0.0656(7) Uani d 1
H H21 0.478109 0.084334 0.172036 0.079 Uiso calc 1
C C3 0.7364(4) -0.0560(3) 0.4332(4) 0.0715(8) Uani d 1
H H3 0.744716 -0.151452 0.391402 0.086 Uiso calc 1
C C4 0.8178(5) -0.0248(5) 0.5668(5) 0.0882(11) Uani d 1
H H4 0.882276 -0.098641 0.614871 0.106 Uiso calc 1
C C5 0.8050(4) 0.1134(5) 0.6296(3) 0.0834(10) Uani d 1
H H5 0.860949 0.132926 0.720484 0.100 Uiso calc 1
C C6 0.7102(4) 0.2258(4) 0.5608(3) 0.0634(7) Uani d 1
H H6 0.700826 0.320089 0.604057 0.076 Uiso calc 1
C C1' 0.7661(3) 0.4047(2) 0.2215(2) 0.0427(5) Uani d 1
C C2' 0.7016(3) 0.3527(3) 0.0878(3) 0.0563(6) Uani d 1
H H2' 0.582801 0.353235 0.047226 0.068 Uiso calc 1
C C3' 0.8152(4) 0.3000(3) 0.0155(3) 0.0615(7) Uani d 1
H H3' 0.773827 0.263712 -0.074387 0.074 Uiso calc 1
C C4' 0.9907(3) 0.3013(3) 0.0771(3) 0.0498(6) Uani d 1
C C5' 1.0561(3) 0.3565(3) 0.2092(3) 0.0541(6) Uani d 1
H H5' 1.175596 0.358904 0.248774 0.065 Uiso calc 1
C C6' 0.9425(3) 0.4080(3) 0.2820(3) 0.0508(6) Uani d 1
H H6' 0.984397 0.444903 0.371650 0.061 Uiso calc 1
loop_
_atom_site_aniso_label
_atom_site_aniso_U_11
_atom_site_aniso_U_22
_atom_site_aniso_U_33
_atom_site_aniso_U_12
_atom_site_aniso_U_13
_atom_site_aniso_U_23
Br4' 0.0547(2) 0.0877(3) 0.0697(2) 0.01169(15) 0.01722(14) -0.00737(15)
S1 0.0435(3) 0.0379(3) 0.0630(4) 0.0097(2) 0.0052(3) -0.0061(3)
O21 0.117(2) 0.0697(14) 0.1103(19) 0.0003(13) 0.0360(16) -0.0360(13)
O3 0.0339(8) 0.0457(9) 0.0610(10) 0.0070(7) 0.0072(7) -0.0032(7)
O1 0.0633(11) 0.0495(10) 0.0728(12) 0.0021(8) 0.0063(9) -0.0216(9)
O2 0.0577(11) 0.0556(10) 0.0896(14) 0.0268(9) 0.0065(10) 0.0061(10)
C1 0.0323(11) 0.0490(12) 0.0537(13) 0.0032(9) 0.0129(10) 0.0056(10)
C2 0.0393(12) 0.0420(12) 0.0703(16) 0.0012(10) 0.0185(11) 0.0036(11)
C21 0.0667(18) 0.0487(14) 0.0795(19) -0.0021(13) 0.0173(15) -0.0105(13)
C3 0.0594(18) 0.0532(16) 0.108(3) 0.0129(14) 0.0259(18) 0.0229(16)
C4 0.063(2) 0.096(3) 0.114(3) 0.0243(19) 0.024(2) 0.057(2)
C5 0.0599(19) 0.127(3) 0.0607(18) 0.009(2) 0.0060(15) 0.032(2)
C6 0.0535(16) 0.0816(19) 0.0546(15) 0.0058(14) 0.0121(13) 0.0008(14)
C1' 0.0366(12) 0.0380(11) 0.0505(13) 0.0036(9) 0.0036(10) 0.0040(9)
C2' 0.0372(13) 0.0709(16) 0.0532(14) 0.0100(12) -0.0070(11) -0.0020(12)
C3' 0.0481(15) 0.0824(19) 0.0481(14) 0.0102(13) -0.0020(11) -0.0088(13)
C4' 0.0417(13) 0.0538(14) 0.0530(14) 0.0042(11) 0.0090(11) 0.0044(11)
C5' 0.0346(12) 0.0680(16) 0.0545(14) 0.0021(11) 0.0008(10) 0.0042(12)
C6' 0.0403(13) 0.0594(14) 0.0461(13) -0.0021(11) -0.0001(10) -0.0015(11)
loop_
_atom_type_symbol
_atom_type_description
_atom_type_scat_dispersion_real
_atom_type_scat_dispersion_imag
_atom_type_scat_source
C C 0.0033 0.0016 'International Tables Vol C Tables 4.2.6.8 and 6.1.1.4'
H H 0.0000 0.0000 'International Tables Vol C Tables 4.2.6.8 and 6.1.1.4'
O O 0.0106 0.0060 'International Tables Vol C Tables 4.2.6.8 and 6.1.1.4'
S S 0.1246 0.1234 'International Tables Vol C Tables 4.2.6.8 and 6.1.1.4'
Br Br -0.2901 2.4595 'International Tables Vol C Tables 4.2.6.8 and 6.1.1.4'
loop_
_geom_angle_atom_site_label_1
_geom_angle_atom_site_label_2
_geom_angle_atom_site_label_3
_geom_angle_site_symmetry_3
_geom_angle
C4' Br4' O21 2_755 174.78(9)
O2 S1 O1 . 120.49(11)
O2 S1 O3 . 102.58(11)
O1 S1 O3 . 109.09(11)
O2 S1 C1' . 111.30(12)
O1 S1 C1' . 108.95(11)
O3 S1 C1' . 102.78(9)
C1 O3 S1 . 119.56(13)
C6 C1 C2 . 122.3(2)
C6 C1 O3 . 120.4(2)
C2 C1 O3 . 117.2(2)
C3 C2 C1 . 117.9(3)
C3 C2 C21 . 119.4(3)
C1 C2 C21 . 122.6(2)
O21 C21 C2 . 123.5(3)
O21 C21 H21 . 118.3
C2 C21 H21 . 118.3
C4 C3 C2 . 120.5(3)
C4 C3 H3 . 119.7
C2 C3 H3 . 119.7
C5 C4 C3 . 120.3(3)
C5 C4 H4 . 119.8
C3 C4 H4 . 119.8
C4 C5 C6 . 121.3(3)
C4 C5 H5 . 119.4
C6 C5 H5 . 119.4
C1 C6 C5 . 117.6(3)
C1 C6 H6 . 121.2
C5 C6 H6 . 121.2
C6' C1' C2' . 121.1(2)
C6' C1' S1 . 119.66(18)
C2' C1' S1 . 119.27(18)
C3' C2' C1' . 119.1(2)
C3' C2' H2' . 120.4
C1' C2' H2' . 120.4
C2' C3' C4' . 119.5(2)
C2' C3' H3' . 120.3
C4' C3' H3' . 120.3
C5' C4' C3' . 121.5(2)
C5' C4' Br4' . 118.69(19)
C3' C4' Br4' . 119.78(19)
C6' C5' C4' . 119.0(2)
C6' C5' H5' . 120.5
C4' C5' H5' . 120.5
C5' C6' C1' . 119.7(2)
C5' C6' H6' . 120.1
C1' C6' H6' . 120.1
loop_
_geom_bond_atom_site_label_1
_geom_bond_atom_site_label_2
_geom_bond_site_symmetry_2
_geom_bond_distance
Br4' C4' . 1.892(2)
Br4' O21 2_755 3.094(3)
S1 O2 . 1.4114(19)
S1 O1 . 1.4219(18)
S1 O3 . 1.5955(17)
S1 C1' . 1.751(2)
O21 C21 . 1.200(3)
O3 C1 . 1.408(3)
C1 C6 . 1.373(4)
C1 C2 . 1.386(3)
C2 C3 . 1.380(4)
C2 C21 . 1.476(4)
C21 H21 . 0.9300
C3 C4 . 1.367(5)
C3 H3 . 0.9300
C4 C5 . 1.359(5)
C4 H4 . 0.9300
C5 C6 . 1.384(5)
C5 H5 . 0.9300
C6 H6 . 0.9300
C1' C6' . 1.377(3)
C1' C2' . 1.382(3)
C2' C3' . 1.374(4)
C2' H2' . 0.9300
C3' C4' . 1.375(4)
C3' H3' . 0.9300
C4' C5' . 1.375(3)
C5' C6' . 1.373(4)
C5' H5' . 0.9300
C6' H6' . 0.9300
loop_
_geom_hbond_atom_site_label_D
_geom_hbond_atom_site_label_H
_geom_hbond_atom_site_label_A
_geom_hbond_site_symmetry_A
_geom_hbond_distance_DH
_geom_hbond_distance_HA
_geom_hbond_distance_DA
_geom_hbond_angle_DHA
_geom_hbond_publ_flag
C3 H3 O1 1_545 0.93 2.68 3.440(3) 139.8 yes
C5' H5' O2 1_655 0.93 2.69 3.436(3) 137.6 yes
C6' H6' O1 2_766 0.93 2.66 3.406(3) 137.9 yes
loop_
_geom_torsion_atom_site_label_1
_geom_torsion_atom_site_label_2
_geom_torsion_atom_site_label_3
_geom_torsion_atom_site_label_4
_geom_torsion
O2 S1 O3 C1 175.36(17)
O1 S1 O3 C1 -55.78(18)
C1' S1 O3 C1 59.74(18)
S1 O3 C1 C6 69.2(3)
S1 O3 C1 C2 -113.2(2)
C6 C1 C2 C3 0.4(4)
O3 C1 C2 C3 -177.2(2)
C6 C1 C2 C21 178.4(2)
O3 C1 C2 C21 0.8(3)
C3 C2 C21 O21 -7.9(4)
C1 C2 C21 O21 174.1(3)
C1 C2 C3 C4 -1.0(4)
C21 C2 C3 C4 -179.0(3)
C2 C3 C4 C5 0.8(5)
C3 C4 C5 C6 -0.1(5)
C2 C1 C6 C5 0.3(4)
O3 C1 C6 C5 177.8(2)
C4 C5 C6 C1 -0.5(5)
O2 S1 C1' C6' 149.33(19)
O1 S1 C1' C6' 14.1(2)
O3 S1 C1' C6' -101.5(2)
O2 S1 C1' C2' -32.2(2)
O1 S1 C1' C2' -167.4(2)
O3 S1 C1' C2' 77.0(2)
C6' C1' C2' C3' 1.5(4)
S1 C1' C2' C3' -176.9(2)
C1' C2' C3' C4' -0.5(4)
C2' C3' C4' C5' -1.0(4)
C2' C3' C4' Br4' 178.4(2)
C3' C4' C5' C6' 1.5(4)
Br4' C4' C5' C6' -177.93(19)
C4' C5' C6' C1' -0.5(4)
C2' C1' C6' C5' -1.0(4)
S1 C1' C6' C5' 177.43(19)

_cod_database_fobs_code 2021159
