#------------------------------------------------------------------------------
#$Date: 2018-06-11 18:37:22 +0300 (Mon, 11 Jun 2018) $
#$Revision: 208269 $
#$URL: file:///home/coder/svn-repositories/cod/cif/2/02/11/2021161.cif $
#------------------------------------------------------------------------------
#
# This file is available in the Crystallography Open Database (COD),
# http://www.crystallography.net/. The original data for this entry
# were provided by IUCr Journals, http://journals.iucr.org/.
#
# The file may be used within the scientific community so long as
# proper attribution is given to the journal article from which the
# data were obtained.
#
data_2021161
loop_
_publ_author_name
'Andleeb, Hina'
'Khan, Imtiaz'
'Bauz\'a, Antonio'
'Tahir, Muhammad Nawaz'
'Simpson, Jim'
'Hameed, Shahid'
'Frontera, Antonio'
_publ_section_title
;
 A comparative experimental and theoretical investigation of
 hydrogen-bond, halogen-bond and \p--\p interactions in the solid-state
 supramolecular assembly of 2- and 4-formylphenyl arylsulfonates
;
_journal_coeditor_code           RH3006
_journal_issue                   7
_journal_name_full               'Acta Crystallographica Section C'
_journal_page_first
;
;
_journal_paper_doi               10.1107/S2053229618008355
_journal_volume                  74
_journal_year                    2018
_chemical_formula_iupac          'C13 H9 Br O4 S'
_chemical_formula_moiety         'C13 H9 Br O4 S'
_chemical_formula_sum            'C13 H9 Br O4 S'
_chemical_formula_weight         341.17
_chemical_name_systematic
;
4-Formylphenyl 4-bromobenzenesulfonate
;
_space_group_crystal_system      triclinic
_space_group_IT_number           2
_space_group_name_Hall           '-P 1'
_space_group_name_H-M_alt        'P -1'
_symmetry_space_group_name_Hall  '-P 1'
_symmetry_space_group_name_H-M   'P -1'
_atom_sites_solution_hydrogens   geom
_audit_creation_method           SHELXL-2014/7
_cell_angle_alpha                79.746(3)
_cell_angle_beta                 83.570(2)
_cell_angle_gamma                65.091(2)
_cell_formula_units_Z            2
_cell_length_a                   6.8248(3)
_cell_length_b                   7.2849(4)
_cell_length_c                   15.1587(9)
_cell_measurement_reflns_used    1977
_cell_measurement_temperature    296(2)
_cell_measurement_theta_max      27.9430
_cell_measurement_theta_min      3.216
_cell_volume                     672.06(6)
_computing_cell_refinement
;
SAINT (Bruker, 2011)
;
_computing_data_collection
;
APEX2 (Bruker, 2011)
;
_computing_data_reduction
;
SAINT (Bruker, 2011)
;
_computing_molecular_graphics
;
Mercury (Macrae <i>et al.</i>, 2008)
;
_computing_publication_material
;
SHELXL2014 (Sheldrick, 2015), enCIFer (Allen <i>et al.</i>,
2004),
PLATON (Spek, 2009) and WinGX (Farrugia, 2012)
;
_computing_structure_refinement
;
SHELXL2014 (Sheldrick, 2015)
;
_computing_structure_solution
;
SHELXS97 (Sheldrick, 2008)
;
_diffrn_ambient_temperature      296(2)
_diffrn_detector_area_resol_mean 7.60
_diffrn_measured_fraction_theta_full 0.998
_diffrn_measured_fraction_theta_max 0.984
_diffrn_measurement_device_type  'Bruker Kappa APEXII CCD'
_diffrn_measurement_method       \w
_diffrn_radiation_monochromator  graphite
_diffrn_radiation_source         'fine-focus sealed tube'
_diffrn_radiation_type           MoK\a
_diffrn_radiation_wavelength     0.71073
_diffrn_reflns_av_R_equivalents  0.0279
_diffrn_reflns_limit_h_max       8
_diffrn_reflns_limit_h_min       -5
_diffrn_reflns_limit_k_max       9
_diffrn_reflns_limit_k_min       -9
_diffrn_reflns_limit_l_max       19
_diffrn_reflns_limit_l_min       -19
_diffrn_reflns_number            11049
_diffrn_reflns_theta_full        25.242
_diffrn_reflns_theta_max         27.943
_diffrn_reflns_theta_min         3.216
_exptl_absorpt_coefficient_mu    3.219
_exptl_absorpt_correction_T_max  0.7456
_exptl_absorpt_correction_T_min  0.6352
_exptl_absorpt_correction_type   multi-scan
_exptl_absorpt_process_details
;
(SADABS; Bruker, 2011)
;
_exptl_crystal_colour            white
_exptl_crystal_density_diffrn    1.686
_exptl_crystal_density_method    'not measured'
_exptl_crystal_description       needle
_exptl_crystal_F_000             340
_exptl_crystal_size_max          0.38
_exptl_crystal_size_mid          0.24
_exptl_crystal_size_min          0.22
_refine_diff_density_max         0.255
_refine_diff_density_min         -0.292
_refine_ls_extinction_method     none
_refine_ls_goodness_of_fit_ref   1.007
_refine_ls_hydrogen_treatment    constr
_refine_ls_matrix_type           full
_refine_ls_number_parameters     172
_refine_ls_number_reflns         3167
_refine_ls_number_restraints     0
_refine_ls_restrained_S_all      1.007
_refine_ls_R_factor_all          0.0680
_refine_ls_R_factor_gt           0.0321
_refine_ls_shift/su_max          0.000
_refine_ls_shift/su_mean         0.000
_refine_ls_structure_factor_coef Fsqd
_refine_ls_weighting_details
'w=1/[\s^2^(Fo^2^)+(0.0420P)^2^+0.0141P] where P=(Fo^2^+2Fc^2^)/3'
_refine_ls_weighting_scheme      calc
_refine_ls_wR_factor_gt          0.0733
_refine_ls_wR_factor_ref         0.0834
_reflns_number_gt                1978
_reflns_number_total             3167
_reflns_threshold_expression     'I > 2\s(I)'
_cod_data_source_file            rh3006sup1.cif
_cod_data_source_block           4c
_cod_database_code               2021161
_shelx_space_group_comment
;
The symmetry employed for this shelxl refinement is uniquely defined
by the following loop, which should always be used as a source of
symmetry information in preference to the above space-group names.
They are only intended as comments.
;
_shelx_estimated_absorpt_t_min   0.374
_shelx_estimated_absorpt_t_max   0.538
_shelx_hkl_file
;
  -1   0   0   19.22    0.74
  -1   0   0   22.38    0.74
   1   0   0   23.71    0.75
   1   0   0   23.64    0.73
  -2   0   0  206.44    6.84
  -2   0   0  213.75    7.01
   2   0   0  221.50    6.89
   2   0   0  218.13    6.90
   2   0   0  209.81    7.03
   2   0   0  213.23    7.04
   3   0   0   39.76    1.38
   3   0   0   40.71    1.36
   3   0   0   41.19    1.39
   3   0   0   42.75    1.36
   4   0   0    8.66    0.35
   4   0   0    8.94    0.38
   4   0   0    8.80    0.37
   4   0   0    9.12    0.38
   5   0   0    2.24    0.21
   5   0   0    3.00    0.23
   5   0   0    2.48    0.18
   5   0   0    2.53    0.20
   6   0   0    0.02    0.15
   6   0   0    0.11    0.13
   6   0   0    0.16    0.16
   7   0   0    0.26    0.19
   7   0   0    0.17    0.18
   7   0   0    0.18    0.24
   7  -1   0    0.35    0.25
   6  -1   0   10.53    0.53
   6  -1   0   10.20    0.53
   6  -1   0   10.12    0.49
   5  -1   0    1.59    0.23
   5  -1   0    1.35    0.21
   5  -1   0    1.37    0.18
   4  -1   0   36.45    1.30
   4  -1   0   39.96    1.32
   4  -1   0   37.73    1.33
   4  -1   0   36.50    1.31
  -4   1   0   36.40    1.26
  -4   1   0   35.99    1.27
   3  -1   0   61.19    2.05
   3  -1   0   62.33    2.02
   3  -1   0   60.65    2.01
   3  -1   0   58.78    2.03
  -3   1   0   60.14    2.02
  -3   1   0   59.62    2.01
  -3   1   0   58.52    1.99
   2  -1   0   16.64    0.62
   2  -1   0   17.44    0.63
   2  -1   0   16.79    0.61
   2  -1   0   17.44    0.63
  -2   1   0   16.87    0.61
  -2   1   0   16.69    0.62
  -2   1   0   17.67    0.62
   1  -1   0  143.22    4.68
   1  -1   0  141.32    4.67
   1  -1   0  140.89    4.56
   1  -1   0  144.71    4.56
  -1   1   0  140.85    4.68
  -1   1   0  141.17    4.56
  -1   1   0  144.88    4.56
  -1   1   0  140.41    4.56
  -1   1   0  139.01    4.67
  -1  -1   0   20.42    0.68
  -1  -1   0   20.65    0.68
  -1  -1   0   21.21    0.69
  -1  -1   0   17.58    0.69
   1   1   0   21.01    0.68
   1   1   0   22.13    0.71
   1   1   0   21.64    0.70
   2   1   0   10.26    0.41
   4   1   0   88.40    2.89
   4   1   0   90.69    2.83
   4   1   0   85.60    2.90
   4   1   0   87.66    2.82
   5   1   0   15.73    0.55
   5   1   0   16.78    0.56
   5   1   0   15.46    0.55
   5   1   0   14.65    0.56
   6   1   0   12.37    0.64
   6   1   0   13.12    0.50
   6   1   0   13.02    0.49
   6   1   0   13.06    0.49
   7   1   0    5.67    0.47
   7   1   0    5.28    0.28
   7   1   0    5.05    0.26
   7  -2   0   -0.52    0.25
   6  -2   0    0.14    0.26
   5  -2   0    0.25    0.21
   5  -2   0    0.21    0.18
   5  -2   0   -0.11    0.22
   4  -2   0    0.63    0.21
   4  -2   0    0.89    0.21
   4  -2   0    0.70    0.17
  -4   2   0    0.85    0.16
  -4   2   0    0.95    0.20
   3  -2   0    7.80    0.44
   3  -2   0    8.71    0.43
   3  -2   0    7.45    0.38
  -3   2   0    8.68    0.38
  -3   2   0    9.13    0.40
  -3   2   0    8.25    0.43
   2  -2   0   46.31    1.60
   2  -2   0   43.11    1.57
   2  -2   0   47.18    1.58
  -2   2   0   46.16    1.57
  -2   2   0   47.07    1.58
  -2   2   0   43.50    1.56
   1  -2   0  112.58    3.78
   1  -2   0  112.25    3.79
   1  -2   0  110.21    3.70
  -1   2   0  113.24    3.77
  -1   2   0  119.94    3.71
  -1   2   0  110.77    3.79
  -1   2   0  115.87    3.70
   0  -2   0   93.63    3.06
   0  -2   0   92.39    3.05
   0  -2   0   93.04    2.98
   0  -2   0   96.71    2.99
   0   2   0   92.76    3.05
   0   2   0   91.74    2.99
   0   2   0   80.73    3.05
  -1  -2   0  488.65   16.13
  -1  -2   0  500.61   15.96
  -1  -2   0  498.34   16.43
  -1  -2   0  473.22   16.37
   1   2   0  488.09   16.15
   1   2   0  496.02   16.40
   1   2   0  490.45   16.36
   1   2   0  499.21   15.96
   1   2   0  518.37   15.96
  -2  -2   0   38.74    1.32
  -2  -2   0   38.92    1.34
  -2  -2   0   40.96    1.38
  -2  -2   0   40.32    1.32
  -2  -2   0   40.03    1.34
   2   2   0   41.37    1.33
   2   2   0   40.49    1.36
   2   2   0   40.78    1.33
   2   2   0   40.40    1.35
   2   2   0   39.82    1.38
   3   2   0  184.38    6.01
   3   2   0  179.51    5.98
   3   2   0  177.82    5.84
   3   2   0  183.09    6.00
   3   2   0  190.21    5.86
   4   2   0    0.17    0.14
   5   2   0    4.17    0.35
   6   2   0    1.48    0.27
   7   2   0    0.65    0.28
   8   2   0    0.00    0.28
   6  -3   0    0.52    0.31
   5  -3   0    7.73    0.57
   5  -3   0    9.48    0.52
   4  -3   0    1.35    0.23
   4  -3   0    0.85    0.27
   4  -3   0    1.30    0.26
  -4   3   0    1.37    0.22
  -4   3   0    0.87    0.25
   3  -3   0   54.45    1.87
   3  -3   0   49.35    1.82
   3  -3   0   49.49    1.83
  -3   3   0   51.66    1.83
  -3   3   0   53.04    1.83
   2  -3   0    0.26    0.16
   2  -3   0    0.54    0.19
   2  -3   0    0.63    0.15
  -2   3   0    0.48    0.13
  -2   3   0    0.31    0.17
  -2   3   0    0.56    0.16
   1  -3   0    5.52    0.32
   1  -3   0    5.49    0.29
   1  -3   0    5.52    0.26
   1  -3   0    4.74    0.36
  -1   3   0    5.18    0.29
  -1   3   0    4.76    0.35
  -1   3   0    5.18    0.35
   0  -3   0   60.64    1.99
   0  -3   0   59.12    2.06
   0  -3   0   61.25    2.03
   0  -3   0   57.95    2.04
   0   3   0   57.27    2.02
   0   3   0   59.23    2.04
   0   3   0   61.85    2.06
  -1  -3   0   21.20    0.76
  -1  -3   0   21.04    0.77
  -1  -3   0   20.87    0.77
   1   3   0   19.94    0.76
   1   3   0   21.55    0.76
   1   3   0   20.21    0.77
   1   3   0   20.02    0.77
  -2  -3   0   19.40    0.72
  -2  -3   0   20.50    0.76
  -2  -3   0   20.15    0.73
  -2  -3   0   19.76    0.73
   2   3   0   19.62    0.75
   2   3   0   20.84    0.75
   2   3   0   21.45    0.75
   2   3   0   19.87    0.73
   2   3   0   20.38    0.74
  -3  -3   0    1.88    0.14
  -3  -3   0    1.75    0.13
  -3  -3   0    2.30    0.22
  -3  -3   0    1.76    0.13
   3   3   0    1.82    0.20
   3   3   0    1.79    0.17
   3   3   0    1.86    0.15
   3   3   0    2.09    0.17
   3   3   0    1.77    0.14
   4   3   0   11.67    0.46
   4   3   0   11.71    0.55
   4   3   0   12.72    0.47
   4   3   0   11.72    0.46
   4   3   0   12.13    0.45
   5   3   0   18.48    0.66
   5   3   0   18.46    0.65
   5   3   0   18.36    0.65
   5   3   0   19.20    0.65
   5   3   0   18.60    0.80
   6   3   0    4.60    0.40
   7   3   0   10.30    0.62
   8   3   0    0.48    0.32
   5  -4   0    0.10    0.26
   5  -4   0   -0.44    0.29
   4  -4   0    0.04    0.28
   4  -4   0   -0.18    0.21
   3  -4   0    0.14    0.21
   3  -4   0   -0.22    0.23
  -3   4   0   -0.09    0.24
   2  -4   0    0.53    0.25
   2  -4   0    0.94    0.24
   2  -4   0    0.97    0.16
   2  -4   0    0.73    0.19
  -2   4   0    0.92    0.24
  -2   4   0    0.63    0.21
  -2   4   0    1.04    0.20
   1  -4   0    6.85    0.38
   1  -4   0    7.01    0.35
   1  -4   0    6.67    0.44
   1  -4   0    6.85    0.42
  -1   4   0    7.72    0.41
  -1   4   0    6.63    0.46
  -1   4   0    6.70    0.47
   0  -4   0    8.73    0.40
   0  -4   0    9.02    0.43
   0  -4   0    8.93    0.46
   0  -4   0    9.42    0.48
   0   4   0    9.10    0.46
   0   4   0    8.91    0.51
   0   4   0    8.54    0.43
   0   4   0    7.89    0.50
  -1  -4   0   71.26    2.42
  -1  -4   0   70.56    2.36
  -1  -4   0   67.66    2.38
   1   4   0   70.73    2.39
   1   4   0   70.56    2.35
   1   4   0   68.93    2.42
   1   4   0   70.23    2.40
  -2  -4   0   49.38    1.68
  -2  -4   0   49.53    1.70
  -2  -4   0   49.85    1.70
  -2  -4   0   45.36    1.68
   2   4   0   48.52    1.69
   2   4   0   48.17    1.68
   2   4   0   48.82    1.69
   2   4   0   49.08    1.71
  -3  -4   0    4.31    0.31
  -3  -4   0    5.85    0.27
  -3  -4   0    4.42    0.27
   3   4   0    4.61    0.28
   3   4   0    4.47    0.32
   3   4   0    3.97    0.29
   3   4   0    5.52    0.33
  -4  -4   0   27.66    0.95
  -4  -4   0   28.53    0.95
  -4  -4   0   27.94    0.95
   4   4   0   27.35    1.01
   4   4   0   30.25    1.02
   4   4   0   27.08    1.01
   4   4   0   26.52    1.07
   4   4   0   26.50    0.99
   5   4   0    0.82    0.16
   5   4   0    0.56    0.21
   5   4   0    0.41    0.12
   5   4   0    0.68    0.15
   5   4   0    0.64    0.15
   5   4   0    0.67    0.15
   6   4   0    2.53    0.33
   6   4   0    1.62    0.16
   6   4   0    1.92    0.15
   6   4   0    2.00    0.18
   7   4   0    0.25    0.29
   8   4   0    0.06    0.30
   4  -5   0    1.99    0.34
   4  -5   0    2.62    0.44
   3  -5   0    0.04    0.25
   3  -5   0   -0.10    0.30
  -3   5   0    0.21    0.32
   2  -5   0   17.10    0.78
   2  -5   0   15.81    0.82
  -2   5   0   16.36    0.84
   1  -5   0    1.24    0.32
   1  -5   0    1.32    0.25
   1  -5   0    2.02    0.23
   1  -5   0    1.69    0.28
  -1   5   0    1.76    0.31
  -1   5   0    1.73    0.25
   0  -5   0    1.43    0.21
   0  -5   0    1.09    0.27
   0  -5   0    1.11    0.21
   0  -5   0    0.65    0.22
   0   5   0    1.31    0.23
   0   5   0    0.73    0.23
   0   5   0    1.06    0.26
   0   5   0    0.84    0.25
  -1  -5   0    5.96    0.37
  -1  -5   0    6.17    0.40
  -1  -5   0    6.73    0.45
   1   5   0    6.67    0.48
   1   5   0    6.75    0.48
   1   5   0    6.27    0.38
   1   5   0    6.10    0.41
  -2  -5   0    0.81    0.19
  -2  -5   0    1.08    0.22
  -2  -5   0    0.79    0.17
   2   5   0    0.76    0.22
   2   5   0    1.44    0.20
   2   5   0    0.97    0.21
   2   5   0    1.17    0.20
  -3  -5   0   -0.10    0.16
  -3  -5   0   -0.01    0.14
  -3  -5   0    0.03    0.13
   3   5   0   -0.19    0.16
   3   5   0   -0.03    0.17
   3   5   0    0.12    0.14
   3   5   0    0.07    0.19
  -4  -5   0    6.54    0.36
  -4  -5   0    6.33    0.32
   4   5   0    5.67    0.34
   4   5   0    5.51    0.38
   4   5   0    6.36    0.37
   4   5   0    5.60    0.40
   5   5   0    0.99    0.25
   5   5   0    1.11    0.18
   5   5   0    0.77    0.20
   5   5   0    0.87    0.21
   5   5   0    0.99    0.19
   6   5   0    5.40    0.38
   6   5   0    5.30    0.31
   6   5   0    5.62    0.34
   6   5   0    5.45    0.47
   7   5   0    0.15    0.13
   7   5   0    0.12    0.16
   7   5   0    0.02    0.27
   7   5   0    0.07    0.14
   8   5   0    4.24    0.51
   3  -6   0   -0.30    0.34
   2  -6   0    0.37    0.33
  -2   6   0    1.11    0.38
   1  -6   0    1.25    0.38
   1  -6   0    1.10    0.28
  -1   6   0    1.38    0.37
   0  -6   0   26.29    1.07
   0  -6   0   25.49    1.17
   0   6   0   26.60    1.15
   0   6   0   25.77    1.13
   0   6   0   28.07    1.12
   0   6   0   25.78    1.08
  -1  -6   0    3.10    0.31
  -1  -6   0    3.94    0.42
  -1  -6   0    3.76    0.36
   1   6   0    3.45    0.35
   1   6   0    3.05    0.40
   1   6   0    3.69    0.37
   1   6   0    3.65    0.42
  -2  -6   0   15.48    0.69
  -2  -6   0   15.55    0.77
  -2  -6   0   15.38    0.72
   2   6   0   15.63    0.75
   2   6   0   16.52    0.72
   2   6   0   16.02    0.80
   2   6   0   14.61    0.79
   2   6   0   15.75    0.70
  -3  -6   0    3.85    0.31
  -3  -6   0    3.75    0.37
   3   6   0    3.57    0.36
   3   6   0    4.89    0.35
   3   6   0    3.47    0.40
   3   6   0    3.63    0.35
   3   6   0    3.28    0.39
  -4  -6   0    5.92    0.43
  -4  -6   0    5.13    0.35
   4   6   0    5.59    0.39
   4   6   0    4.20    0.40
   4   6   0    4.64    0.38
   4   6   0    5.19    0.44
   4   6   0    4.68    0.40
   5   6   0    3.91    0.40
   5   6   0    3.03    0.34
   5   6   0    3.40    0.33
   5   6   0    3.65    0.36
   5   6   0    3.36    0.29
   6   6   0   -0.35    0.23
   6   6   0   -0.02    0.17
   6   6   0   -0.01    0.19
   6   6   0    0.25    0.22
   7   6   0    1.63    0.27
   7   6   0    1.30    0.21
   7   6   0    1.53    0.37
   8   6   0    0.47    0.17
   2  -7   0    0.17    0.41
  -2   7   0   -0.23    0.39
   1  -7   0    3.60    0.51
  -1   7   0    3.91    0.51
   0  -7   0    0.08    0.33
   0   7   0   -0.28    0.33
  -1  -7   0   -0.45    0.29
   1   7   0    0.14    0.32
  -2  -7   0    0.05    0.26
   2   7   0    0.63    0.32
   2   7   0    0.31    0.29
   2   7   0    0.41    0.32
  -3  -7   0   -0.14    0.26
   3   7   0    0.02    0.30
   3   7   0   -0.02    0.23
   3   7   0   -0.42    0.25
   3   7   0   -0.23    0.25
  -4  -7   0    0.03    0.26
   4   7   0   -0.20    0.27
   4   7   0    0.20    0.27
   4   7   0    0.00    0.26
   4   7   0    0.52    0.28
   5   7   0    0.07    0.28
   5   7   0    0.51    0.27
   5   7   0    0.50    0.27
   5   7   0    0.66    0.28
   6   7   0    0.22    0.25
   6   7   0   -0.31    0.26
   6   7   0    0.37    0.29
   7   7   0    0.14    0.27
   1  -8   0   -0.21    0.39
  -1   8   0    0.37    0.41
   0  -8   0    0.07    0.38
   0   8   0   -0.18    0.40
  -1  -8   0    1.36    0.41
   1   8   0    1.09    0.41
  -2  -8   0    0.53    0.38
   2   8   0    0.43    0.35
  -3  -8   0    2.45    0.44
   3   8   0    3.10    0.42
   3   8   0    2.64    0.48
   4   8   0    0.81    0.33
   4   8   0    0.45    0.38
   4   8   0    0.15    0.30
   5   8   0    2.53    0.38
   5   8   0    2.36    0.44
   5   8   0    1.55    0.37
   6   8   0    0.57    0.35
   7   8   0   -0.36    0.30
  -2  -9   0   -0.22    0.41
   2   9   0    0.52    0.46
  -3  -9   0    0.25    0.40
   3   9   0    0.32    0.43
   4   9   0    0.05    0.41
   5   9   0   -0.07    0.41
   5   9  -1    0.84    0.45
   4   9  -1    0.57    0.44
   3   9  -1   -0.01    0.39
   2   9  -1    0.79    0.46
  -2  -9   1    0.88    0.44
   7   8  -1   -0.44    0.33
   6   8  -1    0.59    0.35
   5   8  -1    0.13    0.33
   5   8  -1    0.25    0.29
   5   8  -1    0.50    0.37
   5   8  -1   -0.07    0.29
   4   8  -1    1.51    0.40
   4   8  -1    1.56    0.43
   4   8  -1    2.09    0.37
   4   8  -1    2.56    0.38
   3   8  -1    0.82    0.38
   3   8  -1    0.85    0.38
   3   8  -1    0.71    0.29
  -3  -8   1    1.33    0.37
   2   8  -1    0.50    0.38
   2   8  -1    0.61    0.40
  -2  -8   1    0.39    0.37
   1   8  -1    0.95    0.41
  -1  -8   1    1.04    0.43
   0   8  -1    0.36    0.40
   0  -8   1    0.40    0.44
  -1   8  -1   -0.36    0.42
   1  -8   1    0.11    0.42
   7   7  -1    2.36    0.36
   6   7  -1    0.16    0.27
   6   7  -1   -0.16    0.28
   6   7  -1    0.07    0.23
   6   7  -1    0.51    0.31
   5   7  -1    1.80    0.35
   5   7  -1    0.98    0.33
   5   7  -1    2.02    0.35
   5   7  -1    1.06    0.28
   4   7  -1    1.19    0.36
   4   7  -1    1.20    0.29
   4   7  -1    1.35    0.33
   4   7  -1    1.30    0.31
  -4  -7   1    1.17    0.32
   3   7  -1    0.01    0.23
   3   7  -1    0.02    0.27
   3   7  -1    0.11    0.27
   3   7  -1    0.03    0.31
  -3  -7   1    0.36    0.27
   2   7  -1    0.23    0.33
   2   7  -1    0.28    0.33
   2   7  -1    0.44    0.28
  -2  -7   1    0.53    0.32
   1   7  -1    0.46    0.31
   1   7  -1    0.68    0.33
  -1  -7   1    0.50    0.34
   0   7  -1    0.01    0.33
   0   7  -1    0.12    0.32
   0  -7   1   -0.11    0.32
  -1   7  -1    0.00    0.36
   1  -7   1   -0.16    0.35
  -2   7  -1    0.62    0.40
   2  -7   1    0.26    0.42
   8   6  -1    0.59    0.17
   7   6  -1    0.03    0.22
   7   6  -1    0.71    0.34
   7   6  -1    0.02    0.17
   6   6  -1   -0.29    0.17
   6   6  -1    0.04    0.23
   6   6  -1    0.10    0.19
   6   6  -1    0.02    0.25
   6   6  -1   -0.22    0.22
   5   6  -1    0.85    0.25
   5   6  -1    1.00    0.21
   5   6  -1    1.22    0.23
   5   6  -1    0.95    0.29
   4   6  -1   -0.04    0.23
   4   6  -1   -0.16    0.19
   4   6  -1    0.14    0.19
   4   6  -1    0.59    0.24
  -4  -6   1    0.30    0.17
  -4  -6   1    0.18    0.21
   3   6  -1    9.47    0.56
   3   6  -1   10.71    0.55
   3   6  -1    9.25    0.57
   3   6  -1    9.59    0.55
  -3  -6   1   10.42    0.58
  -3  -6   1   10.62    0.51
   2   6  -1    0.06    0.26
   2   6  -1    0.26    0.20
   2   6  -1    0.13    0.19
   2   6  -1    0.02    0.22
  -2  -6   1    0.11    0.22
  -2  -6   1    0.30    0.18
  -2  -6   1    0.07    0.25
   1   6  -1    6.60    0.55
   1   6  -1    7.59    0.47
   1   6  -1    7.81    0.50
   1   6  -1    5.91    0.53
  -1  -6   1    6.70    0.44
  -1  -6   1    7.81    0.50
  -1  -6   1    6.40    0.54
   0   6  -1    0.22    0.28
   0   6  -1    0.13    0.25
   0   6  -1    0.03    0.29
   0  -6   1    0.12    0.27
   0  -6   1   -0.08    0.22
  -1   6  -1    4.16    0.48
   1  -6   1    2.73    0.45
   1  -6   1    3.51    0.39
  -2   6  -1    0.67    0.36
   2  -6   1    1.05    0.40
   3  -6   1    0.09    0.36
   8   5  -1   -0.49    0.31
   7   5  -1    1.61    0.18
   7   5  -1    2.14    0.21
   7   5  -1    2.11    0.22
   7   5  -1    2.04    0.38
   6   5  -1   13.66    0.76
   6   5  -1   15.17    0.63
   6   5  -1   15.62    0.62
   6   5  -1   14.51    0.60
   6   5  -1   14.31    0.65
   5   5  -1    4.13    0.33
   5   5  -1    4.19    0.31
   5   5  -1    4.29    0.30
   5   5  -1    3.23    0.36
   4   5  -1   11.97    0.59
   4   5  -1   11.47    0.56
   4   5  -1   12.10    0.54
   4   5  -1   11.61    0.60
  -4  -5   1   12.37    0.50
  -4  -5   1   13.01    0.55
   3   5  -1    0.03    0.16
   3   5  -1    0.16    0.15
   3   5  -1    0.01    0.16
   3   5  -1   -0.02    0.18
  -3  -5   1    0.16    0.13
  -3  -5   1    0.22    0.15
  -3  -5   1   -0.04    0.17
   2   5  -1   20.86    0.86
   2   5  -1   20.56    0.84
   2   5  -1   21.09    0.88
   2   5  -1   21.13    0.84
  -2  -5   1   21.52    0.87
  -2  -5   1   20.60    0.82
  -2  -5   1   21.09    0.86
   1   5  -1    0.06    0.16
   1   5  -1    0.19    0.22
   1   5  -1    0.01    0.18
   1   5  -1   -0.07    0.14
  -1  -5   1    0.06    0.17
  -1  -5   1   -0.17    0.14
  -1  -5   1    0.03    0.14
  -1  -5   1    0.04    0.21
   0   5  -1    2.10    0.32
   0   5  -1    2.52    0.28
   0   5  -1    2.08    0.27
   0  -5   1    2.32    0.32
   0  -5   1    1.62    0.27
   0  -5   1    2.33    0.23
   0  -5   1    2.62    0.27
  -1   5  -1   12.86    0.63
  -1   5  -1   13.30    0.70
  -1   5  -1   13.09    0.69
   1  -5   1   14.10    0.68
   1  -5   1   12.73    0.70
   1  -5   1   13.16    0.58
   1  -5   1   12.04    0.61
  -2   5  -1    5.59    0.51
   2  -5   1    7.06    0.47
   2  -5   1    6.00    0.52
  -3   5  -1   -0.26    0.30
   3  -5   1    0.10    0.28
   3  -5   1    0.53    0.26
   4  -5   1    1.62    0.33
   4  -5   1    0.85    0.39
   8   4  -1    0.10    0.32
   7   4  -1    0.04    0.08
   7   4  -1    0.12    0.10
   7   4  -1   -0.20    0.25
   6   4  -1   -0.03    0.12
   6   4  -1    0.09    0.23
   6   4  -1    0.35    0.12
   6   4  -1    0.12    0.13
   6   4  -1    0.03    0.10
   5   4  -1    1.15    0.17
   5   4  -1    1.27    0.15
   5   4  -1    0.91    0.24
   5   4  -1    1.20    0.15
   4   4  -1   10.31    0.55
   4   4  -1   10.18    0.49
   4   4  -1   11.43    0.47
   4   4  -1   10.71    0.48
   4   4  -1   11.09    0.49
  -4  -4   1   11.19    0.44
  -4  -4   1   11.15    0.42
   3   4  -1    0.15    0.12
   3   4  -1   -0.07    0.14
   3   4  -1   -0.05    0.14
   3   4  -1   -0.05    0.13
  -3  -4   1   -0.08    0.10
  -3  -4   1    0.10    0.11
  -3  -4   1    0.16    0.13
   2   4  -1  115.91    3.90
   2   4  -1  113.94    3.98
   2   4  -1  117.79    3.91
   2   4  -1  116.93    3.96
  -2  -4   1  116.00    3.95
  -2  -4   1  115.58    3.92
  -2  -4   1  120.71    3.88
  -2  -4   1  127.25    3.97
   1   4  -1    0.70    0.14
   1   4  -1    0.41    0.18
   1   4  -1    0.17    0.16
   1   4  -1    0.54    0.15
  -1  -4   1    0.67    0.14
  -1  -4   1    0.51    0.16
  -1  -4   1    0.75    0.19
   0   4  -1  104.29    3.47
   0   4  -1   99.11    3.47
   0   4  -1  102.38    3.42
   0  -4   1  101.78    3.46
   0  -4   1  103.18    3.49
   0  -4   1   98.70    3.42
   0  -4   1  104.47    3.38
  -1   4  -1   15.43    0.75
  -1   4  -1   17.57    0.71
  -1   4  -1   16.82    0.77
   1  -4   1   18.43    0.66
   1  -4   1   15.77    0.74
   1  -4   1   16.09    0.73
   1  -4   1   16.13    0.70
  -2   4  -1   15.90    0.69
  -2   4  -1   17.22    0.78
  -2   4  -1   16.26    0.73
  -2   4  -1   15.95    0.76
   2  -4   1   14.81    0.75
   2  -4   1   15.90    0.74
   2  -4   1   16.82    0.64
   2  -4   1   16.19    0.71
  -3   4  -1    0.20    0.26
   3  -4   1   -0.05    0.25
   3  -4   1    0.19    0.21
   4  -4   1    0.00    0.29
   4  -4   1    0.81    0.25
   5  -4   1    0.68    0.28
   5  -4   1    0.37    0.34
   8   3  -1    3.36    0.44
   7   3  -1    0.58    0.29
   6   3  -1    1.31    0.28
   5   3  -1   24.29    0.85
   5   3  -1   25.14    0.85
   5   3  -1   24.41    0.86
   5   3  -1   24.84    1.01
   5   3  -1   25.27    0.86
   4   3  -1    7.58    0.33
   4   3  -1    7.07    0.42
   4   3  -1    7.58    0.31
   4   3  -1    8.02    0.34
   4   3  -1    7.21    0.33
   3   3  -1   10.75    0.46
   3   3  -1   11.41    0.44
   3   3  -1   10.56    0.50
   3   3  -1   11.79    0.46
   3   3  -1   11.04    0.45
  -3  -3   1   11.10    0.43
  -3  -3   1   11.05    0.42
  -3  -3   1   11.07    0.42
   2   3  -1    1.81    0.17
   2   3  -1    1.36    0.17
   2   3  -1    1.90    0.18
   2   3  -1    1.56    0.14
   2   3  -1    1.88    0.17
  -2  -3   1    1.51    0.14
  -2  -3   1    1.71    0.14
  -2  -3   1    1.78    0.16
  -2  -3   1    1.57    0.17
   1   3  -1    0.50    0.10
   1   3  -1    0.25    0.11
   1   3  -1    0.43    0.11
   1   3  -1    0.38    0.12
  -1  -3   1    0.34    0.11
  -1  -3   1    0.21    0.07
  -1  -3   1    0.56    0.11
  -1  -3   1    0.42    0.13
   0   3  -1   31.26    1.11
   0   3  -1   30.61    1.12
   0   3  -1   30.79    1.13
   0  -3   1   30.19    1.10
   0  -3   1   31.03    1.07
   0  -3   1   30.89    1.13
   0  -3   1   31.23    1.13
  -1   3  -1  146.78    4.85
  -1   3  -1  148.04    4.94
   1  -3   1  147.67    4.95
   1  -3   1  151.01    4.81
   1  -3   1  146.56    4.97
   1  -3   1  148.58    4.86
  -2   3  -1   10.57    0.48
  -2   3  -1   10.07    0.49
  -2   3  -1    9.48    0.52
  -2   3  -1   10.58    0.53
   2  -3   1   10.37    0.50
   2  -3   1   10.38    0.54
   2  -3   1   10.03    0.47
  -3   3  -1   11.36    0.53
  -3   3  -1   11.02    0.59
   3  -3   1   10.18    0.58
   3  -3   1   10.66    0.51
   3  -3   1   10.35    0.57
  -4   3  -1    2.35    0.26
  -4   3  -1    2.10    0.31
   4  -3   1    2.01    0.29
   4  -3   1    2.15    0.32
   4  -3   1    2.44    0.28
   5  -3   1    5.25    0.40
   5  -3   1    4.53    0.46
   6  -3   1    0.93    0.35
   8   2  -1    0.43    0.31
   7   2  -1    0.23    0.26
   6   2  -1    0.12    0.20
   5   2  -1    4.19    0.35
   4   2  -1   36.89    1.21
   4   2  -1   36.74    1.19
   4   2  -1   37.12    1.22
   4   2  -1   36.67    1.19
   4   2  -1   34.08    1.33
   3   2  -1   67.10    2.27
   3   2  -1   66.86    2.22
   3   2  -1   68.89    2.17
   3   2  -1   65.54    2.17
   3   2  -1   66.69    2.22
   2   2  -1   -0.08    0.06
   2   2  -1   -0.11    0.06
   2   2  -1   -0.03    0.08
   2   2  -1    0.02    0.05
   2   2  -1   -0.02    0.06
  -2  -2   1   -0.04    0.05
  -2  -2   1   -0.01    0.06
  -2  -2   1   -0.02    0.05
   1   2  -1  743.43   25.31
   1   2  -1  789.24   25.42
   1   2  -1  809.35   24.69
   1   2  -1  796.10   25.00
   1   2  -1  765.51   24.75
  -1  -2   1  727.16   25.35
  -1  -2   1  761.36   25.35
  -1  -2   1  753.38   24.69
  -1  -2   1  768.69   24.88
   0   2  -1  102.42    3.48
   0   2  -1  104.30    3.40
   0   2  -1  105.79    3.47
   0   2  -1  104.52    3.38
   0  -2   1  105.39    3.40
   0  -2   1  102.70    3.46
   0  -2   1   99.85    3.38
   0  -2   1  108.31    3.48
  -1   2  -1  146.86    4.63
  -1   2  -1  143.48    4.73
  -1   2  -1  132.54    4.73
   1  -2   1  146.59    4.61
   1  -2   1  136.11    4.63
   1  -2   1  144.50    4.73
   1  -2   1  147.79    4.76
  -2   2  -1    0.74    0.15
  -2   2  -1    0.87    0.16
  -2   2  -1    0.71    0.14
  -2   2  -1    0.87    0.13
   2  -2   1    0.48    0.14
   2  -2   1    0.38    0.11
   2  -2   1    0.57    0.15
  -3   2  -1   81.69    2.74
  -3   2  -1   79.10    2.70
  -3   2  -1   82.51    2.76
   3  -2   1   82.91    2.79
   3  -2   1   80.29    2.76
   3  -2   1   80.25    2.73
  -4   2  -1    4.13    0.31
  -4   2  -1    3.64    0.28
   4  -2   1    4.31    0.33
   4  -2   1    3.45    0.28
   4  -2   1    3.41    0.33
   5  -2   1    4.06    0.32
   5  -2   1    4.80    0.38
   5  -2   1    4.15    0.38
   6  -2   1    2.61    0.36
   7  -2   1    0.25    0.28
   8   1  -1   -0.35    0.26
   7   1  -1    6.61    0.31
   7   1  -1    7.07    0.32
   7   1  -1    6.95    0.51
   6   1  -1    5.07    0.25
   6   1  -1    5.43    0.27
   6   1  -1    5.31    0.26
   5   1  -1   55.75    1.76
   5   1  -1   53.17    1.75
   5   1  -1   52.65    1.79
   5   1  -1   53.81    1.80
   4   1  -1   20.79    0.71
   4   1  -1   20.52    0.69
   4   1  -1   21.21    0.70
   4   1  -1   20.95    0.71
   3   1  -1   37.85    1.22
   2   1  -1   51.68    1.62
   2   1  -1   48.34    1.61
   2   1  -1   50.13    1.66
   2   1  -1   50.94    1.66
   1   1  -1   23.47    0.76
   1   1  -1   22.79    0.75
   1   1  -1   19.73    0.75
   1   1  -1   23.72    0.77
  -1  -1   1   22.51    0.76
  -1  -1   1   22.61    0.76
  -1  -1   1   21.31    0.74
  -1  -1   1   23.36    0.75
   0   1  -1   18.90    0.65
   0   1  -1   19.02    0.66
   0  -1   1   19.54    0.67
  -1   1  -1  152.43    5.24
  -1   1  -1  161.65    5.11
  -1   1  -1  157.57    5.24
   1  -1   1  164.90    5.24
   1  -1   1  152.68    5.25
   1  -1   1  159.94    5.12
   1  -1   1  164.97    5.12
  -2   1  -1   66.12    2.16
  -2   1  -1   65.36    2.12
  -2   1  -1   62.67    2.15
   2  -1   1   62.88    2.16
   2  -1   1   63.12    2.17
   2  -1   1   63.79    2.13
   2  -1   1   66.18    2.13
  -3   1  -1   14.71    0.54
  -3   1  -1   14.35    0.56
  -3   1  -1   14.85    0.56
   3  -1   1   14.36    0.56
   3  -1   1   15.40    0.60
   3  -1   1   15.10    0.59
   3  -1   1   14.57    0.58
  -4   1  -1    4.09    0.24
  -4   1  -1    4.24    0.27
   4  -1   1    4.35    0.31
   4  -1   1    4.81    0.34
   4  -1   1    4.04    0.27
   4  -1   1    4.24    0.30
   5  -1   1    9.32    0.46
   5  -1   1    8.67    0.41
   5  -1   1    8.39    0.47
   6  -1   1    1.14    0.21
   6  -1   1    1.49    0.25
   6  -1   1    1.09    0.25
   7  -1   1    4.33    0.38
   7   0  -1   -0.22    0.16
   7   0  -1    0.11    0.19
   6   0  -1    0.48    0.14
   6   0  -1    0.34    0.16
   6   0  -1    0.67    0.18
   5   0  -1    5.46    0.27
   5   0  -1    5.56    0.32
   5   0  -1    5.35    0.30
   5   0  -1    5.12    0.29
   4   0  -1    4.40    0.22
   4   0  -1    4.39    0.25
   4   0  -1    4.68    0.24
   4   0  -1    4.22    0.24
   3   0  -1   39.53    1.29
   3   0  -1   38.24    1.31
   3   0  -1   39.64    1.29
   3   0  -1   37.92    1.31
   2   0  -1   29.54    1.00
   2   0  -1   30.77    0.99
   2   0  -1   29.73    1.00
   2   0  -1   29.74    0.98
  -2   0   1   30.06    0.97
  -2   0   1   30.49    0.99
  -2   0   1   28.57    0.99
   1   0  -1   47.30    1.49
   1   0  -1   47.62    1.53
  -1   0   1   46.79    1.53
  -1   0   1   46.02    1.49
  -1   0   1   48.21    1.49
  -1   0   1   42.38    1.53
   0   0  -1    0.00    0.00
   0   0  -1    0.01    0.00
   0   0  -1    0.01    0.01
   0   0  -1    0.00    0.01
   0   0   1    0.00    0.00
   0   0   1    0.00    0.00
   0   0   1    0.00    0.01
  -1   0  -1  121.77    4.01
  -1   0  -1  126.94    4.16
  -1   0  -1  128.36    4.02
  -1   0  -1  105.59    4.16
   1   0   1  134.76    4.17
   1   0   1  135.98    4.07
  -2   0  -1  363.10   12.14
  -2   0  -1  357.89   12.16
  -2   0  -1  371.62   11.83
  -2   0  -1  385.92   11.85
  -2   0  -1  377.28   11.84
   2   0   1  367.17   12.18
   2   0   1  346.86   12.17
   2   0   1  375.42   11.89
   2   0   1  377.76   11.92
   3   0   1    0.25    0.07
   4   0   1   66.40    2.13
   4   0   1   63.77    2.17
   4   0   1   63.36    2.16
   4   0   1   63.86    2.13
   5   0   1    3.61    0.26
   5   0   1    3.59    0.23
   5   0   1    4.09    0.28
   5   0   1    3.90    0.26
   6   0   1    4.36    0.30
   6   0   1    3.96    0.35
   6   0   1    3.91    0.26
   6   0   1    3.44    0.29
   7   0   1    3.39    0.28
   7   0   1    3.20    0.29
   7  -1  -1    2.25    0.31
   6  -1  -1   21.25    0.88
   6  -1  -1   22.44    0.88
   6  -1  -1   21.58    0.85
   5  -1  -1    2.29    0.23
   5  -1  -1    2.52    0.25
   5  -1  -1    1.71    0.20
   4  -1  -1   99.08    3.60
   4  -1  -1  102.47    3.52
   4  -1  -1  115.81    3.54
   4  -1  -1  107.85    3.59
  -4   1   1  109.65    3.48
  -4   1   1  108.97    3.55
   3  -1  -1    0.09    0.12
   3  -1  -1    0.07    0.11
   3  -1  -1    0.12    0.11
   3  -1  -1    0.10    0.09
  -3   1   1    0.12    0.08
  -3   1   1    0.14    0.08
  -3   1   1    0.34    0.10
   2  -1  -1   91.97    2.94
   2  -1  -1   91.01    3.01
   2  -1  -1   89.49    3.00
   2  -1  -1   93.38    2.94
   2  -1  -1   88.20    2.94
  -2   1   1   88.65    2.99
  -2   1   1   90.95    3.00
  -2   1   1   88.54    2.93
   1  -1  -1   83.66    2.72
   1  -1  -1   83.58    2.66
   1  -1  -1   82.24    2.72
   1  -1  -1   84.77    2.66
   1  -1  -1   84.61    2.66
  -1   1   1   79.28    2.66
  -1   1   1   83.35    2.66
  -1   1   1   73.96    2.72
  -1   1   1   82.20    2.72
   0  -1  -1   25.79    0.88
   0   1   1   26.92    0.88
  -1  -1  -1   32.59    1.30
  -1  -1  -1   41.10    1.27
  -1  -1  -1   40.47    1.30
  -1  -1  -1   36.35    1.30
  -1  -1  -1   38.61    1.27
  -1  -1  -1   39.83    1.27
   1   1   1   42.14    1.31
   1   1   1   40.02    1.28
   1   1   1   40.12    1.30
   2   1   1    6.05    0.21
   2   1   1    6.30    0.27
   2   1   1    5.70    0.21
   2   1   1    6.01    0.22
   2   1   1    6.18    0.22
   3   1   1   41.64    1.44
   3   1   1   41.48    1.38
   3   1   1   42.92    1.35
   3   1   1   42.40    1.38
   3   1   1   40.55    1.35
   4   1   1   18.08    0.63
   4   1   1   17.58    0.73
   4   1   1   19.36    0.63
   4   1   1   18.54    0.63
   4   1   1   18.19    0.64
   5   1   1    1.40    0.13
   5   1   1    1.37    0.12
   5   1   1    1.21    0.11
   5   1   1    1.52    0.22
   5   1   1    1.68    0.14
   6   1   1   14.56    0.55
   6   1   1   15.75    0.70
   6   1   1   14.85    0.56
   6   1   1   14.06    0.55
   7   1   1    0.49    0.15
   7   1   1    0.70    0.26
   7   1   1    0.54    0.13
   7  -2  -1    1.64    0.32
   6  -2  -1    0.06    0.24
   5  -2  -1   -0.08    0.20
   5  -2  -1    0.19    0.21
   5  -2  -1    0.11    0.17
   4  -2  -1    0.84    0.20
   4  -2  -1    0.81    0.17
   4  -2  -1    1.14    0.24
  -4   2   1    1.14    0.20
  -4   2   1    1.01    0.16
   3  -2  -1    2.51    0.26
   3  -2  -1    2.54    0.21
   3  -2  -1    2.90    0.24
  -3   2   1    3.00    0.25
  -3   2   1    3.10    0.23
  -3   2   1    2.85    0.21
   2  -2  -1   18.70    0.70
   2  -2  -1   18.43    0.71
   2  -2  -1   17.29    0.68
  -2   2   1   17.27    0.69
  -2   2   1   18.66    0.68
  -2   2   1   17.97    0.69
   1  -2  -1   21.44    0.78
   1  -2  -1   22.16    0.80
   1  -2  -1   21.73    0.80
  -1   2   1   21.51    0.79
  -1   2   1   21.68    0.78
  -1   2   1   21.64    0.80
   0  -2  -1  607.03   19.69
   0  -2  -1  598.94   19.19
   0  -2  -1  578.03   19.24
   0  -2  -1  586.31   19.71
   0   2   1  594.60   19.23
   0   2   1  602.50   19.65
   0   2   1  589.66   19.20
  -1  -2  -1   57.31    1.86
  -1  -2  -1   55.20    1.82
  -1  -2  -1   53.20    1.85
  -1  -2  -1   54.42    1.83
   1   2   1   55.34    1.85
   1   2   1   56.74    1.86
   1   2   1   54.93    1.82
   1   2   1   54.06    1.82
   1   2   1   54.80    1.83
   1   2   1   57.03    1.82
  -2  -2  -1   32.87    1.13
  -2  -2  -1   33.35    1.17
  -2  -2  -1   33.53    1.11
  -2  -2  -1   33.20    1.13
  -2  -2  -1   33.75    1.12
   2   2   1   34.10    1.12
   2   2   1   33.88    1.14
   2   2   1   34.53    1.14
   2   2   1   34.35    1.16
   2   2   1   33.84    1.12
   2   2   1   34.18    1.12
   3   2   1    2.25    0.12
   3   2   1    1.85    0.18
   3   2   1    2.18    0.11
   4   2   1   24.77    0.84
   4   2   1   24.62    0.95
   4   2   1   25.69    0.84
   5   2   1   18.82    0.79
   6   2   1    0.65    0.23
   7   2   1    1.92    0.32
   8   2   1    0.88    0.32
   6  -3  -1   -0.01    0.28
   5  -3  -1    1.26    0.27
   5  -3  -1    1.38    0.32
   4  -3  -1    2.63    0.31
   4  -3  -1    2.61    0.27
   4  -3  -1    1.98    0.31
  -4   3   1    1.90    0.29
  -4   3   1    2.89    0.27
   3  -3  -1   45.60    1.65
   3  -3  -1   42.45    1.64
   3  -3  -1   44.62    1.62
  -3   3   1   46.54    1.62
  -3   3   1   47.47    1.63
   2  -3  -1    6.12    0.35
   2  -3  -1    7.51    0.39
   2  -3  -1    7.18    0.43
  -2   3   1    7.03    0.38
  -2   3   1    6.60    0.41
  -2   3   1    7.00    0.35
   1  -3  -1   33.02    1.25
   1  -3  -1   33.52    1.27
   1  -3  -1   37.69    1.29
  -1   3   1   35.47    1.27
  -1   3   1   36.70    1.26
   0  -3  -1    4.18    0.24
   0  -3  -1    4.26    0.26
   0  -3  -1    4.16    0.24
   0  -3  -1    4.12    0.28
   0   3   1    4.06    0.26
   0   3   1    4.04    0.28
   0   3   1    4.58    0.25
   0   3   1    4.54    0.29
  -1  -3  -1   97.73    3.18
  -1  -3  -1   93.69    3.16
  -1  -3  -1   95.78    3.23
   1   3   1   98.64    3.17
   1   3   1   97.30    3.24
   1   3   1   95.26    3.17
   1   3   1   96.50    3.17
   1   3   1   96.25    3.22
  -2  -3  -1    5.18    0.24
  -2  -3  -1    4.85    0.24
  -2  -3  -1    5.21    0.26
  -2  -3  -1    5.07    0.28
   2   3   1    5.26    0.26
   2   3   1    4.79    0.27
   2   3   1    5.51    0.28
   2   3   1    4.84    0.24
   2   3   1    5.04    0.27
   2   3   1    4.45    0.27
  -3  -3  -1   55.11    1.84
  -3  -3  -1   56.07    1.84
  -3  -3  -1   54.79    1.81
  -3  -3  -1   55.86    1.91
   3   3   1   55.31    1.83
   3   3   1   55.47    1.86
   3   3   1   54.45    1.87
   3   3   1   53.83    1.90
   3   3   1   53.55    1.83
   3   3   1   58.25    1.84
   4   3   1    5.84    0.36
   4   3   1    5.71    0.26
   4   3   1    5.33    0.27
   4   3   1    5.91    0.25
   4   3   1    5.67    0.27
   5   3   1   20.66    0.70
   5   3   1   20.35    0.71
   5   3   1   19.47    0.84
   5   3   1   20.38    0.70
   5   3   1   20.53    0.71
   6   3   1    0.09    0.22
   7   3   1    5.06    0.47
   8   3   1    0.70    0.32
   5  -4  -1    0.50    0.34
   5  -4  -1    0.43    0.27
   4  -4  -1    0.72    0.30
   4  -4  -1    1.30    0.28
   3  -4  -1    0.63    0.28
   3  -4  -1    0.03    0.19
  -3   4   1    0.25    0.25
   2  -4  -1    0.20    0.20
   2  -4  -1    0.40    0.18
   2  -4  -1    0.07    0.24
  -2   4   1    0.30    0.17
  -2   4   1    0.13    0.19
  -2   4   1    0.09    0.21
   1  -4  -1   18.12    0.76
   1  -4  -1   18.46    0.69
   1  -4  -1   17.20    0.72
   1  -4  -1   16.87    0.77
  -1   4   1   17.85    0.72
  -1   4   1   17.51    0.77
   0  -4  -1   52.84    1.88
   0  -4  -1   56.03    1.90
   0  -4  -1   55.33    1.91
   0  -4  -1   53.55    1.83
   0   4   1   53.03    1.91
   0   4   1   53.62    1.88
   0   4   1   54.27    1.89
   0   4   1   52.60    1.88
  -1  -4  -1   77.09    2.55
  -1  -4  -1   77.20    2.60
  -1  -4  -1   76.72    2.57
   1   4   1   76.81    2.57
   1   4   1   75.17    2.59
   1   4   1   75.04    2.54
   1   4   1   76.46    2.57
   1   4   1   72.80    2.61
  -2  -4  -1    0.00    0.13
  -2  -4  -1    0.17    0.12
  -2  -4  -1    0.30    0.11
  -2  -4  -1    0.14    0.13
   2   4   1    0.18    0.13
   2   4   1    0.15    0.15
   2   4   1    0.10    0.12
   2   4   1    0.10    0.10
   2   4   1    0.04    0.15
  -3  -4  -1  145.17    4.77
  -3  -4  -1  149.31    4.88
  -3  -4  -1  146.68    4.87
  -3  -4  -1  145.25    4.87
   3   4   1  144.50    4.85
   3   4   1  148.42    4.79
   3   4   1  146.49    4.89
   3   4   1  147.35    4.90
   3   4   1  149.60    4.79
  -4  -4  -1    5.85    0.25
  -4  -4  -1    5.66    0.25
  -4  -4  -1    5.72    0.28
   4   4   1    5.55    0.37
   4   4   1    6.15    0.29
   4   4   1    6.49    0.35
   4   4   1    6.46    0.33
   4   4   1    5.42    0.32
   4   4   1    5.76    0.31
   5   4   1    7.01    0.45
   5   4   1    7.49    0.36
   5   4   1    6.60    0.36
   5   4   1    7.03    0.34
   5   4   1    7.01    0.32
   6   4   1   17.15    0.62
   6   4   1   16.87    0.64
   6   4   1   16.96    0.63
   6   4   1   17.56    0.81
   7   4   1    0.85    0.31
   8   4   1   -0.17    0.27
   4  -5  -1    0.39    0.29
   4  -5  -1   -0.27    0.30
   3  -5  -1    2.40    0.39
   3  -5  -1    2.77    0.35
  -3   5   1    2.53    0.41
   2  -5  -1    6.22    0.52
   2  -5  -1    7.01    0.46
  -2   5   1    5.88    0.51
   1  -5  -1    0.49    0.23
   1  -5  -1    0.38    0.25
   1  -5  -1    0.65    0.21
  -1   5   1    0.95    0.27
  -1   5   1    0.65    0.21
   0  -5  -1   19.95    0.86
   0  -5  -1   20.53    0.80
   0  -5  -1   19.65    0.84
   0   5   1   18.84    0.85
   0   5   1   18.95    0.80
   0   5   1   16.87    0.82
  -1  -5  -1    2.02    0.22
  -1  -5  -1    1.70    0.25
  -1  -5  -1    2.00    0.29
   1   5   1    1.71    0.27
   1   5   1    2.25    0.24
   1   5   1    1.95    0.26
   1   5   1    2.43    0.29
  -2  -5  -1   10.87    0.52
  -2  -5  -1    9.97    0.48
  -2  -5  -1   10.42    0.53
   2   5   1   11.39    0.58
   2   5   1   11.12    0.54
   2   5   1   11.04    0.58
   2   5   1   10.83    0.51
   2   5   1   10.94    0.51
  -3  -5  -1    7.31    0.38
  -3  -5  -1    7.07    0.42
  -3  -5  -1    7.07    0.36
   3   5   1    7.25    0.41
   3   5   1    6.77    0.44
   3   5   1    6.83    0.38
   3   5   1    6.99    0.42
   3   5   1    7.28    0.41
  -4  -5  -1    0.15    0.12
  -4  -5  -1   -0.03    0.14
   4   5   1    0.60    0.20
   4   5   1   -0.09    0.17
   4   5   1    0.20    0.17
   4   5   1    0.16    0.14
   4   5   1    0.08    0.16
   5   5   1    1.12    0.19
   5   5   1    0.98    0.17
   5   5   1    1.13    0.22
   5   5   1    1.35    0.28
   6   5   1    0.98    0.17
   6   5   1    1.47    0.20
   6   5   1    1.14    0.21
   6   5   1    1.06    0.28
   7   5   1    4.38    0.28
   7   5   1    4.13    0.28
   7   5   1    3.67    0.43
   7   5   1    3.90    0.26
   8   5   1    0.46    0.31
   3  -6  -1    0.33    0.36
   2  -6  -1    0.21    0.31
   2  -6  -1   -0.16    0.24
  -2   6   1    0.22    0.31
   1  -6  -1    0.34    0.31
   1  -6  -1    0.08    0.24
  -1   6   1    0.16    0.30
   0  -6  -1   -0.04    0.26
   0  -6  -1   -0.22    0.20
   0   6   1    0.32    0.22
   0   6   1    0.27    0.28
   0   6   1   -0.29    0.23
  -1  -6  -1    0.82    0.21
  -1  -6  -1    0.37    0.25
  -1  -6  -1    0.77    0.23
   1   6   1    0.95    0.30
   1   6   1    0.45    0.24
   1   6   1    0.70    0.22
  -2  -6  -1   24.00    0.99
  -2  -6  -1   22.42    0.94
  -2  -6  -1   22.53    0.90
   2   6   1   22.17    0.91
   2   6   1   23.22    0.94
   2   6   1   20.92    0.98
   2   6   1   21.03    0.98
   2   6   1   22.68    0.96
  -3  -6  -1    3.12    0.33
  -3  -6  -1    1.88    0.23
   3   6   1    1.86    0.25
   3   6   1    2.30    0.29
   3   6   1    2.23    0.33
   3   6   1    2.65    0.34
   3   6   1    1.99    0.27
  -4  -6  -1   23.58    0.92
  -4  -6  -1   24.00    0.95
   4   6   1   22.92    0.99
   4   6   1   24.09    0.99
   4   6   1   26.39    0.97
   4   6   1   23.77    0.98
   4   6   1   23.98    1.01
   5   6   1    1.22    0.24
   5   6   1    1.34    0.22
   5   6   1    1.50    0.28
   5   6   1    1.08    0.27
   6   6   1    0.44    0.19
   6   6   1    0.64    0.26
   6   6   1    0.62    0.28
   6   6   1    1.00    0.23
   7   6   1    1.84    0.23
   7   6   1    2.47    0.29
   7   6   1    1.98    0.38
   8   6   1    0.17    0.16
   2  -7  -1    1.84    0.49
  -2   7   1    1.61    0.46
   1  -7  -1    0.05    0.34
  -1   7   1    0.16    0.33
   0  -7  -1   -0.06    0.33
   0   7   1   -0.07    0.33
  -1  -7  -1    1.19    0.37
   1   7   1    2.28    0.40
  -2  -7  -1    0.77    0.32
   2   7   1    0.97    0.30
   2   7   1    0.81    0.34
  -3  -7  -1    4.62    0.46
   3   7   1    4.41    0.39
   3   7   1    4.35    0.42
   3   7   1    3.80    0.47
  -4  -7  -1    0.47    0.27
   4   7   1    0.69    0.26
   4   7   1    1.14    0.30
   4   7   1    0.61    0.32
   5   7   1    1.26    0.33
   5   7   1    1.07    0.29
   5   7   1    1.10    0.30
   6   7   1   -0.11    0.27
   6   7   1    0.37    0.25
   6   7   1    0.35    0.29
   7   7   1   -0.17    0.32
   7   7   1    0.05    0.26
   1  -8  -1    0.58    0.47
  -1   8   1   -0.59    0.39
   0  -8  -1    0.06    0.41
   0   8   1   -0.22    0.38
  -1  -8  -1    0.17    0.35
   1   8   1   -0.16    0.36
  -2  -8  -1    0.00    0.36
   2   8   1    0.28    0.37
  -3  -8  -1    0.87    0.34
   3   8   1    0.02    0.31
   3   8   1    0.03    0.36
   4   8   1    1.87    0.44
   4   8   1    2.49    0.41
   4   8   1    2.23    0.36
   5   8   1    1.05    0.38
   5   8   1    1.09    0.33
   5   8   1    1.16    0.34
   6   8   1    0.39    0.36
   7   8   1    1.33    0.37
  -1  -9  -1    1.21    0.48
   1   9   1    1.11    0.50
  -2  -9  -1    0.11    0.43
   2   9   1   -0.21    0.39
  -3  -9  -1    0.39    0.39
   3   9   1   -0.13    0.40
   4   9   1    2.15    0.51
   5   9   1   -0.08    0.41
   6   9   1   -0.18    0.40
   5   9  -2    0.50    0.43
   5   9  -2    0.02    0.38
   4   9  -2    0.08    0.42
   4   9  -2   -0.08    0.38
   3   9  -2   -0.36    0.40
   3   9  -2    0.29    0.39
   2   9  -2    0.24    0.44
  -2  -9   2    0.53    0.41
   6   8  -2    0.12    0.33
   6   8  -2    0.67    0.38
   5   8  -2   -0.10    0.31
   5   8  -2    0.26    0.34
   5   8  -2   -0.56    0.28
   5   8  -2    0.14    0.36
   4   8  -2    0.30    0.35
   4   8  -2    0.36    0.36
   4   8  -2    1.13    0.35
   4   8  -2    0.62    0.33
   3   8  -2    0.09    0.35
   3   8  -2    0.34    0.28
   3   8  -2    0.54    0.37
  -3  -8   2    0.11    0.31
   2   8  -2    1.31    0.43
   2   8  -2    1.51    0.45
  -2  -8   2    1.94    0.45
   1   8  -2    0.37    0.40
   1   8  -2    0.23    0.42
  -1  -8   2    0.56    0.39
   0   8  -2    0.51    0.44
   0  -8   2    0.42    0.47
   7   7  -2   -0.25    0.25
   7   7  -2    0.36    0.29
   6   7  -2    0.49    0.32
   6   7  -2    0.15    0.28
   6   7  -2    0.14    0.30
   6   7  -2    0.31    0.25
   5   7  -2    2.99    0.40
   5   7  -2    3.01    0.40
   5   7  -2    3.13    0.36
   4   7  -2   -0.29    0.23
   4   7  -2    0.01    0.26
   4   7  -2    0.12    0.25
   3   7  -2    3.22    0.45
   3   7  -2    3.57    0.39
   3   7  -2    4.09    0.42
  -3  -7   2    3.85    0.45
   2   7  -2    0.43    0.33
   2   7  -2    0.43    0.30
   2   7  -2    0.16    0.21
  -2  -7   2    0.53    0.32
   1   7  -2    1.53    0.42
   1   7  -2    1.20    0.39
  -1  -7   2    1.79    0.41
   0   7  -2    0.33    0.35
   0   7  -2    0.22    0.37
   0  -7   2    0.02    0.34
  -1   7  -2    3.52    0.53
   1  -7   2    3.52    0.53
  -2   7  -2   -0.20    0.40
   2  -7   2   -0.03    0.42
   7   6  -2    0.75    0.33
   7   6  -2    0.07    0.21
   7   6  -2    0.85    0.20
   7   6  -2    0.56    0.24
   6   6  -2    0.23    0.28
   6   6  -2    0.11    0.23
   6   6  -2    0.17    0.20
   6   6  -2    0.01    0.18
   5   6  -2    1.21    0.29
   5   6  -2    1.06    0.23
   5   6  -2    1.03    0.23
   5   6  -2    0.86    0.28
   4   6  -2    0.32    0.23
   4   6  -2    0.30    0.26
   4   6  -2    0.27    0.19
   4   6  -2    0.22    0.21
  -4  -6   2    0.41    0.21
  -4  -6   2    0.21    0.16
   3   6  -2    2.27    0.35
   3   6  -2    2.36    0.29
   3   6  -2    1.91    0.28
   3   6  -2    1.78    0.26
  -3  -6   2    2.17    0.32
  -3  -6   2    2.35    0.26
   2   6  -2    0.45    0.22
   2   6  -2    0.48    0.21
   2   6  -2    0.33    0.22
   2   6  -2    0.82    0.30
  -2  -6   2    0.48    0.20
  -2  -6   2    0.49    0.27
   1   6  -2    2.32    0.31
   1   6  -2    2.84    0.40
  -1  -6   2    1.88    0.30
  -1  -6   2    1.52    0.33
  -1  -6   2    2.44    0.29
   0   6  -2    0.42    0.32
   0  -6   2   -0.27    0.26
   0  -6   2   -0.09    0.22
  -1   6  -2    7.39    0.64
  -1   6  -2   11.29    0.76
   1  -6   2    9.66    0.66
  -2   6  -2    0.82    0.39
   2  -6   2    1.38    0.40
   3  -6   2    1.24    0.43
   7   5  -2    2.97    0.25
   7   5  -2    2.87    0.42
   7   5  -2    2.99    0.27
   7   5  -2    2.72    0.25
   7   5  -2    3.16    0.23
   6   5  -2    1.79    0.33
   6   5  -2    1.23    0.20
   6   5  -2    1.43    0.24
   6   5  -2    1.40    0.20
   5   5  -2    4.79    0.32
   5   5  -2    4.54    0.36
   5   5  -2    5.44    0.46
   5   5  -2    4.98    0.33
   4   5  -2    8.58    0.50
   4   5  -2    8.39    0.44
   4   5  -2    7.87    0.49
   4   5  -2    8.97    0.45
  -4  -5   2    7.67    0.43
  -4  -5   2    8.86    0.40
   3   5  -2    6.79    0.45
   3   5  -2    6.64    0.46
   3   5  -2    6.80    0.39
   3   5  -2    7.08    0.40
  -3  -5   2    7.35    0.39
  -3  -5   2    8.48    0.46
   2   5  -2   20.60    0.90
   2   5  -2   21.04    0.87
   2   5  -2   20.91    0.85
   2   5  -2   24.03    0.88
  -2  -5   2   23.08    0.89
  -2  -5   2   21.27    0.89
  -2  -5   2   20.37    0.84
   1   5  -2    2.63    0.27
   1   5  -2    2.16    0.26
   1   5  -2    1.93    0.30
   1   5  -2    2.13    0.22
  -1  -5   2    2.59    0.32
  -1  -5   2    2.69    0.26
  -1  -5   2    1.54    0.21
  -1  -5   2    2.00    0.27
   0   5  -2   25.23    1.07
   0   5  -2   26.86    1.03
   0   5  -2   26.37    1.04
   0  -5   2   25.69    1.09
   0  -5   2   25.02    0.97
   0  -5   2   25.64    1.06
   0  -5   2   23.96    1.00
  -1   5  -2   10.72    0.58
  -1   5  -2   10.27    0.68
   1  -5   2   10.31    0.61
   1  -5   2   10.50    0.67
   1  -5   2   10.06    0.55
   1  -5   2   11.22    0.51
  -2   5  -2    0.05    0.28
  -2   5  -2    0.05    0.28
   2  -5   2   -0.11    0.29
   2  -5   2   -0.08    0.22
  -3   5  -2    0.48    0.34
   3  -5   2    0.36    0.30
   3  -5   2    0.46    0.26
   4  -5   2    0.53    0.37
   4  -5   2    0.65    0.32
   8   4  -2    2.60    0.44
   7   4  -2    0.85    0.31
   7   4  -2    1.04    0.12
   7   4  -2    1.01    0.14
   6   4  -2    2.88    0.38
   6   4  -2    3.07    0.23
   6   4  -2    2.77    0.20
   6   4  -2    2.61    0.22
   5   4  -2    8.91    0.40
   5   4  -2    8.70    0.43
   5   4  -2    8.98    0.39
   5   4  -2    9.00    0.53
   4   4  -2    8.37    0.48
   4   4  -2    8.98    0.40
   4   4  -2    9.35    0.44
   4   4  -2    8.19    0.44
   4   4  -2    8.55    0.39
  -4  -4   2    8.40    0.38
  -4  -4   2    8.47    0.35
   3   4  -2    6.63    0.33
   3   4  -2    6.66    0.38
   3   4  -2    5.87    0.33
   3   4  -2    5.98    0.37
  -3  -4   2    5.68    0.32
  -3  -4   2    6.01    0.30
  -3  -4   2    5.95    0.35
   2   4  -2   20.22    0.79
   2   4  -2   19.66    0.79
   2   4  -2   20.71    0.79
   2   4  -2   19.72    0.82
  -2  -4   2   20.52    0.77
  -2  -4   2   21.84    0.81
  -2  -4   2   19.40    0.80
  -2  -4   2   19.79    0.79
   1   4  -2   21.61    0.85
   1   4  -2   20.66    0.85
   1   4  -2   22.57    0.82
   1   4  -2   22.59    0.90
  -1  -4   2   21.92    0.83
  -1  -4   2   21.93    0.88
  -1  -4   2   21.77    0.86
   0   4  -2   24.98    0.92
   0   4  -2   22.03    0.93
   0   4  -2   22.19    0.91
   0  -4   2   22.01    0.92
   0  -4   2   25.07    0.87
   0  -4   2   22.91    0.95
   0  -4   2   22.57    0.89
  -1   4  -2   -0.01    0.15
  -1   4  -2   -0.16    0.18
  -1   4  -2    0.02    0.05
   1  -4   2    0.19    0.18
   1  -4   2   -0.26    0.20
   1  -4   2    0.13    0.16
   1  -4   2    0.17    0.12
  -2   4  -2   41.47    1.55
  -2   4  -2   39.28    1.57
  -2   4  -2   43.31    1.54
  -2   4  -2   44.19    1.59
   2  -4   2   43.16    1.44
   2  -4   2   40.75    1.54
   2  -4   2   39.12    1.57
   2  -4   2   42.59    1.59
  -3   4  -2    4.76    0.45
   3  -4   2    4.90    0.39
   3  -4   2    5.00    0.45
   4  -4   2    6.05    0.44
   4  -4   2    5.00    0.51
   5  -4   2    2.88    0.46
   8   3  -2    0.34    0.31
   7   3  -2    1.01    0.32
   6   3  -2   29.49    1.24
   6   3  -2   30.28    1.05
   6   3  -2   31.96    1.06
   5   3  -2    0.86    0.11
   5   3  -2    0.52    0.11
   5   3  -2    0.75    0.22
   5   3  -2    0.48    0.13
   4   3  -2   18.38    0.69
   4   3  -2   18.72    0.68
   4   3  -2   18.24    0.68
   4   3  -2   19.80    0.70
   4   3  -2   18.58    0.79
   3   3  -2   22.74    0.85
   3   3  -2   23.51    0.84
   3   3  -2   23.88    0.84
   3   3  -2   24.42    0.85
   3   3  -2   23.43    0.91
  -3  -3   2   24.04    0.82
  -3  -3   2   23.17    0.82
  -3  -3   2   22.11    0.82
   2   3  -2   37.46    1.32
   2   3  -2   36.82    1.31
   2   3  -2   37.88    1.32
   2   3  -2   37.44    1.33
  -2  -3   2   37.58    1.31
  -2  -3   2   37.78    1.31
  -2  -3   2   39.41    1.33
   1   3  -2   64.41    2.19
   1   3  -2   62.89    2.21
   1   3  -2   61.99    2.17
   1   3  -2   63.93    2.21
  -1  -3   2   66.58    2.23
  -1  -3   2   67.57    2.18
  -1  -3   2   66.93    2.18
   0   3  -2    0.52    0.15
   0   3  -2    0.78    0.13
   0   3  -2    0.82    0.11
   0   3  -2    0.66    0.14
   0  -3   2    0.49    0.12
   0  -3   2    0.52    0.16
   0  -3   2    0.69    0.11
   0  -3   2    0.57    0.14
  -1   3  -2    2.71    0.22
  -1   3  -2    2.20    0.25
   1  -3   2    1.92    0.20
   1  -3   2    2.63    0.18
   1  -3   2    2.20    0.25
   1  -3   2    3.05    0.26
  -2   3  -2    6.71    0.37
  -2   3  -2    6.60    0.38
  -2   3  -2    7.09    0.45
   2  -3   2    7.08    0.43
   2  -3   2    6.99    0.44
   2  -3   2    6.58    0.30
   2  -3   2    6.85    0.37
  -3   3  -2    0.19    0.20
  -3   3  -2    0.43    0.22
  -3   3  -2   -0.03    0.17
   3  -3   2   -0.05    0.16
   3  -3   2    0.04    0.22
   3  -3   2    0.17    0.20
  -4   3  -2    0.35    0.24
   4  -3   2    0.66    0.26
   4  -3   2    0.56    0.21
   5  -3   2   -0.43    0.27
   5  -3   2    0.15    0.21
   6  -3   2    3.18    0.45
   8   2  -2    0.21    0.30
   7   2  -2    1.75    0.33
   6   2  -2    0.15    0.23
   5   2  -2   25.61    0.90
   5   2  -2   27.40    0.89
   5   2  -2   26.44    0.88
   5   2  -2   26.16    0.90
   4   2  -2    5.59    0.23
   4   2  -2    5.34    0.23
   4   2  -2    5.16    0.25
   4   2  -2    5.40    0.25
   4   2  -2    5.59    0.23
   3   2  -2   27.26    0.92
   3   2  -2   26.48    0.92
   3   2  -2   26.65    0.93
   3   2  -2   27.56    0.93
   2   2  -2   13.54    0.49
   2   2  -2   12.84    0.47
   2   2  -2   12.94    0.49
   2   2  -2   12.06    0.47
   2   2  -2   12.50    0.51
  -2  -2   2   12.39    0.47
  -2  -2   2   12.38    0.47
  -2  -2   2   12.60    0.46
  -2  -2   2   13.13    0.47
   1   2  -2   46.33    1.59
   1   2  -2   49.55    1.59
   1   2  -2   47.18    1.61
   1   2  -2   47.82    1.59
   1   2  -2   46.87    1.61
  -1  -2   2   47.36    1.62
  -1  -2   2   45.93    1.60
  -1  -2   2   48.10    1.59
   0   2  -2  193.38    6.43
   0   2  -2  192.67    6.32
   0   2  -2  194.85    6.28
   0   2  -2  188.93    6.43
   0  -2   2  197.05    6.28
   0  -2   2  196.28    6.44
   0  -2   2  198.79    6.29
   0  -2   2  196.15    6.43
  -1   2  -2   34.24    1.22
  -1   2  -2   34.41    1.22
   1  -2   2   35.43    1.16
   1  -2   2   35.75    1.23
   1  -2   2   35.29    1.24
   1  -2   2   34.09    1.22
  -2   2  -2   22.34    0.84
  -2   2  -2   22.25    0.83
  -2   2  -2   21.76    0.85
   2  -2   2   22.95    0.87
   2  -2   2   22.93    0.87
   2  -2   2   22.30    0.84
  -3   2  -2   52.66    1.79
  -3   2  -2   52.50    1.80
  -3   2  -2   50.28    1.81
  -3   2  -2   53.72    1.80
   3  -2   2   49.07    1.81
   3  -2   2   50.57    1.81
   3  -2   2   54.85    1.85
  -4   2  -2    0.16    0.15
  -4   2  -2    0.38    0.19
   4  -2   2   -0.01    0.19
   4  -2   2    0.26    0.19
   4  -2   2    0.09    0.15
   5  -2   2   17.50    0.75
   5  -2   2   15.21    0.69
   5  -2   2   15.46    0.74
   6  -2   2    0.00    0.26
   7  -2   2    0.28    0.30
   8   1  -2    0.22    0.31
   7   1  -2    1.45    0.16
   7   1  -2    1.39    0.15
   6   1  -2    0.49    0.12
   6   1  -2    0.62    0.14
   6   1  -2    0.62    0.11
   5   1  -2   19.98    0.72
   5   1  -2   21.57    0.72
   5   1  -2   20.19    0.72
   5   1  -2   20.50    0.72
   4   1  -2   11.64    0.42
   4   1  -2   11.67    0.42
   4   1  -2   11.78    0.42
   4   1  -2   11.13    0.43
   3   1  -2  108.24    3.50
   3   1  -2  106.18    3.41
   3   1  -2  103.34    3.50
   3   1  -2  107.75    3.42
   2   1  -2    0.32    0.06
   2   1  -2    0.44    0.06
   2   1  -2    0.52    0.07
   2   1  -2    0.46    0.06
  -2  -1   2    0.50    0.05
  -2  -1   2    0.25    0.04
  -2  -1   2    0.42    0.05
  -2  -1   2    0.45    0.04
   1   1  -2  527.03   17.68
   1   1  -2  546.63   17.26
   1   1  -2  545.25   17.24
   1   1  -2  540.61   17.68
  -1  -1   2  536.25   17.68
  -1  -1   2  534.93   17.23
  -1  -1   2  517.96   17.24
  -1  -1   2  536.07   17.66
   0   1  -2    8.24    0.30
   0   1  -2    8.16    0.32
   0   1  -2    7.96    0.33
   0   1  -2    8.94    0.34
   0  -1   2    8.60    0.34
   0  -1   2    8.87    0.34
   0  -1   2    7.97    0.32
  -1   1  -2  495.13   15.78
  -1   1  -2  511.81   16.41
  -1   1  -2  493.80   16.37
   1  -1   2  477.86   15.89
   1  -1   2  504.50   15.94
   1  -1   2  500.09   16.39
   1  -1   2  488.85   16.39
   1  -1   2  480.28   15.96
  -2   1  -2  155.82    5.14
  -2   1  -2  153.95    5.15
  -2   1  -2  155.33    5.02
   2  -1   2  157.72    5.04
   2  -1   2  152.91    5.03
   2  -1   2  155.29    5.15
   2  -1   2  158.45    5.15
  -3   1  -2   10.37    0.41
  -3   1  -2   10.31    0.44
  -3   1  -2    9.52    0.44
  -3   1  -2   10.23    0.43
   3  -1   2   11.42    0.47
   3  -1   2   10.25    0.44
   3  -1   2   10.86    0.45
   3  -1   2   10.56    0.47
  -4   1  -2    1.20    0.14
  -4   1  -2    0.72    0.16
   4  -1   2    0.68    0.14
   4  -1   2    1.01    0.19
   4  -1   2    0.46    0.17
   4  -1   2    0.64    0.16
   5  -1   2    2.87    0.28
   5  -1   2    3.00    0.29
   5  -1   2    2.66    0.24
   6  -1   2    0.20    0.22
   6  -1   2   -0.22    0.16
   6  -1   2    0.20    0.20
   7  -1   2    3.66    0.38
   7   0  -2    0.89    0.19
   7   0  -2    1.09    0.22
   6   0  -2    5.93    0.31
   6   0  -2    5.29    0.34
   6   0  -2    5.98    0.34
   5   0  -2    0.06    0.11
   5   0  -2    0.16    0.13
   5   0  -2    0.24    0.15
   4   0  -2   23.66    0.80
   4   0  -2   21.63    0.79
   4   0  -2   21.38    0.79
   4   0  -2   22.70    0.80
   3   0  -2    1.24    0.11
   3   0  -2    1.24    0.12
   3   0  -2    1.13    0.10
   3   0  -2    1.24    0.12
   2   0  -2   32.31    1.09
   2   0  -2   32.89    1.11
   2   0  -2   33.12    1.09
   2   0  -2   33.36    1.11
  -2   0   2   33.17    1.08
  -2   0   2   32.82    1.08
  -2   0   2   32.63    1.10
  -2   0   2   32.38    1.10
   1   0  -2    2.37    0.11
   1   0  -2    2.36    0.12
   1   0  -2    2.34    0.11
   1   0  -2    2.01    0.12
  -1   0   2    2.38    0.12
  -1   0   2    2.21    0.13
  -1   0   2    2.59    0.11
  -1   0   2    2.52    0.12
  -1   0  -2  215.51    7.34
  -1   0  -2  229.40    7.50
  -1   0  -2  237.94    7.34
  -1   0  -2  231.80    7.48
   1   0   2  197.92    7.28
   1   0   2  236.11    7.54
   1   0   2  233.85    7.33
   1   0   2  225.44    7.54
   1   0   2  229.14    7.32
  -2   0  -2    1.88    0.14
  -2   0  -2    1.83    0.12
  -2   0  -2    1.76    0.11
  -2   0  -2    1.80    0.13
   2   0   2    1.81    0.12
   2   0   2    2.04    0.14
   2   0   2    2.10    0.14
   2   0   2    1.90    0.12
   2   0   2    1.89    0.11
  -3   0  -2  254.29    8.37
  -3   0  -2  258.90    8.56
  -3   0  -2  257.88    8.56
  -3   0  -2  251.44    8.37
   3   0   2  256.85    8.62
   3   0   2  278.81    8.34
   3   0   2  263.58    8.34
   3   0   2  262.31    8.56
  -4   0  -2   46.66    1.61
   4   0   2   54.39    1.69
   4   0   2   47.68    1.67
   4   0   2   50.59    1.70
   4   0   2   49.97    1.69
   5   0   2    4.40    0.26
   5   0   2    4.47    0.32
   5   0   2    4.87    0.32
   5   0   2    4.52    0.29
   6   0   2   25.02    0.96
   6   0   2   25.39    0.97
   6   0   2   26.99    1.02
   6   0   2   25.21    0.94
   7   0   2    0.47    0.22
   7   0   2    0.25    0.20
   7  -1  -2   -0.02    0.23
   6  -1  -2    1.77    0.23
   6  -1  -2    2.23    0.27
   6  -1  -2    2.03    0.28
   5  -1  -2    5.45    0.37
   5  -1  -2    5.30    0.35
   5  -1  -2    5.41    0.31
   4  -1  -2   21.87    0.81
   4  -1  -2   22.90    0.84
   4  -1  -2   21.84    0.82
   4  -1  -2   21.19    0.82
  -4   1   2   21.63    0.77
  -4   1   2   21.81    0.78
   3  -1  -2   21.90    0.79
   3  -1  -2   21.58    0.79
   3  -1  -2   21.53    0.77
   3  -1  -2   21.05    0.78
   3  -1  -2   21.85    0.79
  -3   1   2   21.34    0.77
  -3   1   2   21.23    0.76
  -3   1   2   20.80    0.75
   2  -1  -2  108.66    3.44
   2  -1  -2  105.19    3.51
   2  -1  -2  103.84    3.43
   2  -1  -2  103.63    3.52
  -2   1   2  105.91    3.42
  -2   1   2  107.39    3.51
  -2   1   2  105.16    3.50
   1  -1  -2   19.07    0.67
   1  -1  -2   19.96    0.68
   1  -1  -2   19.43    0.68
   1  -1  -2   19.05    0.67
  -1   1   2   19.32    0.67
  -1   1   2   18.39    0.67
  -1   1   2   18.78    0.67
   0  -1  -2  639.23   19.52
   0  -1  -2  619.47   19.56
   0   1   2  567.60   19.53
   0   1   2  541.37   19.04
  -1  -1  -2  202.47    6.43
  -1  -1  -2  190.23    6.57
  -1  -1  -2  197.79    6.34
  -1  -1  -2  200.56    6.36
  -1  -1  -2  203.00    6.55
   1   1   2  192.04    6.44
   1   1   2  206.13    6.31
   1   1   2  179.38    6.55
   1   1   2  207.16    6.51
  -2  -1  -2  215.24    6.92
  -2  -1  -2  211.74    6.80
  -2  -1  -2  197.75    6.76
  -2  -1  -2  213.96    6.74
  -2  -1  -2  207.74    6.92
   2   1   2  208.51    6.84
   2   1   2  213.00    6.93
   2   1   2  212.16    6.75
   2   1   2  216.90    6.76
   2   1   2  205.76    6.92
   3   1   2   60.28    2.04
   3   1   2   60.08    1.98
   3   1   2   62.45    1.99
   3   1   2   61.19    2.03
   3   1   2   61.58    2.03
   4   1   2   59.35    2.12
   4   1   2   59.49    2.04
   4   1   2   63.47    2.09
   4   1   2   62.74    2.08
   4   1   2   67.35    2.05
   5   1   2    0.47    0.12
   5   1   2    0.20    0.10
   5   1   2    0.22    0.17
   5   1   2    0.36    0.10
   5   1   2    0.50    0.12
   6   1   2    4.00    0.26
   6   1   2    3.82    0.26
   6   1   2    4.56    0.36
   6   1   2    4.19    0.23
   7   1   2    0.07    0.23
   7   1   2    0.23    0.15
   7   1   2    0.18    0.13
   7   1   2    0.07    0.14
   7  -2  -2    0.14    0.27
   6  -2  -2    0.48    0.27
   5  -2  -2   -0.17    0.16
   5  -2  -2   -0.22    0.20
   5  -2  -2    0.09    0.20
   4  -2  -2    6.83    0.42
   4  -2  -2    6.84    0.37
   4  -2  -2    7.12    0.42
  -4   2   2    6.45    0.39
  -4   2   2    7.62    0.37
   3  -2  -2    5.29    0.35
   3  -2  -2    4.89    0.29
   3  -2  -2    5.43    0.33
  -3   2   2    5.45    0.28
  -3   2   2    5.25    0.29
  -3   2   2    5.36    0.33
   2  -2  -2   34.70    1.24
   2  -2  -2   34.41    1.24
   2  -2  -2   35.40    1.26
  -2   2   2   35.86    1.24
  -2   2   2   35.92    1.25
  -2   2   2   35.38    1.24
   1  -2  -2   36.22    1.22
   1  -2  -2   35.24    1.23
   1  -2  -2   34.87    1.22
  -1   2   2   34.55    1.23
  -1   2   2   35.15    1.22
  -1   2   2   34.82    1.22
   0  -2  -2   20.78    0.77
   0  -2  -2   20.87    0.76
   0  -2  -2   21.83    0.77
   0   2   2   22.02    0.76
   0   2   2   21.49    0.77
  -1  -2  -2   23.68    0.89
  -1  -2  -2   25.94    0.90
  -1  -2  -2   26.00    0.89
  -1  -2  -2   26.53    0.90
   1   2   2   26.58    0.90
   1   2   2   25.43    0.89
   1   2   2   26.09    0.90
   1   2   2   27.36    0.91
   1   2   2   26.44    0.90
  -2  -2  -2  212.81    6.83
  -2  -2  -2  209.77    6.93
  -2  -2  -2  214.86    7.03
  -2  -2  -2  208.03    7.09
   2   2   2  222.36    7.02
   2   2   2  217.82    6.84
   2   2   2  209.86    7.07
   2   2   2  216.41    6.93
   2   2   2  212.07    6.84
  -3  -2  -2   59.11    1.96
   3   2   2   56.63    1.87
   3   2   2   59.43    1.88
   3   2   2   57.58    1.91
   3   2   2   58.09    1.92
   3   2   2   54.68    1.95
   4   2   2   60.65    1.94
   4   2   2   59.98    1.99
   4   2   2   59.76    2.05
   4   2   2   59.10    1.99
   4   2   2   59.86    1.94
   5   2   2   10.41    0.40
   5   2   2   10.53    0.41
   5   2   2   12.04    0.41
   5   2   2   10.84    0.40
   5   2   2   11.41    0.54
   6   2   2    0.48    0.10
   6   2   2    0.50    0.09
   6   2   2    0.95    0.24
   7   2   2    5.27    0.45
   7   2   2    4.75    0.24
   7   2   2    4.97    0.23
   8   2   2    0.12    0.28
   6  -3  -2    3.54    0.43
   5  -3  -2    0.09    0.25
   5  -3  -2    0.35    0.22
   4  -3  -2    0.65    0.25
   4  -3  -2    0.66    0.22
   4  -3  -2    0.72    0.20
  -4   3   2    0.91    0.19
   3  -3  -2    0.82    0.21
   3  -3  -2    0.82    0.19
   3  -3  -2    0.93    0.23
  -3   3   2    0.54    0.18
  -3   3   2    0.45    0.22
   2  -3  -2   10.38    0.51
   2  -3  -2    9.96    0.49
   2  -3  -2   10.13    0.48
  -2   3   2   11.13    0.47
  -2   3   2   10.16    0.52
  -2   3   2   11.03    0.51
   1  -3  -2    8.17    0.39
   1  -3  -2    7.81    0.36
   1  -3  -2    8.15    0.42
  -1   3   2    7.95    0.37
  -1   3   2    6.41    0.36
  -1   3   2    8.04    0.42
   0  -3  -2    1.97    0.17
   0  -3  -2    2.03    0.19
   0  -3  -2    2.14    0.21
   0  -3  -2    1.76    0.15
   0   3   2    1.81    0.20
   0   3   2    1.64    0.17
   0   3   2    1.85    0.16
  -1  -3  -2   21.04    0.76
  -1  -3  -2   20.92    0.77
  -1  -3  -2   21.37    0.77
   1   3   2   20.42    0.75
   1   3   2   20.21    0.77
   1   3   2   20.53    0.76
   1   3   2   20.68    0.77
  -2  -3  -2    0.09    0.08
  -2  -3  -2    0.06    0.09
  -2  -3  -2    0.20    0.08
  -2  -3  -2    0.30    0.10
   2   3   2    0.17    0.10
   2   3   2    0.18    0.11
   2   3   2    0.09    0.09
   2   3   2    0.24    0.10
   2   3   2    0.26    0.09
  -3  -3  -2   54.66    1.85
  -3  -3  -2   54.14    1.77
  -3  -3  -2   52.65    1.79
  -3  -3  -2   54.08    1.79
   3   3   2   52.86    1.84
   3   3   2   52.78    1.78
   3   3   2   53.44    1.82
   3   3   2   52.61    1.81
   3   3   2   55.31    1.79
   4   3   2   11.58    0.52
   4   3   2   11.45    0.44
   4   3   2   10.92    0.42
   4   3   2   10.73    0.43
   4   3   2   10.44    0.42
   5   3   2   15.89    0.70
   5   3   2   15.67    0.57
   5   3   2   15.87    0.57
   5   3   2   15.85    0.57
   5   3   2   15.72    0.57
   6   3   2    0.22    0.08
   6   3   2    0.40    0.22
   6   3   2    0.43    0.09
   7   3   2    0.80    0.27
   8   3   2    0.61    0.29
   5  -4  -2    1.04    0.35
   4  -4  -2    0.26    0.22
   4  -4  -2   -0.41    0.25
   3  -4  -2    7.08    0.52
   3  -4  -2    7.25    0.44
  -3   4   2    8.72    0.55
   2  -4  -2    2.63    0.27
   2  -4  -2    2.93    0.31
   2  -4  -2    3.33    0.34
  -2   4   2    3.86    0.31
  -2   4   2    2.97    0.34
  -2   4   2    3.85    0.32
   1  -4  -2   15.67    0.66
   1  -4  -2   16.14    0.70
   1  -4  -2   15.97    0.72
   1  -4  -2   16.11    0.63
  -1   4   2   15.40    0.66
  -1   4   2   15.34    0.70
   0  -4  -2    0.05    0.14
   0  -4  -2    0.10    0.17
   0  -4  -2   -0.04    0.12
   0  -4  -2    0.20    0.12
   0   4   2    0.06    0.16
   0   4   2   -0.02    0.12
   0   4   2    0.17    0.15
  -1  -4  -2   15.01    0.61
  -1  -4  -2   14.75    0.62
  -1  -4  -2   14.89    0.64
   1   4   2   14.90    0.63
   1   4   2   15.53    0.62
   1   4   2   14.93    0.64
  -2  -4  -2    3.77    0.23
  -2  -4  -2    4.42    0.27
  -2  -4  -2    3.74    0.29
  -2  -4  -2    4.33    0.29
   2   4   2    3.89    0.26
   2   4   2    3.80    0.24
   2   4   2    3.59    0.29
   2   4   2    3.85    0.27
  -3  -4  -2   11.92    0.49
  -3  -4  -2   12.26    0.47
  -3  -4  -2   11.36    0.46
  -3  -4  -2   11.37    0.54
   3   4   2   10.32    0.48
   3   4   2   10.95    0.51
   3   4   2   12.13    0.53
   3   4   2   11.52    0.48
  -4  -4  -2    0.89    0.10
  -4  -4  -2    1.04    0.11
  -4  -4  -2    0.91    0.13
   4   4   2    1.14    0.15
   4   4   2    1.08    0.14
   4   4   2    0.77    0.19
   4   4   2    1.20    0.17
   4   4   2    1.03    0.18
   5   4   2   25.65    1.05
   5   4   2   28.10    0.96
   5   4   2   26.00    0.96
   5   4   2   26.36    0.96
   5   4   2   26.88    0.95
   6   4   2    0.24    0.23
   6   4   2    0.03    0.11
   6   4   2    0.00    0.11
   6   4   2   -0.04    0.13
   7   4   2    2.80    0.37
   7   4   2    3.40    0.20
   7   4   2    3.26    0.20
   8   4   2    2.90    0.43
   4  -5  -2    0.25    0.34
   4  -5  -2    0.71    0.31
   3  -5  -2    4.13    0.48
   3  -5  -2    4.96    0.42
  -3   5   2    5.19    0.51
   2  -5  -2   -0.02    0.20
   2  -5  -2   -0.19    0.25
  -2   5   2    0.14    0.27
   1  -5  -2   15.95    0.79
   1  -5  -2   16.70    0.73
   1  -5  -2   16.61    0.77
  -1   5   2   14.88    0.77
  -1   5   2   16.90    0.73
   0  -5  -2    2.11    0.28
   0  -5  -2    2.10    0.25
   0  -5  -2    2.49    0.32
   0   5   2    3.01    0.29
   0   5   2    2.81    0.34
   0   5   2    2.79    0.30
  -1  -5  -2   11.17    0.52
  -1  -5  -2   11.36    0.57
  -1  -5  -2   10.81    0.56
   1   5   2   11.20    0.56
   1   5   2   10.28    0.52
   1   5   2   10.87    0.58
  -2  -5  -2   31.60    1.14
  -2  -5  -2   29.09    1.14
  -2  -5  -2   30.22    1.11
   2   5   2   31.14    1.15
   2   5   2   30.26    1.13
   2   5   2   28.36    1.16
   2   5   2   29.42    1.11
  -3  -5  -2    0.97    0.16
  -3  -5  -2    0.91    0.17
   3   5   2    1.05    0.21
   3   5   2    0.95    0.23
   3   5   2    1.53    0.23
   3   5   2    0.70    0.17
  -4  -5  -2    2.40    0.23
  -4  -5  -2    2.18    0.19
   4   5   2    2.14    0.22
   4   5   2    1.98    0.23
   4   5   2    2.57    0.28
   4   5   2    2.04    0.26
   5   5   2    0.25    0.15
   5   5   2    0.62    0.24
   5   5   2    0.41    0.20
   5   5   2    0.37    0.17
   6   5   2    0.88    0.17
   6   5   2    0.97    0.19
   6   5   2    0.92    0.21
   6   5   2    1.38    0.30
   7   5   2    1.12    0.31
   7   5   2    1.10    0.17
   7   5   2    0.56    0.17
   7   5   2    0.75    0.18
   8   5   2   -0.01    0.11
   8   5   2    0.21    0.33
   3  -6  -2    0.41    0.34
   2  -6  -2    0.26    0.35
   2  -6  -2    0.28    0.26
  -2   6   2    0.08    0.33
   1  -6  -2    2.24    0.32
   1  -6  -2    2.10    0.40
  -1   6   2    2.22    0.40
   0  -6  -2    0.29    0.27
   0  -6  -2    0.14    0.21
   0   6   2    0.45    0.26
   0   6   2    0.19    0.29
   0   6   2    0.50    0.23
  -1  -6  -2    0.60    0.23
  -1  -6  -2    1.16    0.30
  -1  -6  -2    0.31    0.19
   1   6   2    0.61    0.29
   1   6   2    0.82    0.26
   1   6   2    0.82    0.21
  -2  -6  -2    0.36    0.20
  -2  -6  -2    0.14    0.25
  -2  -6  -2    0.00    0.17
   2   6   2    0.61    0.21
   2   6   2    0.17    0.23
   2   6   2    0.26    0.26
  -3  -6  -2   20.70    0.86
  -3  -6  -2   19.78    0.80
   3   6   2   18.39    0.82
   3   6   2   20.49    0.84
   3   6   2   18.94    0.88
   3   6   2   19.76    0.85
  -4  -6  -2    4.16    0.35
  -4  -6  -2    3.95    0.30
   4   6   2    4.51    0.39
   4   6   2    4.37    0.34
   4   6   2    4.74    0.37
   4   6   2    3.87    0.38
   5   6   2    0.60    0.19
   5   6   2    0.56    0.25
   5   6   2    0.37    0.21
   5   6   2    0.96    0.25
   6   6   2   11.99    0.72
   6   6   2   13.00    0.65
   6   6   2   13.28    0.62
   6   6   2   13.42    0.60
   7   6   2    0.09    0.22
   7   6   2    0.32    0.32
   7   6   2    0.18    0.17
   8   6   2    0.56    0.18
   2  -7  -2    0.73    0.43
  -2   7   2    0.87    0.42
   1  -7  -2    0.20    0.38
  -1   7   2   -0.01    0.35
   0  -7  -2    6.18    0.61
   0   7   2    5.88    0.57
  -1  -7  -2    0.59    0.32
   1   7   2    0.69    0.34
  -2  -7  -2    2.58    0.38
   2   7   2    1.81    0.39
   2   7   2    1.77    0.35
  -3  -7  -2    4.68    0.46
   3   7   2    4.86    0.46
   3   7   2    5.32    0.51
   3   7   2    5.11    0.42
  -4  -7  -2    0.30    0.26
   4   7   2    0.34    0.25
   4   7   2    0.34    0.25
   4   7   2    0.46    0.30
   5   7   2    3.67    0.38
   5   7   2    3.90    0.44
   5   7   2    4.22    0.42
   6   7   2   -0.11    0.24
   6   7   2    0.22    0.28
   6   7   2   -0.16    0.27
   7   7   2    0.75    0.34
   7   7   2    0.96    0.30
   1  -8  -2    0.26    0.46
  -1   8   2    0.33    0.43
   0  -8  -2    0.38    0.44
   0   8   2    0.45    0.39
  -1  -8  -2    0.26    0.35
   1   8   2    0.23    0.35
  -2  -8  -2    0.34    0.34
   2   8   2    0.49    0.38
  -3  -8  -2   -0.08    0.32
   3   8   2   -0.11    0.35
   3   8   2    0.30    0.34
   4   8   2    1.14    0.35
   4   8   2    0.90    0.38
   4   8   2    0.97    0.33
   5   8   2    0.03    0.28
   5   8   2    0.40    0.35
   5   8   2   -0.13    0.27
   6   8   2   -0.11    0.33
   7   8   2    0.31    0.33
  -1  -9  -2    0.33    0.47
   1   9   2    0.58    0.47
  -2  -9  -2    0.29    0.41
   2   9   2   -0.18    0.38
  -3  -9  -2    0.19    0.40
   3   9   2    0.53    0.41
   4   9   2    0.15    0.38
   5   9   2    0.12    0.40
   6   9   2   -0.32    0.35
   4   9  -3   -0.12    0.41
   4   9  -3    0.00    0.45
   3   9  -3    0.92    0.47
   3   9  -3    0.23    0.41
   6   8  -3    0.17    0.35
   6   8  -3    0.30    0.38
   5   8  -3    0.54    0.36
   5   8  -3    0.73    0.34
   5   8  -3    0.79    0.37
   4   8  -3    0.00    0.31
   4   8  -3    0.00    0.35
   4   8  -3   -0.11    0.32
   3   8  -3    0.23    0.38
   3   8  -3    0.21    0.30
  -3  -8   3    0.67    0.38
   2   8  -3    0.14    0.41
   2   8  -3   -0.16    0.39
  -2  -8   3    0.37    0.39
   1   8  -3    0.28    0.42
   1   8  -3    0.98    0.42
  -1  -8   3    0.41    0.41
   0   8  -3    0.95    0.46
   0   8  -3    1.29    0.50
   0  -8   3    1.09    0.51
   7   7  -3    0.12    0.28
   7   7  -3   -0.26    0.26
   6   7  -3    0.95    0.31
   6   7  -3    0.20    0.32
   5   7  -3   -0.45    0.24
   5   7  -3   -0.05    0.28
   5   7  -3    0.25    0.30
   4   7  -3    4.39    0.44
   4   7  -3    4.58    0.49
   4   7  -3    4.64    0.44
   3   7  -3    3.19    0.44
   3   7  -3    4.31    0.43
   3   7  -3    3.78    0.39
  -3  -7   3    3.86    0.46
   2   7  -3    0.89    0.34
   2   7  -3    0.83    0.31
   2   7  -3    0.65    0.26
  -2  -7   3    0.61    0.32
   1   7  -3    2.61    0.45
  -1  -7   3    3.14    0.46
   0   7  -3   -0.21    0.33
   0   7  -3    0.03    0.36
   0  -7   3    0.31    0.37
  -1   7  -3    0.38    0.39
  -1   7  -3   -0.06    0.35
   1  -7   3    0.48    0.40
  -2   7  -3   -0.54    0.39
   2  -7   3   -0.10    0.41
   7   6  -3    1.23    0.27
   7   6  -3    1.32    0.39
   6   6  -3   -0.16    0.22
   6   6  -3    0.29    0.22
   6   6  -3   -0.12    0.26
   5   6  -3   13.65    0.66
   5   6  -3   13.03    0.67
   5   6  -3   13.33    0.72
   4   6  -3   -0.25    0.23
   4   6  -3   -0.13    0.19
   4   6  -3   -0.01    0.20
   4   6  -3   -0.22    0.22
  -4  -6   3   -0.35    0.21
   3   6  -3    0.91    0.30
   3   6  -3    1.11    0.25
   3   6  -3    1.24    0.27
  -3  -6   3    1.37    0.29
   2   6  -3    4.20    0.40
   2   6  -3    3.74    0.42
   2   6  -3    3.98    0.35
  -2  -6   3    5.16    0.46
   1   6  -3    1.40    0.29
   1   6  -3    1.61    0.24
   1   6  -3    1.81    0.37
  -1  -6   3    1.56    0.35
  -1  -6   3    1.54    0.30
   0   6  -3    0.06    0.29
   0  -6   3   -0.29    0.30
  -1   6  -3    3.33    0.50
  -1   6  -3    3.47    0.48
   1  -6   3    3.21    0.46
  -2   6  -3    1.27    0.39
  -2   6  -3    1.05    0.36
   2  -6   3    0.56    0.38
   3  -6   3    1.60    0.46
   7   5  -3    0.10    0.18
   7   5  -3    0.16    0.15
   7   5  -3    0.03    0.29
   6   5  -3    0.11    0.17
   6   5  -3    0.04    0.16
   6   5  -3    0.12    0.19
   6   5  -3   -0.13    0.24
   5   5  -3    5.18    0.34
   5   5  -3    5.26    0.35
   5   5  -3    4.69    0.38
   5   5  -3    4.57    0.44
   4   5  -3    0.86    0.24
   4   5  -3    0.82    0.19
   4   5  -3    0.85    0.20
   4   5  -3    0.65    0.24
  -4  -5   3    0.85    0.17
  -4  -5   3    1.10    0.22
  -4  -5   3    1.01    0.17
   3   5  -3   18.89    0.85
   3   5  -3   21.34    0.82
   3   5  -3   19.54    0.85
   3   5  -3   20.70    0.82
  -3  -5   3   18.29    0.82
  -3  -5   3   19.94    0.79
   2   5  -3   11.25    0.57
   2   5  -3   11.64    0.56
   2   5  -3   12.03    0.59
   2   5  -3   11.34    0.61
  -2  -5   3   12.03    0.56
  -2  -5   3   13.19    0.59
  -2  -5   3   11.46    0.60
   1   5  -3   10.73    0.54
   1   5  -3    9.28    0.61
   1   5  -3   10.37    0.48
   1   5  -3   11.04    0.54
  -1  -5   3    9.19    0.54
  -1  -5   3   10.35    0.58
  -1  -5   3   10.25    0.51
   0   5  -3   10.37    0.63
   0   5  -3   10.51    0.59
   0   5  -3   11.78    0.59
   0  -5   3   11.12    0.67
   0  -5   3   10.58    0.55
   0  -5   3   10.14    0.59
   0  -5   3   11.43    0.52
  -1   5  -3   13.20    0.69
  -1   5  -3   16.61    0.83
  -1   5  -3   15.60    0.73
   1  -5   3   15.58    0.64
   1  -5   3   13.55    0.77
   1  -5   3   13.86    0.69
  -2   5  -3    0.69    0.29
  -2   5  -3   -0.27    0.25
   2  -5   3   -0.03    0.23
   2  -5   3    0.18    0.28
  -3   5  -3   -0.15    0.31
   3  -5   3   -0.41    0.31
   3  -5   3   -0.51    0.24
   4  -5   3    0.01    0.35
   4  -5   3   -0.37    0.28
   7   4  -3    1.16    0.14
   7   4  -3    0.75    0.33
   7   4  -3    1.28    0.17
   6   4  -3   15.68    0.83
   6   4  -3   17.06    0.67
   6   4  -3   17.17    0.66
   6   4  -3   16.97    0.65
   5   4  -3    6.92    0.35
   5   4  -3    7.15    0.36
   5   4  -3    7.53    0.49
   5   4  -3    7.16    0.39
   4   4  -3    3.97    0.27
   4   4  -3    4.08    0.35
   4   4  -3    3.88    0.30
   4   4  -3    3.41    0.26
   4   4  -3    4.04    0.31
  -4  -4   3    3.91    0.23
  -4  -4   3    3.86    0.27
   3   4  -3    0.67    0.18
   3   4  -3    0.27    0.15
   3   4  -3    0.48    0.18
   3   4  -3    0.19    0.13
  -3  -4   3    0.42    0.16
  -3  -4   3    0.34    0.13
  -3  -4   3    0.32    0.13
   2   4  -3    2.69    0.24
   2   4  -3    2.26    0.27
   2   4  -3    2.23    0.23
   2   4  -3    2.70    0.24
  -2  -4   3    2.52    0.21
  -2  -4   3    2.46    0.26
  -2  -4   3    2.28    0.22
   1   4  -3   28.37    1.06
   1   4  -3   27.24    1.08
   1   4  -3   29.00    1.07
   1   4  -3   26.50    1.01
  -1  -4   3   28.52    1.08
  -1  -4   3   28.47    1.04
  -1  -4   3   28.61    1.08
   0   4  -3    1.79    0.27
   0   4  -3    2.36    0.25
   0   4  -3    2.61    0.25
   0   4  -3    2.40    0.20
   0  -4   3    2.54    0.21
   0  -4   3    2.01    0.27
   0  -4   3    2.03    0.22
   0  -4   3    2.46    0.27
  -1   4  -3   20.25    0.90
  -1   4  -3   22.34    0.85
   1  -4   3   19.63    0.83
   1  -4   3   19.97    0.76
   1  -4   3   19.78    0.87
   1  -4   3   20.34    0.88
  -2   4  -3   41.85    1.57
  -2   4  -3   41.58    1.59
  -2   4  -3   44.41    1.63
   2  -4   3   39.60    1.57
   2  -4   3   44.41    1.46
   2  -4   3   41.96    1.61
   2  -4   3   45.92    1.65
  -3   4  -3    0.53    0.28
  -3   4  -3    0.11    0.26
   3  -4   3    0.24    0.22
   3  -4   3    0.40    0.29
   4  -4   3   11.42    0.60
   4  -4   3    9.26    0.66
   5  -4   3   -0.18    0.31
   8   3  -3    0.26    0.31
   7   3  -3    1.57    0.13
   7   3  -3    1.21    0.33
   6   3  -3    2.10    0.16
   6   3  -3    1.94    0.33
   6   3  -3    1.94    0.17
   6   3  -3    1.72    0.18
   5   3  -3    5.08    0.27
   5   3  -3    5.11    0.26
   5   3  -3    4.97    0.29
   5   3  -3    5.14    0.30
   5   3  -3    4.11    0.39
   4   3  -3   29.76    1.02
   4   3  -3   26.75    1.10
   4   3  -3   28.75    1.02
   4   3  -3   27.48    1.01
   4   3  -3   28.97    1.01
   3   3  -3    1.03    0.17
   3   3  -3    1.43    0.16
   3   3  -3    1.31    0.19
   3   3  -3    1.32    0.18
   3   3  -3    1.21    0.14
  -3  -3   3    1.02    0.12
  -3  -3   3    1.26    0.16
  -3  -3   3    1.25    0.13
   2   3  -3  294.31    9.51
   2   3  -3  278.45    9.36
   2   3  -3  285.20    9.51
   2   3  -3  290.88    9.28
  -2  -3   3  290.96    9.51
  -2  -3   3  285.51    9.27
  -2  -3   3  294.48    9.50
   1   3  -3   27.22    1.03
   1   3  -3   27.79    1.02
   1   3  -3   28.59    1.00
   1   3  -3   28.20    1.02
  -1  -3   3   27.44    1.03
  -1  -3   3   28.53    1.04
   0   3  -3   75.82    2.56
   0   3  -3   74.78    2.54
   0   3  -3   73.59    2.57
   0   3  -3   75.70    2.48
   0  -3   3   71.38    2.54
   0  -3   3   76.57    2.59
   0  -3   3   78.92    2.49
   0  -3   3   73.53    2.56
  -1   3  -3  116.45    3.87
  -1   3  -3  120.13    3.93
   1  -3   3  118.32    3.96
   1  -3   3  110.73    3.92
   1  -3   3  114.90    3.88
   1  -3   3  118.15    3.79
  -2   3  -3   24.96    0.98
  -2   3  -3   25.95    1.01
  -2   3  -3   25.04    0.96
   2  -3   3   25.67    0.86
   2  -3   3   24.35    1.00
   2  -3   3   24.41    0.96
   2  -3   3   24.06    1.00
  -3   3  -3    0.79    0.21
  -3   3  -3    1.62    0.28
  -3   3  -3    1.40    0.27
   3  -3   3    1.75    0.27
   3  -3   3    1.42    0.28
   3  -3   3    0.78    0.20
   3  -3   3    1.07    0.13
  -4   3  -3    6.86    0.49
   4  -3   3    6.33    0.51
   4  -3   3    5.91    0.42
   5  -3   3   -0.35    0.21
   5  -3   3   -0.25    0.26
   6  -3   3    0.75    0.35
   8   2  -3    1.50    0.39
   7   2  -3    2.15    0.38
   7   2  -3    2.10    0.15
   7   2  -3    2.06    0.15
   6   2  -3    1.06    0.14
   6   2  -3    1.12    0.13
   6   2  -3    1.17    0.12
   5   2  -3    3.39    0.23
   5   2  -3    3.14    0.21
   5   2  -3    3.45    0.19
   5   2  -3    2.72    0.19
   4   2  -3   10.45    0.42
   4   2  -3   10.55    0.41
   4   2  -3   10.06    0.41
   4   2  -3   10.53    0.41
   4   2  -3   10.82    0.43
   3   2  -3    3.54    0.20
   3   2  -3    3.80    0.23
   3   2  -3    4.03    0.20
   3   2  -3    4.00    0.23
  -3  -2   3    3.30    0.18
  -3  -2   3    3.75    0.17
  -3  -2   3    3.54    0.16
   2   2  -3    9.89    0.43
   2   2  -3   10.25    0.40
   2   2  -3    9.96    0.41
   2   2  -3   10.35    0.42
  -2  -2   3   10.40    0.41
  -2  -2   3   10.22    0.41
  -2  -2   3   10.28    0.40
   1   2  -3   19.87    0.70
   1   2  -3   19.55    0.71
   1   2  -3   18.84    0.72
   1   2  -3   19.52    0.71
  -1  -2   3   18.67    0.71
  -1  -2   3   19.47    0.71
  -1  -2   3   18.84    0.70
   0   2  -3   41.05    1.44
   0   2  -3   40.97    1.37
   0   2  -3   40.54    1.42
   0   2  -3   40.00    1.43
   0  -2   3   41.63    1.42
   0  -2   3   42.19    1.43
   0  -2   3   41.77    1.43
  -1   2  -3   24.93    0.90
  -1   2  -3   24.76    0.91
   1  -2   3   23.25    0.91
   1  -2   3   24.99    0.83
   1  -2   3   24.71    0.91
   1  -2   3   25.27    0.90
  -2   2  -3   48.38    1.66
  -2   2  -3   47.33    1.65
  -2   2  -3   47.52    1.65
   2  -2   3   46.85    1.68
   2  -2   3   47.54    1.65
   2  -2   3   46.58    1.55
   2  -2   3   47.18    1.66
  -3   2  -3   28.66    1.08
  -3   2  -3   29.35    1.08
  -3   2  -3   29.20    1.06
   3  -2   3   29.29    1.11
   3  -2   3   28.18    1.07
   3  -2   3   29.42    1.11
  -4   2  -3    5.13    0.38
  -4   2  -3    5.68    0.39
  -4   2  -3    5.38    0.35
   4  -2   3    5.52    0.43
   4  -2   3    5.72    0.41
   4  -2   3    5.62    0.34
   5  -2   3   17.34    0.80
   5  -2   3   17.39    0.75
   6  -2   3    0.65    0.29
   7  -2   3    1.57    0.36
   8   1  -3    0.09    0.28
   7   1  -3    0.00    0.12
   7   1  -3    0.05    0.13
   6   1  -3    3.50    0.23
   6   1  -3    2.84    0.21
   6   1  -3    3.06    0.20
   5   1  -3    0.78    0.11
   5   1  -3    0.98    0.14
   5   1  -3    0.77    0.13
   5   1  -3    0.68    0.12
   4   1  -3   20.38    0.74
   4   1  -3   22.53    0.75
   4   1  -3   20.98    0.74
   4   1  -3   20.46    0.74
   3   1  -3    6.10    0.28
   3   1  -3    6.35    0.26
   3   1  -3    6.34    0.28
   3   1  -3    6.49    0.27
   2   1  -3    7.90    0.31
   2   1  -3    7.95    0.33
   2   1  -3    7.85    0.31
   2   1  -3    7.67    0.32
  -2  -1   3    7.42    0.30
  -2  -1   3    8.17    0.30
  -2  -1   3    8.03    0.31
   1   1  -3 1000.00   30.74
   1   1  -3  986.83   31.58
   1   1  -3  973.82   31.56
   1   1  -3  899.06   31.53
   1   1  -3  936.24   30.74
  -1  -1   3  956.98   31.56
  -1  -1   3  957.27   30.77
  -1  -1   3  950.34   31.53
   0   1  -3    1.67    0.15
   0   1  -3    1.47    0.12
   0   1  -3    1.89    0.15
   0   1  -3    1.90    0.13
   0  -1   3    1.91    0.15
   0  -1   3    1.78    0.15
   0  -1   3    1.47    0.13
  -1   1  -3  150.75    5.47
  -1   1  -3  170.50    5.47
  -1   1  -3  162.37    5.35
   1  -1   3  168.20    5.47
   1  -1   3  166.44    5.48
   1  -1   3  166.85    5.35
   1  -1   3  174.45    5.35
  -2   1  -3   34.99    1.22
  -2   1  -3   34.43    1.22
  -2   1  -3   35.08    1.24
   2  -1   3   35.24    1.23
   2  -1   3   36.14    1.23
   2  -1   3   35.75    1.24
  -3   1  -3  125.11    4.05
  -3   1  -3  122.58    4.14
  -3   1  -3  124.85    4.13
   3  -1   3  124.43    4.16
   3  -1   3  122.82    4.15
   3  -1   3  126.27    4.08
  -4   1  -3   19.38    0.74
  -4   1  -3   19.62    0.74
  -4   1  -3   19.71    0.73
   4  -1   3   19.10    0.75
   4  -1   3   20.46    0.79
   4  -1   3   18.57    0.78
   5  -1   3    7.14    0.43
   5  -1   3    6.96    0.45
   5  -1   3    7.57    0.39
   5  -1   3    7.84    0.40
   6  -1   3    0.81    0.26
   6  -1   3    0.73    0.20
   6  -1   3    0.93    0.24
   7  -1   3    0.40    0.27
   7   0  -3    3.13    0.30
   7   0  -3    3.40    0.27
   6   0  -3    2.18    0.20
   6   0  -3    1.97    0.23
   6   0  -3    1.57    0.20
   5   0  -3   73.66    2.51
   5   0  -3   73.86    2.52
   5   0  -3   76.62    2.48
   4   0  -3   28.19    0.97
   4   0  -3   26.45    0.96
   4   0  -3   28.76    0.97
   4   0  -3   26.27    0.96
   3   0  -3   66.62    2.21
   3   0  -3   65.28    2.17
   3   0  -3   65.60    2.16
   3   0  -3   68.16    2.21
  -3   0   3   64.88    2.18
  -3   0   3   65.44    2.18
   2   0  -3   48.73    1.68
   2   0  -3   50.31    1.65
   2   0  -3   51.49    1.66
   2   0  -3   48.98    1.68
  -2   0   3   50.19    1.67
  -2   0   3   51.01    1.64
  -2   0   3   49.87    1.67
   1   0  -3   10.23    0.38
   1   0  -3    9.95    0.38
   1   0  -3   10.26    0.38
   1   0  -3   10.40    0.39
  -1   0   3   10.94    0.39
  -1   0   3   10.21    0.39
  -1   0   3   10.39    0.38
  -1   0   3   10.35    0.38
   0   0  -3   16.96    0.59
   0   0  -3   13.73    0.58
   0   0  -3   14.54    0.58
   0   0  -3   17.43    0.59
   0   0   3   17.76    0.59
   0   0   3   16.89    0.59
   0   0   3   18.56    0.59
  -1   0  -3    8.35    0.33
  -1   0  -3    8.66    0.34
  -1   0  -3    8.50    0.32
  -1   0  -3    8.40    0.34
   1   0   3    8.22    0.33
   1   0   3    8.19    0.33
   1   0   3    8.49    0.34
   1   0   3    8.68    0.33
   1   0   3    8.40    0.32
  -2   0  -3   16.45    0.58
  -2   0  -3   16.57    0.59
  -2   0  -3   16.14    0.58
   2   0   3   15.64    0.59
   2   0   3   16.07    0.59
   2   0   3   16.19    0.58
   2   0   3   16.33    0.55
   2   0   3   15.99    0.59
  -3   0  -3   58.08    1.97
  -3   0  -3   58.64    1.96
  -3   0  -3   56.41    1.94
   3   0   3   63.35    1.97
   3   0   3   56.84    1.96
   3   0   3   58.13    2.00
   3   0   3   58.79    1.99
   3   0   3   60.96    1.95
  -4   0  -3    5.21    0.22
  -4   0  -3    5.26    0.22
   4   0   3    5.43    0.32
   4   0   3    5.65    0.30
   4   0   3    5.68    0.29
   4   0   3    5.05    0.27
   4   0   3    5.83    0.33
   5   0   3   21.42    0.78
   5   0   3   19.50    0.76
   5   0   3   19.97    0.78
   5   0   3   19.83    0.79
   6   0   3    5.39    0.33
   6   0   3    5.51    0.37
   6   0   3    5.84    0.38
   6   0   3    5.52    0.39
   7   0   3    4.52    0.36
   7   0   3    4.17    0.34
   7  -1  -3    0.04    0.23
   6  -1  -3    0.75    0.21
   6  -1  -3    0.59    0.18
   6  -1  -3    0.87    0.23
   5  -1  -3    0.71    0.20
   5  -1  -3    1.02    0.20
   5  -1  -3    0.48    0.16
   4  -1  -3    3.27    0.27
   4  -1  -3    2.84    0.21
   4  -1  -3    2.74    0.25
   4  -1  -3    2.84    0.25
   4  -1  -3    2.85    0.23
  -4   1   3    3.11    0.19
  -4   1   3    3.07    0.21
   3  -1  -3   54.81    1.85
   3  -1  -3   55.01    1.86
   3  -1  -3   54.94    1.83
   3  -1  -3   56.76    1.84
  -3   1   3   53.10    1.81
  -3   1   3   50.87    1.84
  -3   1   3   54.58    1.83
   2  -1  -3    0.40    0.10
   2  -1  -3    0.46    0.11
   2  -1  -3    0.21    0.10
   2  -1  -3    0.32    0.09
  -2   1   3    1.05    0.10
  -2   1   3    0.22    0.10
  -2   1   3    0.40    0.09
   1  -1  -3   52.80    1.76
   1  -1  -3   49.27    1.75
   1  -1  -3   55.33    1.79
   1  -1  -3   53.93    1.79
  -1   1   3   52.78    1.78
  -1   1   3   54.48    1.79
  -1   1   3   52.05    1.75
   0  -1  -3  351.41   11.75
   0  -1  -3  365.50   11.69
   0  -1  -3  362.41   12.06
   0  -1  -3  364.43   12.04
   0   1   3  365.58   12.03
   0   1   3  373.16   11.65
   0   1   3  356.97   11.57
  -1  -1  -3  124.47    4.00
  -1  -1  -3  121.64    4.02
  -1  -1  -3  128.08    4.10
  -1  -1  -3  123.28    4.10
  -1  -1  -3  124.44    4.00
   1   1   3  126.80    4.00
   1   1   3  121.32    4.10
   1   1   3  122.23    4.00
   1   1   3  126.12    4.10
  -2  -1  -3  261.59    8.66
  -2  -1  -3  262.25    8.49
  -2  -1  -3  267.30    8.46
  -2  -1  -3  261.21    8.48
  -2  -1  -3  261.37    8.72
   2   1   3  261.75    8.77
   2   1   3  266.70    8.49
   2   1   3  261.28    8.73
   2   1   3  269.37    8.49
   2   1   3  261.16    8.53
  -3  -1  -3    2.88    0.12
  -3  -1  -3    2.78    0.12
   3   1   3    2.88    0.16
   3   1   3    3.01    0.16
   3   1   3    2.74    0.19
   3   1   3    2.94    0.19
   3   1   3    2.50    0.18
   3   1   3    2.86    0.16
   4   1   3    9.86    0.39
   4   1   3    9.65    0.39
   4   1   3   10.50    0.41
   4   1   3    9.25    0.41
   4   1   3   10.17    0.44
   5   1   3    2.06    0.17
   5   1   3    1.70    0.18
   5   1   3    1.99    0.16
   5   1   3    2.45    0.20
   5   1   3    1.93    0.22
   6   1   3    2.92    0.21
   6   1   3    2.46    0.20
   6   1   3    2.74    0.30
   6   1   3    2.90    0.24
   7   1   3    0.84    0.18
   7   1   3    0.77    0.19
   7   1   3    0.71    0.16
   7   1   3    0.87    0.26
   8   1   3    0.37    0.18
   7  -2  -3    0.48    0.29
   6  -2  -3    5.21    0.43
   5  -2  -3    1.09    0.21
   5  -2  -3    1.36    0.26
   5  -2  -3    1.06    0.24
   4  -2  -3   34.56    1.29
   4  -2  -3   35.76    1.31
   4  -2  -3   35.96    1.32
  -4   2   3   35.80    1.28
  -4   2   3   35.61    1.26
   3  -2  -3    1.80    0.21
   3  -2  -3    1.62    0.23
   3  -2  -3    2.08    0.20
  -3   2   3    1.81    0.19
  -3   2   3    1.85    0.21
  -3   2   3    1.71    0.17
   2  -2  -3   44.73    1.57
   2  -2  -3   45.26    1.57
   2  -2  -3   46.46    1.59
  -2   2   3   45.19    1.58
  -2   2   3   47.56    1.57
  -2   2   3   42.70    1.55
   1  -2  -3   28.82    1.06
   1  -2  -3   30.04    1.07
   1  -2  -3   30.29    1.08
  -1   2   3   30.50    1.07
  -1   2   3   30.23    1.06
  -1   2   3   31.72    1.08
   0  -2  -3   82.56    2.68
   0  -2  -3   81.28    2.67
   0  -2  -3   79.81    2.62
   0   2   3   79.22    2.62
   0   2   3   76.19    2.67
  -1  -2  -3    5.18    0.24
  -1  -2  -3    4.98    0.25
  -1  -2  -3    4.88    0.24
   1   2   3    5.62    0.26
   1   2   3    5.50    0.25
   1   2   3    5.22    0.24
   1   2   3    5.58    0.26
  -2  -2  -3   15.12    0.58
  -2  -2  -3   15.35    0.56
  -2  -2  -3   15.69    0.56
  -2  -2  -3   15.90    0.56
   2   2   3   15.75    0.57
   2   2   3   16.22    0.57
   2   2   3   15.92    0.58
   2   2   3   15.01    0.57
   2   2   3   15.75    0.57
  -3  -2  -3    0.44    0.12
  -3  -2  -3    0.44    0.07
  -3  -2  -3    0.60    0.06
  -3  -2  -3    0.45    0.06
   3   2   3    0.19    0.08
   3   2   3    0.30    0.07
   3   2   3    0.36    0.08
   3   2   3    0.40    0.11
   3   2   3    0.39    0.09
   4   2   3   40.66    1.42
   4   2   3   40.48    1.39
   4   2   3   42.54    1.42
   4   2   3   43.70    1.40
   4   2   3   42.34    1.47
   5   2   3    4.09    0.31
   5   2   3    3.98    0.21
   5   2   3    3.67    0.20
   5   2   3    4.03    0.25
   5   2   3    4.36    0.24
   6   2   3   26.77    0.95
   6   2   3   28.32    0.97
   6   2   3   28.84    1.09
   6   2   3   26.31    0.96
   7   2   3    3.25    0.23
   7   2   3    4.01    0.38
   7   2   3    3.20    0.22
   6  -3  -3    0.29    0.31
   5  -3  -3    0.19    0.22
   5  -3  -3    0.26    0.27
   4  -3  -3    1.19    0.28
   4  -3  -3    0.80    0.21
   4  -3  -3    0.40    0.23
  -4   3   3    1.14    0.21
   3  -3  -3    1.54    0.21
   3  -3  -3    1.08    0.23
   3  -3  -3    1.26    0.25
  -3   3   3    1.25    0.21
  -3   3   3    1.27    0.24
   2  -3  -3   19.22    0.78
   2  -3  -3   19.05    0.76
   2  -3  -3   18.75    0.80
  -2   3   3   19.69    0.75
  -2   3   3   19.17    0.78
  -2   3   3   20.11    0.80
   1  -3  -3    2.86    0.24
   1  -3  -3    3.25    0.28
   1  -3  -3    2.96    0.22
  -1   3   3    3.62    0.23
  -1   3   3    3.07    0.23
  -1   3   3    3.08    0.27
   0  -3  -3   31.57    1.11
   0  -3  -3   31.75    1.10
   0  -3  -3   31.08    1.12
   0   3   3   30.59    1.12
   0   3   3   31.00    1.11
   0   3   3   29.30    1.11
  -1  -3  -3   61.14    2.00
  -1  -3  -3   59.01    2.03
   1   3   3   58.15    2.00
   1   3   3   58.98    2.04
   1   3   3   60.30    2.03
  -2  -3  -3   33.54    1.14
  -2  -3  -3   31.67    1.15
  -2  -3  -3   32.92    1.13
  -2  -3  -3   32.61    1.13
   2   3   3   33.71    1.15
   2   3   3   32.55    1.14
   2   3   3   31.18    1.14
   2   3   3   32.21    1.14
  -3  -3  -3   21.51    0.81
  -3  -3  -3   21.29    0.74
  -3  -3  -3   20.14    0.74
  -3  -3  -3   21.27    0.74
   3   3   3   20.86    0.80
   3   3   3   21.26    0.76
   3   3   3   21.45    0.76
   3   3   3   21.17    0.76
   3   3   3   20.15    0.77
  -4  -3  -3   35.87    1.31
   4   3   3   33.52    1.29
   4   3   3   38.88    1.22
   4   3   3   35.70    1.24
   4   3   3   35.08    1.22
   4   3   3   35.71    1.23
   5   3   3   13.06    0.50
   5   3   3   13.10    0.50
   5   3   3   13.18    0.51
   5   3   3   13.71    0.51
   5   3   3   13.08    0.61
   6   3   3    0.41    0.11
   6   3   3    0.30    0.12
   6   3   3    0.62    0.23
   6   3   3    0.21    0.10
   7   3   3    3.26    0.19
   7   3   3    4.20    0.40
   7   3   3    3.20    0.20
   8   3   3    0.13    0.28
   5  -4  -3   -0.08    0.29
   4  -4  -3    0.62    0.30
   4  -4  -3    0.75    0.25
   3  -4  -3   11.27    0.57
   3  -4  -3   10.59    0.64
  -3   4   3   12.43    0.65
   2  -4  -3    0.04    0.17
   2  -4  -3   -0.02    0.19
   2  -4  -3    0.24    0.23
  -2   4   3    0.46    0.20
  -2   4   3   -0.02    0.17
  -2   4   3    0.00    0.20
   1  -4  -3    6.09    0.35
   1  -4  -3    5.55    0.38
   1  -4  -3    4.81    0.40
  -1   4   3    5.72    0.40
  -1   4   3    5.93    0.35
   0  -4  -3    4.40    0.30
   0  -4  -3    3.99    0.27
   0  -4  -3    3.73    0.32
   0  -4  -3    3.63    0.26
   0   4   3    3.54    0.27
   0   4   3    3.48    0.31
   0   4   3    2.72    0.26
  -1  -4  -3   13.09    0.56
  -1  -4  -3   12.29    0.57
  -1  -4  -3   13.66    0.55
   1   4   3   12.33    0.55
   1   4   3   13.44    0.60
   1   4   3   12.05    0.54
  -2  -4  -3    2.04    0.18
  -2  -4  -3    1.89    0.21
  -2  -4  -3    2.04    0.19
  -2  -4  -3    2.71    0.24
   2   4   3    2.50    0.24
   2   4   3    2.70    0.22
   2   4   3    2.14    0.19
   2   4   3    1.93    0.20
  -3  -4  -3   12.42    0.48
  -3  -4  -3   11.50    0.50
  -3  -4  -3   11.11    0.54
  -3  -4  -3   12.22    0.49
   3   4   3   11.49    0.53
   3   4   3   11.62    0.51
   3   4   3   12.80    0.50
   3   4   3   11.58    0.53
  -4  -4  -3    2.24    0.18
  -4  -4  -3    1.97    0.15
  -4  -4  -3    2.24    0.16
   4   4   3    1.97    0.19
   4   4   3    2.18    0.18
   4   4   3    2.48    0.22
   4   4   3    2.25    0.22
   4   4   3    2.28    0.25
   5   4   3    5.74    0.30
   5   4   3    5.85    0.40
   5   4   3    5.94    0.31
   5   4   3    5.32    0.33
   5   4   3    6.93    0.35
   6   4   3    0.01    0.12
   6   4   3    0.26    0.23
   6   4   3    0.15    0.11
   6   4   3    0.37    0.15
   7   4   3    7.30    0.33
   7   4   3    7.07    0.35
   7   4   3    7.59    0.34
   7   4   3    7.81    0.55
   8   4   3   -0.01    0.27
   4  -5  -3    0.67    0.29
   4  -5  -3    0.09    0.33
   3  -5  -3    0.57    0.32
   3  -5  -3    0.23    0.24
  -3   5   3    0.17    0.30
   2  -5  -3    0.87    0.24
   2  -5  -3    0.50    0.30
  -2   5   3    1.00    0.31
   1  -5  -3    5.43    0.38
   1  -5  -3    5.25    0.45
   1  -5  -3    5.06    0.41
  -1   5   3    5.14    0.46
  -1   5   3    4.64    0.37
   0  -5  -3    0.73    0.19
   0  -5  -3    1.14    0.23
   0  -5  -3    1.02    0.25
   0   5   3    0.76    0.20
   0   5   3    0.98    0.25
   0   5   3    0.70    0.21
  -1  -5  -3   31.07    1.12
  -1  -5  -3   28.98    1.14
  -1  -5  -3   29.75    1.14
   1   5   3   27.12    1.15
   1   5   3   29.40    1.14
   1   5   3   30.13    1.12
  -2  -5  -3    8.37    0.43
  -2  -5  -3    8.07    0.41
  -2  -5  -3    8.39    0.46
   2   5   3    8.04    0.48
   2   5   3    8.41    0.45
   2   5   3    8.08    0.42
  -3  -5  -3   47.45    1.63
  -3  -5  -3   44.45    1.62
  -3  -5  -3   46.27    1.62
   3   5   3   43.91    1.65
   3   5   3   47.69    1.65
   3   5   3   49.17    1.66
   3   5   3   44.34    1.65
  -4  -5  -3   32.16    1.17
  -4  -5  -3   33.91    1.19
   4   5   3   32.50    1.24
   4   5   3   33.19    1.23
   4   5   3   33.60    1.20
   4   5   3   32.39    1.21
   5   5   3    3.61    0.35
   5   5   3    3.86    0.32
   5   5   3    3.49    0.28
   5   5   3    3.93    0.29
   6   5   3   14.81    0.61
   6   5   3   14.81    0.75
   6   5   3   15.76    0.65
   6   5   3   14.38    0.62
   7   5   3    2.48    0.21
   7   5   3    2.35    0.22
   7   5   3    2.46    0.36
   7   5   3    1.64    0.23
   8   5   3    0.15    0.13
   8   5   3    0.33    0.33
   3  -6  -3    0.56    0.38
   2  -6  -3    2.24    0.41
   2  -6  -3    1.93    0.32
  -2   6   3    1.88    0.41
   1  -6  -3   -0.37    0.22
   1  -6  -3   -0.41    0.30
  -1   6   3    0.35    0.29
   0  -6  -3    1.33    0.34
   0  -6  -3    1.86    0.28
   0   6   3    0.99    0.33
   0   6   3    1.50    0.28
   0   6   3    1.08    0.29
  -1  -6  -3    1.10    0.30
  -1  -6  -3    0.78    0.24
  -1  -6  -3    0.68    0.21
   1   6   3    1.03    0.31
   1   6   3    1.02    0.24
   1   6   3    1.08    0.27
  -2  -6  -3    0.80    0.20
  -2  -6  -3    0.92    0.25
  -2  -6  -3    1.64    0.26
   2   6   3    0.79    0.22
   2   6   3    0.95    0.28
   2   6   3    1.06    0.26
  -3  -6  -3    0.73    0.19
  -3  -6  -3    0.67    0.23
   3   6   3    0.91    0.21
   3   6   3    0.61    0.23
   3   6   3    0.78    0.22
   3   6   3    0.34    0.26
  -4  -6  -3    0.15    0.15
  -4  -6  -3    0.33    0.20
   4   6   3    0.40    0.24
   4   6   3    0.28    0.19
   4   6   3    0.41    0.21
   4   6   3    0.42    0.21
   5   6   3    1.27    0.25
   5   6   3    1.12    0.28
   5   6   3    1.34    0.28
   5   6   3    1.50    0.23
   6   6   3    0.95    0.26
   6   6   3    1.15    0.31
   6   6   3    1.20    0.22
   6   6   3    0.95    0.23
   7   6   3    4.14    0.45
   7   6   3    3.42    0.33
   7   6   3    3.26    0.28
   8   6   3    1.56    0.21
   8   6   3    1.45    0.40
   2  -7  -3   -0.10    0.40
  -2   7   3    0.63    0.41
   1  -7  -3    0.21    0.38
  -1   7   3    0.31    0.34
   0  -7  -3    1.46    0.42
   0   7   3    2.06    0.42
  -1  -7  -3    0.02    0.32
   1   7   3    0.56    0.34
  -2  -7  -3    1.40    0.34
   2   7   3    1.33    0.32
   2   7   3    1.63    0.38
  -3  -7  -3    0.41    0.28
   3   7   3    0.63    0.27
   3   7   3    0.06    0.28
  -4  -7  -3    3.30    0.37
   4   7   3    3.59    0.43
   4   7   3    3.37    0.38
   4   7   3    2.97    0.36
   5   7   3    1.24    0.30
   5   7   3    1.05    0.27
   5   7   3    0.79    0.31
   6   7   3    1.06    0.27
   6   7   3    0.50    0.29
   6   7   3    0.22    0.29
   7   7   3    1.02    0.31
   7   7   3    0.91    0.37
   1  -8  -3    0.47    0.47
  -1   8   3    0.26    0.41
   0  -8  -3    0.68    0.41
   0   8   3    0.48    0.42
  -1  -8  -3    0.21    0.37
   1   8   3    0.53    0.40
  -2  -8  -3   -0.07    0.34
   2   8   3    0.20    0.37
  -3  -8  -3    1.13    0.36
   3   8   3    1.18    0.36
   3   8   3    1.16    0.38
   4   8   3   -0.05    0.29
   4   8   3   -0.22    0.33
   5   8   3    0.42    0.31
   5   8   3   -0.30    0.27
   5   8   3   -0.05    0.32
   6   8   3    0.63    0.36
   7   8   3    0.39    0.33
  -1  -9  -3    0.20    0.42
   1   9   3   -0.04    0.44
  -2  -9  -3    0.01    0.38
   2   9   3    0.35    0.40
  -3  -9  -3   -0.49    0.35
   3   9   3    0.39    0.42
   4   9   3    0.46    0.42
   5   9   3    1.24    0.44
   5   9   3    0.79    0.34
   6   9   3   -0.13    0.38
   6   8  -4    0.44    0.36
   5   8  -4    2.16    0.44
   4   8  -4   -0.29    0.30
   4   8  -4   -0.04    0.36
   4   8  -4    0.16    0.33
   3   8  -4    0.09    0.35
   3   8  -4   -0.05    0.27
  -3  -8   4   -0.23    0.33
   2   8  -4    0.46    0.42
  -2  -8   4    0.09    0.40
   1   8  -4    0.48    0.44
   1   8  -4    0.29    0.40
  -1  -8   4    0.06    0.38
   0   8  -4   -0.41    0.46
   0   8  -4   -0.67    0.41
   0  -8   4   -0.12    0.42
   7   7  -4    0.71    0.31
   6   7  -4   -0.18    0.28
   6   7  -4   -0.48    0.29
   5   7  -4    0.31    0.30
   5   7  -4   -0.03    0.27
   5   7  -4    0.11    0.30
   4   7  -4    0.00    0.30
   4   7  -4   -0.18    0.25
   4   7  -4    0.04    0.26
   3   7  -4    0.38    0.26
   3   7  -4    0.03    0.28
   3   7  -4    0.29    0.33
  -3  -7   4    0.10    0.31
   2   7  -4    1.92    0.37
   2   7  -4    2.10    0.44
   2   7  -4    2.48    0.33
  -2  -7   4    1.98    0.39
   1   7  -4    1.88    0.46
  -1  -7   4    1.88    0.45
   0   7  -4    2.10    0.49
   0  -7   4    2.01    0.47
  -1   7  -4    0.26    0.44
  -1   7  -4    0.36    0.41
   1  -7   4    0.09    0.38
  -2   7  -4    0.09    0.43
   2  -7   4    0.22    0.44
   7   6  -4    1.72    0.30
   6   6  -4   -0.09    0.25
   6   6  -4   -0.07    0.29
   6   6  -4    0.22    0.23
   5   6  -4    0.42    0.24
   5   6  -4    0.37    0.27
   5   6  -4    0.33    0.28
   4   6  -4   -0.16    0.22
   4   6  -4    0.13    0.26
   4   6  -4   -0.04    0.24
  -4  -6   4    0.09    0.23
   3   6  -4    1.29    0.33
   3   6  -4    2.07    0.30
   3   6  -4    1.84    0.31
  -3  -6   4    2.16    0.34
   2   6  -4    0.12    0.24
   2   6  -4    0.43    0.27
   2   6  -4   -0.08    0.20
  -2  -6   4    0.00    0.27
   1   6  -4    1.84    0.36
   1   6  -4    2.33    0.34
   1   6  -4    2.24    0.27
  -1  -6   4    2.31    0.33
  -1  -6   4    2.30    0.38
   0   6  -4    0.38    0.35
   0  -6   4   -0.12    0.31
  -1   6  -4    2.17    0.45
   1  -6   4    3.33    0.49
  -2   6  -4    0.01    0.34
  -2   6  -4    0.23    0.37
   2  -6   4    0.66    0.38
   3  -6   4    0.80    0.43
   7   5  -4    0.05    0.19
   7   5  -4    0.45    0.31
   7   5  -4    0.11    0.16
   6   5  -4    0.93    0.25
   6   5  -4    1.26    0.23
   6   5  -4    1.17    0.34
   6   5  -4    1.05    0.20
   5   5  -4    0.70    0.21
   5   5  -4    0.56    0.26
   5   5  -4    0.70    0.21
   5   5  -4    1.09    0.25
   4   5  -4    2.68    0.33
   4   5  -4    2.72    0.33
   4   5  -4    2.88    0.28
   4   5  -4    2.96    0.29
  -4  -5   4    2.80    0.25
  -4  -5   4    3.25    0.30
   3   5  -4   21.15    0.89
   3   5  -4   21.27    0.93
   3   5  -4   21.11    0.91
   3   5  -4   22.90    0.89
  -3  -5   4   22.57    0.91
  -3  -5   4   22.33    0.86
   2   5  -4    0.29    0.17
   2   5  -4   -0.03    0.18
   2   5  -4    0.15    0.18
   2   5  -4    0.21    0.22
  -2  -5   4    0.46    0.19
  -2  -5   4    0.24    0.17
  -2  -5   4    0.04    0.22
   1   5  -4   14.37    0.73
   1   5  -4   15.34    0.68
   1   5  -4   13.49    0.61
   1   5  -4   14.23    0.69
  -1  -5   4   13.74    0.68
  -1  -5   4   13.93    0.73
   0   5  -4    1.18    0.32
   0   5  -4    1.68    0.28
   0   5  -4    1.58    0.26
   0  -5   4    1.51    0.21
   0  -5   4    1.82    0.31
   0  -5   4    1.40    0.25
   0  -5   4    1.33    0.30
  -1   5  -4   20.37    1.00
  -1   5  -4   21.09    0.89
   1  -5   4   18.97    0.87
   1  -5   4   19.85    0.97
  -2   5  -4    0.53    0.32
   2  -5   4    1.22    0.35
   2  -5   4    0.77    0.27
  -3   5  -4    2.57    0.44
  -3   5  -4    2.07    0.42
   3  -5   4    2.88    0.38
   3  -5   4    2.88    0.47
   4  -5   4    1.57    0.43
   7   4  -4    3.49    0.25
   7   4  -4    2.56    0.42
   6   4  -4    2.04    0.35
   6   4  -4    2.71    0.27
   6   4  -4    2.72    0.24
   6   4  -4    2.85    0.23
   5   4  -4   29.39    1.11
   5   4  -4   30.01    1.11
   5   4  -4   29.56    1.23
   5   4  -4   31.22    1.10
   4   4  -4    3.97    0.36
   4   4  -4    4.57    0.29
   4   4  -4    3.99    0.30
   4   4  -4    4.29    0.33
  -4  -4   4    4.68    0.31
  -4  -4   4    4.24    0.25
   3   4  -4    0.59    0.16
   3   4  -4    0.49    0.16
   3   4  -4    0.78    0.20
   3   4  -4    0.33    0.18
  -3  -4   4    0.63    0.15
  -3  -4   4    0.58    0.15
  -3  -4   4    0.49    0.18
  -3  -4   4    0.65    0.14
   2   4  -4    2.19    0.22
   2   4  -4    2.19    0.25
   2   4  -4    2.47    0.27
   2   4  -4    1.98    0.23
  -2  -4   4    2.11    0.21
  -2  -4   4    2.36    0.26
  -2  -4   4    2.01    0.23
   1   4  -4   -0.06    0.15
   1   4  -4    0.15    0.18
   1   4  -4    0.32    0.14
   1   4  -4    0.28    0.16
  -1  -4   4    0.47    0.18
  -1  -4   4    0.36    0.19
   0   4  -4    7.58    0.35
   0   4  -4    7.48    0.51
   0   4  -4    7.47    0.42
   0   4  -4    7.05    0.43
   0  -4   4    7.37    0.40
   0  -4   4    7.21    0.47
   0  -4   4    7.11    0.45
   0  -4   4    7.15    0.37
  -1   4  -4    2.20    0.26
  -1   4  -4    2.40    0.32
  -1   4  -4    1.67    0.24
   1  -4   4    2.28    0.20
   1  -4   4    2.77    0.31
   1  -4   4    2.00    0.25
   1  -4   4    2.43    0.33
  -2   4  -4    0.45    0.28
  -2   4  -4    0.48    0.22
   2  -4   4    0.56    0.13
   2  -4   4    1.08    0.28
   2  -4   4    0.29    0.20
   2  -4   4    0.52    0.25
  -3   4  -4    0.80    0.32
  -3   4  -4    2.19    0.37
   3  -4   4    2.40    0.31
   3  -4   4    2.17    0.38
   4  -4   4    5.32    0.45
   4  -4   4    3.74    0.49
   5  -4   4    1.89    0.43
   7   3  -4    0.65    0.31
   7   3  -4    0.88    0.14
   7   3  -4    0.83    0.13
   6   3  -4    0.01    0.12
   6   3  -4    0.34    0.25
   6   3  -4    0.29    0.15
   6   3  -4    0.09    0.13
   5   3  -4   19.07    0.90
   5   3  -4   20.10    0.78
   5   3  -4   21.03    0.76
   5   3  -4   21.00    0.77
   4   3  -4    5.18    0.28
   4   3  -4    5.39    0.29
   4   3  -4    5.36    0.32
   4   3  -4    4.73    0.33
   4   3  -4    5.28    0.39
  -4  -3   4    4.89    0.21
   3   3  -4    4.93    0.28
   3   3  -4    4.36    0.33
   3   3  -4    4.38    0.30
   3   3  -4    5.07    0.27
   3   3  -4    4.54    0.31
  -3  -3   4    4.82    0.27
  -3  -3   4    4.65    0.29
  -3  -3   4    4.86    0.25
   2   3  -4  167.84    5.65
   2   3  -4  167.47    5.66
   2   3  -4  167.22    5.53
   2   3  -4  169.04    5.58
  -2  -3   4  168.84    5.52
  -2  -3   4  178.62    5.66
  -2  -3   4  170.74    5.64
   1   3  -4   11.30    0.53
   1   3  -4   11.33    0.51
   1   3  -4   11.73    0.50
   1   3  -4   12.56    0.49
  -1  -3   4   11.48    0.53
  -1  -3   4   10.89    0.51
   0   3  -4  158.60    5.23
   0   3  -4  153.75    5.12
   0   3  -4  156.86    5.07
   0   3  -4  157.11    5.22
   0  -3   4  160.17    5.24
   0  -3   4  153.25    5.11
   0  -3   4  152.10    5.21
  -1   3  -4    0.66    0.20
  -1   3  -4    0.69    0.16
   1  -3   4    0.85    0.19
   1  -3   4    0.68    0.22
   1  -3   4    0.60    0.16
   1  -3   4    0.78    0.11
  -2   3  -4   60.66    2.16
  -2   3  -4   63.62    2.16
  -2   3  -4   60.71    2.17
   2  -3   4   58.89    2.15
   2  -3   4   61.54    2.20
   2  -3   4   63.39    2.18
   2  -3   4   62.01    2.02
  -3   3  -4    6.40    0.42
  -3   3  -4    6.49    0.48
   3  -3   4    6.82    0.48
   3  -3   4    6.80    0.27
   3  -3   4    5.92    0.41
   3  -3   4    6.14    0.48
  -4   3  -4    4.69    0.44
  -4   3  -4    3.83    0.41
   4  -3   4    4.81    0.45
   4  -3   4    4.84    0.38
   5  -3   4    1.16    0.35
   5  -3   4    1.71    0.30
   6  -3   4   -0.20    0.31
   8   2  -4    1.28    0.37
   7   2  -4    0.52    0.12
   7   2  -4    0.58    0.14
   6   2  -4   30.51    1.07
   6   2  -4   30.83    1.07
   6   2  -4   30.58    1.08
   5   2  -4   26.48    0.96
   5   2  -4   27.58    0.97
   5   2  -4   28.46    0.98
   5   2  -4   26.84    0.97
   4   2  -4   29.80    1.05
   4   2  -4   29.56    1.06
   4   2  -4   31.41    1.06
   4   2  -4   29.55    1.06
   4   2  -4   30.15    1.06
   3   2  -4    7.91    0.34
   3   2  -4    7.41    0.36
   3   2  -4    7.22    0.33
   3   2  -4    7.31    0.35
  -3  -2   4    7.57    0.30
  -3  -2   4    7.22    0.33
  -3  -2   4    7.55    0.31
   2   2  -4  111.49    3.75
   2   2  -4  120.14    3.75
   2   2  -4  113.17    3.82
   2   2  -4  111.36    3.83
  -2  -2   4  116.81    3.82
  -2  -2   4  116.40    3.74
  -2  -2   4  114.68    3.82
   1   2  -4   18.13    0.68
   1   2  -4   17.86    0.69
   1   2  -4   18.77    0.70
   1   2  -4   18.52    0.71
  -1  -2   4   18.60    0.69
  -1  -2   4   18.48    0.69
  -1  -2   4   18.29    0.70
   0   2  -4    0.79    0.14
   0   2  -4    0.92    0.13
   0   2  -4    1.07    0.11
   0   2  -4    0.89    0.16
   0  -2   4    0.86    0.12
   0  -2   4    0.81    0.15
   0  -2   4    0.91    0.14
  -1   2  -4   32.19    1.12
  -1   2  -4   30.32    1.13
   1  -2   4   31.27    1.14
   1  -2   4   30.99    1.12
   1  -2   4   30.95    1.13
  -2   2  -4   26.96    0.98
  -2   2  -4   27.04    1.00
  -2   2  -4   27.98    1.01
   2  -2   4   26.35    0.99
   2  -2   4   25.14    0.98
   2  -2   4   25.30    1.01
  -3   2  -4    2.86    0.25
  -3   2  -4    2.86    0.30
  -3   2  -4    3.26    0.25
   3  -2   4    3.37    0.30
   3  -2   4    2.47    0.25
   3  -2   4    2.68    0.30
  -4   2  -4    6.74    0.45
  -4   2  -4    7.40    0.46
  -4   2  -4    8.01    0.43
   4  -2   4    7.40    0.42
   4  -2   4    6.97    0.48
   4  -2   4    8.48    0.49
   4  -2   4    7.82    0.32
   5  -2   4    0.98    0.29
   5  -2   4    1.06    0.23
   6  -2   4    5.98    0.52
   7  -2   4    0.95    0.36
   7   1  -4    0.01    0.14
   6   1  -4    4.78    0.27
   6   1  -4    5.11    0.27
   6   1  -4    4.37    0.30
   5   1  -4    3.57    0.22
   5   1  -4    3.59    0.25
   5   1  -4    3.55    0.22
   4   1  -4    0.74    0.14
   4   1  -4    0.96    0.14
   4   1  -4    0.85    0.12
   4   1  -4    0.90    0.12
   3   1  -4    8.76    0.37
   3   1  -4    8.82    0.36
   3   1  -4    9.27    0.39
   3   1  -4    8.90    0.37
  -3  -1   4    9.31    0.33
  -3  -1   4    8.88    0.33
  -3  -1   4    8.35    0.34
   2   1  -4   11.03    0.43
   2   1  -4   11.30    0.44
   2   1  -4   11.01    0.44
   2   1  -4   10.67    0.45
  -2  -1   4   11.22    0.42
  -2  -1   4   11.66    0.44
  -2  -1   4   10.87    0.43
   1   1  -4   90.94    3.03
   1   1  -4   90.09    3.02
   1   1  -4   89.42    2.96
   1   1  -4   93.45    2.97
   1   1  -4   88.72    3.02
  -1  -1   4   89.27    2.96
  -1  -1   4   92.75    3.02
  -1  -1   4   90.35    3.02
   0   1  -4   24.06    0.85
   0   1  -4   23.09    0.84
   0   1  -4   24.71    0.86
   0  -1   4   23.53    0.85
   0  -1   4   23.57    0.85
  -1   1  -4  182.97    5.92
  -1   1  -4  186.05    6.06
   1  -1   4  179.65    6.06
   1  -1   4  185.19    6.07
   1  -1   4  182.65    5.92
  -2   1  -4  110.39    3.69
  -2   1  -4  114.36    3.68
  -2   1  -4  111.06    3.61
   2  -1   4  107.08    3.62
   2  -1   4  106.93    3.68
   2  -1   4  110.52    3.69
  -3   1  -4   42.35    1.44
  -3   1  -4   41.32    1.45
  -3   1  -4   41.43    1.44
   3  -1   4   39.76    1.45
   3  -1   4   41.35    1.46
   3  -1   4   41.62    1.35
   3  -1   4   40.85    1.46
  -4   1  -4    7.14    0.40
  -4   1  -4    6.92    0.35
   4  -1   4    7.16    0.39
   4  -1   4    6.52    0.36
   4  -1   4    5.94    0.40
   4  -1   4    7.05    0.31
   5  -1   4   14.19    0.62
   5  -1   4   13.55    0.66
   5  -1   4   13.87    0.66
   5  -1   4   14.78    0.57
   6  -1   4    0.50    0.21
   6  -1   4    0.95    0.27
   7  -1   4    1.92    0.34
   7   0  -4    0.90    0.20
   7   0  -4    0.94    0.23
   6   0  -4    0.07    0.19
   6   0  -4   -0.10    0.15
   6   0  -4   -0.16    0.13
   5   0  -4   14.18    0.59
   5   0  -4   15.60    0.60
   5   0  -4   15.44    0.61
   4   0  -4    8.22    0.36
   4   0  -4    7.94    0.36
   4   0  -4    7.93    0.38
   4   0  -4    8.30    0.40
   3   0  -4  104.87    3.49
   3   0  -4  108.25    3.42
   3   0  -4  103.62    3.49
   3   0  -4  104.73    3.41
  -3   0   4  103.57    3.47
  -3   0   4  104.31    3.39
  -3   0   4  104.55    3.47
   2   0  -4   51.83    1.65
   2   0  -4   48.04    1.64
   2   0  -4   49.61    1.67
   2   0  -4   48.66    1.67
  -2   0   4   49.31    1.64
  -2   0   4   48.67    1.66
  -2   0   4   48.54    1.66
   1   0  -4  254.15    8.53
   1   0  -4  258.02    8.56
   1   0  -4  258.33    8.30
   1   0  -4  269.10    8.31
  -1   0   4  260.11    8.55
  -1   0   4  255.90    8.36
  -1   0   4  260.42    8.52
   0   0  -4    8.10    0.32
   0   0  -4    7.16    0.31
   0   0  -4    7.10    0.30
   0   0  -4    7.10    0.30
   0   0   4    6.92    0.32
   0   0   4    7.32    0.30
   0   0   4    7.09    0.31
  -1   0  -4   21.05    0.74
  -1   0  -4   20.99    0.74
  -1   0  -4   17.01    0.73
   1   0   4   21.46    0.75
   1   0   4   20.44    0.74
   1   0   4   22.05    0.75
   1   0   4   22.17    0.75
  -2   0  -4   76.90    2.58
  -2   0  -4   76.24    2.53
  -2   0  -4   78.00    2.57
   2   0   4   76.65    2.58
   2   0   4   75.23    2.53
   2   0   4   74.43    2.49
   2   0   4   81.02    2.54
   2   0   4   77.34    2.59
  -3   0  -4   10.65    0.43
  -3   0  -4   11.21    0.42
  -3   0  -4   10.69    0.45
   3   0   4   12.07    0.48
   3   0   4   10.87    0.44
   3   0   4   10.10    0.45
   3   0   4   10.89    0.48
   3   0   4   11.10    0.41
  -4   0  -4    2.88    0.18
  -4   0  -4    3.17    0.23
   4   0   4    3.32    0.25
   4   0   4    3.07    0.21
   4   0   4    3.17    0.26
   4   0   4    2.99    0.26
   4   0   4    3.14    0.22
   5   0   4   24.45    0.87
   5   0   4   22.30    0.89
   5   0   4   23.24    0.89
   5   0   4   22.92    0.87
   6   0   4    0.90    0.23
   6   0   4    0.90    0.20
   6   0   4    0.82    0.21
   6   0   4    0.91    0.18
   7   0   4    8.32    0.50
   7  -1  -4    0.19    0.25
   6  -1  -4   -0.04    0.20
   6  -1  -4    0.04    0.17
   6  -1  -4    0.13    0.22
   5  -1  -4    5.56    0.37
   5  -1  -4    5.46    0.33
   5  -1  -4    5.86    0.39
   4  -1  -4   -0.24    0.14
   4  -1  -4   -0.19    0.14
   4  -1  -4    0.21    0.16
   4  -1  -4    0.26    0.13
  -4   1   4   -0.08    0.09
  -4   1   4   -0.07    0.12
   3  -1  -4    2.20    0.21
   3  -1  -4    2.54    0.22
   3  -1  -4    2.05    0.18
   3  -1  -4    2.36    0.20
  -3   1   4    2.33    0.17
  -3   1   4    2.46    0.20
  -3   1   4    2.39    0.18
   2  -1  -4   17.29    0.64
   2  -1  -4   16.03    0.62
   2  -1  -4   15.64    0.61
   2  -1  -4   16.86    0.62
  -2   1   4   15.97    0.62
  -2   1   4   16.31    0.61
  -2   1   4   16.58    0.61
   1  -1  -4  113.47    3.74
   1  -1  -4  110.84    3.66
   1  -1  -4  113.84    3.67
   1  -1  -4  112.47    3.74
  -1   1   4  113.75    3.74
  -1   1   4  111.89    3.66
  -1   1   4  112.73    3.74
   0  -1  -4    0.32    0.08
   0  -1  -4    0.33    0.07
   0  -1  -4    0.29    0.07
   0   1   4    0.08    0.04
   0   1   4    0.22    0.08
   0   1   4    0.15    0.07
  -1  -1  -4  170.36    5.63
  -1  -1  -4  173.37    5.49
   1   1   4  174.21    5.63
   1   1   4  169.20    5.49
   1   1   4  170.29    5.63
   1   1   4  167.54    5.49
  -2  -1  -4   85.50    2.81
  -2  -1  -4   85.56    2.80
  -2  -1  -4   87.03    2.86
  -2  -1  -4   86.84    2.86
  -2  -1  -4   86.07    2.86
   2   1   4   86.05    2.87
   2   1   4   89.13    2.81
   2   1   4   88.88    2.81
   2   1   4   81.07    2.86
   2   1   4   83.89    2.80
  -3  -1  -4  169.12    5.62
  -3  -1  -4  173.62    5.62
  -3  -1  -4  168.97    5.56
  -3  -1  -4  174.37    5.49
   3   1   4  168.03    5.65
   3   1   4  170.98    5.55
   3   1   4  168.86    5.51
   3   1   4  176.00    5.52
   3   1   4  169.98    5.65
   4   1   4   76.33    2.57
   4   1   4   80.41    2.58
   4   1   4   77.41    2.62
   4   1   4   77.50    2.62
   4   1   4   77.09    2.63
   4   1   4   79.49    2.60
   5   1   4    8.00    0.36
   5   1   4    7.34    0.39
   5   1   4    8.25    0.41
   5   1   4    7.45    0.37
   5   1   4    7.60    0.35
   5   1   4    7.35    0.39
   6   1   4    7.28    0.42
   6   1   4    6.71    0.36
   6   1   4    6.79    0.34
   6   1   4    6.72    0.39
   6   1   4    6.14    0.34
   7   1   4    1.77    0.25
   7   1   4    2.14    0.24
   7   1   4    2.03    0.22
   7   1   4    1.94    0.21
   8   1   4    0.40    0.19
   7  -2  -4    0.32    0.30
   6  -2  -4    0.23    0.25
   5  -2  -4    6.98    0.42
   5  -2  -4    6.89    0.44
   5  -2  -4    6.86    0.45
   4  -2  -4   26.74    1.01
   4  -2  -4   25.42    0.98
   4  -2  -4   24.76    1.01
  -4   2   4   26.51    0.96
  -4   2   4   25.83    0.98
   3  -2  -4    1.63    0.21
   3  -2  -4    1.84    0.20
   3  -2  -4    1.43    0.23
  -3   2   4    1.81    0.22
  -3   2   4    1.45    0.19
   2  -2  -4    4.96    0.27
   2  -2  -4    5.22    0.33
   2  -2  -4    5.23    0.30
  -2   2   4    5.08    0.28
  -2   2   4    5.22    0.28
  -2   2   4    4.49    0.31
   1  -2  -4    0.22    0.10
   1  -2  -4    0.15    0.12
   1  -2  -4    0.24    0.10
  -1   2   4    0.23    0.11
  -1   2   4    0.25    0.11
  -1   2   4    0.30    0.10
   0  -2  -4    9.33    0.38
   0  -2  -4    8.68    0.39
   0  -2  -4    9.09    0.40
   0   2   4    9.59    0.41
   0   2   4   10.10    0.39
  -1  -2  -4    0.65    0.10
  -1  -2  -4    0.63    0.11
  -1  -2  -4    1.13    0.11
   1   2   4    0.52    0.09
   1   2   4    0.45    0.09
   1   2   4    0.84    0.12
  -2  -2  -4   27.90    0.99
  -2  -2  -4   28.06    0.98
  -2  -2  -4   27.77    0.97
  -2  -2  -4   27.79    0.98
   2   2   4   28.61    0.98
   2   2   4   28.78    0.99
   2   2   4   27.58    0.98
   2   2   4   28.95    0.98
   2   2   4   28.00    0.98
  -3  -2  -4    0.15    0.06
  -3  -2  -4    0.09    0.07
  -3  -2  -4    0.15    0.07
  -3  -2  -4    0.12    0.10
  -3  -2  -4   -0.03    0.08
   3   2   4    0.13    0.08
   3   2   4    0.15    0.09
   3   2   4    0.15    0.10
   3   2   4   -0.03    0.09
   4   2   4   30.58    1.06
   4   2   4   30.07    1.06
   4   2   4   30.66    1.05
   4   2   4   29.48    1.09
   4   2   4   30.63    1.06
   5   2   4    0.11    0.10
   5   2   4    0.15    0.13
   5   2   4   -0.02    0.14
   5   2   4    0.10    0.11
   5   2   4    0.18    0.11
   6   2   4   12.93    0.52
   6   2   4   12.79    0.50
   6   2   4   12.51    0.60
   6   2   4   12.18    0.53
   7   2   4    0.43    0.16
   7   2   4    0.38    0.14
   7   2   4    0.47    0.14
   7   2   4    0.26    0.23
   8   2   4    4.54    0.30
   6  -3  -4    0.08    0.30
   5  -3  -4    0.19    0.23
   5  -3  -4    0.14    0.26
   4  -3  -4   -0.07    0.18
   4  -3  -4    0.24    0.23
   3  -3  -4    3.14    0.33
   3  -3  -4    2.93    0.29
   3  -3  -4    2.30    0.25
  -3   3   4    2.93    0.30
  -3   3   4    3.28    0.29
   2  -3  -4    3.02    0.26
   2  -3  -4    3.35    0.26
   2  -3  -4    2.69    0.28
  -2   3   4    3.29    0.25
  -2   3   4    2.75    0.27
  -2   3   4    3.09    0.27
   1  -3  -4   13.41    0.59
   1  -3  -4   14.03    0.57
   1  -3  -4   12.67    0.57
  -1   3   4   13.99    0.59
  -1   3   4   13.31    0.57
  -1   3   4   14.10    0.56
   0  -3  -4  144.84    4.86
   0  -3  -4  143.06    4.76
   0  -3  -4  149.03    4.87
   0   3   4  144.14    4.77
   0   3   4  147.32    4.86
   0   3   4  147.09    4.87
  -1  -3  -4   21.61    0.79
  -1  -3  -4   21.09    0.80
  -1  -3  -4   21.54    0.79
   1   3   4   21.53    0.81
   1   3   4   21.63    0.79
   1   3   4   20.67    0.80
  -2  -3  -4  162.81    5.28
  -2  -3  -4  168.20    5.41
  -2  -3  -4  159.87    5.40
  -2  -3  -4  161.56    5.34
   2   3   4  168.30    5.42
   2   3   4  160.96    5.29
   2   3   4  163.81    5.41
   2   3   4  160.80    5.32
  -3  -3  -4   37.10    1.25
  -3  -3  -4   35.71    1.25
  -3  -3  -4   37.92    1.26
  -3  -3  -4   35.74    1.30
   3   3   4   36.51    1.27
   3   3   4   35.61    1.27
   3   3   4   36.16    1.26
   3   3   4   35.67    1.28
   3   3   4   38.28    1.27
  -4  -3  -4   12.66    0.46
  -4  -3  -4   14.24    0.60
  -4  -3  -4   13.14    0.46
   4   3   4   13.20    0.53
   4   3   4   12.03    0.56
   4   3   4   12.40    0.50
   4   3   4   12.47    0.50
   4   3   4   14.42    0.53
   5   3   4   27.20    0.97
   5   3   4   28.94    0.97
   5   3   4   28.39    1.05
   5   3   4   26.77    0.97
   5   3   4   26.23    0.97
   6   3   4    0.78    0.13
   6   3   4    1.02    0.16
   6   3   4    0.99    0.14
   6   3   4    0.57    0.22
   7   3   4    0.11    0.14
   7   3   4    0.17    0.13
   7   3   4    0.13    0.23
   7   3   4    0.20    0.12
   8   3   4   -0.14    0.26
   8   3   4   -0.19    0.11
   5  -4  -4    0.37    0.32
   4  -4  -4    1.52    0.34
   4  -4  -4    1.82    0.29
   3  -4  -4    0.42    0.27
   3  -4  -4   -0.13    0.18
  -3   4   4    0.01    0.25
   2  -4  -4   12.11    0.60
   2  -4  -4   14.14    0.65
   2  -4  -4   12.63    0.66
  -2   4   4   12.43    0.63
  -2   4   4   12.94    0.63
   1  -4  -4   10.09    0.57
   1  -4  -4   11.66    0.56
   1  -4  -4   10.07    0.50
  -1   4   4   10.85    0.57
  -1   4   4   11.33    0.52
   0  -4  -4   10.11    0.47
   0  -4  -4   10.16    0.54
   0  -4  -4   11.31    0.52
   0  -4  -4   10.52    0.47
   0   4   4   10.73    0.49
   0   4   4    9.10    0.49
   0   4   4   10.58    0.52
  -1  -4  -4   16.89    0.64
  -1  -4  -4   16.29    0.65
  -1  -4  -4   14.36    0.64
  -1  -4  -4   12.87    0.60
   1   4   4   16.05    0.68
   1   4   4   16.27    0.65
   1   4   4   15.55    0.63
  -2  -4  -4    6.70    0.35
  -2  -4  -4    6.90    0.37
  -2  -4  -4    6.75    0.38
  -2  -4  -4    7.21    0.34
   2   4   4    6.77    0.36
   2   4   4    7.13    0.40
   2   4   4    6.85    0.36
  -3  -4  -4    0.48    0.12
  -3  -4  -4    0.22    0.10
  -3  -4  -4    0.21    0.14
   3   4   4    0.65    0.16
   3   4   4    0.17    0.12
   3   4   4    0.22    0.15
   3   4   4    0.46    0.13
  -4  -4  -4    2.82    0.21
  -4  -4  -4    2.55    0.18
   4   4   4    2.37    0.23
   4   4   4    2.33    0.21
   4   4   4    2.58    0.24
   4   4   4    2.66    0.27
   4   4   4    2.90    0.21
   5   4   4    2.09    0.28
   5   4   4    2.80    0.25
   5   4   4    3.15    0.23
   5   4   4    3.31    0.23
   5   4   4    3.59    0.27
   6   4   4   10.44    0.56
   6   4   4   10.05    0.44
   6   4   4   10.23    0.44
   6   4   4   10.29    0.47
   7   4   4    1.06    0.18
   7   4   4    0.54    0.28
   7   4   4    0.91    0.15
   7   4   4    0.95    0.16
   8   4   4    0.56    0.13
   8   4   4    0.50    0.31
   4  -5  -4    0.18    0.27
   4  -5  -4    0.40    0.34
   3  -5  -4    0.34    0.31
   3  -5  -4    0.46    0.25
  -3   5   4    0.01    0.30
   2  -5  -4    0.63    0.24
   2  -5  -4    0.99    0.33
  -2   5   4    1.46    0.32
   1  -5  -4    0.21    0.21
   1  -5  -4    0.13    0.18
   1  -5  -4   -0.03    0.24
  -1   5   4    0.34    0.20
  -1   5   4   -0.11    0.25
  -1   5   4    0.14    0.06
   0  -5  -4    0.67    0.21
   0  -5  -4    0.66    0.23
   0  -5  -4    0.58    0.18
   0   5   4    0.81    0.23
   0   5   4    0.58    0.19
   0   5   4    0.59    0.25
  -1  -5  -4    2.43    0.24
  -1  -5  -4    1.72    0.24
  -1  -5  -4    2.95    0.33
   1   5   4    2.25    0.27
   1   5   4    2.44    0.30
   1   5   4    2.35    0.25
  -2  -5  -4    5.24    0.38
  -2  -5  -4    5.00    0.33
  -2  -5  -4    4.32    0.30
   2   5   4    4.41    0.33
   2   5   4    4.89    0.32
   2   5   4    4.33    0.37
  -3  -5  -4   51.92    1.79
  -3  -5  -4   51.55    1.79
  -3  -5  -4   52.58    1.80
   3   5   4   49.18    1.80
   3   5   4   49.90    1.82
   3   5   4   51.58    1.81
  -4  -5  -4    0.34    0.17
  -4  -5  -4    0.52    0.13
   4   5   4    0.62    0.22
   4   5   4    0.73    0.19
   4   5   4    0.48    0.18
   4   5   4    0.67    0.17
   5   5   4   16.32    0.77
   5   5   4   18.03    0.71
   5   5   4   17.34    0.71
   5   5   4   17.84    0.74
   6   5   4    4.46    0.31
   6   5   4    5.42    0.37
   6   5   4    4.63    0.31
   6   5   4    4.03    0.40
   7   5   4    1.65    0.24
   7   5   4    1.78    0.21
   7   5   4    1.50    0.32
   7   5   4    1.67    0.20
   8   5   4    2.54    0.40
   8   5   4    1.81    0.20
   3  -6  -4    2.15    0.45
   2  -6  -4    0.46    0.35
   2  -6  -4   -0.09    0.25
  -2   6   4    0.13    0.32
   1  -6  -4    5.07    0.53
   1  -6  -4    5.26    0.43
  -1   6   4    5.34    0.53
   0  -6  -4    8.81    0.52
   0  -6  -4    7.99    0.60
   0   6   4    9.97    0.55
   0   6   4    9.21    0.60
   0   6   4    9.84    0.58
  -1  -6  -4    0.24    0.19
  -1  -6  -4    0.20    0.26
  -1  -6  -4    0.26    0.22
   1   6   4    0.32    0.21
   1   6   4    0.42    0.24
   1   6   4    0.26    0.26
  -2  -6  -4   14.72    0.73
  -2  -6  -4   15.07    0.67
  -2  -6  -4   11.46    0.61
   2   6   4   13.80    0.72
   2   6   4   15.35    0.71
   2   6   4   16.17    0.68
  -3  -6  -4    1.49    0.21
  -3  -6  -4    2.85    0.32
   3   6   4    1.89    0.28
   3   6   4    2.25    0.33
   3   6   4    2.14    0.26
  -4  -6  -4    0.13    0.20
  -4  -6  -4    0.10    0.15
   4   6   4    0.47    0.21
   4   6   4    0.19    0.21
   4   6   4    0.09    0.23
   4   6   4    0.03    0.18
   5   6   4    2.20    0.32
   5   6   4    2.01    0.27
   5   6   4    2.30    0.26
   5   6   4    2.20    0.33
   6   6   4    0.71    0.26
   6   6   4    0.76    0.22
   6   6   4    0.72    0.21
   6   6   4    0.88    0.29
   7   6   4    2.37    0.26
   7   6   4    2.74    0.32
   7   6   4    2.78    0.41
   8   6   4   -0.03    0.32
   8   6   4   -0.01    0.17
   2  -7  -4    0.22    0.37
  -2   7   4   -0.39    0.37
   1  -7  -4    1.13    0.41
  -1   7   4    0.67    0.36
   0  -7  -4    1.03    0.37
   0   7   4    2.06    0.40
  -1  -7  -4    0.40    0.31
   1   7   4    1.01    0.37
  -2  -7  -4   -0.16    0.27
   2   7   4   -0.35    0.24
   2   7   4   -0.12    0.27
  -3  -7  -4    4.53    0.45
   3   7   4    4.78    0.44
   3   7   4    4.38    0.46
  -4  -7  -4    3.90    0.40
   4   7   4    4.07    0.39
   4   7   4    4.06    0.40
   4   7   4    3.57    0.44
   5   7   4    0.56    0.27
   5   7   4    0.49    0.30
   5   7   4    0.75    0.27
   6   7   4    4.72    0.45
   6   7   4    4.62    0.47
   6   7   4    4.81    0.42
   7   7   4    0.58    0.33
   7   7   4    0.63    0.29
   1  -8  -4   -0.41    0.43
  -1   8   4    0.07    0.44
   0  -8  -4    0.53    0.40
   0   8   4    0.33    0.39
  -1  -8  -4   -0.22    0.34
   1   8   4   -0.38    0.35
  -2  -8  -4    0.50    0.36
   2   8   4    0.13    0.37
  -3  -8  -4    3.48    0.45
   3   8   4    3.08    0.49
   3   8   4    3.66    0.45
   4   8   4    0.15    0.31
   4   8   4    0.32    0.35
   5   8   4    0.14    0.34
   5   8   4    0.80    0.30
   5   8   4    0.49    0.31
   6   8   4    0.43    0.34
   7   8   4    0.27    0.32
  -1  -9  -4   -0.27    0.43
   1   9   4    0.37    0.47
  -2  -9  -4   -0.01    0.37
   2   9   4    0.50    0.44
  -3  -9  -4    0.12    0.35
   3   9   4    0.38    0.39
   4   9   4    0.97    0.45
   5   9   4   -0.24    0.38
   5   9   4    0.49    0.36
   6   9   4   -0.11    0.41
   6   8  -5    0.38    0.38
   5   8  -5    1.05    0.40
   4   8  -5    0.38    0.36
   4   8  -5    0.62    0.41
   4   8  -5    0.39    0.34
   3   8  -5   -0.29    0.26
   3   8  -5   -0.35    0.35
   2   8  -5   -0.16    0.43
  -2  -8   5    0.16    0.42
   1   8  -5    0.21    0.45
  -1  -8   5   -0.30    0.39
   0   8  -5   -0.01    0.45
   0   8  -5    0.11    0.43
   0  -8   5   -0.09    0.43
   7   7  -5   -0.11    0.30
   6   7  -5    0.63    0.33
   5   7  -5    0.52    0.32
   5   7  -5    0.72    0.31
   5   7  -5    0.62    0.35
   4   7  -5    4.64    0.45
   4   7  -5    4.66    0.48
   4   7  -5    3.81    0.49
   3   7  -5    0.80    0.31
   3   7  -5    0.33    0.28
   3   7  -5    0.87    0.38
  -3  -7   5    1.20    0.36
   2   7  -5    0.86    0.27
   2   7  -5    0.84    0.36
  -2  -7   5    0.61    0.37
   1   7  -5    0.80    0.43
  -1  -7   5    0.12    0.38
   0   7  -5    5.94    0.67
   0  -7   5    6.69    0.69
  -1   7  -5    0.30    0.45
  -1   7  -5   -0.05    0.40
   1  -7   5   -0.03    0.43
   7   6  -5   -0.17    0.24
   6   6  -5    1.33    0.32
   6   6  -5    0.96    0.36
   5   6  -5    3.35    0.36
   5   6  -5    2.41    0.37
   5   6  -5    2.66    0.39
   4   6  -5    5.72    0.51
   4   6  -5    5.74    0.45
   4   6  -5    6.93    0.53
   3   6  -5    0.94    0.30
   3   6  -5    1.04    0.27
  -3  -6   5    1.41    0.32
   2   6  -5    1.85    0.36
   2   6  -5    1.54    0.26
   2   6  -5    1.50    0.31
  -2  -6   5    1.68    0.35
   1   6  -5    2.47    0.36
   1   6  -5    2.73    0.29
   1   6  -5    2.06    0.40
  -1  -6   5    2.89    0.44
   0   6  -5    0.67    0.34
   0  -6   5    0.06    0.30
  -1   6  -5    0.14    0.35
   1  -6   5    0.02    0.35
  -2   6  -5    0.33    0.41
  -2   6  -5    0.69    0.41
   2  -6   5    0.62    0.38
   3  -6   5    0.21    0.42
   7   5  -5    0.55    0.34
   7   5  -5    0.57    0.19
   7   5  -5    0.20    0.22
   6   5  -5    0.35    0.30
   6   5  -5    0.21    0.19
   6   5  -5    0.00    0.20
   6   5  -5    0.19    0.23
   5   5  -5    3.85    0.44
   5   5  -5    3.69    0.34
   5   5  -5    4.18    0.33
   5   5  -5    4.12    0.37
   4   5  -5    6.69    0.48
   4   5  -5    5.52    0.45
   4   5  -5    5.89    0.42
   4   5  -5    6.56    0.39
  -4  -5   5    6.61    0.37
  -4  -5   5    5.92    0.44
   3   5  -5    4.18    0.40
   3   5  -5    4.54    0.39
   3   5  -5    4.49    0.37
   3   5  -5    4.68    0.35
  -3  -5   5    4.53    0.40
  -3  -5   5    5.67    0.36
   2   5  -5    6.81    0.45
   2   5  -5    7.96    0.45
   2   5  -5    6.92    0.45
   2   5  -5    5.11    0.47
  -2  -5   5    7.34    0.48
  -2  -5   5    7.28    0.41
  -2  -5   5    7.42    0.51
   1   5  -5   16.58    0.78
   1   5  -5   16.93    0.76
   1   5  -5   14.71    0.80
   1   5  -5   16.77    0.71
  -1  -5   5   17.18    0.79
  -1  -5   5   18.56    0.82
   0   5  -5    3.84    0.35
   0   5  -5    3.16    0.36
   0   5  -5    3.45    0.42
   0  -5   5    3.74    0.39
   0  -5   5    3.15    0.42
   0  -5   5    4.11    0.36
  -1   5  -5   22.32    1.04
  -1   5  -5   23.06    0.97
   1  -5   5   20.96    1.01
   1  -5   5   22.31    0.96
  -2   5  -5    0.29    0.33
   2  -5   5   -0.03    0.30
   2  -5   5   -0.06    0.23
  -3   5  -5    7.53    0.65
  -3   5  -5    6.50    0.63
   3  -5   5    7.15    0.56
   3  -5   5    6.26    0.62
   4  -5   5    0.11    0.38
   7   4  -5    2.00    0.24
   7   4  -5    1.65    0.37
   7   4  -5    2.05    0.21
   6   4  -5    0.62    0.19
   6   4  -5    0.61    0.18
   6   4  -5    0.67    0.22
   6   4  -5    0.29    0.27
   5   4  -5    2.78    0.25
   5   4  -5    2.12    0.34
   5   4  -5    2.46    0.25
   5   4  -5    2.38    0.29
   4   4  -5    2.90    0.26
   4   4  -5    2.91    0.27
   4   4  -5    2.65    0.30
   4   4  -5    2.54    0.33
  -4  -4   5    2.87    0.22
  -4  -4   5    3.24    0.27
   3   4  -5   57.14    2.03
   3   4  -5   56.68    2.02
   3   4  -5   57.48    2.05
   3   4  -5   59.08    2.02
  -3  -4   5   58.10    1.99
  -3  -4   5   57.72    2.01
  -3  -4   5   56.82    2.00
   2   4  -5   21.59    0.86
   2   4  -5   21.94    0.91
   2   4  -5   20.32    0.86
   2   4  -5   21.77    0.87
  -2  -4   5   21.66    0.87
  -2  -4   5   22.98    0.90
  -2  -4   5   21.17    0.84
   1   4  -5    6.69    0.45
   1   4  -5    6.88    0.41
   1   4  -5    7.08    0.38
   1   4  -5    7.35    0.44
  -1  -4   5    6.56    0.43
  -1  -4   5    5.63    0.42
   0   4  -5   22.15    0.88
   0   4  -5   21.53    0.80
   0   4  -5   21.15    0.90
   0   4  -5   21.09    0.93
   0  -4   5   21.79    0.88
   0  -4   5   21.18    0.92
   0  -4   5   22.54    0.94
  -1   4  -5    0.20    0.19
  -1   4  -5   -0.05    0.24
  -1   4  -5    0.29    0.19
   1  -4   5    0.37    0.26
   1  -4   5    0.08    0.19
   1  -4   5    0.27    0.22
  -2   4  -5   -0.01    0.25
   2  -4   5    0.51    0.23
   2  -4   5    0.27    0.28
  -3   4  -5    1.06    0.34
   3  -4   5    0.99    0.33
   3  -4   5    1.03    0.28
   4  -4   5   -0.02    0.26
   4  -4   5   -0.15    0.31
   5  -4   5    4.22    0.53
   7   3  -5    0.34    0.31
   7   3  -5    0.39    0.15
   6   3  -5    2.34    0.37
   6   3  -5    2.46    0.23
   6   3  -5    2.46    0.25
   6   3  -5    3.01    0.23
   5   3  -5    9.61    0.45
   5   3  -5    8.72    0.54
   5   3  -5    8.71    0.42
   5   3  -5    8.57    0.43
   4   3  -5    1.29    0.18
   4   3  -5    1.31    0.17
   4   3  -5    0.98    0.20
   4   3  -5    1.45    0.21
   4   3  -5    0.81    0.22
  -4  -3   5    1.40    0.16
  -4  -3   5    1.17    0.12
   3   3  -5    0.85    0.19
   3   3  -5    0.81    0.19
   3   3  -5    0.59    0.15
   3   3  -5    0.56    0.15
  -3  -3   5    0.63    0.13
  -3  -3   5    0.76    0.17
  -3  -3   5    0.74    0.15
   2   3  -5    2.45    0.22
   2   3  -5    2.26    0.24
   2   3  -5    2.42    0.24
   2   3  -5    2.53    0.23
  -2  -3   5    2.61    0.21
  -2  -3   5    2.78    0.24
  -2  -3   5    2.12    0.20
  -2  -3   5    2.28    0.24
   1   3  -5   21.52    0.85
   1   3  -5   21.81    0.82
   1   3  -5   22.36    0.85
   1   3  -5   22.03    0.88
  -1  -3   5   21.42    0.85
  -1  -3   5   21.70    0.87
   0   3  -5   22.53    0.79
   0   3  -5   22.17    0.89
   0   3  -5   21.89    0.87
   0   3  -5   23.28    0.86
   0  -3   5   21.71    0.90
   0  -3   5   20.55    0.85
   0  -3   5   21.55    0.87
  -1   3  -5   64.59    2.20
  -1   3  -5   62.39    2.20
   1  -3   5   60.54    2.20
   1  -3   5   64.27    2.23
   1  -3   5   62.94    2.20
  -2   3  -5   44.73    1.66
  -2   3  -5   48.08    1.65
  -2   3  -5   46.02    1.68
   2  -3   5   42.05    1.66
   2  -3   5   47.88    1.70
   2  -3   5   44.18    1.65
  -3   3  -5    3.25    0.37
  -3   3  -5    3.18    0.31
   3  -3   5    2.62    0.37
   3  -3   5    2.86    0.30
   3  -3   5    3.14    0.35
  -4   3  -5   21.06    0.95
   4  -3   5   17.75    0.92
   4  -3   5   20.78    0.88
   5  -3   5   -0.16    0.24
   5  -3   5    0.36    0.33
   6  -3   5    0.94    0.36
   7   2  -5   -0.03    0.14
   6   2  -5    4.76    0.33
   6   2  -5    4.85    0.29
   6   2  -5    5.10    0.29
   5   2  -5   23.61    0.87
   5   2  -5   23.08    0.86
   5   2  -5   23.54    0.87
   4   2  -5   18.88    0.74
   4   2  -5   20.93    0.77
   4   2  -5   19.64    0.74
   4   2  -5   19.46    0.75
   4   2  -5   20.07    0.75
   3   2  -5    0.35    0.12
   3   2  -5    0.24    0.13
   3   2  -5    0.29    0.14
   3   2  -5    0.29    0.11
  -3  -2   5    0.27    0.09
  -3  -2   5    0.22    0.09
  -3  -2   5    0.39    0.13
   2   2  -5   73.81    2.53
   2   2  -5   76.59    2.50
   2   2  -5   73.69    2.52
  -2  -2   5   74.43    2.52
  -2  -2   5   73.55    2.52
  -2  -2   5   75.10    2.48
   1   2  -5   23.87    0.87
   1   2  -5   23.83    0.86
   1   2  -5   23.36    0.88
  -1  -2   5   22.84    0.86
  -1  -2   5   24.57    0.88
  -1  -2   5   23.73    0.86
  -1  -2   5   21.06    0.85
   0   2  -5   57.98    1.94
   0   2  -5   55.75    1.93
   0   2  -5   54.26    1.94
   0   2  -5   56.99    1.87
   0  -2   5   54.14    1.92
   0  -2   5   56.11    1.94
   0  -2   5   56.86    1.94
  -1   2  -5   29.98    1.10
  -1   2  -5   30.20    1.08
  -1   2  -5   28.66    0.96
   1  -2   5   27.63    1.07
   1  -2   5   30.74    1.11
   1  -2   5   28.66    1.08
  -2   2  -5   11.39    0.49
  -2   2  -5   10.87    0.55
  -2   2  -5   11.60    0.52
   2  -2   5   10.91    0.50
   2  -2   5   11.19    0.52
   2  -2   5   10.07    0.55
  -3   2  -5    4.19    0.37
  -3   2  -5    4.20    0.32
   3  -2   5    4.40    0.32
   3  -2   5    4.71    0.35
   3  -2   5    4.28    0.38
  -4   2  -5   11.57    0.63
  -4   2  -5   11.73    0.56
   4  -2   5   12.13    0.63
   4  -2   5   11.52    0.56
   4  -2   5   12.07    0.62
   5  -2   5    1.13    0.26
   5  -2   5    0.77    0.31
   6  -2   5    4.81    0.48
   7   1  -5   -0.06    0.15
   6   1  -5    0.37    0.18
   6   1  -5    0.35    0.15
   6   1  -5    0.20    0.14
   5   1  -5    0.13    0.12
   5   1  -5    0.04    0.15
   5   1  -5   -0.18    0.12
   4   1  -5    1.43    0.16
   4   1  -5    1.39    0.18
   4   1  -5    1.49    0.19
   4   1  -5    1.54    0.16
   3   1  -5   27.48    0.99
   3   1  -5   26.69    0.98
   3   1  -5   28.28    0.99
   3   1  -5   27.60    0.99
  -3  -1   5   28.39    0.96
  -3  -1   5   27.06    0.96
  -3  -1   5   28.04    0.96
   2   1  -5    0.61    0.13
   2   1  -5    0.71    0.11
   2   1  -5    0.62    0.11
   2   1  -5    0.85    0.14
  -2  -1   5    0.47    0.12
  -2  -1   5    0.62    0.10
  -2  -1   5    0.45    0.10
   1   1  -5    0.28    0.11
   1   1  -5    0.30    0.09
   1   1  -5    0.21    0.09
   1   1  -5    0.31    0.09
  -1  -1   5   -0.05    0.07
  -1  -1   5    0.21    0.09
  -1  -1   5    0.59    0.12
   0   1  -5   82.94    2.72
   0   1  -5   80.35    2.71
   0   1  -5   81.77    2.67
   0  -1   5   81.82    2.67
   0  -1   5   77.44    2.71
   0  -1   5   83.52    2.72
   0  -1   5   76.12    2.71
  -1   1  -5    2.66    0.19
  -1   1  -5    2.08    0.21
   1  -1   5    2.15    0.18
   1  -1   5    2.05    0.18
   1  -1   5    2.20    0.21
  -2   1  -5  162.86    5.30
  -2   1  -5  159.22    5.20
  -2   1  -5  158.34    5.32
   2  -1   5  161.13    5.31
   2  -1   5  161.20    5.33
   2  -1   5  155.20    5.20
  -3   1  -5   21.92    0.82
  -3   1  -5   20.59    0.82
  -3   1  -5   21.66    0.85
   3  -1   5   22.22    0.84
   3  -1   5   21.97    0.87
   3  -1   5   22.31    0.85
  -4   1  -5   19.26    0.77
  -4   1  -5   19.10    0.79
   4  -1   5   20.11    0.79
   4  -1   5   21.06    0.67
   4  -1   5   20.33    0.83
   4  -1   5   18.80    0.80
   5  -1   5   15.15    0.68
   5  -1   5   14.95    0.70
   5  -1   5   14.19    0.64
   6  -1   5    0.95    0.23
   6  -1   5    0.83    0.28
   7  -1   5    1.38    0.33
   7   0  -5    0.26    0.20
   7   0  -5    0.31    0.22
   6   0  -5    0.09    0.17
   6   0  -5    0.19    0.20
   6   0  -5    0.26    0.16
   5   0  -5    6.14    0.34
   5   0  -5    5.96    0.38
   5   0  -5    6.03    0.32
   4   0  -5   25.02    0.91
   4   0  -5   25.70    0.90
   4   0  -5   23.68    0.89
   4   0  -5   23.54    0.90
  -4   0   5   23.77    0.83
   3   0  -5    0.27    0.11
   3   0  -5    0.33    0.13
   3   0  -5    0.20    0.11
   3   0  -5    0.25    0.13
  -3   0   5    0.24    0.12
  -3   0   5    0.55    0.10
  -3   0   5    0.29    0.09
   2   0  -5  196.66    6.47
   2   0  -5  203.66    6.31
   2   0  -5  193.43    6.30
   2   0  -5  195.76    6.46
  -2   0   5  194.05    6.45
  -2   0   5  193.18    6.30
  -2   0   5  193.60    6.46
   1   0  -5   55.01    1.96
   1   0  -5   57.77    1.96
   1   0  -5   57.82    1.93
   1   0  -5   60.00    1.94
  -1   0   5   59.25    1.96
  -1   0   5   56.84    1.93
  -1   0   5   58.37    1.96
   0   0  -5    0.45    0.09
   0   0  -5    0.44    0.10
   0   0  -5    0.43    0.09
   0   0   5    0.50    0.11
   0   0   5    0.43    0.09
   0   0   5    0.35    0.07
  -1   0  -5  302.15    9.59
  -1   0  -5  299.66    9.83
   1   0   5  301.01    9.84
   1   0   5  303.83    9.85
   1   0   5  288.87    9.59
  -2   0  -5   49.88    1.67
  -2   0  -5   49.02    1.66
  -2   0  -5   45.15    1.59
  -2   0  -5   49.52    1.68
   2   0   5   48.65    1.69
   2   0   5   48.48    1.66
   2   0   5   49.89    1.68
   2   0   5   50.03    1.68
  -3   0  -5   58.31    1.93
  -3   0  -5   56.15    1.94
  -3   0  -5   57.79    1.92
   3   0   5   56.05    1.95
   3   0   5   55.80    1.96
   3   0   5   56.15    1.93
   3   0   5   57.28    1.85
  -4   0  -5    9.66    0.45
  -4   0  -5    9.98    0.41
   4   0   5    9.26    0.38
   4   0   5   10.18    0.46
   4   0   5    9.68    0.43
   4   0   5    9.35    0.48
   5   0   5    5.69    0.35
   5   0   5    6.28    0.33
   5   0   5    6.48    0.40
   5   0   5    6.89    0.39
   6   0   5   -0.03    0.19
   6   0   5    0.20    0.17
   6   0   5    0.63    0.24
   7   0   5    2.04    0.32
   7  -1  -5    0.48    0.27
   6  -1  -5    0.09    0.22
   6  -1  -5    0.10    0.18
   5  -1  -5   11.68    0.58
   5  -1  -5   13.06    0.56
   5  -1  -5   12.59    0.58
   4  -1  -5    7.20    0.38
   4  -1  -5    7.20    0.39
   4  -1  -5    8.36    0.43
  -4   1   5    6.85    0.39
  -4   1   5    8.10    0.35
   3  -1  -5    4.41    0.30
   3  -1  -5    4.87    0.30
   3  -1  -5    4.94    0.28
  -3   1   5    5.00    0.27
  -3   1   5    5.35    0.30
  -3   1   5    5.26    0.27
   2  -1  -5   27.43    0.98
   2  -1  -5   27.79    0.98
   2  -1  -5   27.31    0.98
  -2   1   5   26.51    0.97
  -2   1   5   28.03    0.98
  -2   1   5   26.67    0.97
   1  -1  -5   25.05    0.90
   1  -1  -5   25.12    0.91
   1  -1  -5   26.09    0.91
  -1   1   5   24.22    0.90
  -1   1   5   25.34    0.90
  -1   1   5   25.88    0.91
   0  -1  -5   57.80    1.93
   0  -1  -5   58.64    1.97
   0  -1  -5   57.62    1.97
   0   1   5   57.94    1.94
   0   1   5   58.60    1.97
  -1  -1  -5  240.10    7.70
  -1  -1  -5  231.48    7.50
   1   1   5  225.85    7.70
   1   1   5  240.11    7.70
   1   1   5  230.78    7.50
  -2  -1  -5    2.38    0.16
  -2  -1  -5    2.25    0.16
  -2  -1  -5    2.04    0.14
  -2  -1  -5    2.39    0.18
  -2  -1  -5    1.93    0.15
   2   1   5    1.71    0.17
   2   1   5    2.27    0.19
   2   1   5    1.76    0.15
   2   1   5    1.75    0.15
  -3  -1  -5  111.87    3.65
  -3  -1  -5  109.66    3.65
  -3  -1  -5  108.94    3.60
  -3  -1  -5  107.67    3.58
   3   1   5  108.84    3.58
   3   1   5  107.69    3.67
   3   1   5  108.46    3.68
   3   1   5  109.29    3.60
   3   1   5  118.58    3.61
  -4  -1  -5    5.72    0.25
  -4  -1  -5    5.38    0.29
  -4  -1  -5    5.55    0.25
   4   1   5    5.38    0.34
   4   1   5    5.70    0.29
   4   1   5    5.82    0.31
   4   1   5    5.52    0.34
   4   1   5    5.53    0.29
   5   1   5   19.39    0.75
   5   1   5   19.43    0.74
   5   1   5   19.38    0.76
   5   1   5   20.32    0.75
   5   1   5   18.53    0.77
   6   1   5    9.96    0.49
   6   1   5    9.35    0.46
   6   1   5    9.70    0.45
   6   1   5    8.69    0.47
   6   1   5    8.79    0.44
   7   1   5    3.83    0.31
   7   1   5    3.90    0.34
   6  -2  -5    0.09    0.25
   5  -2  -5    0.72    0.21
   5  -2  -5    0.25    0.24
   4  -2  -5    0.10    0.17
   4  -2  -5   -0.02    0.19
   4  -2  -5    0.01    0.19
  -4   2   5    0.08    0.15
  -4   2   5   -0.02    0.17
   3  -2  -5   49.64    1.65
   3  -2  -5   40.02    1.61
   3  -2  -5   45.81    1.63
  -3   2   5   46.71    1.62
  -3   2   5   47.96    1.63
   2  -2  -5   31.05    1.11
   2  -2  -5   29.25    1.10
   2  -2  -5   30.06    1.10
  -2   2   5   29.96    1.09
  -2   2   5   31.05    1.09
  -2   2   5   29.20    1.10
   1  -2  -5   56.05    1.91
   1  -2  -5   55.03    1.91
   1  -2  -5   53.92    1.88
  -1   2   5   55.71    1.90
  -1   2   5   56.81    1.91
  -1   2   5   55.97    1.91
   0  -2  -5   36.65    1.22
   0  -2  -5   35.48    1.22
   0  -2  -5   31.77    1.20
   0   2   5   34.98    1.21
   0   2   5   33.61    1.21
  -1  -2  -5   23.16    0.82
  -1  -2  -5   22.41    0.82
   1   2   5   23.07    0.82
   1   2   5   23.13    0.83
   1   2   5   21.57    0.82
  -2  -2  -5    3.19    0.20
  -2  -2  -5    2.92    0.18
  -2  -2  -5    2.92    0.21
  -2  -2  -5    2.90    0.18
   2   2   5    2.61    0.21
   2   2   5    2.70    0.18
   2   2   5    2.73    0.19
  -3  -2  -5    7.19    0.33
  -3  -2  -5    6.92    0.31
  -3  -2  -5    7.36    0.31
  -3  -2  -5    6.95    0.35
  -3  -2  -5    7.30    0.30
   3   2   5    6.90    0.32
   3   2   5    7.22    0.35
   3   2   5    6.97    0.35
   3   2   5    6.56    0.32
   3   2   5    8.38    0.34
  -4  -2  -5   24.96    0.96
  -4  -2  -5   25.13    0.87
  -4  -2  -5   25.99    0.87
  -4  -2  -5   25.58    0.88
   4   2   5   25.64    0.93
   4   2   5   25.61    0.92
   4   2   5   25.63    0.92
   4   2   5   25.43    0.93
   4   2   5   26.16    0.92
   5   2   5    2.95    0.24
   5   2   5    1.93    0.18
   5   2   5    2.29    0.20
   5   2   5    2.32    0.23
   5   2   5    2.92    0.23
   6   2   5    4.32    0.29
   6   2   5    4.69    0.36
   6   2   5    4.38    0.28
   6   2   5    4.62    0.33
   7   2   5    1.91    0.30
   7   2   5    2.33    0.21
   7   2   5    2.16    0.25
   7   2   5    2.07    0.22
   8   2   5    2.03    0.23
   6  -3  -5   -0.45    0.29
   5  -3  -5    0.84    0.31
   5  -3  -5    1.80    0.29
   4  -3  -5    0.37    0.21
   4  -3  -5    0.36    0.25
   3  -3  -5    4.69    0.39
   3  -3  -5    4.05    0.34
   3  -3  -5    4.96    0.33
  -3   3   5    4.94    0.39
  -3   3   5    4.50    0.34
   2  -3  -5    6.40    0.36
   2  -3  -5    5.75    0.40
   2  -3  -5    6.19    0.37
  -2   3   5    6.43    0.38
  -2   3   5    5.56    0.40
  -2   3   5    6.66    0.37
   1  -3  -5    0.38    0.16
   1  -3  -5    0.70    0.15
   1  -3  -5    0.84    0.17
  -1   3   5    0.43    0.15
  -1   3   5    0.39    0.16
  -1   3   5    0.77    0.15
   0  -3  -5    3.11    0.26
   0  -3  -5    3.13    0.23
   0  -3  -5    3.22    0.24
   0   3   5    2.59    0.23
   0   3   5    3.84    0.29
   0   3   5    3.32    0.23
  -1  -3  -5    0.85    0.13
  -1  -3  -5    0.98    0.16
   1   3   5    1.03    0.14
   1   3   5    0.59    0.13
   1   3   5    0.63    0.15
  -2  -3  -5  115.21    3.76
  -2  -3  -5  118.63    3.72
  -2  -3  -5  114.29    3.79
  -2  -3  -5  108.00    3.80
   2   3   5  113.73    3.73
   2   3   5  115.08    3.80
   2   3   5  111.33    3.81
  -3  -3  -5    0.83    0.12
  -3  -3  -5    0.87    0.16
  -3  -3  -5    0.89    0.11
  -3  -3  -5    0.73    0.14
   3   3   5    0.97    0.16
   3   3   5    0.96    0.15
   3   3   5    0.71    0.13
   3   3   5    0.66    0.13
  -4  -3  -5   58.83    1.97
  -4  -3  -5   59.43    1.96
  -4  -3  -5   56.39    1.96
  -4  -3  -5   59.53    2.04
  -4  -3  -5   57.52    1.94
   4   3   5   61.40    1.97
   4   3   5   59.21    2.00
   4   3   5   55.17    2.00
   4   3   5   60.17    1.98
   4   3   5   58.38    2.00
   5   3   5   -0.05    0.12
   5   3   5    0.46    0.15
   5   3   5    0.00    0.15
   5   3   5    0.17    0.12
   5   3   5    0.11    0.12
   6   3   5    5.73    0.41
   6   3   5    6.13    0.32
   6   3   5    5.28    0.36
   6   3   5    4.99    0.29
   7   3   5    6.90    0.40
   7   3   5    6.90    0.35
   7   3   5    7.13    0.37
   7   3   5    7.21    0.49
   8   3   5    1.47    0.18
   5  -4  -5    0.16    0.31
   4  -4  -5    2.26    0.37
   4  -4  -5    2.22    0.31
   3  -4  -5    0.60    0.28
   3  -4  -5    0.09    0.22
  -3   4   5    0.15    0.25
   2  -4  -5    6.65    0.41
   2  -4  -5    5.30    0.46
   2  -4  -5    6.76    0.44
  -2   4   5    6.30    0.44
  -2   4   5    6.34    0.47
   1  -4  -5    0.94    0.19
   1  -4  -5    1.09    0.24
   1  -4  -5    0.90    0.21
  -1   4   5    0.81    0.17
  -1   4   5    0.85    0.24
  -1   4   5    1.33    0.20
   0  -4  -5    5.32    0.36
   0  -4  -5    5.58    0.40
   0  -4  -5    5.59    0.33
   0   4   5    5.23    0.35
   0   4   5    5.80    0.41
   0   4   5    5.52    0.33
  -1  -4  -5    5.89    0.39
  -1  -4  -5    5.39    0.33
  -1  -4  -5    5.85    0.32
   1   4   5    5.79    0.37
   1   4   5    5.89    0.33
   1   4   5    5.26    0.34
  -2  -4  -5    6.50    0.38
  -2  -4  -5    6.45    0.33
  -2  -4  -5    6.36    0.33
  -2  -4  -5    6.67    0.37
   2   4   5    5.85    0.37
   2   4   5    6.15    0.35
   2   4   5    6.26    0.33
  -3  -4  -5    7.26    0.35
  -3  -4  -5    6.62    0.37
  -3  -4  -5    7.33    0.34
   3   4   5    7.02    0.35
   3   4   5    6.21    0.38
   3   4   5    7.09    0.37
   3   4   5    6.35    0.35
  -4  -4  -5    1.27    0.14
  -4  -4  -5    1.34    0.18
   4   4   5    1.28    0.17
   4   4   5    1.26    0.20
   4   4   5    1.16    0.18
   4   4   5    1.37    0.21
   5   4   5   13.44    0.55
   5   4   5   13.49    0.56
   5   4   5   13.18    0.62
   5   4   5   13.15    0.59
   6   4   5    0.37    0.18
   6   4   5   -0.02    0.19
   6   4   5    0.13    0.14
   6   4   5   -0.05    0.14
   7   4   5    2.78    0.23
   7   4   5    2.43    0.22
   7   4   5    2.56    0.34
   7   4   5    2.73    0.26
   8   4   5    0.38    0.15
   8   4   5    0.54    0.30
   4  -5  -5   -0.04    0.32
   4  -5  -5    0.15    0.28
   3  -5  -5    0.14    0.25
   3  -5  -5    0.05    0.30
  -3   5   5   -0.07    0.29
   2  -5  -5    5.77    0.42
   2  -5  -5    4.55    0.48
  -2   5   5    4.87    0.46
   1  -5  -5    0.42    0.23
   1  -5  -5    0.65    0.27
   1  -5  -5    0.45    0.20
  -1   5   5    0.24    0.26
  -1   5   5    0.65    0.21
  -1   5   5    0.28    0.09
   0  -5  -5    0.37    0.23
   0  -5  -5    0.74    0.20
   0  -5  -5    0.27    0.19
   0   5   5    0.50    0.24
   0   5   5    0.33    0.20
   0   5   5    0.41    0.19
  -1  -5  -5    0.17    0.19
  -1  -5  -5    0.04    0.16
  -1  -5  -5    0.10    0.16
   1   5   5   -0.10    0.16
   1   5   5    0.35    0.22
   1   5   5    0.30    0.19
  -2  -5  -5    7.30    0.39
  -2  -5  -5    7.75    0.42
  -2  -5  -5    7.00    0.46
   2   5   5    7.61    0.47
   2   5   5    7.69    0.44
   2   5   5    8.57    0.43
  -3  -5  -5    0.32    0.18
  -3  -5  -5    0.01    0.12
  -3  -5  -5    0.24    0.14
   3   5   5    0.05    0.20
   3   5   5   -0.03    0.16
   3   5   5    0.11    0.17
   3   5   5   -0.02    0.15
  -4  -5  -5    4.19    0.32
  -4  -5  -5    4.16    0.27
   4   5   5    3.67    0.28
   4   5   5    3.50    0.29
   4   5   5    3.87    0.34
   4   5   5    3.55    0.32
   5   5   5   10.34    0.50
   5   5   5   10.77    0.49
   5   5   5    9.33    0.53
   5   5   5   10.24    0.54
   6   5   5    4.40    0.31
   6   5   5    4.32    0.31
   6   5   5    3.61    0.38
   6   5   5    3.52    0.32
   7   5   5    0.93    0.19
   7   5   5    1.09    0.21
   7   5   5    1.14    0.23
   7   5   5    0.98    0.31
   8   5   5    0.33    0.31
   8   5   5    0.10    0.16
   3  -6  -5    0.10    0.34
   2  -6  -5    2.30    0.44
  -2   6   5    1.76    0.40
   1  -6  -5    7.32    0.59
   1  -6  -5    6.51    0.49
  -1   6   5    6.57    0.56
   0  -6  -5    2.31    0.39
   0  -6  -5    1.96    0.30
   0   6   5    1.78    0.29
   0   6   5    1.56    0.35
  -1  -6  -5   11.23    0.66
  -1  -6  -5   10.87    0.60
  -1  -6  -5   11.03    0.56
   1   6   5   10.65    0.66
   1   6   5   10.75    0.58
   1   6   5   10.87    0.62
  -2  -6  -5    9.42    0.51
  -2  -6  -5    6.47    0.43
  -2  -6  -5   10.73    0.61
   2   6   5    9.58    0.51
   2   6   5    9.31    0.57
   2   6   5    9.03    0.55
  -3  -6  -5    0.68    0.19
  -3  -6  -5    0.93    0.26
   3   6   5    1.30    0.30
   3   6   5    0.66    0.23
   3   6   5    1.04    0.23
  -4  -6  -5    6.73    0.46
  -4  -6  -5    6.41    0.37
   4   6   5    5.35    0.40
   4   6   5    6.54    0.49
   4   6   5    6.28    0.40
   4   6   5    6.06    0.42
   5   6   5    0.05    0.20
   5   6   5    0.41    0.23
   5   6   5    0.03    0.18
   5   6   5   -0.13    0.23
   6   6   5    2.02    0.28
   6   6   5    3.08    0.37
   6   6   5    2.70    0.29
   6   6   5    3.05    0.35
   7   6   5    0.70    0.21
   7   6   5    0.89    0.26
   7   6   5    0.99    0.32
   8   6   5    0.10    0.33
   2  -7  -5    0.28    0.41
  -2   7   5    0.05    0.38
   1  -7  -5    0.04    0.38
  -1   7   5   -0.08    0.35
   0  -7  -5    0.80    0.38
   0   7   5    0.28    0.35
  -1  -7  -5    0.12    0.30
   1   7   5    0.09    0.32
  -2  -7  -5   -0.09    0.28
   2   7   5   -0.10    0.30
   2   7   5    0.05    0.27
  -3  -7  -5    7.73    0.57
   3   7   5    6.73    0.51
   3   7   5    6.95    0.57
  -4  -7  -5   -0.21    0.24
   4   7   5    0.30    0.30
   4   7   5   -0.21    0.25
   5   7   5    0.48    0.27
   5   7   5    0.69    0.30
   5   7   5    0.51    0.26
   6   7   5    0.09    0.28
   6   7   5    0.00    0.27
   6   7   5    0.11    0.26
   7   7   5    1.56    0.37
   7   7   5    1.61    0.34
   8   7   5    0.07    0.28
   1  -8  -5    0.44    0.46
  -1   8   5   -0.22    0.41
   0  -8  -5    0.79    0.43
   0   8   5    1.05    0.41
  -1  -8  -5    0.16    0.34
   1   8   5    0.15    0.39
  -2  -8  -5    0.04    0.35
   2   8   5    0.66    0.37
  -3  -8  -5    0.09    0.32
   3   8   5    0.51    0.33
   3   8   5   -0.01    0.35
   4   8   5    0.42    0.32
   4   8   5    0.22    0.36
   5   8   5    0.75    0.37
   5   8   5    0.16    0.32
   6   8   5    0.71    0.34
   7   8   5   -0.44    0.30
  -1  -9  -5    0.16    0.44
   1   9   5    0.16    0.45
  -2  -9  -5   -0.28    0.39
   2   9   5   -0.44    0.41
  -3  -9  -5    0.01    0.39
   3   9   5    0.77    0.45
   4   9   5    0.18    0.42
   5   9   5   -0.12    0.34
   5   9   5   -0.73    0.37
   6   9   5    0.13    0.39
   5   8  -6    0.93    0.43
   4   8  -6    1.09    0.44
   4   8  -6    1.25    0.39
   3   8  -6   -0.06    0.40
   3   8  -6   -0.21    0.30
   2   8  -6    1.66    0.51
  -2  -8   6    1.40    0.49
   1   8  -6    0.25    0.49
  -1  -8   6   -0.30    0.40
   6   7  -6    0.33    0.34
   5   7  -6    0.72    0.36
   5   7  -6    1.52    0.35
   5   7  -6    1.02    0.37
   4   7  -6    1.15    0.39
   4   7  -6    1.03    0.35
   4   7  -6    1.39    0.36
   3   7  -6    0.30    0.36
   3   7  -6    0.91    0.34
   3   7  -6    0.22    0.28
  -3  -7   6    0.29    0.34
   2   7  -6    1.03    0.29
   2   7  -6    0.67    0.40
  -2  -7   6    0.84    0.36
   1   7  -6   -0.29    0.38
  -1  -7   6   -0.35    0.35
   0   7  -6    2.13    0.50
   0  -7   6    2.07    0.51
  -1   7  -6    0.12    0.45
   1  -7   6   -0.24    0.43
   7   6  -6    1.11    0.32
   6   6  -6    0.60    0.30
   6   6  -6    0.72    0.35
   5   6  -6    0.95    0.28
   5   6  -6   -0.12    0.29
   5   6  -6    0.35    0.29
   4   6  -6    1.84    0.36
   4   6  -6    1.56    0.33
   4   6  -6    1.95    0.33
   3   6  -6    0.50    0.27
   3   6  -6    0.86    0.27
   3   6  -6    0.39    0.32
  -3  -6   6    0.74    0.30
   2   6  -6   -0.04    0.31
   2   6  -6    0.72    0.24
   2   6  -6    0.33    0.27
  -2  -6   6    0.42    0.31
   1   6  -6    6.06    0.39
   1   6  -6    4.68    0.53
  -1  -6   6    4.43    0.51
   0   6  -6    1.40    0.42
   0  -6   6    1.70    0.42
  -1   6  -6    0.06    0.35
   1  -6   6   -0.21    0.36
  -2   6  -6    0.17    0.42
   2  -6   6   -0.03    0.40
   3  -6   6    0.09    0.42
   7   5  -6    1.01    0.27
   6   5  -6    0.32    0.31
   6   5  -6    0.29    0.24
   6   5  -6    0.44    0.23
   5   5  -6    0.44    0.21
   5   5  -6    0.17    0.24
   5   5  -6    0.02    0.26
   5   5  -6    0.27    0.23
   4   5  -6    0.25    0.20
   4   5  -6    0.75    0.27
   4   5  -6    0.35    0.25
   4   5  -6    0.57    0.23
  -4  -5   6    0.33    0.17
  -4  -5   6    0.60    0.23
   3   5  -6   -0.05    0.24
   3   5  -6    0.35    0.23
   3   5  -6   -0.11    0.17
   3   5  -6   -0.19    0.21
  -3  -5   6    0.11    0.17
  -3  -5   6   -0.06    0.22
  -3  -5   6    0.06    0.18
   2   5  -6    0.27    0.21
   2   5  -6    0.40    0.23
   2   5  -6    0.43    0.21
   2   5  -6    0.11    0.24
  -2  -5   6    0.21    0.23
  -2  -5   6    0.28    0.20
   1   5  -6    0.14    0.17
   1   5  -6   -0.20    0.27
   1   5  -6    0.12    0.21
   1   5  -6   -0.19    0.19
  -1  -5   6    0.06    0.15
  -1  -5   6    0.12    0.23
  -1  -5   6    0.33    0.27
   0   5  -6    5.25    0.51
   0   5  -6    5.39    0.33
   0   5  -6    5.49    0.46
   0  -5   6    5.31    0.42
   0  -5   6    4.19    0.48
   0  -5   6    5.45    0.47
  -1   5  -6    2.57    0.44
   1  -5   6    2.91    0.45
   1  -5   6    2.91    0.36
  -2   5  -6    1.59    0.39
   2  -5   6    1.36    0.37
  -3   5  -6    4.80    0.56
   3  -5   6    2.82    0.48
   4  -5   6   -0.02    0.39
   7   4  -6   -0.06    0.20
   7   4  -6   -0.20    0.16
   7   4  -6    0.27    0.34
   6   4  -6    2.88    0.41
   6   4  -6    3.28    0.30
   6   4  -6    3.73    0.34
   6   4  -6    3.92    0.30
   5   4  -6    2.14    0.24
   5   4  -6    1.58    0.24
   5   4  -6    1.75    0.33
   5   4  -6    1.91    0.28
   4   4  -6   13.77    0.65
   4   4  -6   13.64    0.70
   4   4  -6   13.34    0.60
   4   4  -6   13.26    0.61
  -4  -4   6   13.28    0.59
  -4  -4   6   13.05    0.56
   3   4  -6   40.93    1.57
   3   4  -6   41.61    1.57
   3   4  -6   45.90    1.56
   3   4  -6   41.59    1.56
  -3  -4   6   42.60    1.54
  -3  -4   6   42.36    1.53
   2   4  -6    0.69    0.19
   2   4  -6    1.02    0.20
   2   4  -6    0.43    0.19
   2   4  -6    0.89    0.24
  -2  -4   6    1.03    0.25
  -2  -4   6    0.87    0.18
  -2  -4   6    0.95    0.18
  -2  -4   6    1.19    0.23
   1   4  -6   21.83    0.85
   1   4  -6   21.49    0.92
   1   4  -6   21.53    0.94
   1   4  -6   23.16    0.91
  -1  -4   6   22.69    0.93
  -1  -4   6   22.07    0.95
   0   4  -6   16.04    0.77
   0   4  -6   16.57    0.73
   0   4  -6   14.64    0.73
   0   4  -6   16.10    0.63
   0  -4   6   15.79    0.77
   0  -4   6   17.36    0.77
   0  -4   6   16.75    0.72
  -1   4  -6   29.95    1.25
  -1   4  -6   30.04    1.19
  -1   4  -6   30.22    1.22
   1  -4   6   34.17    1.28
   1  -4   6   29.50    1.19
   1  -4   6   29.53    1.24
  -2   4  -6    3.87    0.45
   2  -4   6    3.46    0.35
   2  -4   6    2.85    0.40
  -3   4  -6    3.31    0.45
   3  -4   6    3.36    0.37
   3  -4   6    3.02    0.45
   4  -4   6    0.82    0.30
   4  -4   6    0.42    0.34
   5  -4   6   -0.07    0.37
   7   3  -6    3.11    0.25
   7   3  -6    3.01    0.45
   6   3  -6    3.38    0.42
   6   3  -6    3.85    0.29
   6   3  -6    3.63    0.32
   6   3  -6    3.97    0.30
   5   3  -6    1.93    0.25
   5   3  -6    1.76    0.21
   5   3  -6    2.13    0.23
   4   3  -6   23.78    0.92
   4   3  -6   23.82    0.90
   4   3  -6   22.67    0.91
  -4  -3   6   23.97    0.88
  -4  -3   6   23.52    0.85
   3   3  -6    3.04    0.26
   3   3  -6    2.54    0.24
   3   3  -6    2.88    0.28
  -3  -3   6    2.78    0.22
  -3  -3   6    2.67    0.23
  -3  -3   6    3.23    0.27
   2   3  -6   12.23    0.54
   2   3  -6   12.30    0.55
   2   3  -6   11.78    0.55
   2   3  -6   12.57    0.60
  -2  -3   6   12.78    0.54
  -2  -3   6   12.27    0.54
  -2  -3   6   11.57    0.57
   1   3  -6   21.47    0.84
   1   3  -6   22.60    0.88
   1   3  -6   21.68    0.86
   1   3  -6   22.32    0.90
  -1  -3   6   23.21    0.91
  -1  -3   6   22.08    0.87
   0   3  -6    0.73    0.21
   0   3  -6    0.47    0.17
   0   3  -6    0.67    0.13
   0   3  -6    0.53    0.16
   0  -3   6    0.65    0.21
   0  -3   6    0.49    0.17
   0  -3   6    0.57    0.16
  -1   3  -6   47.80    2.02
  -1   3  -6   57.77    2.04
  -1   3  -6   60.68    2.04
   1  -3   6   58.50    2.04
   1  -3   6   58.63    2.03
   1  -3   6   60.40    2.05
  -2   3  -6    5.55    0.41
  -2   3  -6    4.67    0.44
  -2   3  -6    5.36    0.39
   2  -3   6    5.35    0.42
   2  -3   6    5.63    0.38
   2  -3   6    5.25    0.44
  -3   3  -6   15.63    0.78
   3  -3   6   13.46    0.73
   3  -3   6   14.57    0.69
  -4   3  -6    8.22    0.61
   4  -3   6    8.26    0.53
   4  -3   6    7.45    0.60
   5  -3   6    3.00    0.36
   5  -3   6    2.44    0.43
   6  -3   6    1.86    0.42
   7   2  -6    0.22    0.17
   7   2  -6    0.66    0.18
   6   2  -6    1.38    0.19
   6   2  -6    1.36    0.23
   6   2  -6    1.34    0.20
   5   2  -6    8.53    0.41
   5   2  -6    8.27    0.41
   5   2  -6    7.97    0.43
   4   2  -6    3.13    0.28
   4   2  -6    3.33    0.29
   4   2  -6    3.25    0.25
   4   2  -6    3.34    0.25
   4   2  -6    3.20    0.24
  -4  -2   6    3.08    0.18
  -4  -2   6    3.24    0.22
   3   2  -6   44.06    1.51
   3   2  -6   42.74    1.51
   3   2  -6   43.35    1.51
   3   2  -6   42.36    1.52
  -3  -2   6   43.79    1.49
  -3  -2   6   43.39    1.49
  -3  -2   6   41.37    1.48
   2   2  -6  147.93    4.90
   2   2  -6  145.81    4.91
   2   2  -6  147.33    4.81
  -2  -2   6  148.40    4.89
  -2  -2   6  146.50    4.79
  -2  -2   6  145.60    4.89
   1   2  -6   13.57    0.61
   1   2  -6   14.59    0.60
   1   2  -6   15.05    0.59
  -1  -2   6   14.57    0.61
  -1  -2   6   14.86    0.59
  -1  -2   6   13.08    0.57
   0   2  -6   80.92    2.68
   0   2  -6   82.08    2.77
   0   2  -6   80.19    2.74
   0   2  -6   78.58    2.78
   0  -2   6   81.68    2.74
   0  -2   6   81.60    2.77
   0  -2   6   83.16    2.78
  -1   2  -6   33.65    1.26
  -1   2  -6   33.36    1.24
  -1   2  -6   33.37    1.12
   1  -2   6   34.40    1.26
   1  -2   6   34.61    1.26
   1  -2   6   33.60    1.23
  -2   2  -6   48.08    1.67
  -2   2  -6   45.60    1.66
  -2   2  -6   47.69    1.66
   2  -2   6   46.48    1.66
   2  -2   6   45.15    1.67
   2  -2   6   45.38    1.67
  -3   2  -6    3.80    0.31
  -3   2  -6    4.31    0.38
   3  -2   6    3.58    0.31
   3  -2   6    3.77    0.37
   3  -2   6    4.31    0.34
  -4   2  -6   12.98    0.59
  -4   2  -6   10.15    0.60
   4  -2   6   10.74    0.63
   4  -2   6   13.26    0.62
   4  -2   6   11.57    0.57
   5  -2   6    0.01    0.22
   5  -2   6    0.41    0.29
   6  -2   6    0.89    0.34
   7   1  -6   -0.01    0.17
   6   1  -6    9.93    0.46
   6   1  -6   10.11    0.47
   6   1  -6    9.40    0.50
   5   1  -6    8.12    0.43
   5   1  -6    8.38    0.40
   5   1  -6    7.72    0.39
   4   1  -6    7.11    0.35
   4   1  -6    7.37    0.38
   4   1  -6    7.30    0.35
   4   1  -6    7.50    0.41
  -4  -1   6    6.50    0.28
   3   1  -6   20.62    0.78
   3   1  -6   22.84    0.81
   3   1  -6   19.77    0.79
   3   1  -6   20.79    0.78
  -3  -1   6   21.01    0.76
  -3  -1   6   20.24    0.77
  -3  -1   6   20.25    0.75
   2   1  -6   67.89    2.24
   2   1  -6   63.97    2.27
   2   1  -6   66.20    2.27
  -2  -1   6   67.97    2.27
  -2  -1   6   65.81    2.25
  -2  -1   6   67.74    2.23
   1   1  -6   28.09    1.03
   1   1  -6   29.19    1.03
   1   1  -6   27.92    1.03
   1   1  -6   27.83    1.02
  -1  -1   6   28.92    1.03
  -1  -1   6   28.02    1.02
  -1  -1   6   29.13    1.03
   0   1  -6   40.13    1.41
   0   1  -6   38.22    1.41
   0   1  -6   40.78    1.41
   0  -1   6   40.29    1.42
   0  -1   6   41.18    1.41
   0  -1   6   39.56    1.40
  -1   1  -6   26.88    1.05
  -1   1  -6   29.57    1.04
   1  -1   6   29.16    1.06
   1  -1   6   27.83    1.06
   1  -1   6   29.31    1.05
   1  -1   6   29.00    1.04
  -2   1  -6   35.61    1.25
  -2   1  -6   35.39    1.22
  -2   1  -6   33.75    1.23
   2  -1   6   33.35    1.24
   2  -1   6   33.11    1.23
   2  -1   6   33.16    1.25
  -3   1  -6    1.39    0.22
  -3   1  -6    1.11    0.17
  -3   1  -6    1.07    0.17
   3  -1   6    1.34    0.20
   3  -1   6    1.07    0.22
   3  -1   6    1.17    0.18
  -4   1  -6   22.11    0.87
  -4   1  -6   22.61    0.91
   4  -1   6   22.10    0.93
   4  -1   6   23.78    0.91
   4  -1   6   22.07    0.89
   5  -1   6    3.89    0.34
   5  -1   6    3.64    0.32
   5  -1   6    4.15    0.39
   6  -1   6    6.12    0.45
   6  -1   6    7.19    0.52
   7  -1   6    2.88    0.39
   7   0  -6    0.13    0.23
   6   0  -6    0.22    0.21
   6   0  -6    0.24    0.17
   6   0  -6    0.14    0.18
   5   0  -6    1.46    0.21
   5   0  -6    1.76    0.24
   5   0  -6    1.30    0.19
   4   0  -6    3.16    0.27
   4   0  -6    2.96    0.24
   4   0  -6    4.03    0.30
   4   0  -6    3.79    0.27
  -4   0   6    3.52    0.24
  -4   0   6    3.51    0.20
   3   0  -6    0.10    0.11
   3   0  -6   -0.03    0.11
   3   0  -6   -0.01    0.14
   3   0  -6   -0.01    0.13
  -3   0   6    0.29    0.11
  -3   0   6    0.02    0.12
  -3   0   6    0.31    0.11
   2   0  -6    8.67    0.39
   2   0  -6    8.57    0.38
   2   0  -6    8.59    0.40
  -2   0   6    8.61    0.37
  -2   0   6    8.00    0.41
  -2   0   6    8.90    0.38
   1   0  -6   23.61    0.86
   1   0  -6   23.10    0.87
   1   0  -6   23.80    0.87
  -1   0   6   24.01    0.86
  -1   0   6   23.87    0.87
  -1   0   6   23.78    0.87
   0   0  -6   70.77    2.45
   0   0  -6   71.75    2.41
   0   0  -6   75.52    2.45
   0   0   6   71.74    2.45
   0   0   6   71.87    2.41
  -1   0  -6    6.03    0.30
   1   0   6    6.61    0.31
   1   0   6    5.60    0.34
   1   0   6    5.96    0.30
  -2   0  -6   14.88    0.57
  -2   0  -6   14.37    0.60
  -2   0  -6   14.14    0.57
  -2   0  -6   13.93    0.50
   2   0   6   14.57    0.61
   2   0   6   14.33    0.58
   2   0   6   14.16    0.59
  -3   0  -6   73.18    2.47
  -3   0  -6   72.85    2.50
  -3   0  -6   73.58    2.49
   3   0   6   72.88    2.49
   3   0   6   74.33    2.51
   3   0   6   73.18    2.52
   3   0   6   75.12    2.52
  -4   0  -6    0.44    0.13
  -4   0  -6    0.36    0.17
   4   0   6    0.50    0.15
   4   0   6    0.39    0.09
   4   0   6    0.57    0.17
   4   0   6    0.52    0.20
   5   0   6   17.35    0.62
   5   0   6   16.24    0.69
   5   0   6   18.45    0.73
   5   0   6   14.86    0.73
   6   0   6   -0.10    0.18
   6   0   6    0.18    0.20
   6   0   6   -0.02    0.22
   7   0   6    2.09    0.33
   7  -1  -6    0.01    0.27
   6  -1  -6    1.04    0.27
   5  -1  -6    5.67    0.39
   5  -1  -6    5.48    0.40
   5  -1  -6    5.56    0.36
   4  -1  -6    0.55    0.17
   4  -1  -6    0.39    0.17
   4  -1  -6    0.82    0.21
  -4   1   6    0.64    0.14
  -4   1   6    0.81    0.19
   3  -1  -6   28.62    1.04
   3  -1  -6   27.75    1.04
   3  -1  -6   29.45    1.04
  -3   1   6   27.20    1.03
  -3   1   6   27.55    1.02
  -3   1   6   29.13    1.02
   2  -1  -6   61.99    2.09
   2  -1  -6   60.45    2.09
   2  -1  -6   59.12    2.06
  -2   1   6   59.24    2.05
  -2   1   6   62.38    2.08
  -2   1   6   61.86    2.08
   1  -1  -6   25.50    0.94
   1  -1  -6   26.28    0.94
   1  -1  -6   26.04    0.94
  -1   1   6   26.45    0.95
  -1   1   6   25.33    0.93
  -1   1   6   26.34    0.94
   0  -1  -6    7.07    0.32
   0  -1  -6    6.44    0.33
   0  -1  -6    6.61    0.31
   0   1   6    6.34    0.33
   0   1   6    6.46    0.31
  -1  -1  -6    3.92    0.23
  -1  -1  -6    3.21    0.24
   1   1   6    4.41    0.26
   1   1   6    4.04    0.23
   1   1   6    4.00    0.23
  -2  -1  -6    3.56    0.26
  -2  -1  -6    3.49    0.23
  -2  -1  -6    3.54    0.23
  -2  -1  -6    3.92    0.21
  -2  -1  -6    3.63    0.22
   2   1   6    3.62    0.22
   2   1   6    3.76    0.25
   2   1   6    3.93    0.23
  -3  -1  -6   35.58    1.22
  -3  -1  -6   35.29    1.23
  -3  -1  -6   34.38    1.22
  -3  -1  -6   34.46    1.20
   3   1   6   34.05    1.24
   3   1   6   35.24    1.24
   3   1   6   35.64    1.24
  -4  -1  -6    2.10    0.16
  -4  -1  -6    2.54    0.22
   4   1   6    2.32    0.25
   4   1   6    2.36    0.24
   4   1   6    2.74    0.22
   4   1   6    2.35    0.21
   4   1   6    2.31    0.17
   5   1   6   24.57    0.95
   5   1   6   24.35    0.93
   5   1   6   22.22    0.91
   5   1   6   25.30    0.88
   6   1   6    1.07    0.23
   6   1   6    1.09    0.20
   6   1   6    0.80    0.20
   6   1   6    1.10    0.20
   7   1   6    6.22    0.44
   7   1   6    6.38    0.43
   6  -2  -6    0.00    0.28
   5  -2  -6    0.12    0.19
   5  -2  -6    0.12    0.24
   4  -2  -6    2.65    0.26
   4  -2  -6    2.69    0.29
   4  -2  -6    2.74    0.32
  -4   2   6    2.79    0.25
   3  -2  -6    5.22    0.32
   3  -2  -6    5.08    0.38
   3  -2  -6    5.80    0.37
  -3   2   6    5.67    0.37
  -3   2   6    6.07    0.35
   2  -2  -6   12.57    0.54
   2  -2  -6   13.01    0.54
   2  -2  -6   11.76    0.55
  -2   2   6   11.99    0.52
  -2   2   6   12.66    0.54
  -2   2   6   12.68    0.58
   1  -2  -6   30.87    1.17
   1  -2  -6   32.38    1.17
   1  -2  -6   35.00    1.18
  -1   2   6   32.87    1.18
  -1   2   6   32.43    1.16
  -1   2   6   31.30    1.17
   0  -2  -6   19.45    0.73
   0  -2  -6   18.66    0.75
   0  -2  -6   19.51    0.73
   0   2   6   19.17    0.75
   0   2   6   19.45    0.73
   0   2   6   19.33    0.73
  -1  -2  -6  164.05    5.26
  -1  -2  -6  160.27    5.14
   1   2   6  155.47    5.26
   1   2   6  163.79    5.26
   1   2   6  147.96    5.14
  -2  -2  -6   67.26    2.28
  -2  -2  -6   65.22    2.25
  -2  -2  -6   68.61    2.28
  -2  -2  -6   66.53    2.25
   2   2   6   66.21    2.25
   2   2   6   68.02    2.29
   2   2   6   69.06    2.29
  -3  -2  -6    3.87    0.27
  -3  -2  -6    4.04    0.27
  -3  -2  -6    4.21    0.24
  -3  -2  -6    3.87    0.22
  -3  -2  -6    3.72    0.23
   3   2   6    3.94    0.24
   3   2   6    3.80    0.24
   3   2   6    3.92    0.23
   3   2   6    3.54    0.26
  -4  -2  -6   29.74    1.06
  -4  -2  -6   30.56    1.05
  -4  -2  -6   29.95    1.05
  -4  -2  -6   30.58    1.11
   4   2   6   29.36    1.09
   4   2   6   31.52    1.10
   4   2   6   30.58    1.10
   4   2   6   30.83    1.08
   4   2   6   30.19    1.09
  -5  -2  -6    0.20    0.10
   5   2   6    0.16    0.14
   5   2   6    0.03    0.14
   5   2   6    0.09    0.13
   5   2   6   -0.03    0.17
   6   2   6    4.67    0.33
   6   2   6    5.44    0.37
   6   2   6    5.58    0.32
   6   2   6    5.53    0.40
   7   2   6   -0.17    0.16
   7   2   6   -0.31    0.18
   7   2   6   -0.04    0.17
   8   2   6    0.02    0.19
   6  -3  -6    0.11    0.30
   5  -3  -6    0.77    0.27
   5  -3  -6    0.87    0.32
   4  -3  -6    2.22    0.34
   4  -3  -6    2.63    0.30
   3  -3  -6    1.01    0.24
   3  -3  -6    1.00    0.26
   3  -3  -6    1.56    0.23
  -3   3   6    1.25    0.27
  -3   3   6    1.34    0.23
   2  -3  -6    0.30    0.16
   2  -3  -6    0.37    0.18
   2  -3  -6    0.34    0.18
  -2   3   6    0.40    0.16
  -2   3   6    0.51    0.18
  -2   3   6    0.44    0.21
   1  -3  -6    2.03    0.21
   1  -3  -6    1.57    0.23
   1  -3  -6    2.10    0.21
  -1   3   6    1.92    0.25
  -1   3   6    1.32    0.18
  -1   3   6    1.53    0.19
   0  -3  -6   15.03    0.65
   0  -3  -6   16.58    0.64
   0  -3  -6   16.09    0.64
   0   3   6   15.01    0.64
   0   3   6   15.37    0.66
   0   3   6   15.72    0.64
  -1  -3  -6   27.76    1.01
  -1  -3  -6   26.57    1.00
   1   3   6   27.13    1.01
   1   3   6   27.23    1.00
   1   3   6   27.77    1.02
  -2  -3  -6    5.02    0.30
  -2  -3  -6    4.76    0.29
  -2  -3  -6    5.01    0.28
  -2  -3  -6    4.90    0.26
   2   3   6    4.64    0.31
   2   3   6    4.44    0.27
   2   3   6    4.73    0.28
  -3  -3  -6   15.50    0.60
  -3  -3  -6   15.34    0.65
  -3  -3  -6   15.72    0.63
  -3  -3  -6   16.20    0.61
   3   3   6   16.30    0.65
   3   3   6   15.49    0.62
   3   3   6   16.30    0.62
   3   3   6   15.24    0.62
  -4  -3  -6    7.43    0.38
  -4  -3  -6    7.54    0.33
  -4  -3  -6    7.34    0.44
   4   3   6    7.84    0.37
   4   3   6    8.83    0.42
   4   3   6    7.57    0.38
   4   3   6    7.54    0.41
   4   3   6    7.79    0.37
  -5  -3  -6   13.05    0.55
   5   3   6   16.02    0.62
   5   3   6   16.86    0.63
   5   3   6   15.49    0.65
   5   3   6   16.21    0.65
   6   3   6   12.17    0.60
   6   3   6   13.24    0.59
   6   3   6   12.69    0.54
   6   3   6   12.55    0.55
   7   3   6    0.28    0.16
   7   3   6    0.45    0.20
   7   3   6    0.18    0.23
   7   3   6    0.70    0.18
   8   3   6    4.30    0.30
   5  -4  -6    0.29    0.34
   4  -4  -6    0.08    0.24
   4  -4  -6    0.19    0.29
   3  -4  -6    1.13    0.26
   3  -4  -6    0.93    0.30
  -3   4   6    1.63    0.32
   2  -4  -6    6.10    0.49
   2  -4  -6    6.86    0.45
   2  -4  -6    7.05    0.43
  -2   4   6    7.40    0.47
  -2   4   6    7.21    0.47
   1  -4  -6    3.26    0.34
   1  -4  -6    3.92    0.30
   1  -4  -6    3.19    0.30
  -1   4   6    3.63    0.36
  -1   4   6    2.91    0.28
  -1   4   6    3.51    0.29
   0  -4  -6   13.65    0.58
   0  -4  -6   12.50    0.61
   0  -4  -6   12.92    0.59
   0   4   6   13.29    0.64
   0   4   6   13.26    0.58
   0   4   6   12.68    0.59
  -1  -4  -6   10.64    0.55
  -1  -4  -6   10.64    0.51
  -1  -4  -6   10.67    0.49
   1   4   6   11.37    0.56
   1   4   6   12.03    0.53
   1   4   6   11.51    0.53
  -2  -4  -6   24.50    0.96
  -2  -4  -6   24.75    0.95
  -2  -4  -6   25.25    0.96
   2   4   6   26.65    0.99
   2   4   6   26.78    0.97
   2   4   6   25.10    0.97
  -3  -4  -6   12.81    0.53
  -3  -4  -6   12.66    0.52
  -3  -4  -6   12.78    0.57
   3   4   6   13.05    0.55
   3   4   6   12.37    0.58
   3   4   6   12.22    0.55
  -4  -4  -6   32.89    1.18
  -4  -4  -6   33.49    1.16
   4   4   6   32.91    1.20
   4   4   6   33.40    1.21
   4   4   6   32.58    1.21
   4   4   6   32.13    1.20
  -5  -4  -6   28.20    0.99
   5   4   6   27.75    1.04
   5   4   6   26.93    1.07
   5   4   6   28.62    1.06
   5   4   6   28.75    1.04
   6   4   6    0.11    0.21
   6   4   6   -0.27    0.18
   6   4   6    0.14    0.15
   6   4   6    0.20    0.16
   7   4   6    1.68    0.21
   7   4   6    1.77    0.26
   7   4   6    1.51    0.22
   7   4   6    1.64    0.29
   8   4   6   -0.03    0.26
   8   4   6    0.25    0.17
   4  -5  -6    0.56    0.36
   4  -5  -6    0.43    0.30
   3  -5  -6    0.35    0.32
   3  -5  -6    0.27    0.25
  -3   5   6    1.16    0.34
   2  -5  -6    2.59    0.32
   2  -5  -6    2.42    0.38
  -2   5   6    2.44    0.36
   1  -5  -6    4.92    0.46
   1  -5  -6    5.86    0.41
  -1   5   6    6.25    0.41
  -1   5   6    5.12    0.45
   0  -5  -6    0.91    0.26
   0  -5  -6    1.10    0.24
   0  -5  -6    1.16    0.22
   0   5   6    0.92    0.24
   0   5   6    0.71    0.22
   0   5   6    1.23    0.27
  -1  -5  -6   32.97    1.18
  -1  -5  -6   28.83    1.17
  -1  -5  -6   30.32    1.14
   1   5   6   30.32    1.18
   1   5   6   30.21    1.16
   1   5   6   27.79    1.17
  -2  -5  -6    0.31    0.15
  -2  -5  -6    0.52    0.21
  -2  -5  -6    0.40    0.16
   2   5   6    0.34    0.16
   2   5   6    0.37    0.19
   2   5   6    0.55    0.22
  -3  -5  -6    1.04    0.22
  -3  -5  -6    0.97    0.18
  -3  -5  -6    0.70    0.17
   3   5   6    0.69    0.18
   3   5   6    0.92    0.23
   3   5   6    0.79    0.21
  -4  -5  -6    0.73    0.21
  -4  -5  -6    0.78    0.16
   4   5   6    0.75    0.24
   4   5   6    0.98    0.21
   4   5   6    1.16    0.22
   4   5   6    0.63    0.19
   5   5   6    0.97    0.24
   5   5   6    1.07    0.21
   5   5   6    0.75    0.19
   5   5   6    1.28    0.25
   6   5   6    7.81    0.43
   6   5   6    7.54    0.49
   6   5   6    7.47    0.49
   6   5   6    7.77    0.43
   7   5   6    1.28    0.32
   7   5   6    1.28    0.22
   7   5   6    1.18    0.22
   7   5   6    1.00    0.24
   8   5   6    1.15    0.34
   8   5   6    0.82    0.21
   3  -6  -6   -0.37    0.34
   2  -6  -6    0.30    0.31
  -2   6   6    0.26    0.34
   1  -6  -6    0.07    0.24
   1  -6  -6    0.09    0.29
  -1   6   6    0.11    0.30
   0  -6  -6    1.39    0.27
   0  -6  -6    0.80    0.30
   0   6   6    1.26    0.32
  -1  -6  -6    1.16    0.30
  -1  -6  -6    0.87    0.25
  -1  -6  -6    0.83    0.22
   1   6   6    0.98    0.27
   1   6   6    0.79    0.28
   1   6   6    1.11    0.25
  -2  -6  -6    5.85    0.42
  -2  -6  -6    5.74    0.48
   2   6   6    5.67    0.44
   2   6   6    4.53    0.45
   2   6   6    6.00    0.42
  -3  -6  -6   13.92    0.68
  -3  -6  -6   13.46    0.60
   3   6   6   13.41    0.63
   3   6   6   12.40    0.64
   3   6   6   12.38    0.67
  -4  -6  -6    5.93    0.37
  -4  -6  -6    6.33    0.44
   4   6   6    5.58    0.38
   4   6   6    5.39    0.40
   4   6   6    5.72    0.47
  -5  -6  -6    7.38    0.39
   5   6   6    7.29    0.53
   5   6   6    7.69    0.47
   5   6   6    7.59    0.49
   5   6   6    7.73    0.44
   6   6   6    5.59    0.42
   6   6   6    5.77    0.45
   6   6   6    5.08    0.45
   7   6   6    0.41    0.29
   7   6   6    1.20    0.29
   8   6   6    0.52    0.34
   2  -7  -6    0.53    0.42
  -2   7   6    0.39    0.41
   1  -7  -6    0.53    0.39
  -1   7   6    0.50    0.35
   0  -7  -6    0.48    0.37
   0   7   6    0.78    0.37
  -1  -7  -6    0.22    0.32
   1   7   6   -0.12    0.31
  -2  -7  -6    5.55    0.53
   2   7   6    5.33    0.52
   2   7   6    6.13    0.50
  -3  -7  -6    1.86    0.36
   3   7   6    1.64    0.37
   3   7   6    1.83    0.34
  -4  -7  -6    0.40    0.27
   4   7   6    0.46    0.28
   4   7   6    0.04    0.28
   5   7   6   -0.05    0.23
   5   7   6    0.27    0.27
   5   7   6    0.00    0.27
   6   7   6    0.37    0.29
   6   7   6    0.59    0.31
   6   7   6    0.36    0.26
   7   7   6   -0.02    0.28
   7   7   6    0.35    0.32
   8   7   6    0.18    0.29
   1  -8  -6    0.11    0.40
  -1   8   6    0.33    0.44
   0  -8  -6    1.18    0.42
   0   8   6    0.06    0.40
  -1  -8  -6    0.66    0.41
   1   8   6    0.25    0.38
  -2  -8  -6   -0.15    0.35
   2   8   6   -0.05    0.36
  -3  -8  -6    0.36    0.34
   3   8   6   -0.51    0.31
   4   8   6    0.97    0.34
   4   8   6    0.02    0.35
   5   8   6    0.51    0.36
   5   8   6    0.03    0.29
   6   8   6    0.94    0.37
   7   8   6    0.44    0.34
  -1  -9  -6    0.20    0.44
   1   9   6   -0.56    0.38
  -2  -9  -6    0.09    0.41
   2   9   6    0.66    0.44
  -3  -9  -6   -0.13    0.40
   3   9   6    0.10    0.40
   4   9   6   -0.06    0.40
   5   9   6   -0.01    0.36
   5   9   6   -0.15    0.39
   6   9   6    0.11    0.41
   4   8  -7    0.36    0.41
   4   8  -7    0.15    0.36
   3   8  -7    0.90    0.45
   2   8  -7    0.49    0.47
  -2  -8   7    0.73    0.47
   6   7  -7    0.63    0.36
   5   7  -7    0.35    0.34
   5   7  -7   -0.31    0.33
   4   7  -7    0.78    0.33
   4   7  -7    0.63    0.38
   4   7  -7    0.84    0.36
   3   7  -7    0.34    0.28
   3   7  -7   -0.66    0.30
  -3  -7   7    0.19    0.35
   2   7  -7    0.22    0.38
   2   7  -7   -0.22    0.25
  -2  -7   7    0.42    0.39
   1   7  -7    1.25    0.47
  -1  -7   7    0.51    0.39
   0   7  -7    0.33    0.46
   0  -7   7    0.45    0.46
  -1   7  -7    0.28    0.45
   1  -7   7    0.49    0.48
   7   6  -7    0.11    0.29
   6   6  -7   -0.14    0.31
   6   6  -7    0.07    0.30
   5   6  -7    0.32    0.28
   5   6  -7    0.51    0.33
   5   6  -7    0.43    0.33
   4   6  -7    5.93    0.49
   4   6  -7    5.14    0.50
   4   6  -7    5.99    0.54
   3   6  -7    0.06    0.28
   3   6  -7   -0.22    0.31
   3   6  -7   -0.18    0.23
  -3  -6   7    0.37    0.32
   2   6  -7    2.46    0.43
   2   6  -7    3.35    0.35
   2   6  -7    3.35    0.41
  -2  -6   7    3.89    0.47
   1   6  -7   -0.27    0.19
   1   6  -7    0.08    0.35
  -1  -6   7   -0.07    0.32
   0   6  -7    8.21    0.71
   0  -6   7    8.48    0.69
  -1   6  -7    0.85    0.44
   1  -6   7    0.91    0.43
  -2   6  -7    2.63    0.56
   2  -6   7    2.15    0.51
   7   5  -7    1.25    0.29
   6   5  -7    1.24    0.38
   6   5  -7    1.45    0.32
   5   5  -7    1.08    0.32
   5   5  -7    1.05    0.28
   5   5  -7    0.93    0.29
   4   5  -7    0.27    0.24
   4   5  -7    0.39    0.26
   4   5  -7   -0.09    0.25
   3   5  -7    0.02    0.23
   3   5  -7   -0.02    0.22
   3   5  -7    0.45    0.27
  -3  -5   7    0.00    0.24
   2   5  -7    2.31    0.35
   2   5  -7    3.05    0.32
   2   5  -7    2.77    0.34
  -2  -5   7    3.65    0.41
   1   5  -7    7.08    0.49
   1   5  -7    5.65    0.40
   1   5  -7    5.10    0.50
  -1  -5   7    6.22    0.53
  -1  -5   7    6.25    0.49
   0   5  -7    3.45    0.45
   0   5  -7    3.48    0.27
   0   5  -7    3.51    0.41
   0  -5   7    4.26    0.49
  -1   5  -7   -0.22    0.33
   1  -5   7   -0.33    0.29
  -2   5  -7   -0.42    0.34
   2  -5   7   -0.40    0.34
  -3   5  -7    0.48    0.41
   3  -5   7    0.22    0.38
   4  -5   7    2.08    0.50
   7   4  -7    0.84    0.25
   6   4  -7    0.48    0.20
   6   4  -7    0.40    0.30
   6   4  -7    0.39    0.21
   6   4  -7    0.38    0.25
   5   4  -7    0.85    0.22
   5   4  -7    1.07    0.30
   5   4  -7    0.87    0.23
   5   4  -7    1.06    0.27
   4   4  -7    0.10    0.20
   4   4  -7    0.17    0.18
   4   4  -7    0.18    0.23
   4   4  -7    0.21    0.24
  -4  -4   7   -0.26    0.15
  -4  -4   7    0.25    0.20
   3   4  -7    3.83    0.37
   3   4  -7    4.60    0.36
   3   4  -7    4.64    0.42
   3   4  -7    5.07    0.37
  -3  -4   7    5.00    0.41
  -3  -4   7    4.83    0.34
   2   4  -7    4.42    0.42
   2   4  -7    5.94    0.40
   2   4  -7    5.17    0.37
   2   4  -7    5.94    0.39
  -2  -4   7    5.21    0.36
  -2  -4   7    5.08    0.43
  -2  -4   7    5.65    0.39
  -2  -4   7    5.91    0.37
   1   4  -7   32.02    1.23
   1   4  -7   31.82    1.27
   1   4  -7   31.18    1.21
   1   4  -7   31.64    1.16
  -1  -4   7   30.49    1.24
  -1  -4   7   30.22    1.23
   0   4  -7    3.32    0.34
   0   4  -7    3.24    0.24
   0   4  -7    3.23    0.32
   0   4  -7    2.65    0.36
   0  -4   7    3.58    0.36
   0  -4   7    3.05    0.31
   0  -4   7    3.44    0.40
  -1   4  -7   25.87    1.05
  -1   4  -7   23.44    1.09
  -1   4  -7   24.65    1.01
   1  -4   7   24.49    1.06
   1  -4   7   24.07    1.07
   1  -4   7   22.63    0.99
  -2   4  -7    1.42    0.37
   2  -4   7    1.24    0.34
   2  -4   7    1.09    0.28
  -3   4  -7   10.07    0.72
   3  -4   7   10.05    0.62
   3  -4   7    9.91    0.68
   4  -4   7    1.83    0.35
   4  -4   7    1.36    0.41
   5  -4   7    0.85    0.41
   7   3  -7    1.99    0.41
   7   3  -7    1.52    0.27
   7   3  -7    2.19    0.24
   6   3  -7    0.40    0.19
   6   3  -7    0.19    0.22
   6   3  -7    0.23    0.17
   5   3  -7   11.77    0.58
   5   3  -7   11.57    0.55
   5   3  -7   12.18    0.57
   4   3  -7    5.14    0.38
   4   3  -7    4.34    0.33
   4   3  -7    4.24    0.32
  -4  -3   7    5.29    0.34
  -4  -3   7    4.28    0.28
   3   3  -7   32.52    1.23
   3   3  -7   32.39    1.23
   3   3  -7   33.24    1.21
  -3  -3   7   32.26    1.19
  -3  -3   7   32.84    1.21
   2   3  -7   13.29    0.65
   2   3  -7   12.28    0.59
   2   3  -7   13.68    0.62
   2   3  -7   13.70    0.61
  -2  -3   7   13.94    0.60
  -2  -3   7   13.39    0.63
  -2  -3   7   13.93    0.59
   1   3  -7    0.99    0.22
   1   3  -7    0.49    0.17
   1   3  -7    0.77    0.19
   1   3  -7    0.79    0.17
  -1  -3   7    1.07    0.24
  -1  -3   7    0.60    0.17
  -1  -3   7    0.32    0.09
  -1  -3   7    0.22    0.08
   0   3  -7   18.82    0.84
   0   3  -7   18.96    0.78
   0   3  -7   18.11    0.80
   0   3  -7   18.80    0.71
   0  -3   7   19.37    0.79
   0  -3   7   18.43    0.78
   0  -3   7   18.96    0.83
  -1   3  -7    1.29    0.22
  -1   3  -7    0.64    0.21
  -1   3  -7    1.26    0.11
  -1   3  -7    1.14    0.26
   1  -3   7    1.22    0.22
   1  -3   7    1.33    0.28
   1  -3   7    1.19    0.23
  -2   3  -7    2.70    0.29
  -2   3  -7    3.16    0.33
  -2   3  -7    2.86    0.36
   2  -3   7    3.44    0.38
   2  -3   7    3.14    0.32
   2  -3   7    2.55    0.29
  -3   3  -7    7.65    0.57
   3  -3   7    6.51    0.54
   3  -3   7    6.67    0.45
   4  -3   7    0.44    0.33
   4  -3   7    0.60    0.25
   5  -3   7    3.53    0.50
   5  -3   7    4.29    0.42
   7   2  -7    0.70    0.20
   7   2  -7    0.36    0.19
   7   2  -7    0.18    0.22
   6   2  -7    0.25    0.21
   6   2  -7   -0.03    0.17
   6   2  -7    0.03    0.17
   5   2  -7    0.44    0.17
   5   2  -7    0.60    0.21
   5   2  -7    0.24    0.17
   4   2  -7    5.36    0.34
   4   2  -7    5.83    0.39
   4   2  -7    6.14    0.34
   4   2  -7    5.81    0.34
  -4  -2   7    5.64    0.34
  -4  -2   7    5.99    0.29
   3   2  -7    2.69    0.25
   3   2  -7    2.27    0.27
   3   2  -7    2.57    0.23
   3   2  -7    2.76    0.24
  -3  -2   7    3.20    0.27
  -3  -2   7    2.59    0.21
  -3  -2   7    3.05    0.22
   2   2  -7    0.65    0.19
   2   2  -7    0.54    0.15
   2   2  -7    0.52    0.16
  -2  -2   7    0.17    0.13
  -2  -2   7    0.34    0.13
  -2  -2   7    0.24    0.16
   1   2  -7    7.85    0.45
   1   2  -7    8.24    0.41
   1   2  -7    8.67    0.41
  -1  -2   7    6.61    0.38
  -1  -2   7    8.17    0.44
  -1  -2   7    8.14    0.40
   0   2  -7   43.83    1.55
   0   2  -7   43.67    1.56
   0   2  -7   43.74    1.56
   0  -2   7   42.99    1.54
   0  -2   7   44.40    1.55
   0  -2   7   42.32    1.55
   0  -2   7   40.71    1.55
  -1   2  -7   72.42    2.44
  -1   2  -7   73.59    2.44
  -1   2  -7   61.51    2.43
  -1   2  -7   71.23    2.29
   1  -2   7   72.33    2.44
   1  -2   7   72.13    2.44
   1  -2   7   68.61    2.45
  -2   2  -7   28.82    1.18
  -2   2  -7   30.96    1.15
  -2   2  -7   30.75    1.16
   2  -2   7   29.16    1.15
   2  -2   7   31.82    1.18
   2  -2   7   30.56    1.19
  -3   2  -7    3.61    0.32
  -3   2  -7    3.50    0.36
   3  -2   7    2.65    0.30
   3  -2   7    4.05    0.39
   3  -2   7    3.21    0.31
  -4   2  -7   10.16    0.63
   4  -2   7    9.78    0.54
   4  -2   7    9.60    0.60
   5  -2   7    0.16    0.29
   5  -2   7    0.09    0.23
   6  -2   7    1.03    0.38
   7   1  -7    0.05    0.23
   6   1  -7    4.35    0.31
   6   1  -7    3.11    0.32
   6   1  -7    4.02    0.30
   5   1  -7    0.09    0.19
   5   1  -7    0.38    0.16
   5   1  -7   -0.06    0.15
   4   1  -7   13.37    0.59
   4   1  -7   12.54    0.56
   4   1  -7   13.02    0.55
   4   1  -7   14.05    0.61
  -4  -1   7   12.87    0.50
  -4  -1   7   12.87    0.54
   3   1  -7    3.51    0.29
   3   1  -7    3.99    0.27
   3   1  -7    3.41    0.25
  -3  -1   7    3.95    0.26
  -3  -1   7    3.59    0.23
  -3  -1   7    3.60    0.28
   2   1  -7   26.84    0.99
   2   1  -7   26.23    0.99
   2   1  -7   26.32    0.97
  -2  -1   7   26.23    0.97
  -2  -1   7   26.65    0.96
  -2  -1   7   25.89    0.98
   1   1  -7    4.77    0.28
   1   1  -7    4.84    0.28
   1   1  -7    4.68    0.29
   1   1  -7    4.95    0.31
  -1  -1   7    4.74    0.27
  -1  -1   7    4.57    0.28
  -1  -1   7    4.75    0.33
   0   1  -7   21.71    0.83
   0   1  -7   21.09    0.81
   0   1  -7   20.59    0.82
   0  -1   7   20.57    0.83
   0  -1   7   21.08    0.82
   0  -1   7   21.82    0.81
  -1   1  -7    0.41    0.17
  -1   1  -7    0.33    0.10
  -1   1  -7    0.22    0.12
   1  -1   7    0.31    0.17
   1  -1   7    0.29    0.14
   1  -1   7    0.14    0.12
   1  -1   7    0.37    0.13
  -2   1  -7   45.58    1.57
  -2   1  -7   43.74    1.58
  -2   1  -7   45.66    1.59
   2  -1   7   44.54    1.59
   2  -1   7   43.52    1.58
   2  -1   7   42.61    1.58
   2  -1   7   43.91    1.59
  -3   1  -7    2.59    0.24
  -3   1  -7    2.47    0.24
  -3   1  -7    2.24    0.28
   3  -1   7    2.57    0.25
   3  -1   7    2.17    0.29
   3  -1   7    2.34    0.26
  -4   1  -7   10.28    0.50
  -4   1  -7   10.04    0.54
   4  -1   7    9.97    0.59
   4  -1   7   10.68    0.53
   4  -1   7    9.82    0.51
   5  -1   7   -0.07    0.20
   5  -1   7   -0.22    0.23
   6  -1   7    6.94    0.55
   6  -1   7    8.01    0.49
   7  -1   7    0.01    0.31
   7   0  -7   -0.13    0.25
   6   0  -7    0.08    0.22
   6   0  -7    0.10    0.19
   6   0  -7   -0.09    0.18
   5   0  -7    0.35    0.18
   5   0  -7    0.46    0.21
   5   0  -7   -0.02    0.15
   4   0  -7    1.00    0.18
   4   0  -7    1.34    0.22
   4   0  -7    0.86    0.17
  -4   0   7    1.41    0.19
  -4   0   7    1.01    0.14
   3   0  -7    0.63    0.15
   3   0  -7    0.81    0.18
   3   0  -7    0.70    0.15
  -3   0   7    0.80    0.14
  -3   0   7    1.00    0.18
  -3   0   7    0.82    0.14
   2   0  -7   10.87    0.51
   2   0  -7   11.02    0.49
   2   0  -7   11.78    0.49
  -2   0   7   11.54    0.51
  -2   0   7   11.23    0.47
  -2   0   7   12.50    0.50
   1   0  -7    0.85    0.13
   1   0  -7    1.15    0.17
   1   0  -7    1.14    0.16
  -1   0   7    0.76    0.14
  -1   0   7    1.07    0.15
  -1   0   7    0.89    0.16
   0   0  -7   30.87    1.08
   0   0  -7   29.20    1.08
   0   0  -7   29.20    1.09
   0   0   7   31.38    1.09
   0   0   7   30.92    1.09
   0   0   7   27.29    1.08
  -1   0  -7   62.15    2.14
  -1   0  -7   65.21    2.16
   1   0   7   61.95    2.16
   1   0   7   63.92    2.15
   1   0   7   61.10    2.17
  -2   0  -7   94.46    3.23
  -2   0  -7   96.24    3.19
  -2   0  -7   97.19    3.11
  -2   0  -7   97.03    3.24
   2   0   7   97.78    3.26
   2   0   7   92.53    3.24
   2   0   7   95.43    3.20
  -3   0  -7   30.17    1.11
  -3   0  -7   31.08    1.14
  -3   0  -7   29.96    1.12
   3   0   7   32.22    1.15
   3   0   7   31.45    1.15
   3   0   7   30.28    1.13
   3   0   7   29.64    1.15
  -4   0  -7   34.06    1.23
  -4   0  -7   33.53    1.24
   4   0   7   33.61    1.26
   4   0   7   34.85    1.29
   4   0   7   33.64    1.26
   4   0   7   35.42    1.29
   5   0   7   10.12    0.52
   5   0   7    9.94    0.57
   5   0   7   10.72    0.56
   5   0   7   10.23    0.51
   6   0   7    1.14    0.24
   6   0   7    0.84    0.23
   6   0   7    1.09    0.28
   7   0   7    1.88    0.34
   7  -1  -7    0.57    0.29
   6  -1  -7    0.77    0.28
   5  -1  -7    0.82    0.20
   5  -1  -7    0.46    0.24
   5  -1  -7    0.83    0.23
   4  -1  -7    5.53    0.40
   4  -1  -7    5.83    0.37
   4  -1  -7    5.40    0.35
  -4   1   7    5.74    0.38
  -4   1   7    5.95    0.33
   3  -1  -7    5.75    0.34
   3  -1  -7    5.52    0.33
   3  -1  -7    5.08    0.36
  -3   1   7    5.55    0.37
  -3   1   7    5.67    0.32
   2  -1  -7   15.80    0.67
   2  -1  -7   16.91    0.66
   2  -1  -7   16.57    0.67
  -2   1   7   17.36    0.66
  -2   1   7   15.26    0.67
  -2   1   7   16.67    0.66
   1  -1  -7   65.36    2.23
   1  -1  -7   65.01    2.23
   1  -1  -7   63.96    2.19
  -1   1   7   64.70    2.20
  -1   1   7   63.40    2.22
  -1   1   7   67.77    2.23
   0  -1  -7   -0.05    0.11
   0  -1  -7    0.03    0.10
   0  -1  -7    0.06    0.10
   0   1   7    0.10    0.10
   0   1   7    0.00    0.09
   0   1   7   -0.16    0.12
  -1  -1  -7   46.01    1.60
  -1  -1  -7   46.00    1.62
   1   1   7   46.52    1.62
   1   1   7   46.93    1.63
   1   1   7   47.03    1.62
  -2  -1  -7    5.23    0.32
  -2  -1  -7    5.12    0.29
  -2  -1  -7    5.06    0.29
  -2  -1  -7    5.33    0.28
  -2  -1  -7    5.29    0.26
   2   1   7    4.86    0.29
   2   1   7    5.62    0.34
   2   1   7    4.72    0.28
  -3  -1  -7    7.07    0.38
  -3  -1  -7    7.05    0.33
  -3  -1  -7    6.78    0.32
  -3  -1  -7    6.67    0.33
   3   1   7    6.94    0.36
   3   1   7    6.41    0.35
   3   1   7    6.38    0.39
  -4  -1  -7   10.10    0.43
  -4  -1  -7   10.20    0.48
   4   1   7    9.86    0.51
   4   1   7   10.15    0.48
   4   1   7   10.00    0.47
   5   1   7   17.35    0.76
   5   1   7   16.35    0.70
   5   1   7   16.83    0.72
   5   1   7   18.22    0.65
   6   1   7    0.02    0.18
   6   1   7    0.12    0.20
   6   1   7    0.45    0.23
   7   1   7    6.82    0.47
   6  -2  -7    0.16    0.29
   5  -2  -7    0.15    0.25
   5  -2  -7    0.02    0.20
   4  -2  -7    0.34    0.21
   4  -2  -7    0.26    0.19
   4  -2  -7    0.08    0.21
  -4   2   7    0.47    0.18
   3  -2  -7    0.40    0.18
   3  -2  -7    0.52    0.21
   3  -2  -7    0.48    0.17
  -3   2   7    0.30    0.16
  -3   2   7    0.40    0.19
   2  -2  -7   -0.08    0.14
   2  -2  -7   -0.05    0.17
   2  -2  -7   -0.05    0.13
  -2   2   7    0.00    0.16
  -2   2   7    0.04    0.13
  -2   2   7    0.08    0.13
   1  -2  -7   19.92    0.78
   1  -2  -7   19.07    0.78
   1  -2  -7   20.06    0.77
  -1   2   7   19.79    0.77
  -1   2   7   20.53    0.78
  -1   2   7   19.38    0.79
   0  -2  -7    2.05    0.22
   0  -2  -7    2.19    0.20
   0  -2  -7    2.23    0.20
   0   2   7    2.23    0.20
   0   2   7    2.36    0.20
   0   2   7    2.50    0.23
  -1  -2  -7   70.05    2.37
  -1  -2  -7   68.06    2.33
   1   2   7   72.27    2.35
   1   2   7   70.49    2.38
   1   2   7   66.29    2.37
  -2  -2  -7   38.49    1.35
  -2  -2  -7   38.90    1.35
  -2  -2  -7   36.67    1.32
  -2  -2  -7   38.16    1.35
   2   2   7   39.10    1.36
   2   2   7   38.85    1.36
   2   2   7   38.00    1.35
  -3  -2  -7   83.24    2.71
  -3  -2  -7   82.06    2.70
  -3  -2  -7   80.79    2.73
  -3  -2  -7   82.07    2.74
  -3  -2  -7   82.67    2.74
   3   2   7   81.21    2.76
   3   2   7   77.67    2.71
   3   2   7   78.69    2.75
  -4  -2  -7   84.31    2.83
  -4  -2  -7   83.80    2.83
  -4  -2  -7   85.98    2.80
   4   2   7   85.64    2.80
   4   2   7   81.20    2.87
   4   2   7   82.47    2.83
   4   2   7   86.87    2.88
   5   2   7    7.48    0.40
   5   2   7    7.29    0.38
   5   2   7    6.01    0.43
   5   2   7    7.34    0.38
   6   2   7    6.47    0.41
   6   2   7    7.05    0.40
   6   2   7    7.42    0.40
   6   2   7    6.18    0.45
   7   2   7    0.56    0.21
   7   2   7    0.63    0.21
   7   2   7    0.74    0.24
   6  -3  -7    0.66    0.34
   5  -3  -7    1.80    0.36
   5  -3  -7    2.42    0.32
   4  -3  -7    0.42    0.23
   4  -3  -7    0.43    0.27
   3  -3  -7    8.40    0.48
   3  -3  -7    8.63    0.53
   3  -3  -7    8.00    0.47
  -3   3   7    7.95    0.47
  -3   3   7    8.97    0.53
   2  -3  -7   22.01    0.90
   2  -3  -7   22.09    0.89
   2  -3  -7   21.36    0.92
  -2   3   7   23.40    0.88
  -2   3   7   22.45    0.91
  -2   3   7   22.21    0.89
   1  -3  -7    0.77    0.21
   1  -3  -7    0.69    0.17
   1  -3  -7    0.93    0.18
  -1   3   7    1.21    0.22
  -1   3   7    1.16    0.19
  -1   3   7    0.81    0.17
   0  -3  -7   25.45    0.95
   0  -3  -7   24.26    0.94
   0  -3  -7   24.84    0.96
   0   3   7   22.57    0.96
   0   3   7   25.49    0.95
   0   3   7   26.12    0.95
  -1  -3  -7   21.30    0.82
  -1  -3  -7   21.03    0.80
  -1  -3  -7   20.50    0.79
   1   3   7   20.55    0.82
   1   3   7   20.90    0.80
   1   3   7   18.50    0.79
  -2  -3  -7    5.14    0.29
  -2  -3  -7    5.42    0.35
  -2  -3  -7    5.32    0.30
  -2  -3  -7    4.96    0.31
   2   3   7    5.05    0.35
   2   3   7    5.28    0.30
   2   3   7    5.16    0.31
  -3  -3  -7    0.06    0.10
  -3  -3  -7   -0.18    0.13
  -3  -3  -7    0.10    0.14
  -3  -3  -7   -0.02    0.11
   3   3   7    0.11    0.15
   3   3   7   -0.05    0.11
   3   3   7    0.13    0.13
  -4  -3  -7    4.28    0.31
  -4  -3  -7    5.12    0.36
  -4  -3  -7    4.50    0.26
   4   3   7    4.94    0.31
   4   3   7    4.60    0.34
   4   3   7    5.13    0.31
   4   3   7    4.96    0.30
  -5  -3  -7    6.00    0.33
   5   3   7    5.75    0.34
   5   3   7    5.64    0.34
   5   3   7    5.75    0.36
   5   3   7    6.07    0.41
   6   3   7    1.28    0.21
   6   3   7    1.33    0.20
   6   3   7    1.67    0.25
   6   3   7    1.35    0.26
   7   3   7    0.82    0.24
   7   3   7    0.82    0.20
   7   3   7    1.49    0.27
   7   3   7    1.27    0.23
   8   3   7    2.85    0.29
   5  -4  -7    0.05    0.32
   4  -4  -7    0.15    0.30
   4  -4  -7    0.05    0.24
   3  -4  -7    0.43    0.24
   3  -4  -7    0.26    0.27
  -3   4   7    0.15    0.28
   2  -4  -7    1.98    0.27
   2  -4  -7    1.83    0.31
  -2   4   7    2.25    0.30
  -2   4   7    1.96    0.32
   1  -4  -7    0.51    0.20
   1  -4  -7    0.84    0.25
   1  -4  -7    0.51    0.19
  -1   4   7    0.55    0.17
  -1   4   7    0.50    0.22
  -1   4   7    0.68    0.20
   0  -4  -7    0.06    0.15
   0  -4  -7    0.09    0.19
   0  -4  -7    0.12    0.17
   0   4   7    0.28    0.21
   0   4   7    0.28    0.17
   0   4   7    0.20    0.18
  -1  -4  -7   20.18    0.87
  -1  -4  -7   21.92    0.87
  -1  -4  -7   21.92    0.85
   1   4   7   22.47    0.86
   1   4   7   22.39    0.88
   1   4   7   20.81    0.89
  -2  -4  -7   21.32    0.83
  -2  -4  -7   21.95    0.85
  -2  -4  -7   23.00    0.88
   2   4   7   21.01    0.86
   2   4   7   20.34    0.88
   2   4   7   22.48    0.86
  -3  -4  -7    1.73    0.19
  -3  -4  -7    1.69    0.19
  -3  -4  -7    1.68    0.22
   3   4   7    1.61    0.25
   3   4   7    1.47    0.20
   3   4   7    1.56    0.19
  -4  -4  -7    6.62    0.41
  -4  -4  -7    7.46    0.36
   4   4   7    7.26    0.40
   4   4   7    7.35    0.39
   4   4   7    6.68    0.37
   4   4   7    7.24    0.44
   5   4   7    4.12    0.30
   5   4   7    4.43    0.35
   5   4   7    4.19    0.34
   5   4   7    4.29    0.31
   6   4   7    3.30    0.34
   6   4   7    3.91    0.29
   6   4   7    3.87    0.30
   6   4   7    3.98    0.35
   7   4   7    3.67    0.31
   7   4   7    3.75    0.35
   7   4   7    4.50    0.40
   7   4   7    3.31    0.29
   8   4   7    0.66    0.22
   4  -5  -7    0.09    0.29
   4  -5  -7   -0.13    0.34
   3  -5  -7   -0.05    0.26
   3  -5  -7   -0.02    0.30
   2  -5  -7    3.73    0.45
   2  -5  -7    3.40    0.36
  -2   5   7    4.45    0.44
   1  -5  -7    2.06    0.35
   1  -5  -7    1.73    0.27
  -1   5   7    2.25    0.29
  -1   5   7    1.86    0.34
   0  -5  -7    5.95    0.42
   0  -5  -7    5.45    0.46
   0  -5  -7    5.93    0.40
   0   5   7    5.62    0.39
   0   5   7    6.11    0.43
   0   5   7    4.80    0.44
  -1  -5  -7   10.90    0.60
  -1  -5  -7   10.50    0.54
  -1  -5  -7   11.73    0.57
   1   5   7   10.93    0.57
   1   5   7   11.21    0.63
   1   5   7   11.72    0.57
  -2  -5  -7    0.25    0.17
  -2  -5  -7    0.13    0.14
  -2  -5  -7    0.04    0.20
   2   5   7    0.50    0.23
   2   5   7    0.49    0.21
   2   5   7    0.33    0.18
  -3  -5  -7    2.26    0.22
  -3  -5  -7    1.82    0.26
  -3  -5  -7    2.00    0.22
   3   5   7    2.11    0.26
   3   5   7    2.21    0.25
   3   5   7    2.12    0.28
  -4  -5  -7    8.75    0.51
  -4  -5  -7    8.88    0.43
   4   5   7    8.87    0.48
   4   5   7    9.49    0.48
   4   5   7    9.15    0.53
  -5  -5  -7    0.02    0.13
   5   5   7    0.06    0.21
   5   5   7    0.07    0.21
   5   5   7    0.01    0.17
   5   5   7   -0.15    0.18
   6   5   7    0.48    0.20
   6   5   7    0.82    0.25
   6   5   7    0.75    0.26
   6   5   7    0.63    0.20
   7   5   7   -0.14    0.25
   7   5   7   -0.06    0.20
   7   5   7    0.16    0.20
   7   5   7   -0.04    0.23
   8   5   7    0.42    0.31
   3  -6  -7   -0.31    0.31
   2  -6  -7    0.38    0.34
  -2   6   7    0.89    0.38
   1  -6  -7    1.73    0.37
  -1   6   7    1.60    0.39
   0  -6  -7    0.33    0.23
   0  -6  -7   -0.38    0.27
   0   6   7   -0.15    0.27
  -1  -6  -7    0.68    0.23
  -1  -6  -7    0.55    0.28
  -1  -6  -7    0.73    0.25
   1   6   7    0.99    0.30
   1   6   7    1.61    0.31
  -2  -6  -7    9.73    0.55
  -2  -6  -7    9.92    0.61
   2   6   7    9.00    0.60
   2   6   7    8.08    0.53
  -3  -6  -7    0.84    0.27
  -3  -6  -7    0.47    0.19
   3   6   7    0.50    0.24
   3   6   7    0.95    0.26
   3   6   7    0.75    0.21
  -4  -6  -7   13.02    0.69
   4   6   7   13.49    0.70
   4   6   7   13.12    0.66
   5   6   7    5.80    0.48
   5   6   7    6.18    0.47
   5   6   7    6.47    0.45
   6   6   7   -0.16    0.25
   6   6   7    0.17    0.23
   6   6   7   -0.07    0.26
   7   6   7    0.74    0.29
   7   6   7    1.07    0.31
   8   6   7    0.73    0.34
   8   6   7    0.60    0.28
   2  -7  -7    1.15    0.44
  -2   7   7    0.08    0.40
   1  -7  -7    1.58    0.46
  -1   7   7    1.73    0.44
   0  -7  -7   -0.04    0.31
   0   7   7    0.27    0.31
  -1  -7  -7    3.40    0.46
   1   7   7    2.53    0.41
  -2  -7  -7    5.23    0.52
   2   7   7    3.89    0.44
   2   7   7    4.45    0.50
  -3  -7  -7   -0.11    0.28
   3   7   7   -0.26    0.25
   3   7   7   -0.14    0.29
  -4  -7  -7   -0.03    0.27
   4   7   7    0.19    0.29
   4   7   7    0.32    0.27
   5   7   7    0.35    0.27
   5   7   7   -0.03    0.28
   6   7   7   -0.16    0.29
   6   7   7    0.02    0.28
   6   7   7    0.10    0.26
   7   7   7    0.31    0.30
   7   7   7   -0.24    0.29
   8   7   7   -0.10    0.30
   0  -8  -7    0.24    0.41
   0   8   7    0.01    0.38
  -1  -8  -7    0.05    0.40
   1   8   7    0.34    0.38
  -2  -8  -7    0.20    0.37
   2   8   7   -0.01    0.32
  -3  -8  -7    5.49    0.56
   3   8   7    3.74    0.49
   4   8   7    2.18    0.44
   4   8   7    1.81    0.39
   5   8   7    0.36    0.33
   5   8   7   -0.26    0.33
   6   8   7    0.66    0.36
   7   8   7   -0.34    0.33
  -2  -9  -7    0.71    0.45
   2   9   7    0.66    0.41
  -3  -9  -7    0.38    0.41
   3   9   7    0.94    0.44
   4   9   7    1.19    0.45
   5   9   7    0.51    0.40
   6   9   7    0.41    0.40
   6   7  -8    0.04    0.36
   5   7  -8    2.10    0.45
   4   7  -8    0.25    0.38
   4   7  -8    0.15    0.33
   4   7  -8    0.72    0.36
   3   7  -8   -0.21    0.29
   3   7  -8   -0.07    0.33
   2   7  -8    1.31    0.47
  -2  -7   8    1.47    0.44
   1   7  -8   -0.26    0.39
  -1  -7   8    0.49    0.44
   0   7  -8   -0.48    0.40
   0  -7   8   -0.08    0.40
   6   6  -8    0.16    0.33
   5   6  -8    0.19    0.32
   5   6  -8    1.02    0.33
   5   6  -8    0.68    0.33
   4   6  -8    0.01    0.30
   4   6  -8    0.10    0.31
   4   6  -8    0.15    0.31
   3   6  -8    1.69    0.40
   3   6  -8    0.79    0.29
   3   6  -8    1.46    0.34
  -3  -6   8    1.54    0.38
   2   6  -8    1.70    0.31
   2   6  -8    1.71    0.40
   2   6  -8    1.75    0.36
   1   6  -8    0.58    0.40
  -1  -6   8    0.73    0.36
   0   6  -8    4.47    0.57
   0  -6   8    3.48    0.54
  -1   6  -8    0.61    0.41
   1  -6   8    0.56    0.39
  -2   6  -8    1.64    0.54
   2  -6   8    1.60    0.48
   7   5  -8    0.36    0.29
   6   5  -8    0.60    0.37
   6   5  -8    0.11    0.29
   5   5  -8    0.17    0.28
   5   5  -8    0.27    0.26
   5   5  -8   -0.08    0.29
   4   5  -8   13.74    0.75
   4   5  -8   13.28    0.71
   4   5  -8   13.51    0.74
   3   5  -8   -0.12    0.28
   3   5  -8    0.20    0.24
   3   5  -8   -0.02    0.24
  -3  -5   8    0.29    0.28
   2   5  -8    0.89    0.25
   2   5  -8    0.84    0.28
   2   5  -8    0.69    0.29
  -2  -5   8    0.92    0.32
   1   5  -8    2.42    0.27
   1   5  -8    3.25    0.39
   1   5  -8    2.28    0.38
  -1  -5   8    1.72    0.34
  -1  -5   8    2.09    0.38
   0   5  -8    0.43    0.34
   0   5  -8    0.03    0.17
   0  -5   8    0.05    0.32
  -1   5  -8    0.22    0.37
   1  -5   8   -0.40    0.31
  -2   5  -8    2.07    0.47
   2  -5   8    2.17    0.45
  -3   5  -8   -0.11    0.40
   3  -5   8   -0.15    0.35
   7   4  -8    0.80    0.28
   6   4  -8    0.32    0.27
   6   4  -8    0.30    0.31
   6   4  -8    0.03    0.22
   5   4  -8    0.14    0.21
   5   4  -8    0.40    0.27
   5   4  -8   -0.15    0.26
   4   4  -8    2.16    0.34
   4   4  -8    2.48    0.29
   4   4  -8    2.38    0.31
   4   4  -8    2.40    0.34
  -4  -4   8    2.59    0.26
   3   4  -8    1.37    0.27
   3   4  -8    1.12    0.29
   3   4  -8    1.43    0.25
   3   4  -8    1.19    0.26
  -3  -4   8    0.94    0.21
  -3  -4   8    1.45    0.28
   2   4  -8   -0.18    0.20
   2   4  -8    0.08    0.18
   2   4  -8    0.53    0.25
   2   4  -8    0.25    0.19
  -2  -4   8    0.16    0.18
  -2  -4   8    0.35    0.25
   1   4  -8    0.34    0.25
   1   4  -8    0.08    0.19
   1   4  -8    0.08    0.21
   1   4  -8    0.24    0.18
  -1  -4   8    0.02    0.05
  -1  -4   8    0.19    0.26
  -1  -4   8    0.34    0.21
  -1  -4   8    0.03    0.05
   0   4  -8   28.09    1.04
   0   4  -8   29.79    1.16
   0   4  -8   28.51    1.18
   0   4  -8   28.49    1.21
   0  -4   8   28.87    1.22
   0  -4   8   28.87    1.20
   0  -4   8   28.12    1.14
  -1   4  -8    6.23    0.56
  -1   4  -8    6.52    0.48
   1  -4   8    6.67    0.46
   1  -4   8    7.32    0.59
  -2   4  -8   13.79    0.81
   2  -4   8   11.16    0.72
   2  -4   8   10.76    0.63
  -3   4  -8    8.99    0.71
   3  -4   8   10.31    0.64
   3  -4   8    9.08    0.72
   4  -4   8    0.91    0.42
   7   3  -8    0.14    0.25
   6   3  -8    3.49    0.36
   6   3  -8    3.43    0.31
   6   3  -8    3.44    0.32
   5   3  -8    0.64    0.21
   5   3  -8    1.06    0.22
   5   3  -8    1.44    0.27
   4   3  -8    2.95    0.34
   4   3  -8    3.17    0.29
   4   3  -8    3.25    0.30
  -4  -3   8    3.10    0.25
  -4  -3   8    3.64    0.31
   3   3  -8   43.30    1.53
   3   3  -8   39.98    1.53
   3   3  -8   41.84    1.55
  -3  -3   8   42.20    1.50
  -3  -3   8   41.07    1.52
   2   3  -8    0.13    0.19
   2   3  -8    0.07    0.16
   2   3  -8    0.22    0.19
  -2  -3   8    0.41    0.22
  -2  -3   8    0.29    0.17
  -2  -3   8   -0.14    0.14
   1   3  -8   40.29    1.48
   1   3  -8   38.65    1.51
   1   3  -8   39.99    1.44
   1   3  -8   40.00    1.50
  -1  -3   8   41.30    1.49
  -1  -3   8   40.67    1.51
   0   3  -8    7.53    0.45
   0   3  -8    8.14    0.38
   0   3  -8    8.29    0.47
   0   3  -8    7.87    0.51
   0  -3   8    7.28    0.44
   0  -3   8    7.68    0.46
   0  -3   8    7.98    0.54
   0  -3   8    7.52    0.44
  -1   3  -8    4.81    0.44
  -1   3  -8    5.24    0.39
  -1   3  -8    4.75    0.23
  -1   3  -8    4.16    0.37
   1  -3   8    5.26    0.38
   1  -3   8    3.99    0.43
   1  -3   8    5.11    0.40
  -2   3  -8   12.75    0.72
  -2   3  -8   12.48    0.65
  -2   3  -8   14.18    0.66
   2  -3   8   11.86    0.63
   2  -3   8   12.00    0.72
  -3   3  -8    1.70    0.37
   3  -3   8    2.30    0.32
   3  -3   8    1.67    0.36
   4  -3   8   -0.10    0.26
   4  -3   8   -0.04    0.31
   5  -3   8    4.37    0.55
   5  -3   8    5.54    0.49
   7   2  -8    0.12    0.24
   6   2  -8    0.64    0.21
   6   2  -8    0.81    0.22
   6   2  -8    0.82    0.25
   6   2  -8    0.61    0.20
   5   2  -8    1.44    0.23
   5   2  -8    1.40    0.23
   5   2  -8    1.63    0.27
   5   2  -8    1.62    0.24
   4   2  -8    4.12    0.36
   4   2  -8    3.94    0.32
   4   2  -8    4.08    0.31
   4   2  -8    3.69    0.30
  -4  -2   8    4.12    0.26
  -4  -2   8    4.47    0.32
   3   2  -8    0.66    0.17
   3   2  -8    0.62    0.17
   3   2  -8    0.31    0.17
   3   2  -8    0.35    0.21
  -3  -2   8    0.73    0.20
  -3  -2   8    0.62    0.15
   2   2  -8    1.57    0.22
   2   2  -8    1.33    0.24
   2   2  -8    1.24    0.19
  -2  -2   8    1.56    0.19
  -2  -2   8    1.73    0.25
  -2  -2   8    1.32    0.19
   1   2  -8   20.88    0.86
   1   2  -8   22.24    0.85
   1   2  -8   21.03    0.89
  -1  -2   8   21.51    0.86
  -1  -2   8   21.49    0.87
   0   2  -8    1.95    0.24
   0   2  -8    2.08    0.23
   0   2  -8    2.10    0.28
   0  -2   8    1.73    0.22
   0  -2   8    1.94    0.27
   0  -2   8    2.01    0.23
  -1   2  -8   57.90    1.94
  -1   2  -8   58.53    2.10
  -1   2  -8   59.77    2.08
  -1   2  -8   56.66    2.08
   1  -2   8   59.74    2.09
   1  -2   8   61.46    2.10
   1  -2   8   58.56    2.10
   1  -2   8   58.06    2.09
  -2   2  -8   24.60    1.01
  -2   2  -8   26.14    1.00
  -2   2  -8   24.31    1.03
   2  -2   8   26.22    1.03
   2  -2   8   25.04    1.06
   2  -2   8   24.61    1.00
  -3   2  -8   24.76    0.97
  -3   2  -8   24.38    1.02
   3  -2   8   24.72    1.00
   3  -2   8   22.36    0.96
   3  -2   8   20.88    1.01
  -4   2  -8   11.65    0.69
   4  -2   8   12.24    0.70
   4  -2   8   12.23    0.63
   5  -2   8    5.47    0.53
   5  -2   8    4.79    0.44
   6  -2   8    3.25    0.49
   7   1  -8    0.31    0.26
   6   1  -8    0.10    0.20
   6   1  -8    0.17    0.19
   6   1  -8   -0.13    0.22
   5   1  -8    7.98    0.47
   5   1  -8    8.32    0.44
   5   1  -8    7.44    0.42
   4   1  -8    0.94    0.23
   4   1  -8    1.19    0.20
   4   1  -8    1.24    0.21
  -4  -1   8    1.57    0.21
  -4  -1   8    1.40    0.17
   3   1  -8   25.10    0.99
   3   1  -8   24.74    0.97
   3   1  -8   24.76    0.97
  -3  -1   8   26.64    0.94
  -3  -1   8   26.43    0.98
   2   1  -8   15.43    0.68
   2   1  -8   16.04    0.66
   2   1  -8   15.84    0.66
  -2  -1   8   16.00    0.65
  -2  -1   8   15.66    0.63
  -2  -1   8   15.24    0.66
   1   1  -8    0.80    0.16
   1   1  -8    0.34    0.13
   1   1  -8    0.37    0.15
   1   1  -8    0.68    0.18
  -1  -1   8    0.42    0.14
  -1  -1   8    0.37    0.14
  -1  -1   8    0.52    0.18
   0   1  -8   28.14    1.08
   0   1  -8   29.15    1.06
   0   1  -8   27.75    1.07
   0  -1   8   29.08    1.08
   0  -1   8   27.88    1.06
   0  -1   8   29.13    1.09
  -1   1  -8    0.90    0.22
  -1   1  -8    1.08    0.18
  -1   1  -8    1.29    0.19
   1  -1   8    0.92    0.18
   1  -1   8    0.93    0.22
   1  -1   8    0.91    0.18
  -2   1  -8    5.72    0.42
  -2   1  -8    5.04    0.34
  -2   1  -8    5.32    0.35
   2  -1   8    5.08    0.34
   2  -1   8    5.06    0.41
   2  -1   8    4.98    0.35
   2  -1   8    4.78    0.34
  -3   1  -8    0.18    0.20
  -3   1  -8   -0.12    0.15
   3  -1   8    0.00    0.17
   3  -1   8    0.22    0.22
   3  -1   8    0.06    0.17
   3  -1   8    0.07    0.16
  -4   1  -8   17.84    0.74
  -4   1  -8   17.78    0.78
   4  -1   8   15.50    0.80
   4  -1   8   16.50    0.75
   4  -1   8   17.72    0.77
   5  -1   8    3.25    0.34
   5  -1   8    3.26    0.40
   6  -1   8    3.32    0.44
   7  -1   8    0.65    0.36
   7   0  -8    0.16    0.27
   6   0  -8    1.95    0.31
   5   0  -8   -0.17    0.18
   5   0  -8   -0.11    0.21
   5   0  -8   -0.43    0.17
   4   0  -8    0.12    0.16
   4   0  -8    0.43    0.18
   4   0  -8    0.74    0.22
  -4   0   8    0.31    0.17
  -4   0   8    0.59    0.15
   3   0  -8    8.34    0.43
   3   0  -8    9.03    0.44
   3   0  -8    8.50    0.48
  -3   0   8    9.23    0.48
  -3   0   8    9.05    0.42
   2   0  -8    3.60    0.26
   2   0  -8    3.75    0.30
   2   0  -8    3.79    0.26
  -2   0   8    4.26    0.32
  -2   0   8    3.79    0.26
  -2   0   8    3.98    0.28
   1   0  -8   28.45    1.06
   1   0  -8   28.40    1.07
   1   0  -8   28.42    1.05
  -1   0   8   29.72    1.07
  -1   0   8   28.05    1.07
  -1   0   8   28.13    1.05
   0   0  -8   56.13    1.93
   0   0  -8   54.58    1.91
   0   0  -8   55.85    1.93
   0   0   8   55.82    1.92
   0   0   8   54.55    1.93
   0   0   8   54.67    1.93
  -1   0  -8    2.69    0.23
  -1   0  -8    3.08    0.28
  -1   0  -8    2.54    0.23
  -1   0  -8    2.90    0.24
   1   0   8    3.52    0.25
   1   0   8    3.20    0.28
   1   0   8    3.46    0.25
  -2   0  -8   14.32    0.61
  -2   0  -8   14.53    0.60
  -2   0  -8   14.85    0.66
  -2   0  -8   14.50    0.53
   2   0   8   14.94    0.62
   2   0   8   14.51    0.63
   2   0   8   14.81    0.65
  -3   0  -8    4.20    0.29
  -3   0  -8    4.11    0.30
  -3   0  -8    3.91    0.34
   3   0   8    3.71    0.29
   3   0   8    3.44    0.33
   3   0   8    4.14    0.31
  -4   0  -8   14.95    0.67
  -4   0  -8   14.51    0.63
   4   0   8   15.26    0.67
   4   0   8   14.47    0.71
   4   0   8   14.88    0.68
   5   0   8    9.76    0.53
   5   0   8    7.79    0.52
   5   0   8    8.81    0.50
   5   0   8    8.58    0.48
   6   0   8    6.10    0.45
   6   0   8    5.68    0.49
   7   0   8    1.69    0.36
   6  -1  -8   -0.04    0.26
   5  -1  -8    0.03    0.20
   5  -1  -8   -0.14    0.23
   4  -1  -8    6.82    0.40
   4  -1  -8    6.80    0.46
   4  -1  -8    7.03    0.43
  -4   1   8    6.47    0.37
   3  -1  -8    0.89    0.22
   3  -1  -8    1.58    0.21
   3  -1  -8    1.40    0.21
  -3   1   8    1.85    0.21
  -3   1   8    1.35    0.23
   2  -1  -8   42.50    1.49
   2  -1  -8   40.57    1.48
   2  -1  -8   40.35    1.49
  -2   1   8   42.56    1.48
  -2   1   8   41.74    1.49
  -2   1   8   41.67    1.48
   1  -1  -8    3.37    0.25
   1  -1  -8    3.66    0.26
   1  -1  -8    3.71    0.30
  -1   1   8    3.75    0.27
  -1   1   8    3.80    0.31
  -1   1   8    3.45    0.26
   0  -1  -8   15.01    0.64
   0  -1  -8   15.30    0.62
   0  -1  -8   15.06    0.62
   0   1   8   14.91    0.62
   0   1   8   16.00    0.65
   0   1   8   15.19    0.62
  -1  -1  -8    0.30    0.15
  -1  -1  -8    0.34    0.11
  -1  -1  -8    0.33    0.12
   1   1   8    0.10    0.12
   1   1   8    0.34    0.16
   1   1   8    0.43    0.13
  -2  -1  -8    3.63    0.26
  -2  -1  -8    3.22    0.21
  -2  -1  -8    3.48    0.29
  -2  -1  -8    3.46    0.25
  -2  -1  -8    3.20    0.24
   2   1   8    3.28    0.28
   2   1   8    3.96    0.28
   2   1   8    3.49    0.26
  -3  -1  -8   35.97    1.25
  -3  -1  -8   36.11    1.32
  -3  -1  -8   36.71    1.31
  -3  -1  -8   36.89    1.30
   3   1   8   37.96    1.34
   3   1   8   36.03    1.34
   3   1   8   35.69    1.32
  -4  -1  -8    2.80    0.22
  -4  -1  -8    2.66    0.28
   4   1   8    2.37    0.25
   4   1   8    2.48    0.30
   4   1   8    2.52    0.26
   5   1   8    0.10    0.17
   5   1   8    0.19    0.20
   5   1   8    0.22    0.23
   6   1   8    0.08    0.23
   6   1   8    0.09    0.19
   6   1   8    0.46    0.22
   7   1   8    1.06    0.31
   6  -2  -8   -0.35    0.29
   5  -2  -8    1.70    0.33
   5  -2  -8    2.00    0.29
   4  -2  -8    3.32    0.36
   4  -2  -8    3.24    0.31
  -4   2   8    3.23    0.29
   3  -2  -8   -0.07    0.17
   3  -2  -8    0.05    0.17
   3  -2  -8    0.08    0.21
  -3   2   8    0.16    0.19
  -3   2   8    0.32    0.18
   2  -2  -8    1.53    0.22
   2  -2  -8    1.46    0.21
   2  -2  -8    1.89    0.26
  -2   2   8    1.80    0.26
  -2   2   8    1.76    0.21
  -2   2   8    1.71    0.21
   1  -2  -8    4.55    0.31
   1  -2  -8    4.45    0.30
   1  -2  -8    4.94    0.35
  -1   2   8    4.84    0.36
  -1   2   8    4.69    0.31
  -1   2   8    4.22    0.30
   0  -2  -8    0.02    0.12
   0  -2  -8    0.02    0.15
   0  -2  -8   -0.09    0.11
   0   2   8   -0.02    0.12
   0   2   8   -0.13    0.11
   0   2   8    0.06    0.15
  -1  -2  -8   36.41    1.29
  -1  -2  -8   35.51    1.29
  -1  -2  -8   36.14    1.29
   1   2   8   35.16    1.29
   1   2   8   36.09    1.29
   1   2   8   35.40    1.29
  -2  -2  -8   18.04    0.70
  -2  -2  -8   17.58    0.68
  -2  -2  -8   17.06    0.72
  -2  -2  -8   17.35    0.69
   2   2   8   17.37    0.73
   2   2   8   16.91    0.70
   2   2   8   18.26    0.70
  -3  -2  -8   39.55    1.39
  -3  -2  -8   38.79    1.39
  -3  -2  -8   39.11    1.38
  -3  -2  -8   38.45    1.37
  -3  -2  -8   38.65    1.38
   3   2   8   39.42    1.41
   3   2   8   38.71    1.40
   3   2   8   38.92    1.40
  -4  -2  -8   16.92    0.66
  -4  -2  -8   15.90    0.70
  -4  -2  -8   16.92    0.69
   4   2   8   17.26    0.70
   4   2   8   17.60    0.71
   4   2   8   16.79    0.75
   5   2   8    8.95    0.47
   5   2   8    8.40    0.53
   5   2   8    9.16    0.47
   6   2   8    1.82    0.30
   6   2   8    2.02    0.26
   6   2   8    2.49    0.25
   6   2   8    1.97    0.26
   7   2   8    5.26    0.43
   5  -3  -8   -0.14    0.28
   4  -3  -8    0.51    0.23
   4  -3  -8    0.45    0.28
   3  -3  -8   11.08    0.64
   3  -3  -8   12.37    0.59
  -3   3   8   11.59    0.63
   2  -3  -8    1.12    0.22
   2  -3  -8    1.07    0.26
   2  -3  -8    1.19    0.22
  -2   3   8    0.93    0.24
  -2   3   8    1.51    0.24
   1  -3  -8   20.11    0.83
   1  -3  -8   19.94    0.86
   1  -3  -8   21.25    0.84
  -1   3   8   20.83    0.82
  -1   3   8   19.95    0.83
  -1   3   8   20.77    0.87
   0  -3  -8   21.14    0.84
   0  -3  -8   22.92    0.86
   0  -3  -8   20.36    0.86
   0   3   8   19.84    0.84
   0   3   8   21.23    0.87
   0   3   8   22.26    0.85
  -1  -3  -8   23.41    0.90
  -1  -3  -8   23.12    0.93
  -1  -3  -8   24.56    0.91
   1   3   8   23.73    0.95
   1   3   8   23.64    0.91
   1   3   8   23.12    0.91
  -2  -3  -8   14.40    0.61
  -2  -3  -8   14.13    0.63
  -2  -3  -8   14.06    0.59
  -2  -3  -8   13.68    0.59
   2   3   8   13.09    0.59
   2   3   8   15.50    0.61
   2   3   8   13.89    0.64
  -3  -3  -8    3.03    0.27
  -3  -3  -8    2.20    0.21
  -3  -3  -8    2.05    0.25
  -3  -3  -8    2.00    0.20
   3   3   8    2.46    0.22
   3   3   8    2.38    0.23
   3   3   8    1.79    0.24
  -4  -3  -8    1.42    0.23
  -4  -3  -8    2.10    0.19
  -4  -3  -8    1.90    0.24
   4   3   8    1.98    0.22
   4   3   8    1.80    0.26
   4   3   8    2.10    0.23
  -5  -3  -8    3.06    0.21
   5   3   8    2.69    0.26
   5   3   8    2.69    0.26
   5   3   8    2.68    0.26
   5   3   8    2.91    0.32
   6   3   8    2.14    0.25
   6   3   8    3.09    0.29
   6   3   8    2.45    0.32
   6   3   8    3.02    0.29
   7   3   8    0.23    0.20
   7   3   8    0.15    0.20
   7   3   8    0.19    0.25
   5  -4  -8   -0.44    0.31
   4  -4  -8   -0.08    0.29
   4  -4  -8   -0.20    0.25
   3  -4  -8    1.61    0.35
   3  -4  -8    1.20    0.28
  -3   4   8    1.42    0.34
   2  -4  -8    0.15    0.26
   2  -4  -8    0.22    0.20
  -2   4   8    0.28    0.26
   1  -4  -8   -0.07    0.18
   1  -4  -8   -0.09    0.17
   1  -4  -8    0.14    0.21
  -1   4   8    0.11    0.16
  -1   4   8   -0.06    0.21
  -1   4   8    0.05    0.18
   0  -4  -8    0.07    0.17
   0  -4  -8   -0.19    0.19
   0  -4  -8   -0.21    0.16
   0   4   8    0.19    0.18
   0   4   8    0.05    0.21
   0   4   8    0.33    0.19
  -1  -4  -8    2.55    0.30
  -1  -4  -8    2.45    0.24
  -1  -4  -8    3.03    0.28
   1   4   8    2.90    0.26
   1   4   8    2.52    0.27
   1   4   8    2.21    0.31
  -2  -4  -8    3.76    0.28
  -2  -4  -8    3.86    0.29
  -2  -4  -8    3.90    0.34
   2   4   8    3.25    0.33
   2   4   8    3.93    0.30
   2   4   8    3.69    0.31
  -3  -4  -8    9.32    0.50
  -3  -4  -8    9.18    0.44
  -3  -4  -8    9.61    0.46
   3   4   8    8.76    0.46
   3   4   8    9.89    0.48
   3   4   8    8.45    0.51
  -4  -4  -8   21.04    0.86
  -4  -4  -8   21.89    0.82
   4   4   8   21.56    0.86
   4   4   8   21.13    0.89
   4   4   8   22.26    0.86
  -5  -4  -8   21.04    0.77
   5   4   8   20.65    0.83
   5   4   8   20.61    0.86
   5   4   8   20.68    0.85
   5   4   8   20.71    0.84
   6   4   8    2.53    0.32
   6   4   8    2.66    0.27
   6   4   8    2.83    0.31
   6   4   8    2.31    0.26
   7   4   8    0.49    0.20
   7   4   8    0.19    0.26
   7   4   8    0.36    0.21
   7   4   8    0.72    0.26
   4  -5  -8    0.22    0.35
   3  -5  -8   -0.33    0.25
   3  -5  -8    0.00    0.29
   2  -5  -8    1.07    0.28
   2  -5  -8    0.91    0.32
  -2   5   8    0.82    0.34
   1  -5  -8    1.11    0.32
   1  -5  -8    0.92    0.25
  -1   5   8    0.50    0.30
   0  -5  -8    1.69    0.27
   0  -5  -8    1.63    0.25
   0  -5  -8    1.25    0.29
   0   5   8    1.42    0.26
   0   5   8    1.60    0.29
   0   5   8    0.51    0.28
  -1  -5  -8    2.37    0.34
  -1  -5  -8    2.47    0.30
  -1  -5  -8    2.83    0.29
   1   5   8    3.22    0.37
   1   5   8    3.20    0.31
   1   5   8    3.31    0.33
  -2  -5  -8    3.64    0.36
  -2  -5  -8    2.85    0.29
   2   5   8    3.10    0.31
   2   5   8    2.88    0.33
   2   5   8    2.79    0.29
  -3  -5  -8    2.36    0.31
  -3  -5  -8    2.18    0.24
   3   5   8    2.34    0.32
   3   5   8    2.59    0.27
   3   5   8    1.60    0.26
  -4  -5  -8   17.05    0.66
  -4  -5  -8   15.73    0.71
   4   5   8   15.64    0.70
   4   5   8   16.81    0.70
   4   5   8   12.94    0.71
  -5  -5  -8   15.29    0.62
   5   5   8   16.38    0.69
   5   5   8   15.18    0.73
   5   5   8   14.53    0.69
   6   5   8    0.40    0.22
   6   5   8    0.35    0.26
   6   5   8    0.19    0.24
   6   5   8    0.21    0.20
   7   5   8    1.13    0.30
   7   5   8    0.65    0.29
   8   5   8    0.13    0.29
   8   5   8   -0.29    0.25
   3  -6  -8    0.47    0.40
   2  -6  -8    0.63    0.38
  -2   6   8    0.14    0.35
   1  -6  -8    0.48    0.33
  -1   6   8    0.50    0.34
   0  -6  -8    0.71    0.32
   0   6   8    0.68    0.30
  -1  -6  -8    1.39    0.34
   1   6   8    0.40    0.29
   1   6   8    1.12    0.29
  -2  -6  -8   -0.04    0.19
  -2  -6  -8   -0.04    0.24
   2   6   8    0.10    0.25
   2   6   8    0.32    0.26
  -3  -6  -8    0.47    0.26
   3   6   8    0.78    0.25
   3   6   8    0.72    0.29
  -4  -6  -8    1.03    0.29
   4   6   8    1.52    0.31
   4   6   8    0.96    0.27
   5   6   8    0.69    0.30
   5   6   8    0.70    0.25
   6   6   8    3.80    0.39
   6   6   8    3.52    0.36
   6   6   8    3.11    0.40
   7   6   8    0.69    0.32
   7   6   8    0.76    0.30
   8   6   8    0.33    0.30
   8   6   8    0.34    0.33
   2  -7  -8    1.11    0.46
   1  -7  -8    0.15    0.37
  -1   7   8    0.32    0.39
   0  -7  -8    0.71    0.39
   0   7   8    0.45    0.36
  -1  -7  -8   -0.19    0.33
   1   7   8    0.19    0.33
  -2  -7  -8    0.95    0.32
   2   7   8    0.24    0.30
  -3  -7  -8    0.48    0.31
   3   7   8    0.61    0.31
   3   7   8    0.71    0.28
  -4  -7  -8    5.12    0.48
   4   7   8    5.92    0.48
   4   7   8    5.04    0.49
   5   7   8    0.23    0.30
   5   7   8    0.29    0.29
   6   7   8    0.07    0.32
   6   7   8    0.32    0.27
   7   7   8    0.15    0.32
   7   7   8   -0.04    0.30
   0  -8  -8   -0.03    0.42
   0   8   8    0.17    0.41
  -1  -8  -8    0.25    0.37
   1   8   8    0.23    0.36
  -2  -8  -8    0.08    0.37
   2   8   8    0.31    0.34
  -3  -8  -8    0.81    0.37
   3   8   8    0.51    0.38
   4   8   8    0.02    0.33
   4   8   8    0.50    0.34
   5   8   8    0.30    0.36
   5   8   8    0.23    0.31
   6   8   8   -0.45    0.32
   7   8   8   -0.12    0.35
  -2  -9  -8   -0.24    0.43
   2   9   8    0.38    0.43
  -3  -9  -8   -0.34    0.40
   3   9   8   -0.12    0.37
   4   9   8    0.18    0.40
   5   9   8    0.17    0.41
   5   7  -9    1.33    0.45
   4   7  -9   -0.18    0.39
   4   7  -9   -0.32    0.33
   3   7  -9    0.22    0.39
   3   7  -9   -0.04    0.31
   2   7  -9    1.02    0.45
  -2  -7   9    1.03    0.45
   1   7  -9    0.20    0.48
  -1  -7   9    0.09    0.45
   0   7  -9   -0.58    0.45
   0  -7   9   -0.43    0.41
   6   6  -9    0.20    0.34
   5   6  -9    0.86    0.36
   5   6  -9    0.39    0.34
   4   6  -9    1.16    0.36
   4   6  -9    0.56    0.35
   4   6  -9    1.08    0.36
   3   6  -9   -0.26    0.29
   3   6  -9    0.38    0.32
   3   6  -9    0.20    0.29
  -3  -6   9    0.28    0.33
   2   6  -9   -0.30    0.35
   2   6  -9   -0.04    0.26
  -2  -6   9    0.23    0.33
   1   6  -9    3.08    0.51
  -1  -6   9    3.44    0.53
   0   6  -9    0.04    0.42
   0  -6   9    0.92    0.42
  -1   6  -9    1.85    0.53
   1  -6   9    0.86    0.47
  -2   6  -9    2.22    0.54
   2  -6   9    2.29    0.53
   7   5  -9   -0.40    0.28
   6   5  -9   -0.18    0.30
   5   5  -9    1.83    0.39
   5   5  -9    2.14    0.35
   5   5  -9    2.22    0.39
   4   5  -9    3.15    0.43
   4   5  -9    3.34    0.42
   4   5  -9    2.84    0.37
   3   5  -9    0.36    0.27
   3   5  -9    0.89    0.31
   3   5  -9    0.47    0.31
  -3  -5   9    0.26    0.29
   2   5  -9    3.98    0.43
   2   5  -9    4.04    0.48
   2   5  -9    4.59    0.41
  -2  -5   9    4.72    0.49
   1   5  -9    1.14    0.24
   1   5  -9    1.32    0.38
   1   5  -9    1.27    0.33
  -1  -5   9    0.98    0.36
   0   5  -9    3.66    0.50
   0  -5   9    5.40    0.55
  -1   5  -9    0.92    0.39
   1  -5   9    2.12    0.44
  -2   5  -9    0.78    0.44
   2  -5   9    1.27    0.46
  -3   5  -9    0.73    0.45
   3  -5   9    0.28    0.42
   7   4  -9   -0.14    0.27
   6   4  -9    0.17    0.31
   6   4  -9   -0.04    0.28
   5   4  -9    2.61    0.37
   5   4  -9    2.25    0.32
   5   4  -9    2.70    0.41
   4   4  -9    0.31    0.23
   4   4  -9    0.17    0.26
   4   4  -9    0.14    0.26
   3   4  -9    0.43    0.28
   3   4  -9    0.37    0.24
   3   4  -9    0.20    0.24
  -3  -4   9    0.52    0.28
   2   4  -9    0.25    0.22
   2   4  -9    0.03    0.22
   2   4  -9   -0.17    0.25
  -2  -4   9    0.94    0.29
   1   4  -9    1.20    0.30
   1   4  -9    1.11    0.22
   1   4  -9    1.18    0.31
  -1  -4   9    0.84    0.25
  -1  -4   9    1.20    0.31
   0   4  -9    4.29    0.48
   0   4  -9    4.83    0.44
   0   4  -9    4.56    0.31
   0  -4   9    3.12    0.44
   0  -4   9    4.23    0.39
   0  -4   9    4.82    0.40
   0  -4   9    4.62    0.42
  -1   4  -9    0.30    0.32
   1  -4   9    0.17    0.25
   1  -4   9    0.77    0.33
  -2   4  -9    5.93    0.57
   2  -4   9    4.54    0.44
   2  -4   9    3.95    0.52
  -3   4  -9   -0.26    0.32
   3  -4   9    0.25    0.37
   4  -4   9    4.68    0.60
   7   3  -9    1.87    0.33
   6   3  -9    0.67    0.28
   5   3  -9   -0.19    0.20
   5   3  -9    0.24    0.25
   4   3  -9   17.39    0.74
   4   3  -9   16.85    0.76
   4   3  -9   15.58    0.77
  -4  -3   9   16.88    0.69
   3   3  -9    3.17    0.31
   3   3  -9    3.12    0.37
   3   3  -9    3.74    0.34
  -3  -3   9    3.11    0.29
  -3  -3   9    3.55    0.35
   2   3  -9   16.45    0.71
   2   3  -9   15.52    0.76
   2   3  -9   14.95    0.71
  -2  -3   9   15.88    0.76
  -2  -3   9   15.30    0.70
   1   3  -9    9.83    0.54
   1   3  -9    9.84    0.50
   1   3  -9    9.79    0.53
   1   3  -9    9.06    0.58
  -1  -3   9    9.49    0.57
  -1  -3   9    9.92    0.53
   0   3  -9    0.10    0.20
   0   3  -9    0.19    0.26
   0   3  -9    0.43    0.19
   0   3  -9    0.24    0.15
   0  -3   9    0.19    0.19
   0  -3   9    0.29    0.27
   0  -3   9    0.70    0.23
   0  -3   9    0.33    0.19
  -1   3  -9   20.53    0.90
  -1   3  -9   19.31    0.70
  -1   3  -9   19.00    0.92
  -1   3  -9   21.18    0.88
   1  -3   9   19.62    0.88
   1  -3   9   21.11    0.95
   1  -3   9   19.09    0.86
   1  -3   9   19.32    0.87
  -2   3  -9    0.76    0.29
   2  -3   9    0.21    0.30
   2  -3   9    0.28    0.23
  -3   3  -9    4.83    0.52
   3  -3   9    4.87    0.51
   3  -3   9    4.79    0.45
   4  -3   9    2.12    0.43
   4  -3   9    2.69    0.37
   5  -3   9   -0.57    0.36
   7   2  -9    3.04    0.36
   6   2  -9    0.00    0.25
   5   2  -9    2.85    0.29
   5   2  -9    1.81    0.27
   5   2  -9    2.46    0.28
   5   2  -9    1.64    0.30
   4   2  -9   14.62    0.67
   4   2  -9   15.04    0.72
   4   2  -9   14.61    0.68
   4   2  -9   15.97    0.67
  -4  -2   9   14.66    0.61
   3   2  -9    0.31    0.18
   3   2  -9    0.32    0.22
   3   2  -9    0.08    0.16
  -3  -2   9    0.17    0.21
  -3  -2   9    0.06    0.15
   2   2  -9   11.74    0.62
   2   2  -9   13.79    0.59
   2   2  -9   13.25    0.62
  -2  -2   9   12.65    0.59
  -2  -2   9   12.79    0.63
  -2  -2   9   13.09    0.58
   1   2  -9    3.75    0.35
   1   2  -9    3.63    0.29
   1   2  -9    3.85    0.32
  -1  -2   9    2.40    0.25
  -1  -2   9    5.34    0.34
  -1  -2   9    4.44    0.38
   0   2  -9    0.98    0.24
   0   2  -9    0.89    0.21
   0   2  -9    1.16    0.21
   0  -2   9    1.13    0.26
   0  -2   9    1.08    0.20
   0  -2   9    1.03    0.21
  -1   2  -9   14.88    0.75
  -1   2  -9   14.33    0.55
  -1   2  -9   14.44    0.66
  -1   2  -9   14.79    0.69
   1  -2   9   15.40    0.69
   1  -2   9   15.04    0.69
   1  -2   9   15.01    0.74
   1  -2   9   15.08    0.68
  -2   2  -9    3.33    0.32
  -2   2  -9    3.89    0.33
  -2   2  -9    3.22    0.39
   2  -2   9    2.98    0.38
   2  -2   9    3.72    0.34
   2  -2   9    4.04    0.34
   2  -2   9    3.61    0.34
  -3   2  -9   22.97    1.02
   3  -2   9   22.44    0.97
   3  -2   9   24.34    1.06
  -4   2  -9    0.79    0.33
   4  -2   9    0.85    0.34
   4  -2   9    0.99    0.28
   5  -2   9    2.69    0.45
   5  -2   9    3.15    0.39
   6  -2   9    0.74    0.38
   7   1  -9   -0.14    0.26
   6   1  -9    0.18    0.25
   5   1  -9    0.57    0.21
   5   1  -9    0.55    0.21
   5   1  -9    0.30    0.23
   4   1  -9   -0.09    0.20
   4   1  -9   -0.11    0.17
   4   1  -9   -0.07    0.17
  -4  -1   9    0.16    0.14
   3   1  -9   16.67    0.70
   3   1  -9   16.50    0.69
   3   1  -9   15.34    0.71
  -3  -1   9   15.69    0.71
  -3  -1   9   16.02    0.66
   2   1  -9    4.06    0.32
   2   1  -9    4.08    0.31
   2   1  -9    3.38    0.33
  -2  -1   9    3.71    0.27
  -2  -1   9    3.45    0.28
  -2  -1   9    4.35    0.35
   1   1  -9   39.16    1.47
   1   1  -9   41.84    1.49
   1   1  -9   39.67    1.46
   1   1  -9   39.68    1.47
  -1  -1   9   37.20    1.45
  -1  -1   9   43.74    1.48
  -1  -1   9   41.67    1.48
   0   1  -9    2.31    0.23
   0   1  -9    2.66    0.26
   0   1  -9    2.17    0.28
   0  -1   9    1.90    0.26
   0  -1   9    2.29    0.23
   0  -1   9    2.43    0.25
  -1   1  -9    4.06    0.30
  -1   1  -9    3.31    0.29
  -1   1  -9    3.64    0.34
   1  -1   9    3.35    0.34
   1  -1   9    2.96    0.28
   1  -1   9    4.28    0.32
  -2   1  -9   36.29    1.33
  -2   1  -9   36.69    1.37
  -2   1  -9   36.63    1.34
   2  -1   9   33.97    1.35
   2  -1   9   35.18    1.34
   2  -1   9   35.24    1.36
  -3   1  -9    0.63    0.26
  -3   1  -9    0.48    0.20
   3  -1   9    0.73    0.21
   3  -1   9    0.56    0.21
   3  -1   9    0.75    0.26
   3  -1   9    0.30    0.20
  -4   1  -9    1.80    0.33
   4  -1   9    2.43    0.36
   4  -1   9    2.09    0.29
   4  -1   9    2.07    0.30
   5  -1   9    3.20    0.42
   5  -1   9    3.05    0.36
   5  -1   9    3.41    0.37
   6  -1   9    1.40    0.36
   7   0  -9    0.43    0.30
   6   0  -9    0.20    0.25
   5   0  -9    0.94    0.23
   5   0  -9    0.20    0.24
   5   0  -9    0.64    0.22
   4   0  -9    0.04    0.17
   4   0  -9   -0.01    0.22
   4   0  -9   -0.01    0.18
  -4   0   9    0.38    0.16
   3   0  -9    1.97    0.23
   3   0  -9    1.59    0.26
   3   0  -9    1.57    0.22
  -3   0   9    2.00    0.22
  -3   0   9    2.17    0.27
   2   0  -9    5.19    0.34
   2   0  -9    5.62    0.35
   2   0  -9    6.11    0.40
  -2   0   9    6.17    0.36
  -2   0   9    6.00    0.40
  -2   0   9    5.02    0.31
   1   0  -9    7.10    0.40
   1   0  -9    7.39    0.38
   1   0  -9    7.30    0.42
  -1   0   9    7.01    0.38
  -1   0   9    7.18    0.39
  -1   0   9    7.21    0.42
   0   0  -9   13.20    0.58
   0   0  -9   12.87    0.60
   0   0  -9   13.80    0.58
   0   0   9   13.37    0.58
   0   0   9   11.96    0.62
   0   0   9   12.68    0.57
  -1   0  -9    0.70    0.21
  -1   0  -9    0.46    0.15
  -1   0  -9    0.45    0.15
   1   0   9    0.29    0.19
   1   0   9    0.80    0.17
   1   0   9    0.49    0.16
  -2   0  -9   53.43    1.87
  -2   0  -9   53.57    1.87
  -2   0  -9   52.48    1.85
  -2   0  -9   50.51    1.75
   2   0   9   54.78    1.88
   2   0   9   53.48    1.88
   2   0   9   50.84    1.88
  -3   0  -9    7.33    0.30
  -3   0  -9    6.96    0.41
  -3   0  -9    6.32    0.46
  -3   0  -9    7.39    0.39
   3   0   9    7.30    0.49
   3   0   9    7.94    0.44
   3   0   9    7.60    0.42
  -4   0  -9   14.96    0.74
  -4   0  -9   15.80    0.67
   4   0   9   15.06    0.70
   4   0   9   16.44    0.74
   4   0   9   16.09    0.77
   5   0   9    3.64    0.40
   5   0   9    2.70    0.31
   6   0   9   11.88    0.64
   6   0   9   11.08    0.68
   7   0   9    0.42    0.32
   6  -1  -9   -0.20    0.27
   5  -1  -9   -0.29    0.24
   5  -1  -9   -0.20    0.20
   4  -1  -9    0.53    0.21
   4  -1  -9    0.54    0.21
   4  -1  -9    0.31    0.23
  -4   1   9    0.51    0.17
   3  -1  -9    2.25    0.29
   3  -1  -9    1.74    0.24
   3  -1  -9    1.95    0.25
  -3   1   9    2.16    0.23
  -3   1   9    2.07    0.28
   2  -1  -9    2.33    0.24
   2  -1  -9    2.30    0.28
   2  -1  -9    2.13    0.23
  -2   1   9    2.66    0.29
  -2   1   9    2.25    0.23
  -2   1   9    3.10    0.26
   1  -1  -9    0.45    0.15
   1  -1  -9    0.45    0.15
   1  -1  -9    0.50    0.19
  -1   1   9    0.60    0.16
  -1   1   9    0.66    0.20
  -1   1   9    0.55    0.15
   0  -1  -9   59.89    2.14
   0  -1  -9   64.47    2.14
   0  -1  -9   60.15    2.12
   0   1   9   61.02    2.13
   0   1   9   60.94    2.14
   0   1   9   61.16    2.14
  -1  -1  -9    9.41    0.44
  -1  -1  -9    8.96    0.43
  -1  -1  -9    8.98    0.48
   1   1   9    8.63    0.44
   1   1   9    8.36    0.43
   1   1   9    7.83    0.46
  -2  -1  -9    8.22    0.41
  -2  -1  -9    7.69    0.40
  -2  -1  -9    8.48    0.41
  -2  -1  -9    8.93    0.46
  -2  -1  -9    7.60    0.37
   2   1   9    8.09    0.47
   2   1   9    7.86    0.43
   2   1   9    8.49    0.42
  -3  -1  -9   40.02    1.50
  -3  -1  -9   42.76    1.50
  -3  -1  -9   41.47    1.52
  -3  -1  -9   43.34    1.45
   3   1   9   43.40    1.55
   3   1   9   40.82    1.53
   3   1   9   42.45    1.53
  -4  -1  -9    4.43    0.31
  -4  -1  -9    5.52    0.39
  -4  -1  -9    4.98    0.30
   4   1   9    5.17    0.42
   4   1   9    5.20    0.36
   4   1   9    5.55    0.38
  -5  -1  -9   29.91    1.07
   5   1   9   27.85    1.13
   5   1   9   30.17    1.16
   5   1   9   27.70    1.17
   6   1   9    0.22    0.21
   6   1   9    0.35    0.28
   7   1   9    0.13    0.29
   6  -2  -9    1.26    0.36
   5  -2  -9    0.16    0.24
   5  -2  -9    0.05    0.27
   4  -2  -9    0.97    0.29
   4  -2  -9    1.28    0.26
   3  -2  -9    4.82    0.41
   3  -2  -9    4.77    0.37
   3  -2  -9    4.09    0.34
  -3   2   9    3.67    0.36
  -3   2   9    4.41    0.34
   2  -2  -9    7.55    0.46
   2  -2  -9    7.87    0.46
   2  -2  -9    7.45    0.43
  -2   2   9    7.51    0.43
  -2   2   9    7.50    0.47
  -2   2   9    7.83    0.43
   1  -2  -9   10.63    0.51
   1  -2  -9   10.78    0.51
   1  -2  -9   10.80    0.55
  -1   2   9   11.31    0.51
  -1   2   9   10.17    0.54
  -1   2   9   10.02    0.49
   0  -2  -9    1.57    0.20
   0  -2  -9    1.41    0.22
   0  -2  -9    1.70    0.20
   0   2   9    1.15    0.22
   0   2   9    2.14    0.22
   0   2   9    1.16    0.19
  -1  -2  -9    0.78    0.19
  -1  -2  -9    0.78    0.16
  -1  -2  -9    0.98    0.16
   1   2   9    0.99    0.17
   1   2   9    0.68    0.16
   1   2   9    0.86    0.19
  -2  -2  -9    1.31    0.22
  -2  -2  -9    1.57    0.19
  -2  -2  -9    1.12    0.17
  -2  -2  -9    1.57    0.19
   2   2   9    1.24    0.19
   2   2   9    1.40    0.20
   2   2   9    1.30    0.22
  -3  -2  -9    3.41    0.31
  -3  -2  -9    3.77    0.27
  -3  -2  -9    3.51    0.26
  -3  -2  -9    3.86    0.29
  -3  -2  -9    3.40    0.27
   3   2   9    2.93    0.30
   3   2   9    3.22    0.27
   3   2   9    3.20    0.27
  -4  -2  -9   36.04    1.30
  -4  -2  -9   35.47    1.30
  -4  -2  -9   36.91    1.33
   4   2   9   33.96    1.34
   4   2   9   37.66    1.34
   4   2   9   36.60    1.34
  -5  -2  -9   23.73    0.88
   5   2   9   23.85    0.95
   5   2   9   23.73    0.96
   5   2   9   23.13    1.00
   6   2   9    2.58    0.30
   6   2   9    2.45    0.30
   6   2   9    2.27    0.35
   7   2   9    7.15    0.54
   8   2   9    0.09    0.28
   5  -3  -9    0.25    0.32
   4  -3  -9    0.14    0.24
   4  -3  -9    0.15    0.28
   3  -3  -9   -0.12    0.20
   3  -3  -9   -0.15    0.24
  -3   3   9    0.33    0.25
   2  -3  -9   16.28    0.72
   2  -3  -9   15.30    0.69
   2  -3  -9   15.02    0.75
  -2   3   9   14.19    0.73
  -2   3   9   16.52    0.71
   1  -3  -9    0.82    0.25
   1  -3  -9    0.46    0.19
   1  -3  -9    0.57    0.21
  -1   3   9    0.81    0.19
  -1   3   9    0.85    0.23
  -1   3   9    0.28    0.18
   0  -3  -9    5.07    0.35
   0  -3  -9    4.80    0.40
   0  -3  -9    4.89    0.33
   0   3   9    5.84    0.36
   0   3   9    4.75    0.39
   0   3   9    4.76    0.34
  -1  -3  -9   20.35    0.87
  -1  -3  -9   21.73    0.85
  -1  -3  -9   21.63    0.85
   1   3   9   21.89    0.86
   1   3   9   20.54    0.88
   1   3   9   21.61    0.86
  -2  -3  -9    6.23    0.37
  -2  -3  -9    5.78    0.33
  -2  -3  -9    6.20    0.42
   2   3   9    5.66    0.35
   2   3   9    5.50    0.35
   2   3   9    6.32    0.41
  -3  -3  -9   27.39    1.00
  -3  -3  -9   26.07    1.03
  -3  -3  -9   27.29    1.01
  -3  -3  -9   25.49    1.01
   3   3   9   26.00    1.04
   3   3   9   28.00    1.03
   3   3   9   25.82    1.02
  -4  -3  -9   63.66    2.20
  -4  -3  -9   65.14    2.21
   4   3   9   61.18    2.23
   4   3   9   61.38    2.24
   4   3   9   68.88    2.26
  -5  -3  -9    4.70    0.28
   5   3   9    4.58    0.34
   5   3   9    4.32    0.40
   5   3   9    5.00    0.37
   6   3   9    9.22    0.57
   6   3   9    8.90    0.50
   6   3   9    9.56    0.52
   7   3   9    0.16    0.28
   8   3   9   -0.14    0.27
   5  -4  -9    0.11    0.35
   4  -4  -9    0.34    0.33
   4  -4  -9    0.08    0.28
   3  -4  -9    0.32    0.31
   3  -4  -9    0.78    0.27
  -3   4   9    0.62    0.32
   2  -4  -9   -0.01    0.25
   2  -4  -9    0.02    0.22
  -2   4   9    0.26    0.27
   1  -4  -9    0.15    0.24
   1  -4  -9    0.11    0.20
   1  -4  -9    0.43    0.21
  -1   4   9    0.19    0.25
  -1   4   9    0.06    0.19
  -1   4   9    0.31    0.18
   0  -4  -9   24.96    0.99
   0  -4  -9   24.57    1.03
   0  -4  -9   24.02    0.97
   0   4   9   22.83    0.98
   0   4   9   26.14    0.99
   0   4   9   23.48    1.01
  -1  -4  -9    0.24    0.21
  -1  -4  -9    0.39    0.17
  -1  -4  -9    0.16    0.16
   1   4   9    0.29    0.20
   1   4   9    0.43    0.23
   1   4   9    0.23    0.18
  -2  -4  -9   -0.08    0.12
  -2  -4  -9    0.10    0.15
  -2  -4  -9    0.10    0.19
   2   4   9    0.31    0.20
   2   4   9   -0.05    0.16
   2   4   9    0.05    0.16
  -3  -4  -9    0.28    0.20
  -3  -4  -9    0.36    0.15
  -3  -4  -9    0.49    0.18
   3   4   9    0.08    0.15
   3   4   9    0.20    0.19
   3   4   9    0.46    0.19
  -4  -4  -9    1.44    0.25
  -4  -4  -9    1.26    0.18
   4   4   9    1.34    0.23
   4   4   9    1.03    0.25
   4   4   9    1.09    0.21
  -5  -4  -9    0.75    0.16
   5   4   9    0.83    0.21
   5   4   9    0.84    0.25
   5   4   9    0.75    0.21
   6   4   9    0.47    0.27
   6   4   9   -0.11    0.20
   6   4   9    0.42    0.22
   7   4   9    1.44    0.32
   7   4   9    1.64    0.29
   8   4   9    0.99    0.32
   4  -5  -9   -0.56    0.32
   3  -5  -9   -0.17    0.32
   3  -5  -9    0.27    0.29
   2  -5  -9    0.17    0.32
   2  -5  -9   -0.19    0.25
  -2   5   9   -0.09    0.29
   1  -5  -9    1.74    0.29
   1  -5  -9    1.46    0.35
  -1   5   9    1.00    0.33
   0  -5  -9    1.12    0.30
   0  -5  -9    1.26    0.25
   0   5   9    0.87    0.29
   0   5   9    1.43    0.26
   0   5   9    1.36    0.27
  -1  -5  -9   16.80    0.73
  -1  -5  -9   15.93    0.75
  -1  -5  -9   17.35    0.82
   1   5   9   16.21    0.80
   1   5   9   15.85    0.74
   1   5   9   16.80    0.77
  -2  -5  -9    0.63    0.26
  -2  -5  -9    0.54    0.21
   2   5   9    0.50    0.22
   2   5   9    0.44    0.19
  -3  -5  -9    0.01    0.17
  -3  -5  -9    0.24    0.22
   3   5   9   -0.05    0.18
   3   5   9   -0.26    0.22
   3   5   9    0.01    0.21
  -4  -5  -9    0.83    0.25
  -4  -5  -9    0.72    0.19
   4   5   9    0.35    0.25
   4   5   9    0.98    0.25
   4   5   9    1.05    0.23
  -5  -5  -9   -0.13    0.15
   5   5   9    0.27    0.26
   5   5   9   -0.04    0.19
   5   5   9    0.27    0.20
   6   5   9    1.54    0.30
   6   5   9    1.05    0.26
   7   5   9    3.74    0.40
   7   5   9    3.26    0.40
   8   5   9    0.06    0.29
   3  -6  -9    0.09    0.38
   2  -6  -9    2.32    0.46
  -2   6   9    2.17    0.44
  -1   6   9    0.44    0.34
   0  -6  -9   -0.02    0.28
   0   6   9    0.13    0.31
  -1  -6  -9    9.84    0.68
   1   6   9    7.61    0.61
  -2  -6  -9    0.29    0.26
  -2  -6  -9    0.03    0.21
   2   6   9    0.06    0.24
   2   6   9   -0.07    0.25
  -3  -6  -9    0.50    0.28
   3   6   9    0.53    0.25
   3   6   9    0.25    0.26
  -4  -6  -9   -0.07    0.24
   4   6   9    0.07    0.27
   4   6   9    0.25    0.25
   5   6   9    5.01    0.47
   5   6   9    4.35    0.41
   6   6   9    0.03    0.27
   6   6   9    0.01    0.24
   7   6   9    0.29    0.30
   8   6   9    0.53    0.32
   8   6   9    0.06    0.32
   2  -7  -9   -0.10    0.41
   1  -7  -9   -0.12    0.36
  -1   7   9    0.58    0.38
   0  -7  -9    0.65    0.37
   0   7   9    0.28    0.36
  -1  -7  -9   -0.15    0.31
   1   7   9    0.32    0.34
  -2  -7  -9    2.50    0.43
   2   7   9    2.79    0.42
  -3  -7  -9   -0.44    0.29
   3   7   9   -0.38    0.30
   3   7   9   -0.03    0.27
  -4  -7  -9    3.90    0.45
   4   7   9    3.00    0.39
   4   7   9    3.25    0.45
   5   7   9    3.74    0.42
   5   7   9    3.84    0.48
   6   7   9    0.27    0.28
   6   7   9    0.04    0.33
   7   7   9   -0.02    0.32
   0  -8  -9    0.54    0.43
   0   8   9    0.29    0.41
  -1  -8  -9   -0.07    0.37
   1   8   9   -0.09    0.36
  -2  -8  -9    0.41    0.40
   2   8   9    0.36    0.39
  -3  -8  -9   -0.16    0.34
   3   8   9    0.11    0.34
   4   8   9    0.23    0.35
   5   8   9    0.39    0.37
   5   8   9    0.63    0.32
   6   8   9    1.36    0.41
   7   8   9   -0.27    0.36
  -3  -9  -9    0.04    0.42
   3   9   9    0.44    0.40
   4   9   9    0.65    0.44
   5   9   9    0.44    0.42
   4   7 -10    0.58    0.43
   4   7 -10    1.06    0.39
   3   7 -10    1.01    0.43
   2   7 -10    0.55    0.46
  -2  -7  10    0.80    0.47
   1   7 -10    1.02    0.49
  -1  -7  10    1.30    0.52
   6   6 -10    0.57    0.37
   5   6 -10   -0.14    0.33
   4   6 -10    1.17    0.40
   4   6 -10    0.54    0.36
   4   6 -10    1.07    0.38
   3   6 -10    0.08    0.35
   3   6 -10    0.06    0.34
   3   6 -10    0.05    0.30
   2   6 -10    0.58    0.41
  -2  -6  10    0.41    0.37
   1   6 -10    0.44    0.40
  -1  -6  10    0.79    0.44
   0   6 -10   -0.52    0.43
   0  -6  10    1.10    0.48
  -1   6 -10    0.91    0.50
   1  -6  10   -0.69    0.39
   6   5 -10    0.20    0.32
   5   5 -10    0.26    0.29
   5   5 -10    0.44    0.32
   5   5 -10    0.50    0.35
   4   5 -10    0.34    0.32
   4   5 -10    0.12    0.27
   4   5 -10    0.42    0.34
   3   5 -10    1.27    0.38
   3   5 -10    0.69    0.29
   3   5 -10    0.73    0.33
  -3  -5  10    0.68    0.33
   2   5 -10    1.00    0.37
   2   5 -10    0.74    0.28
   2   5 -10    1.02    0.32
  -2  -5  10    0.72    0.36
   1   5 -10    2.60    0.31
   1   5 -10    3.69    0.50
  -1  -5  10    2.61    0.46
   0   5 -10    4.92    0.55
   0  -5  10    3.33    0.49
  -1   5 -10    0.10    0.39
   1  -5  10   -0.39    0.36
  -2   5 -10    3.15    0.56
   2  -5  10    2.16    0.52
   3  -5  10   -0.16    0.44
   7   4 -10   -0.01    0.29
   6   4 -10    1.54    0.36
   5   4 -10    0.12    0.26
   5   4 -10    0.12    0.29
   5   4 -10    0.09    0.30
   4   4 -10    1.52    0.36
   4   4 -10    2.06    0.34
   4   4 -10    2.43    0.37
   3   4 -10    3.40    0.43
   3   4 -10    2.70    0.37
   3   4 -10    2.60    0.35
  -3  -4  10    3.67    0.41
   2   4 -10    1.75    0.29
   2   4 -10    1.82    0.38
   2   4 -10    2.13    0.34
  -2  -4  10    2.08    0.37
   1   4 -10    7.10    0.60
   1   4 -10    9.52    0.51
   1   4 -10    8.49    0.57
  -1  -4  10    7.88    0.54
  -1  -4  10    8.31    0.59
   0   4 -10    1.90    0.41
   0   4 -10    2.05    0.23
   0  -4  10    1.74    0.39
  -1   4 -10    0.06    0.32
   1  -4  10   -0.03    0.33
  -2   4 -10    3.40    0.51
   2  -4  10    2.97    0.50
  -3   4 -10    0.16    0.36
   3  -4  10    0.62    0.40
   4  -4  10    0.72    0.45
   7   3 -10    0.87    0.32
   6   3 -10    0.03    0.27
   5   3 -10    0.50    0.25
   5   3 -10    0.33    0.27
   4   3 -10    1.20    0.31
   4   3 -10    0.34    0.24
   3   3 -10    3.86    0.35
   3   3 -10    3.53    0.35
   3   3 -10    4.06    0.43
  -3  -3  10    4.37    0.41
   2   3 -10    5.35    0.47
   2   3 -10    5.00    0.42
   2   3 -10    5.45    0.41
  -2  -3  10    4.36    0.44
  -2  -3  10    5.01    0.39
   1   3 -10    0.91    0.22
   1   3 -10    1.04    0.29
   1   3 -10    0.98    0.26
   1   3 -10    1.26    0.25
  -1  -3  10    1.17    0.31
  -1  -3  10    1.11    0.24
   0   3 -10   16.93    0.77
   0   3 -10   16.21    0.68
   0   3 -10   17.02    0.80
   0   3 -10   16.60    0.84
   0  -3  10   15.93    0.83
   0  -3  10   16.97    0.78
   0  -3  10   17.27    0.79
  -1   3 -10    8.75    0.52
  -1   3 -10    7.57    0.60
  -1   3 -10    8.34    0.35
  -1   3 -10    8.51    0.54
   1  -3  10    7.23    0.51
   1  -3  10    7.48    0.60
   1  -3  10    8.18    0.52
  -2   3 -10    3.66    0.46
   2  -3  10    4.33    0.41
   2  -3  10    3.03    0.37
   2  -3  10    3.57    0.47
  -3   3 -10   10.86    0.75
   3  -3  10   10.75    0.63
   3  -3  10    9.28    0.68
   4  -3  10    0.63    0.33
   4  -3  10    1.06    0.40
   5  -3  10    2.36    0.49
   7   2 -10   -0.10    0.27
   6   2 -10    0.42    0.28
   5   2 -10    1.02    0.29
   5   2 -10    1.18    0.26
   4   2 -10    0.01    0.25
   4   2 -10    0.16    0.21
   4   2 -10   -0.05    0.20
   4   2 -10    0.04    0.19
  -4  -2  10   -0.02    0.16
   3   2 -10   10.04    0.60
   3   2 -10   11.69    0.58
   3   2 -10   10.73    0.56
  -3  -2  10   10.89    0.54
  -3  -2  10   10.93    0.58
   2   2 -10    4.67    0.37
   2   2 -10    4.59    0.35
   2   2 -10    4.10    0.40
  -2  -2  10    4.64    0.41
  -2  -2  10    4.41    0.35
   1   2 -10    1.03    0.21
   1   2 -10    0.64    0.26
   1   2 -10    0.58    0.21
  -1  -2  10    0.77    0.26
  -1  -2  10    0.56    0.20
  -1  -2  10    0.54    0.14
   0   2 -10    5.51    0.40
   0   2 -10    4.50    0.38
   0   2 -10    5.02    0.44
   0  -2  10    5.55    0.38
   0  -2  10    4.91    0.43
   0  -2  10    5.81    0.40
  -1   2 -10    5.20    0.39
  -1   2 -10    5.47    0.47
  -1   2 -10    6.04    0.30
  -1   2 -10    4.89    0.40
   1  -2  10    5.02    0.47
   1  -2  10    4.71    0.39
   1  -2  10    5.91    0.42
  -2   2 -10    0.21    0.25
  -2   2 -10    0.07    0.20
  -2   2 -10   -0.05    0.18
   2  -2  10    0.02    0.20
   2  -2  10   -0.03    0.22
   2  -2  10   -0.21    0.25
   2  -2  10    0.23    0.23
  -3   2 -10    3.81    0.42
   3  -2  10    3.34    0.36
   3  -2  10    2.62    0.42
   3  -2  10    3.09    0.36
  -4   2 -10    0.48    0.32
   4  -2  10    0.29    0.26
   4  -2  10    0.80    0.32
   4  -2  10    0.46    0.27
   5  -2  10   11.47    0.71
   5  -2  10   11.08    0.68
   5  -2  10   10.68    0.74
   7   1 -10    0.10    0.29
   6   1 -10   -0.11    0.26
   5   1 -10    0.04    0.21
   5   1 -10    0.28    0.25
   4   1 -10    2.57    0.29
   4   1 -10    2.37    0.33
   4   1 -10    2.77    0.30
  -4  -1  10    3.01    0.26
   3   1 -10    2.73    0.30
   3   1 -10    2.74    0.28
   3   1 -10    2.25    0.30
  -3  -1  10    2.76    0.31
  -3  -1  10    2.62    0.25
   2   1 -10    3.30    0.29
   2   1 -10    3.20    0.30
   2   1 -10    3.61    0.30
   2   1 -10    2.41    0.30
  -2  -1  10    4.32    0.36
  -2  -1  10    3.28    0.28
  -2  -1  10    3.67    0.31
   1   1 -10    7.03    0.44
   1   1 -10    8.45    0.42
   1   1 -10    7.94    0.44
   1   1 -10    7.40    0.49
  -1  -1  10    5.78    0.39
  -1  -1  10    7.41    0.48
  -1  -1  10    7.19    0.42
   0   1 -10    4.71    0.33
   0   1 -10    3.22    0.35
   0   1 -10    3.81    0.33
   0  -1  10    3.94    0.38
   0  -1  10    4.85    0.35
   0  -1  10    4.24    0.33
  -1   1 -10   20.28    0.85
  -1   1 -10   20.98    0.83
  -1   1 -10   19.74    0.88
   1  -1  10   20.97    0.86
   1  -1  10   18.57    0.88
   1  -1  10   19.69    0.84
  -2   1 -10   14.66    0.72
  -2   1 -10   16.70    0.78
  -2   1 -10   18.33    0.75
  -2   1 -10   16.61    0.58
   2  -1  10   16.37    0.79
   2  -1  10   17.18    0.77
   2  -1  10   17.60    0.75
  -3   1 -10    2.72    0.35
  -3   1 -10    2.59    0.30
   3  -1  10    2.72    0.38
   3  -1  10    3.28    0.35
   3  -1  10    3.32    0.34
  -4   1 -10   13.61    0.74
   4  -1  10   13.24    0.69
   4  -1  10   14.20    0.69
   4  -1  10   14.64    0.77
   5  -1  10    0.24    0.26
   5  -1  10    0.00    0.31
   5  -1  10    0.30    0.28
   6  -1  10    3.06    0.47
   6   0 -10    0.32    0.27
   5   0 -10    1.68    0.31
   5   0 -10    1.43    0.28
   4   0 -10    1.68    0.25
   4   0 -10    1.64    0.26
   4   0 -10    1.43    0.29
  -4   0  10    2.12    0.23
   3   0 -10   -0.06    0.16
   3   0 -10    0.15    0.21
   3   0 -10    0.04    0.17
  -3   0  10    0.01    0.20
  -3   0  10    0.06    0.16
   2   0 -10    5.83    0.39
   2   0 -10    5.65    0.37
   2   0 -10    6.35    0.44
  -2   0  10    6.42    0.39
  -2   0  10    6.24    0.37
  -2   0  10    6.49    0.45
   1   0 -10    3.73    0.29
   1   0 -10    3.61    0.34
   1   0 -10    3.53    0.30
  -1   0  10    3.02    0.27
  -1   0  10    3.61    0.33
  -1   0  10    3.97    0.30
   0   0 -10    1.08    0.19
   0   0 -10    1.91    0.24
   0   0 -10    1.25    0.23
   0   0  10    0.90    0.19
   0   0  10    1.51    0.21
   0   0  10    1.28    0.25
  -1   0 -10    0.50    0.22
  -1   0 -10    0.87    0.19
  -1   0 -10    0.44    0.16
   1   0  10    0.64    0.18
   1   0  10    0.88    0.22
   1   0  10    0.51    0.17
  -2   0 -10    3.27    0.28
  -2   0 -10    2.47    0.26
  -2   0 -10    2.67    0.32
   2   0  10    2.25    0.30
   2   0  10    2.65    0.28
   2   0  10    2.82    0.28
  -3   0 -10   11.00    0.62
  -3   0 -10   11.98    0.44
  -3   0 -10   12.19    0.57
   3   0  10   12.34    0.65
   3   0  10   11.65    0.60
   3   0  10   11.92    0.58
  -4   0 -10   10.21    0.61
  -4   0 -10    8.85    0.49
   4   0  10   10.13    0.55
   4   0  10    8.93    0.51
   4   0  10    9.85    0.61
   5   0  10    0.78    0.30
   5   0  10    0.58    0.25
   6   0  10    1.37    0.36
   6   0  10    2.10    0.33
   7   0  10    0.08    0.33
   6  -1 -10   -0.08    0.28
   5  -1 -10    0.89    0.31
   5  -1 -10    1.05    0.26
   4  -1 -10    0.89    0.23
   4  -1 -10    0.43    0.26
   3  -1 -10    0.18    0.18
   3  -1 -10    0.13    0.18
   3  -1 -10    0.02    0.22
  -3   1  10    0.38    0.18
  -3   1  10    0.01    0.21
   2  -1 -10    0.45    0.18
   2  -1 -10    0.32    0.22
   2  -1 -10    0.82    0.21
  -2   1  10    0.68    0.19
  -2   1  10    0.45    0.17
  -2   1  10    0.50    0.22
   1  -1 -10   25.43    0.95
   1  -1 -10   24.23    0.95
   1  -1 -10   24.16    0.98
  -1   1  10   24.52    0.98
  -1   1  10   21.87    0.92
  -1   1  10   24.42    0.95
   0  -1 -10   10.50    0.57
   0  -1 -10    9.80    0.50
   0  -1 -10   10.61    0.51
   0   1  10   10.12    0.54
   0   1  10   11.67    0.52
   0   1  10   10.60    0.52
  -1  -1 -10    0.94    0.19
  -1  -1 -10    0.74    0.17
  -1  -1 -10    0.84    0.22
   1   1  10    0.92    0.22
   1   1  10    1.15    0.20
   1   1  10    0.68    0.18
  -2  -1 -10   27.02    1.05
  -2  -1 -10   24.70    1.00
  -2  -1 -10   27.19    1.01
  -2  -1 -10   25.21    1.00
   2   1  10   25.70    1.02
   2   1  10   27.60    1.06
   2   1  10   25.46    1.02
  -3  -1 -10    9.63    0.55
  -3  -1 -10    9.79    0.45
  -3  -1 -10   10.51    0.49
  -3  -1 -10    9.88    0.48
   3   1  10    8.83    0.57
   3   1  10   10.00    0.50
   3   1  10    9.55    0.51
  -4  -1 -10    1.18    0.19
  -4  -1 -10    1.20    0.16
  -4  -1 -10    0.98    0.26
   4   1  10    1.14    0.24
   4   1  10    0.66    0.22
   4   1  10    1.08    0.28
   5   1  10    4.20    0.37
   5   1  10    4.13    0.43
   6   1  10    1.38    0.34
   6   1  10    0.95    0.26
   7   1  10    1.97    0.40
   6  -2 -10    0.05    0.32
   5  -2 -10    0.16    0.30
   4  -2 -10    3.85    0.41
   4  -2 -10    3.70    0.37
   3  -2 -10    1.44    0.30
   3  -2 -10    1.45    0.24
  -3   2  10    1.86    0.31
   2  -2 -10   10.05    0.51
   2  -2 -10    8.65    0.51
   2  -2 -10    8.62    0.50
  -2   2  10    9.10    0.48
  -2   2  10    9.28    0.55
   1  -2 -10   62.87    2.19
   1  -2 -10   63.67    2.18
   1  -2 -10   62.86    2.19
  -1   2  10   62.53    2.18
  -1   2  10   66.42    2.19
  -1   2  10   53.66    2.16
   0  -2 -10    0.26    0.16
   0  -2 -10    0.48    0.20
   0  -2 -10    0.61    0.18
   0   2  10    0.80    0.22
   0   2  10    0.39    0.16
   0   2  10    0.34    0.16
  -1  -2 -10    7.96    0.42
  -1  -2 -10    8.33    0.43
  -1  -2 -10    7.86    0.49
   1   2  10    8.12    0.48
   1   2  10    7.34    0.43
   1   2  10    9.19    0.45
  -2  -2 -10    0.04    0.13
  -2  -2 -10    0.36    0.19
  -2  -2 -10    0.18    0.15
   2   2  10    0.12    0.19
   2   2  10    0.01    0.14
   2   2  10   -0.02    0.15
  -3  -2 -10    0.33    0.19
  -3  -2 -10    0.47    0.16
  -3  -2 -10    0.43    0.17
  -3  -2 -10    0.37    0.15
  -3  -2 -10    0.25    0.15
   3   2  10    0.55    0.23
   3   2  10    0.54    0.19
   3   2  10    0.33    0.17
  -4  -2 -10    2.26    0.24
  -4  -2 -10    2.01    0.24
  -4  -2 -10    2.07    0.29
   4   2  10    2.65    0.32
   4   2  10    2.24    0.27
   4   2  10    2.16    0.27
  -5  -2 -10    4.25    0.31
   5   2  10    4.20    0.36
   5   2  10    3.98    0.35
   5   2  10    3.62    0.40
   6   2  10    3.84    0.36
   6   2  10    4.05    0.43
   7   2  10    0.42    0.33
   5  -3 -10    0.50    0.35
   4  -3 -10    2.37    0.41
   4  -3 -10    3.11    0.37
   3  -3 -10    1.79    0.30
   3  -3 -10    1.79    0.35
  -3   3  10    1.38    0.32
   2  -3 -10    0.29    0.26
   2  -3 -10    0.01    0.20
  -2   3  10   -0.06    0.24
   1  -3 -10    0.25    0.23
   1  -3 -10    0.35    0.20
   1  -3 -10    0.20    0.20
  -1   3  10    0.23    0.20
  -1   3  10    0.27    0.18
  -1   3  10   -0.04    0.21
   0  -3 -10   35.54    1.29
   0  -3 -10   32.91    1.27
   0  -3 -10   34.71    1.31
   0   3  10   34.98    1.29
   0   3  10   31.19    1.29
   0   3  10   33.72    1.28
  -1  -3 -10    1.90    0.23
  -1  -3 -10    2.25    0.25
  -1  -3 -10    1.68    0.28
   1   3  10    1.93    0.28
   1   3  10    2.10    0.24
   1   3  10    1.57    0.23
  -2  -3 -10    4.56    0.33
  -2  -3 -10    5.12    0.40
  -2  -3 -10    3.43    0.29
   2   3  10    4.54    0.33
   2   3  10    4.98    0.33
   2   3  10    4.66    0.39
  -3  -3 -10   17.40    0.74
  -3  -3 -10   18.03    0.73
  -3  -3 -10   17.57    0.77
   3   3  10   18.79    0.81
   3   3  10   16.92    0.75
   3   3  10   18.09    0.77
  -4  -3 -10    0.56    0.17
  -4  -3 -10    0.99    0.24
   4   3  10    1.39    0.24
   4   3  10    1.24    0.27
   4   3  10    1.15    0.23
  -5  -3 -10   12.61    0.54
   5   3  10   12.14    0.68
   5   3  10   12.50    0.61
   5   3  10   12.30    0.60
   6   3  10    1.54    0.27
   6   3  10    1.29    0.32
   7   3  10    0.91    0.33
   8   3  10    0.04    0.30
   4  -4 -10   -0.01    0.33
   4  -4 -10    0.43    0.31
   3  -4 -10    2.98    0.42
   3  -4 -10    3.51    0.39
   2  -4 -10    5.59    0.50
   2  -4 -10    6.36    0.47
  -2   4  10    5.79    0.50
   1  -4 -10    0.00    0.25
   1  -4 -10    0.11    0.21
  -1   4  10   -0.16    0.23
  -1   4  10   -0.02    0.21
   0  -4 -10   17.14    0.77
   0  -4 -10   17.70    0.80
   0  -4 -10   17.27    0.84
   0   4  10   17.15    0.82
   0   4  10   18.41    0.81
   0   4  10   17.82    0.78
  -1  -4 -10   -0.12    0.16
  -1  -4 -10   -0.10    0.20
  -1  -4 -10    0.32    0.19
   1   4  10   -0.08    0.17
   1   4  10    0.25    0.20
   1   4  10    0.06    0.23
  -2  -4 -10    9.99    0.58
  -2  -4 -10    9.98    0.51
   2   4  10    9.78    0.52
   2   4  10    9.17    0.58
   2   4  10   10.06    0.52
  -3  -4 -10    0.13    0.21
  -3  -4 -10    0.06    0.16
   3   4  10    0.13    0.20
   3   4  10   -0.09    0.20
   3   4  10    0.07    0.17
  -4  -4 -10    0.00    0.21
  -4  -4 -10   -0.02    0.15
   4   4  10    0.14    0.19
   4   4  10    0.13    0.23
   4   4  10   -0.15    0.17
  -5  -4 -10    6.66    0.37
   5   4  10    5.88    0.43
   5   4  10    6.79    0.44
   5   4  10    7.07    0.51
   6   4  10    0.06    0.26
   6   4  10   -0.35    0.19
   7   4  10   -0.01    0.29
   8   4  10    0.38    0.31
   3  -5 -10    0.29    0.35
   2  -5 -10    0.68    0.31
   2  -5 -10    0.48    0.32
  -2   5  10    0.70    0.33
   1  -5 -10    0.43    0.25
   1  -5 -10    1.20    0.33
  -1   5  10    0.70    0.33
   0  -5 -10    0.24    0.30
   0  -5 -10    0.43    0.23
   0   5  10    0.29    0.30
   0   5  10    0.27    0.23
  -1  -5 -10    4.88    0.40
  -1  -5 -10    4.54    0.37
  -1  -5 -10    4.39    0.43
   1   5  10    4.71    0.40
   1   5  10    4.48    0.45
   1   5  10    4.82    0.41
  -2  -5 -10   -0.04    0.04
  -2  -5 -10    0.16    0.25
  -2  -5 -10    0.07    0.19
   2   5  10   -0.20    0.22
   2   5  10   -0.05    0.22
   2   5  10    0.21    0.21
  -3  -5 -10    3.03    0.36
  -3  -5 -10    3.27    0.31
   3   5  10    3.34    0.34
   3   5  10    3.36    0.40
  -4  -5 -10    7.93    0.53
   4   5  10    7.95    0.49
   4   5  10    8.40    0.58
   5   5  10    0.00    0.25
   5   5  10    0.15    0.23
   6   5  10    3.47    0.36
   6   5  10    2.29    0.37
   7   5  10    0.47    0.32
   8   5  10    1.61    0.37
   2  -6 -10    0.67    0.41
  -2   6  10   -0.03    0.37
   1  -6 -10   -0.04    0.35
  -1   6  10    0.36    0.36
   0  -6 -10    3.11    0.45
   0   6  10    1.79    0.40
  -1  -6 -10    1.75    0.39
   1   6  10    1.05    0.34
  -2  -6 -10    0.22    0.27
   2   6  10    0.45    0.27
   2   6  10   -0.15    0.30
  -3  -6 -10    1.16    0.30
   3   6  10    1.72    0.36
   3   6  10    1.10    0.28
  -4  -6 -10    0.44    0.27
   4   6  10    0.27    0.29
   4   6  10    0.33    0.27
   5   6  10    2.42    0.35
   5   6  10    2.02    0.37
   6   6  10    0.40    0.26
   6   6  10   -0.26    0.28
   7   6  10    0.15    0.33
   1  -7 -10    0.35    0.40
  -1   7  10    0.77    0.43
   0  -7 -10    0.68    0.40
   0   7  10    0.47    0.38
  -1  -7 -10    1.01    0.39
   1   7  10    0.26    0.36
  -2  -7 -10    0.35    0.32
   2   7  10   -0.05    0.30
  -3  -7 -10   -0.01    0.30
   3   7  10    0.25    0.29
   3   7  10   -0.07    0.31
  -4  -7 -10   -0.41    0.28
   4   7  10    0.24    0.29
   4   7  10    0.45    0.34
   5   7  10    0.35    0.34
   5   7  10    0.51    0.30
   6   7  10    0.43    0.36
   7   7  10    2.17    0.43
   0  -8 -10    0.13    0.46
   0   8  10   -0.15    0.38
  -1  -8 -10    0.81    0.45
   1   8  10    0.16    0.38
  -2  -8 -10    0.21    0.37
   2   8  10    0.16    0.38
  -3  -8 -10    0.03    0.34
   3   8  10   -0.28    0.37
   4   8  10    0.03    0.37
   5   8  10    0.13    0.33
   5   8  10    0.98    0.42
   6   8  10    0.77    0.42
  -3  -9 -10    0.11    0.43
   4   9  10    0.44    0.44
   5   6 -11    1.26    0.43
   4   6 -11    0.24    0.36
   4   6 -11    0.70    0.36
   4   6 -11    0.39    0.38
   3   6 -11    0.43    0.37
   3   6 -11   -0.15    0.32
   2   6 -11    0.87    0.43
  -2  -6  11    1.58    0.47
   1   6 -11   -0.37    0.42
  -1  -6  11   -0.04    0.42
   0   6 -11    1.04    0.48
   0  -6  11    0.01    0.42
  -1   6 -11    0.31    0.50
   1  -6  11    0.62    0.48
   6   5 -11   -0.18    0.35
   5   5 -11    0.61    0.38
   5   5 -11    0.91    0.37
   4   5 -11    2.48    0.43
   4   5 -11    2.04    0.43
   4   5 -11    2.14    0.40
   3   5 -11    0.57    0.31
   3   5 -11    0.39    0.36
   3   5 -11    0.66    0.32
  -3  -5  11    0.05    0.34
   2   5 -11    0.12    0.27
   2   5 -11    0.14    0.37
  -2  -5  11   -0.61    0.31
   1   5 -11    1.40    0.40
  -1  -5  11    1.28    0.40
   0   5 -11    0.27    0.40
   0  -5  11    0.83    0.39
  -1   5 -11    1.77    0.48
   1  -5  11    2.47    0.53
  -2   5 -11    1.76    0.53
   2  -5  11    1.82    0.51
   6   4 -11    0.88    0.36
   5   4 -11    0.50    0.34
   5   4 -11   -0.30    0.31
   5   4 -11    0.80    0.30
   4   4 -11    4.72    0.49
   4   4 -11    4.22    0.49
   4   4 -11    4.93    0.47
   3   4 -11    1.26    0.34
   3   4 -11    1.41    0.31
   3   4 -11    0.54    0.27
  -3  -4  11    1.52    0.35
   2   4 -11    3.61    0.38
   2   4 -11    4.09    0.43
   2   4 -11    3.96    0.48
  -2  -4  11    4.04    0.47
   1   4 -11    0.37    0.32
   1   4 -11    0.14    0.21
   1   4 -11   -0.04    0.27
  -1  -4  11   -0.03    0.28
   0   4 -11    2.11    0.42
   0  -4  11    0.34    0.33
  -1   4 -11    0.69    0.38
   1  -4  11    0.34    0.37
  -2   4 -11    0.41    0.40
   2  -4  11    0.62    0.40
  -3   4 -11   -0.10    0.41
   3  -4  11    0.07    0.37
   6   3 -11   -0.01    0.30
   5   3 -11    0.91    0.29
   5   3 -11    0.97    0.32
   4   3 -11   -0.21    0.26
   4   3 -11   -0.28    0.24
   3   3 -11    0.27    0.26
   3   3 -11    0.04    0.27
  -3  -3  11    0.14    0.27
   2   3 -11    0.04    0.23
   2   3 -11   -0.06    0.27
  -2  -3  11    0.14    0.27
   1   3 -11    3.02    0.39
   1   3 -11    2.78    0.35
   1   3 -11    2.47    0.29
  -1  -3  11    2.00    0.36
  -1  -3  11    2.28    0.31
   0   3 -11    9.39    0.57
   0   3 -11    8.46    0.45
   0   3 -11    7.72    0.61
   0  -3  11    7.55    0.51
   0  -3  11    7.47    0.62
   0  -3  11    9.39    0.58
  -1   3 -11    0.72    0.34
   1  -3  11    0.53    0.26
   1  -3  11    0.48    0.31
   1  -3  11    0.97    0.28
  -2   3 -11    7.47    0.64
   2  -3  11    7.59    0.57
   2  -3  11    7.06    0.64
   2  -3  11    7.79    0.58
  -3   3 -11    1.01    0.40
   3  -3  11    1.17    0.34
   3  -3  11    0.86    0.37
   4  -3  11    3.46    0.53
   6   2 -11    0.60    0.31
   5   2 -11    0.32    0.29
   5   2 -11    0.17    0.23
   4   2 -11    3.43    0.40
   4   2 -11    4.06    0.38
   3   2 -11    6.61    0.51
   3   2 -11    6.73    0.46
  -3  -2  11    7.37    0.50
   2   2 -11    5.32    0.46
   2   2 -11    5.54    0.40
   2   2 -11    5.05    0.41
  -2  -2  11    5.49    0.41
  -2  -2  11    6.38    0.49
   1   2 -11   17.43    0.77
   1   2 -11   17.53    0.80
   1   2 -11   15.75    0.82
  -1  -2  11   18.18    0.85
  -1  -2  11   18.98    0.80
   0   2 -11    2.75    0.31
   0   2 -11    2.16    0.35
   0   2 -11    2.61    0.32
   0  -2  11    2.74    0.38
   0  -2  11    2.84    0.32
   0  -2  11    2.48    0.29
  -1   2 -11    6.73    0.45
  -1   2 -11    6.15    0.52
  -1   2 -11    6.12    0.46
  -1   2 -11    6.93    0.35
   1  -2  11    6.93    0.56
   1  -2  11    6.65    0.48
   1  -2  11    6.95    0.46
  -2   2 -11    0.21    0.29
   2  -2  11    0.08    0.23
   2  -2  11    0.42    0.29
  -3   2 -11    1.76    0.38
   3  -2  11    0.71    0.28
   3  -2  11    1.05    0.30
   3  -2  11    0.86    0.34
   4  -2  11    0.17    0.34
   4  -2  11    0.16    0.28
   4  -2  11    0.33    0.29
   5  -2  11    0.08    0.33
   5  -2  11   -0.50    0.30
   5  -2  11    0.25    0.36
   6   1 -11    0.13    0.30
   5   1 -11    0.15    0.22
   5   1 -11   -0.11    0.25
   4   1 -11    2.90    0.34
   4   1 -11    2.78    0.35
   3   1 -11    1.24    0.26
   3   1 -11    1.51    0.25
   3   1 -11    1.24    0.28
  -3  -1  11    1.41    0.22
  -3  -1  11    1.05    0.28
   2   1 -11    0.26    0.18
   2   1 -11    0.55    0.23
   2   1 -11    0.07    0.19
   2   1 -11    0.56    0.20
  -2  -1  11    0.39    0.24
  -2  -1  11    0.16    0.19
   1   1 -11   15.92    0.71
   1   1 -11   15.35    0.77
   1   1 -11   17.14    0.73
   1   1 -11   16.54    0.72
  -1  -1  11   12.11    0.66
  -1  -1  11   16.60    0.71
  -1  -1  11   15.92    0.75
   0   1 -11    0.59    0.26
   0   1 -11    0.99    0.21
   0   1 -11    1.06    0.23
   0  -1  11    1.06    0.21
   0  -1  11    0.77    0.23
   0  -1  11    0.91    0.25
  -1   1 -11   10.06    0.53
  -1   1 -11    8.29    0.59
  -1   1 -11    9.30    0.50
   1  -1  11    8.42    0.52
   1  -1  11    8.45    0.54
   1  -1  11    9.57    0.53
  -2   1 -11   -0.32    0.16
  -2   1 -11    0.05    0.09
  -2   1 -11    0.39    0.27
  -2   1 -11   -0.15    0.13
   2  -1  11    0.30    0.22
   2  -1  11    0.04    0.20
   2  -1  11    0.04    0.23
  -3   1 -11   12.87    0.71
   3  -1  11   14.01    0.69
   3  -1  11   12.42    0.75
  -4   1 -11    1.36    0.35
   4  -1  11    1.65    0.37
   4  -1  11    1.76    0.32
   5  -1  11    5.72    0.49
   5  -1  11    5.02    0.56
   6  -1  11    0.18    0.38
   6   0 -11   -0.18    0.29
   5   0 -11    0.83    0.31
   5   0 -11    1.00    0.29
   4   0 -11    0.22    0.22
   4   0 -11    0.30    0.26
   3   0 -11    3.51    0.33
   3   0 -11    2.78    0.35
   3   0 -11    3.07    0.32
  -3   0  11    3.68    0.31
  -3   0  11    3.14    0.35
   2   0 -11   13.14    0.61
   2   0 -11   11.56    0.65
   2   0 -11   13.16    0.62
  -2   0  11   13.20    0.60
  -2   0  11   12.87    0.66
   1   0 -11    0.05    0.18
   1   0 -11    0.06    0.16
   1   0 -11    0.07    0.20
  -1   0  11    0.20    0.17
  -1   0  11    0.17    0.22
  -1   0  11    0.20    0.17
   0   0 -11    9.43    0.50
   0   0 -11   10.43    0.51
   0   0 -11    8.79    0.49
   0   0 -11    8.74    0.54
   0   0  11    9.34    0.56
   0   0  11   10.21    0.52
   0   0  11    9.74    0.50
  -1   0 -11    2.39    0.27
  -1   0 -11    2.43    0.26
  -1   0 -11    2.33    0.32
   1   0  11    2.63    0.28
   1   0  11    2.18    0.26
   1   0  11    1.57    0.28
  -2   0 -11   15.51    0.77
  -2   0 -11   14.43    0.67
   2   0  11   15.84    0.72
   2   0  11   14.66    0.75
   2   0  11   14.79    0.69
  -3   0 -11    0.98    0.26
  -3   0 -11    1.19    0.13
  -3   0 -11    1.16    0.24
   3   0  11    0.97    0.29
   3   0  11    1.03    0.24
   3   0  11    1.15    0.24
  -4   0 -11    0.61    0.29
   4   0  11    0.49    0.29
   4   0  11    0.74    0.24
   5   0  11    2.79    0.42
   5   0  11    3.95    0.40
   6   0  11    0.66    0.36
   6  -1 -11    0.17    0.32
   5  -1 -11   -0.06    0.24
   5  -1 -11   -0.28    0.28
   4  -1 -11    0.30    0.24
   4  -1 -11    0.86    0.31
   3  -1 -11    0.03    0.21
   3  -1 -11    0.22    0.25
  -3   1  11   -0.09    0.23
   2  -1 -11    0.07    0.18
   2  -1 -11    0.29    0.20
   2  -1 -11    0.18    0.24
  -2   1  11    0.41    0.18
  -2   1  11    0.29    0.23
   1  -1 -11    5.69    0.39
   1  -1 -11    5.76    0.38
   1  -1 -11    5.46    0.43
  -1   1  11    5.51    0.43
  -1   1  11    6.36    0.41
  -1   1  11    4.86    0.35
   0  -1 -11    0.16    0.17
   0  -1 -11   -0.10    0.20
   0  -1 -11    0.01    0.17
   0   1  11    0.15    0.16
   0   1  11    0.06    0.17
   0   1  11    0.06    0.19
  -1  -1 -11    0.93    0.20
  -1  -1 -11    0.82    0.23
  -1  -1 -11    1.42    0.22
   1   1  11    1.38    0.26
   1   1  11    0.96    0.21
   1   1  11    1.04    0.21
  -2  -1 -11    3.95    0.31
  -2  -1 -11    5.41    0.37
  -2  -1 -11    5.56    0.44
  -2  -1 -11    5.49    0.36
   2   1  11    5.20    0.37
   2   1  11    5.52    0.38
   2   1  11    5.07    0.42
  -3  -1 -11    7.72    0.46
  -3  -1 -11    8.92    0.41
  -3  -1 -11    7.87    0.54
   3   1  11    8.02    0.48
   3   1  11    8.04    0.53
   3   1  11    7.98    0.48
  -4  -1 -11   10.42    0.60
   4   1  11   11.06    0.66
   4   1  11   10.25    0.56
   4   1  11   11.59    0.61
   5   1  11    0.56    0.30
   5   1  11    0.08    0.23
   6   1  11   15.19    0.76
   6   1  11   15.75    0.87
   7   1  11    0.35    0.34
   5  -2 -11    0.69    0.33
   4  -2 -11    0.11    0.28
   4  -2 -11    0.15    0.24
   3  -2 -11    0.27    0.28
   3  -2 -11   -0.04    0.21
  -3   2  11    0.11    0.27
   2  -2 -11    0.05    0.20
   2  -2 -11    0.28    0.20
   2  -2 -11    0.16    0.24
  -2   2  11   -0.01    0.24
  -2   2  11    0.00    0.19
   1  -2 -11   -0.05    0.18
   1  -2 -11    0.01    0.18
   1  -2 -11    0.46    0.22
  -1   2  11    0.32    0.18
  -1   2  11    0.38    0.25
  -1   2  11    0.17    0.18
   0  -2 -11    9.00    0.53
   0  -2 -11    9.09    0.50
   0  -2 -11    9.66    0.49
   0   2  11    9.56    0.49
   0   2  11    9.27    0.51
   0   2  11    8.88    0.53
  -1  -2 -11   11.55    0.63
  -1  -2 -11   12.33    0.57
  -1  -2 -11   12.75    0.59
   1   2  11   11.87    0.58
   1   2  11   11.73    0.59
   1   2  11   11.77    0.64
  -2  -2 -11    0.82    0.16
  -2  -2 -11    1.98    0.24
  -2  -2 -11    1.91    0.28
   2   2  11    1.87    0.29
   2   2  11    1.62    0.24
   2   2  11    1.76    0.25
  -3  -2 -11   18.26    0.77
  -3  -2 -11   19.17    0.79
  -3  -2 -11   19.77    0.85
   3   2  11   18.35    0.81
   3   2  11   19.32    0.87
   3   2  11   19.85    0.84
  -4  -2 -11    0.03    0.24
  -4  -2 -11    0.20    0.17
  -4  -2 -11    0.09    0.16
   4   2  11    0.13    0.20
   4   2  11   -0.06    0.19
   4   2  11   -0.14    0.23
   5   2  11   10.62    0.58
   5   2  11   10.35    0.67
   6   2  11    0.16    0.30
   6   2  11    0.12    0.24
   7   2  11    0.34    0.33
   5  -3 -11    1.27    0.40
   4  -3 -11   -0.26    0.26
   4  -3 -11    0.21    0.32
   3  -3 -11    0.23    0.28
   3  -3 -11    0.63    0.27
  -3   3  11    0.56    0.31
   2  -3 -11    1.27    0.26
   2  -3 -11    1.61    0.35
  -2   3  11    1.31    0.31
   1  -3 -11    5.82    0.41
   1  -3 -11    5.66    0.47
   1  -3 -11    5.91    0.42
  -1   3  11    6.47    0.44
  -1   3  11    5.35    0.45
  -1   3  11    4.88    0.39
   0  -3 -11   -0.03    0.18
   0  -3 -11    0.24    0.19
   0  -3 -11   -0.02    0.23
   0   3  11    0.16    0.22
   0   3  11    0.25    0.20
   0   3  11    0.30    0.19
  -1  -3 -11    1.29    0.22
  -1  -3 -11    1.00    0.21
  -1  -3 -11    1.44    0.27
   1   3  11    1.41    0.23
   1   3  11    1.54    0.28
   1   3  11    1.25    0.23
  -2  -3 -11    1.27    0.27
  -2  -3 -11    0.92    0.20
   2   3  11    1.28    0.24
   2   3  11    1.04    0.22
   2   3  11    1.00    0.27
  -3  -3 -11    0.59    0.25
  -3  -3 -11    1.12    0.21
   3   3  11    1.14    0.25
   3   3  11    1.26    0.29
   3   3  11    1.34    0.24
  -4  -3 -11    8.84    0.53
  -4  -3 -11    8.44    0.46
   4   3  11    9.63    0.52
   4   3  11    8.31    0.49
   4   3  11    7.78    0.53
   5   3  11    3.26    0.39
   5   3  11    3.40    0.35
   6   3  11    0.21    0.30
   6   3  11    0.12    0.24
   7   3  11    8.83    0.65
   4  -4 -11    0.86    0.37
   3  -4 -11   -0.01    0.28
   3  -4 -11    0.07    0.32
   2  -4 -11    4.01    0.47
   2  -4 -11    4.16    0.41
  -2   4  11    4.03    0.46
   1  -4 -11    2.55    0.39
   1  -4 -11    2.92    0.34
  -1   4  11    3.00    0.40
   0  -4 -11    0.33    0.22
   0  -4 -11    0.06    0.25
   0  -4 -11   -0.09    0.19
   0   4  11    0.07    0.26
   0   4  11   -0.10    0.20
   0   4  11    0.10    0.23
  -1  -4 -11    1.86    0.26
  -1  -4 -11    2.04    0.27
  -1  -4 -11    1.95    0.31
   1   4  11    2.12    0.28
   1   4  11    1.87    0.31
   1   4  11    2.11    0.29
  -2  -4 -11    0.18    0.19
  -2  -4 -11    0.51    0.24
   2   4  11    0.33    0.20
   2   4  11    0.46    0.22
   2   4  11    0.42    0.24
  -3  -4 -11    4.59    0.42
  -3  -4 -11    4.85    0.34
   3   4  11    4.14    0.36
   3   4  11    4.42    0.37
   3   4  11    3.15    0.38
  -4  -4 -11    5.44    0.44
   4   4  11    4.83    0.45
   4   4  11    6.00    0.43
   5   4  11    1.51    0.34
   5   4  11    1.57    0.28
   6   4  11    1.15    0.33
   6   4  11    0.89    0.26
   7   4  11   -0.33    0.29
   8   4  11    0.18    0.33
   3  -5 -11   -0.18    0.32
   2  -5 -11    0.13    0.33
  -2   5  11    0.29    0.33
   1  -5 -11    1.79    0.38
  -1   5  11    0.96    0.36
   0  -5 -11    0.65    0.26
   0  -5 -11    0.65    0.33
   0   5  11    0.76    0.32
  -1  -5 -11   -0.22    0.27
   1   5  11   -0.05    0.27
   1   5  11    0.11    0.23
  -2  -5 -11    0.11    0.20
  -2  -5 -11   -0.11    0.23
   2   5  11    0.02    0.23
   2   5  11   -0.08    0.26
  -3  -5 -11    1.07    0.29
   3   5  11    0.58    0.28
   3   5  11    0.80    0.26
  -4  -5 -11    0.38    0.26
   4   5  11    0.06    0.24
   4   5  11    0.14    0.27
   5   5  11    0.66    0.25
   5   5  11    0.83    0.30
   6   5  11    0.39    0.27
   6   5  11   -0.15    0.30
   7   5  11   -0.09    0.31
   2  -6 -11    0.49    0.40
  -2   6  11    0.67    0.41
   1  -6 -11    0.38    0.35
  -1   6  11   -0.25    0.31
   0  -6 -11   -0.39    0.32
   0   6  11    0.09    0.33
  -1  -6 -11    1.08    0.36
   1   6  11    1.69    0.37
  -2  -6 -11    1.16    0.35
   2   6  11    1.09    0.33
   2   6  11    1.38    0.34
  -3  -6 -11   -0.25    0.25
   3   6  11    0.18    0.28
   3   6  11    0.25    0.27
  -4  -6 -11    1.32    0.33
   4   6  11    1.43    0.36
   4   6  11    0.93    0.30
   5   6  11    0.49    0.32
   5   6  11   -0.03    0.27
   6   6  11   -0.16    0.27
   6   6  11    0.38    0.33
   7   6  11    0.49    0.35
   1  -7 -11    0.45    0.42
  -1   7  11   -0.05    0.40
   0  -7 -11    0.25    0.39
   0   7  11    0.09    0.36
  -1  -7 -11   -0.10    0.37
   1   7  11    0.08    0.34
  -2  -7 -11    0.46    0.34
   2   7  11    0.49    0.37
  -3  -7 -11    0.89    0.37
   3   7  11    0.32    0.35
  -4  -7 -11    0.17    0.31
   4   7  11    0.00    0.33
   4   7  11   -0.25    0.28
   5   7  11    0.45    0.32
   5   7  11    0.02    0.34
   6   7  11    0.52    0.36
   7   7  11    0.22    0.36
  -1  -8 -11    0.88    0.46
   1   8  11    0.18    0.41
  -2  -8 -11   -0.05    0.41
   2   8  11    0.14    0.37
  -3  -8 -11    0.68    0.41
   3   8  11    0.92    0.43
   4   8  11    0.14    0.39
   5   8  11    0.75    0.41
   6   8  11    0.03    0.38
   4   6 -12    0.78    0.39
   4   6 -12    0.79    0.42
   3   6 -12    2.23    0.49
   2   6 -12   -0.09    0.41
  -2  -6  12   -0.63    0.41
   1   6 -12    0.48    0.48
  -1  -6  12    1.44    0.52
   0   6 -12    0.52    0.47
   0  -6  12    0.07    0.48
   5   5 -12    0.42    0.39
   4   5 -12    0.02    0.30
   4   5 -12    0.10    0.35
   4   5 -12    0.05    0.35
   3   5 -12    0.51    0.33
   3   5 -12    0.28    0.31
   3   5 -12    0.09    0.34
   2   5 -12   -0.19    0.26
   2   5 -12    0.44    0.38
  -2  -5  12    0.12    0.36
   1   5 -12    1.13    0.45
  -1  -5  12    2.09    0.45
   0   5 -12    0.28    0.42
   0  -5  12    0.25    0.39
  -1   5 -12    2.62    0.57
   1  -5  12    1.85    0.50
  -2   5 -12   -0.49    0.46
   2  -5  12   -0.08    0.47
   6   4 -12    0.01    0.35
   5   4 -12    1.28    0.38
   5   4 -12    0.91    0.38
   4   4 -12    0.64    0.34
   4   4 -12    0.14    0.28
   4   4 -12   -0.42    0.32
   3   4 -12    0.22    0.34
   3   4 -12    0.96    0.32
   3   4 -12    0.90    0.32
  -3  -4  12    0.66    0.35
   2   4 -12    0.87    0.28
   2   4 -12    0.53    0.30
   2   4 -12    0.64    0.36
  -2  -4  12    0.70    0.36
   1   4 -12    1.82    0.29
   1   4 -12    1.62    0.43
  -1  -4  12    1.10    0.39
   0   4 -12    8.23    0.70
   0  -4  12    9.07    0.74
  -1   4 -12    0.26    0.40
   1  -4  12    0.11    0.39
  -2   4 -12    1.00    0.45
   2  -4  12    1.50    0.47
  -3   4 -12   -0.01    0.44
   3  -4  12   -0.14    0.38
   6   3 -12    0.18    0.33
   5   3 -12    0.67    0.33
   5   3 -12    0.52    0.29
   4   3 -12   -0.19    0.26
   4   3 -12   -0.74    0.26
   3   3 -12    2.10    0.36
   3   3 -12    1.62    0.37
  -3  -3  12    2.44    0.39
   2   3 -12    0.31    0.30
   2   3 -12   -0.05    0.24
  -2  -3  12    0.00    0.28
   1   3 -12    9.20    0.64
   1   3 -12    8.70    0.58
   1   3 -12    9.14    0.52
  -1  -3  12    9.71    0.64
   0   3 -12    0.39    0.19
   0   3 -12   -0.09    0.32
   0  -3  12    0.15    0.33
  -1   3 -12    0.21    0.34
   1  -3  12    0.71    0.34
  -2   3 -12    3.93    0.51
   2  -3  12    3.88    0.51
  -3   3 -12   -0.01    0.34
   3  -3  12   -0.07    0.34
   4  -3  12    4.19    0.59
   6   2 -12    0.35    0.32
   5   2 -12    0.18    0.30
   5   2 -12    0.04    0.25
   4   2 -12    0.86    0.33
   4   2 -12    1.33    0.30
   3   2 -12    0.59    0.29
   3   2 -12    0.90    0.27
  -3  -2  12    0.97    0.30
   2   2 -12   12.34    0.64
   2   2 -12   10.64    0.65
  -2  -2  12   11.15    0.66
   1   2 -12    0.32    0.23
   1   2 -12    0.39    0.29
  -1  -2  12    0.13    0.27
  -1  -2  12    0.13    0.21
   0   2 -12   -0.26    0.22
   0   2 -12    0.03    0.26
   0  -2  12   -0.14    0.24
   0  -2  12   -0.06    0.21
   0  -2  12    0.22    0.23
  -1   2 -12   12.06    0.65
  -1   2 -12   12.55    0.53
  -1   2 -12   11.94    0.73
   1  -2  12   13.56    0.74
   1  -2  12   11.78    0.66
  -2   2 -12    0.54    0.33
   2  -2  12    0.40    0.27
   2  -2  12    0.52    0.32
  -3   2 -12    4.13    0.52
   3  -2  12    4.36    0.54
   3  -2  12    4.55    0.46
   4  -2  12    0.01    0.31
   4  -2  12    0.28    0.34
   5  -2  12    0.70    0.41
   6   1 -12   -0.02    0.30
   5   1 -12    0.20    0.25
   5   1 -12    0.39    0.31
   4   1 -12    0.31    0.25
   4   1 -12    0.12    0.27
   3   1 -12    0.25    0.24
   3   1 -12    0.44    0.28
  -3  -1  12    0.05    0.26
   2   1 -12    6.20    0.45
   2   1 -12    4.16    0.44
   2   1 -12    5.33    0.40
   2   1 -12    5.89    0.41
  -2  -1  12    4.77    0.45
   1   1 -12   11.77    0.60
   1   1 -12   11.45    0.68
   1   1 -12   11.71    0.62
  -1  -1  12   12.39    0.62
  -1  -1  12   11.68    0.66
   0   1 -12    0.60    0.28
   0   1 -12    0.14    0.19
   0   1 -12    0.26    0.21
   0  -1  12    0.61    0.21
   0  -1  12    0.53    0.21
   0  -1  12    0.56    0.27
  -1   1 -12    2.15    0.28
  -1   1 -12    2.13    0.36
  -1   1 -12    2.01    0.30
   1  -1  12    1.86    0.28
   1  -1  12    2.17    0.31
   1  -1  12    2.11    0.36
  -2   1 -12    9.65    0.64
  -2   1 -12    8.94    0.54
   2  -1  12    7.51    0.57
   2  -1  12    7.96    0.52
  -3   1 -12    3.50    0.45
   3  -1  12    4.65    0.50
   3  -1  12    4.79    0.42
  -4   1 -12    0.53    0.33
   4  -1  12    0.52    0.34
   4  -1  12    0.93    0.31
   5  -1  12    8.56    0.71
   5  -1  12    8.99    0.64
   6  -1  12    0.93    0.41
   6   0 -12   -0.18    0.30
   5   0 -12    0.12    0.26
   5   0 -12    0.13    0.30
   4   0 -12    0.55    0.25
   4   0 -12    0.61    0.29
   3   0 -12    1.70    0.33
   3   0 -12    1.74    0.29
  -3   0  12    1.31    0.31
   2   0 -12    0.85    0.22
   2   0 -12    0.62    0.27
   2   0 -12    0.75    0.23
  -2   0  12    0.62    0.22
  -2   0  12    0.98    0.26
   1   0 -12   19.32    0.87
   1   0 -12   19.74    0.84
   1   0 -12   19.75    0.84
  -1   0  12   16.33    0.80
  -1   0  12   20.39    0.85
  -1   0  12   20.14    0.89
   0   0 -12    1.72    0.25
   0   0 -12    1.27    0.23
   0   0 -12    1.42    0.28
   0   0 -12    1.24    0.24
   0   0  12    1.63    0.30
   0   0  12    2.07    0.27
   0   0  12    0.88    0.22
  -1   0 -12    4.62    0.37
  -1   0 -12    4.34    0.37
  -1   0 -12    4.58    0.44
   1   0  12    4.38    0.44
   1   0  12    3.98    0.36
   1   0  12    4.74    0.38
  -2   0 -12   11.85    0.70
  -2   0 -12   14.43    0.65
   2   0  12   12.43    0.73
   2   0  12   13.48    0.69
   2   0  12   14.09    0.66
  -3   0 -12    0.22    0.26
   3   0  12    0.45    0.29
   3   0  12    0.37    0.24
  -4   0 -12    8.57    0.63
   4   0  12    9.80    0.59
   4   0  12    8.00    0.64
   5   0  12    0.07    0.28
   5   0  12    0.26    0.34
   6   0  12   -0.08    0.34
   5  -1 -12    0.33    0.33
   4  -1 -12    0.62    0.31
   4  -1 -12    0.71    0.27
   3  -1 -12   -0.01    0.23
   3  -1 -12   -0.23    0.25
  -3   1  12   -0.04    0.27
   2  -1 -12    2.16    0.34
   2  -1 -12    2.89    0.33
  -2   1  12    2.16    0.34
   1  -1 -12    3.00    0.36
   1  -1 -12    3.33    0.32
   1  -1 -12    3.68    0.34
  -1   1  12    3.51    0.38
  -1   1  12    3.86    0.33
  -1   1  12    4.30    0.35
   0  -1 -12    0.38    0.19
   0  -1 -12    0.37    0.24
   0  -1 -12    0.37    0.19
   0   1  12    0.41    0.19
   0   1  12    0.21    0.19
   0   1  12    0.65    0.25
  -1  -1 -12    2.55    0.28
  -1  -1 -12    2.65    0.29
  -1  -1 -12    2.43    0.34
   1   1  12    2.16    0.28
   1   1  12    1.91    0.31
   1   1  12    2.80    0.29
  -2  -1 -12    0.02    0.07
  -2  -1 -12    0.12    0.17
  -2  -1 -12   -0.01    0.24
  -2  -1 -12    0.42    0.19
   2   1  12    0.17    0.25
   2   1  12    0.02    0.19
   2   1  12   -0.06    0.20
  -3  -1 -12   15.43    0.75
  -3  -1 -12   15.06    0.70
  -3  -1 -12   14.33    0.62
   3   1  12   15.14    0.72
   3   1  12   14.72    0.75
   3   1  12   15.66    0.72
  -4  -1 -12    2.04    0.34
   4   1  12    2.52    0.38
   4   1  12    2.53    0.33
   5   1  12    2.75    0.35
   5   1  12    2.41    0.42
   6   1  12    1.62    0.40
   7   1  12    0.32    0.34
   5  -2 -12    0.53    0.36
   4  -2 -12    0.00    0.24
   4  -2 -12    0.04    0.30
   3  -2 -12    0.46    0.26
   3  -2 -12    0.74    0.31
  -3   2  12    0.79    0.31
   2  -2 -12    0.09    0.25
   2  -2 -12    0.19    0.22
  -2   2  12    0.13    0.26
   1  -2 -12   12.06    0.60
   1  -2 -12   10.81    0.60
   1  -2 -12   11.21    0.65
  -1   2  12   12.11    0.64
  -1   2  12   11.48    0.59
  -1   2  12    9.53    0.55
   0  -2 -12   18.53    0.77
   0  -2 -12   16.81    0.76
   0  -2 -12   17.35    0.83
   0   2  12   16.40    0.75
   0   2  12   18.13    0.84
   0   2  12   16.49    0.77
  -1  -2 -12    3.48    0.32
  -1  -2 -12    4.10    0.38
  -1  -2 -12    2.52    0.28
   1   2  12    2.74    0.31
   1   2  12    2.57    0.35
   1   2  12    2.63    0.30
  -2  -2 -12   23.99    0.96
  -2  -2 -12   22.19    0.99
   2   2  12   23.14    0.97
   2   2  12   24.73    1.03
   2   2  12   23.10    0.97
  -3  -2 -12    5.10    0.35
  -3  -2 -12    5.24    0.38
  -3  -2 -12    5.07    0.45
   3   2  12    4.79    0.40
   3   2  12    4.54    0.44
   3   2  12    4.64    0.38
  -4  -2 -12    0.14    0.26
   4   2  12    0.10    0.27
   4   2  12    0.27    0.23
   5   2  12    5.23    0.50
   5   2  12    4.89    0.43
   6   2  12    0.27    0.32
   6   2  12    0.22    0.27
   7   2  12    0.04    0.35
   4  -3 -12    0.95    0.33
   4  -3 -12    0.85    0.36
   3  -3 -12    0.36    0.29
   3  -3 -12    0.29    0.26
   2  -3 -12    0.34    0.29
   2  -3 -12    0.44    0.25
  -2   3  12    0.14    0.28
   1  -3 -12   45.10    1.66
   1  -3 -12   43.69    1.68
  -1   3  12   43.23    1.67
   0  -3 -12    4.71    0.39
   0  -3 -12    4.39    0.38
   0  -3 -12    4.54    0.43
   0   3  12    4.53    0.45
   0   3  12    5.01    0.40
   0   3  12    4.42    0.38
  -1  -3 -12    0.34    0.26
  -1  -3 -12    0.60    0.21
  -1  -3 -12    0.57    0.20
   1   3  12    0.56    0.26
   1   3  12    0.47    0.22
   1   3  12    0.50    0.21
  -2  -3 -12    2.84    0.36
  -2  -3 -12    3.19    0.32
   2   3  12    2.43    0.30
   2   3  12    2.94    0.38
   2   3  12    2.51    0.30
  -3  -3 -12    0.97    0.21
  -3  -3 -12    0.79    0.27
   3   3  12    0.95    0.28
   3   3  12    0.80    0.23
   3   3  12    1.06    0.26
  -4  -3 -12    1.65    0.31
   4   3  12    1.09    0.27
   4   3  12    2.33    0.36
   5   3  12    0.04    0.28
   5   3  12   -0.25    0.22
   6   3  12    3.43    0.47
   6   3  12    3.36    0.38
   7   3  12    0.20    0.34
   4  -4 -12   -0.08    0.37
   3  -4 -12    0.37    0.29
   3  -4 -12   -0.03    0.34
   2  -4 -12    0.35    0.33
   2  -4 -12    0.22    0.26
  -2   4  12   -0.31    0.29
   1  -4 -12    0.36    0.32
   1  -4 -12    0.38    0.27
  -1   4  12    0.65    0.30
   0  -4 -12    6.83    0.47
   0  -4 -12    7.39    0.56
   0   4  12    6.61    0.55
   0   4  12    6.48    0.47
  -1  -4 -12    2.26    0.36
  -1  -4 -12    2.45    0.32
  -1  -4 -12    2.26    0.31
   1   4  12    1.26    0.31
   1   4  12    2.50    0.31
   1   4  12    2.43    0.32
  -2  -4 -12    0.64    0.23
  -2  -4 -12    1.42    0.32
   2   4  12    0.62    0.29
   2   4  12    1.22    0.26
  -3  -4 -12    8.41    0.54
   3   4  12    7.88    0.51
   3   4  12    8.87    0.58
  -4  -4 -12   -0.15    0.24
   4   4  12    0.62    0.23
   4   4  12    0.11    0.27
   5   4  12    2.53    0.34
   5   4  12    2.22    0.39
   6   4  12    0.62    0.34
   6   4  12    0.89    0.29
   7   4  12    0.02    0.33
   3  -5 -12    0.04    0.38
   2  -5 -12    0.35    0.37
  -2   5  12   -0.32    0.33
   1  -5 -12    1.53    0.41
  -1   5  12    0.88    0.36
   0  -5 -12    1.23    0.37
   0   5  12    1.65    0.38
  -1  -5 -12    0.37    0.29
   1   5  12   -0.13    0.28
  -2  -5 -12    1.75    0.29
  -2  -5 -12    1.81    0.35
   2   5  12    1.27    0.34
   2   5  12    1.29    0.30
  -3  -5 -12    0.18    0.27
   3   5  12    0.05    0.27
   3   5  12    0.40    0.25
  -4  -5 -12    0.72    0.29
   4   5  12    0.35    0.30
   4   5  12    0.68    0.27
   5   5  12   -0.19    0.25
   5   5  12    0.12    0.29
   6   5  12    0.23    0.28
   7   5  12    1.14    0.39
   2  -6 -12   -0.25    0.40
   1  -6 -12    0.52    0.41
  -1   6  12    0.19    0.38
   0  -6 -12    0.24    0.37
   0   6  12    0.43    0.34
  -1  -6 -12    0.06    0.34
   1   6  12    0.29    0.33
  -2  -6 -12   -0.03    0.31
   2   6  12    0.27    0.33
  -3  -6 -12    0.25    0.29
   3   6  12    0.02    0.30
   3   6  12    0.33    0.30
  -4  -6 -12    1.39    0.35
   4   6  12    1.44    0.32
   4   6  12    0.71    0.34
   5   6  12   -0.16    0.31
   5   6  12    0.19    0.28
   6   6  12    0.37    0.30
   6   6  12    0.83    0.36
   7   6  12   -0.11    0.35
   1  -7 -12    0.65    0.43
  -1   7  12    0.48    0.44
   0  -7 -12    0.32    0.40
   0   7  12    0.18    0.39
  -1  -7 -12    0.75    0.42
   1   7  12    0.20    0.35
  -2  -7 -12    0.21    0.35
   2   7  12    0.37    0.35
  -3  -7 -12    0.12    0.34
   3   7  12   -0.05    0.32
  -4  -7 -12   -0.11    0.31
   4   7  12    0.43    0.33
   4   7  12   -0.33    0.34
   5   7  12    0.19    0.34
   5   7  12    0.70    0.38
   6   7  12    0.29    0.36
  -1  -8 -12    0.86    0.49
   1   8  12    1.09    0.47
  -2  -8 -12    0.38    0.44
   2   8  12    0.47    0.41
  -3  -8 -12    0.22    0.38
   3   8  12    0.25    0.38
   4   8  12   -0.08    0.36
   5   8  12    0.53    0.42
   2   6 -13    0.93    0.46
  -2  -6  13    0.96    0.49
   4   5 -13    0.61    0.36
   4   5 -13    0.32    0.37
   4   5 -13    0.56    0.40
   3   5 -13   -0.14    0.32
   3   5 -13    0.10    0.36
   2   5 -13    0.75    0.44
  -2  -5  13    1.22    0.45
   1   5 -13    0.28    0.40
  -1  -5  13    0.98    0.45
   0   5 -13    0.19    0.44
   0  -5  13   -0.13    0.43
  -1   5 -13   -0.03    0.46
   1  -5  13   -0.86    0.42
   5   4 -13    0.13    0.35
   4   4 -13    0.68    0.37
   4   4 -13    0.92    0.34
   4   4 -13    0.71    0.38
   3   4 -13    2.16    0.39
   3   4 -13    2.41    0.39
   3   4 -13    2.22    0.45
   2   4 -13    0.55    0.37
   2   4 -13   -0.14    0.26
  -2  -4  13    0.03    0.35
   1   4 -13    1.30    0.43
  -1  -4  13    0.71    0.40
   0   4 -13    0.67    0.40
   0  -4  13    0.80    0.43
  -1   4 -13    0.50    0.43
   1  -4  13    0.88    0.45
  -2   4 -13    1.30    0.49
   2  -4  13    1.32    0.47
   3  -4  13    0.51    0.48
   6   3 -13   -0.27    0.33
   5   3 -13   -0.05    0.32
   4   3 -13    0.55    0.34
   4   3 -13    1.02    0.34
   3   3 -13    0.40    0.29
   3   3 -13    0.13    0.31
  -3  -3  13    0.06    0.31
   2   3 -13   -0.39    0.25
   2   3 -13    0.13    0.32
  -2  -3  13    0.32    0.34
   1   3 -13   -0.10    0.32
   1   3 -13    0.53    0.29
  -1  -3  13   -0.16    0.33
   0   3 -13    2.38    0.46
   0  -3  13    2.62    0.47
  -1   3 -13    0.97    0.40
   1  -3  13    1.09    0.40
  -2   3 -13    0.26    0.38
   2  -3  13    0.22    0.35
  -3   3 -13   -0.50    0.38
   3  -3  13    0.37    0.39
   4  -3  13    0.32    0.43
   6   2 -13    0.09    0.34
   5   2 -13    0.24    0.33
   4   2 -13    0.14    0.27
   4   2 -13    0.15    0.31
   3   2 -13    0.53    0.29
   3   2 -13    0.30    0.31
  -3  -2  13    0.51    0.31
   2   2 -13    1.46    0.37
   2   2 -13    1.95    0.35
  -2  -2  13    2.20    0.38
   1   2 -13    1.46    0.32
   1   2 -13    1.61    0.37
  -1  -2  13    1.59    0.35
   0   2 -13   22.60    1.00
   0   2 -13   21.18    1.03
   0  -2  13   21.66    1.05
  -1   2 -13    1.46    0.38
   1  -2  13    1.15    0.36
  -2   2 -13    0.42    0.36
   2  -2  13    0.60    0.37
  -3   2 -13    2.14    0.45
   3  -2  13    1.91    0.43
   4  -2  13    1.13    0.44
   5  -2  13    0.48    0.43
   6   1 -13    0.85    0.36
   5   1 -13   -0.22    0.30
   4   1 -13    0.04    0.27
   4   1 -13    0.11    0.29
   3   1 -13    6.17    0.52
   3   1 -13    6.83    0.51
  -3  -1  13    6.62    0.53
   2   1 -13    0.07    0.25
   2   1 -13    0.40    0.29
  -2  -1  13   -0.05    0.27
   1   1 -13    6.71    0.55
   1   1 -13    6.34    0.47
  -1  -1  13    6.10    0.53
   0   1 -13    2.86    0.39
   0   1 -13    2.18    0.33
   0  -1  13    2.15    0.31
   0  -1  13    2.28    0.32
   0  -1  13    2.27    0.36
  -1   1 -13    1.84    0.29
  -1   1 -13    2.16    0.34
  -1   1 -13    2.03    0.37
   1  -1  13    1.97    0.37
   1  -1  13    2.47    0.32
  -2   1 -13    6.21    0.57
   2  -1  13    6.81    0.58
   2  -1  13    6.54    0.49
  -3   1 -13    1.59    0.38
   3  -1  13    1.20    0.38
   3  -1  13    1.71    0.33
  -4   1 -13    2.38    0.43
   4  -1  13    1.15    0.37
   4  -1  13    1.34    0.35
   5  -1  13    0.43    0.35
   5  -1  13    0.56    0.40
   5   0 -13    0.15    0.31
   4   0 -13    0.13    0.28
   4   0 -13   -0.07    0.26
   3   0 -13    0.73    0.26
   3   0 -13    0.83    0.32
  -3   0  13    0.52    0.32
   2   0 -13    8.97    0.59
   2   0 -13    9.56    0.57
  -2   0  13   10.30    0.63
   1   0 -13    4.65    0.46
   1   0 -13    4.77    0.40
  -1   0  13    4.18    0.43
  -1   0  13    6.04    0.44
  -1   0  13    3.40    0.34
   0   0 -13    2.85    0.31
   0   0 -13    2.83    0.37
   0   0 -13    3.14    0.33
   0   0 -13    2.42    0.31
   0   0  13    2.28    0.30
   0   0  13    2.79    0.38
   0   0  13    2.91    0.33
  -1   0 -13   11.89    0.62
  -1   0 -13   10.79    0.59
  -1   0 -13   11.07    0.67
   1   0  13   11.14    0.66
   1   0  13   11.65    0.64
   1   0  13   11.64    0.62
  -2   0 -13    0.21    0.29
  -2   0 -13   -0.13    0.19
   2   0  13    0.01    0.23
   2   0  13    0.68    0.30
  -3   0 -13    2.29    0.38
   3   0  13    1.79    0.33
   3   0  13    1.80    0.38
  -4   0 -13    2.47    0.40
   4   0  13    2.55    0.36
   4   0  13    4.03    0.48
   5   0  13    2.16    0.43
   5   0  13    2.22    0.39
   6   0  13    1.08    0.41
   5  -1 -13    0.85    0.36
   4  -1 -13   -0.14    0.26
   4  -1 -13   -0.03    0.29
   3  -1 -13    0.09    0.28
   3  -1 -13   -0.14    0.23
  -3   1  13    0.02    0.28
   2  -1 -13   14.15    0.71
   2  -1 -13   14.98    0.78
  -2   1  13   13.64    0.75
   1  -1 -13    6.65    0.54
   1  -1 -13    7.28    0.47
  -1   1  13    6.87    0.53
  -1   1  13    6.93    0.48
   0  -1 -13    4.22    0.36
   0  -1 -13    3.52    0.34
   0  -1 -13    3.92    0.42
   0   1  13    4.53    0.43
   0   1  13    3.70    0.35
   0   1  13    3.96    0.36
  -1  -1 -13    0.01    0.19
  -1  -1 -13   -0.10    0.18
  -1  -1 -13    0.04    0.20
  -1  -1 -13   -0.10    0.22
   1   1  13    0.07    0.19
   1   1  13    0.34    0.27
   1   1  13    0.44    0.22
  -2  -1 -13    5.08    0.38
  -2  -1 -13    4.12    0.43
   2   1  13    3.65    0.37
   2   1  13    3.81    0.44
  -3  -1 -13    0.29    0.29
   3   1  13    0.32    0.28
   3   1  13    0.66    0.27
  -4  -1 -13    0.21    0.29
   4   1  13    0.15    0.27
   4   1  13    0.34    0.32
   5   1  13    1.06    0.38
   5   1  13    1.10    0.31
   6   1  13   -0.04    0.35
   5  -2 -13    0.45    0.36
   4  -2 -13   -0.14    0.26
   4  -2 -13    0.05    0.32
   3  -2 -13   -0.05    0.25
   3  -2 -13    0.40    0.31
   2  -2 -13    0.06    0.27
   2  -2 -13    0.12    0.24
  -2   2  13    0.40    0.30
   1  -2 -13    4.78    0.47
   1  -2 -13    5.37    0.43
  -1   2  13    6.10    0.51
   0  -2 -13    9.38    0.52
   0  -2 -13    8.46    0.51
   0  -2 -13    7.50    0.59
   0   2  13    9.01    0.52
   0   2  13    9.01    0.60
   0   2  13    9.01    0.53
  -1  -2 -13    2.40    0.30
  -1  -2 -13    2.42    0.29
  -1  -2 -13    2.31    0.34
   1   2  13    2.96    0.33
   1   2  13    2.82    0.38
   1   2  13    2.78    0.32
  -2  -2 -13    3.23    0.38
  -2  -2 -13    2.76    0.31
   2   2  13    3.03    0.38
   2   2  13    3.25    0.35
   2   2  13    3.34    0.34
  -3  -2 -13    0.93    0.28
   3   2  13    0.78    0.31
   3   2  13    0.88    0.26
  -4  -2 -13    5.21    0.48
   4   2  13    4.86    0.43
   4   2  13    4.62    0.48
   5   2  13    0.22    0.28
   5   2  13   -0.48    0.30
   6   2  13    1.89    0.42
   6   2  13    2.75    0.39
   7   2  13   -0.02    0.37
   4  -3 -13    0.52    0.36
   3  -3 -13    0.53    0.30
   3  -3 -13    0.29    0.33
   2  -3 -13    0.74    0.27
   2  -3 -13    0.57    0.32
  -2   3  13    0.18    0.31
   1  -3 -13    0.36    0.31
   1  -3 -13    0.22    0.24
  -1   3  13    0.22    0.30
   0  -3 -13    0.18    0.26
   0  -3 -13    0.32    0.23
   0   3  13   -0.14    0.27
   0   3  13    0.12    0.21
  -1  -3 -13   11.53    0.60
  -1  -3 -13   10.12    0.64
  -1  -3 -13   10.78    0.59
   1   3  13   10.76    0.67
   1   3  13   11.25    0.61
   1   3  13   11.28    0.60
  -2  -3 -13    0.39    0.21
  -2  -3 -13    0.73    0.29
   2   3  13    0.73    0.25
   2   3  13    0.62    0.29
  -3  -3 -13    0.51    0.29
   3   3  13    0.66    0.26
   3   3  13    0.41    0.27
  -4  -3 -13    0.17    0.27
   4   3  13    0.08    0.24
   4   3  13   -0.09    0.29
   5   3  13    0.12    0.25
   5   3  13    0.35    0.31
   6   3  13   -0.16    0.27
   6   3  13    0.18    0.34
   7   3  13    0.11    0.37
   3  -4 -13    0.04    0.35
   2  -4 -13    0.65    0.35
   2  -4 -13    0.79    0.30
  -2   4  13    0.28    0.34
   1  -4 -13    1.69    0.32
   1  -4 -13    1.39    0.35
  -1   4  13    1.32    0.36
   0  -4 -13    6.55    0.55
   0  -4 -13    5.84    0.47
   0   4  13    5.60    0.51
  -1  -4 -13    2.08    0.37
   1   4  13    1.23    0.33
   1   4  13    1.21    0.30
  -2  -4 -13    1.44    0.32
  -2  -4 -13    1.12    0.26
   2   4  13    0.74    0.29
   2   4  13    0.73    0.27
  -3  -4 -13    0.05    0.27
   3   4  13    0.18    0.25
   3   4  13   -0.05    0.28
  -4  -4 -13    0.27    0.28
   4   4  13    0.01    0.29
   4   4  13    0.09    0.23
   5   4  13    3.11    0.37
   5   4  13    3.31    0.46
   6   4  13    0.07    0.26
   6   4  13    0.31    0.33
   7   4  13    2.44    0.45
   3  -5 -13   -0.11    0.39
   2  -5 -13    0.40    0.40
  -2   5  13    0.01    0.37
   1  -5 -13    3.89    0.51
  -1   5  13    2.76    0.46
   0  -5 -13    0.14    0.35
   0   5  13    0.35    0.31
  -1  -5 -13   -0.09    0.31
   1   5  13   -0.29    0.27
  -2  -5 -13    0.00    0.27
   2   5  13    0.05    0.26
   2   5  13   -0.33    0.26
  -3  -5 -13    0.44    0.31
   3   5  13    0.73    0.32
   3   5  13    0.55    0.28
  -4  -5 -13   -0.11    0.29
   4   5  13    0.25    0.28
   4   5  13    0.04    0.29
   5   5  13    1.00    0.32
   5   5  13    0.47    0.35
   6   5  13   -0.12    0.28
   6   5  13    0.21    0.37
   7   5  13    0.58    0.37
   1  -6 -13   -0.28    0.39
  -1   6  13   -0.09    0.37
   0  -6 -13    0.11    0.35
   0   6  13   -0.45    0.34
  -1  -6 -13    0.38    0.37
   1   6  13    0.00    0.32
  -2  -6 -13    0.05    0.33
   2   6  13   -0.05    0.30
  -3  -6 -13    0.04    0.32
   3   6  13   -0.19    0.33
  -4  -6 -13    0.01    0.31
   4   6  13    0.10    0.31
   4   6  13   -0.15    0.29
   5   6  13   -0.30    0.32
   5   6  13   -0.14    0.28
   6   6  13    1.04    0.39
   7   6  13    0.41    0.38
   0  -7 -13    0.08    0.43
   0   7  13    0.25    0.39
  -1  -7 -13    0.31    0.39
   1   7  13   -0.16    0.34
  -2  -7 -13    2.04    0.46
   2   7  13    1.73    0.43
  -3  -7 -13    0.27    0.34
   3   7  13    0.31    0.38
   4   7  13    0.11    0.37
   5   7  13    0.36    0.39
   5   7  13    0.87    0.36
   6   7  13    0.43    0.40
  -2  -8 -13   -0.12    0.43
   2   8  13    0.04    0.43
  -3  -8 -13    0.93    0.44
   3   8  13    0.66    0.43
   4   8  13    0.29    0.39
   5   8  13    0.30    0.42
   4   5 -14    0.20    0.41
   3   5 -14   -0.05    0.42
   2   5 -14   -0.40    0.38
  -2  -5  14    0.59    0.45
   1   5 -14    0.49    0.44
  -1  -5  14    0.71    0.48
   0   5 -14    0.46    0.47
   0  -5  14   -0.58    0.45
   5   4 -14    0.50    0.41
   4   4 -14   -0.26    0.33
   4   4 -14   -0.19    0.37
   4   4 -14   -0.46    0.33
   3   4 -14    0.16    0.32
   3   4 -14    0.22    0.39
   2   4 -14    0.16    0.38
   2   4 -14   -0.40    0.26
  -2  -4  14    0.09    0.38
   1   4 -14    1.19    0.43
  -1  -4  14    0.56    0.43
   0   4 -14    1.06    0.44
   0  -4  14    1.68    0.49
  -1   4 -14    0.57    0.46
   1  -4  14   -0.29    0.42
  -2   4 -14   -0.08    0.43
   2  -4  14   -0.25    0.45
   5   3 -14    0.20    0.35
   4   3 -14    0.03    0.32
   4   3 -14    0.77    0.36
   3   3 -14    0.00    0.33
   3   3 -14   -0.11    0.31
   2   3 -14    1.06    0.34
   2   3 -14    0.73    0.35
  -2  -3  14    0.35    0.37
   1   3 -14    0.05    0.33
  -1  -3  14   -0.08    0.34
   0   3 -14    2.51    0.49
   0  -3  14    4.17    0.55
  -1   3 -14   -0.29    0.37
   1  -3  14    0.42    0.41
  -2   3 -14    1.99    0.47
   2  -3  14    2.41    0.53
  -3   3 -14   -0.05    0.38
   3  -3  14   -0.06    0.39
   5   2 -14    0.32    0.36
   4   2 -14    0.34    0.29
   4   2 -14    0.24    0.33
   3   2 -14    0.61    0.30
   3   2 -14   -0.05    0.31
   2   2 -14    0.34    0.31
   2   2 -14    0.14    0.28
  -2  -2  14   -0.06    0.29
   1   2 -14    0.10    0.28
   1   2 -14    0.23    0.33
  -1  -2  14    0.21    0.32
   0   2 -14    2.33    0.44
   0  -2  14    3.03    0.45
  -1   2 -14    1.66    0.40
   1  -2  14    2.17    0.44
  -2   2 -14    1.66    0.45
   2  -2  14    2.29    0.47
  -3   2 -14    0.38    0.40
   3  -2  14    0.59    0.42
   4  -2  14    3.23    0.53
   5   1 -14    0.57    0.36
   4   1 -14    0.37    0.33
   4   1 -14    0.22    0.28
   3   1 -14    0.23    0.29
   3   1 -14   -0.01    0.31
  -3  -1  14    0.91    0.33
   2   1 -14    0.56    0.32
   2   1 -14    0.50    0.28
  -2  -1  14    0.83    0.33
   1   1 -14    2.13    0.38
   1   1 -14    2.00    0.34
  -1  -1  14    2.48    0.40
   0   1 -14   -0.02    0.26
   0   1 -14    0.36    0.32
   0  -1  14    0.27    0.31
  -1   1 -14    4.25    0.50
   1  -1  14    3.80    0.46
  -2   1 -14    1.26    0.38
   2  -1  14    1.07    0.37
  -3   1 -14    1.01    0.39
   3  -1  14    0.70    0.36
   4  -1  14    0.19    0.34
   5  -1  14    0.29    0.41
   5   0 -14    0.10    0.35
   4   0 -14    0.33    0.32
   4   0 -14   -0.03    0.28
   3   0 -14    0.13    0.31
   3   0 -14   -0.28    0.26
   2   0 -14    0.33    0.27
   2   0 -14    0.28    0.30
  -2   0  14    0.68    0.31
   1   0 -14    3.55    0.39
   1   0 -14    4.08    0.47
  -1   0  14    3.98    0.44
   0   0 -14    9.40    0.57
   0   0 -14    8.52    0.62
   0   0  14    9.71    0.57
   0   0  14    8.32    0.62
  -1   0 -14   -0.01    0.27
   1   0  14    0.04    0.26
   1   0  14   -0.02    0.24
  -2   0 -14    2.77    0.43
   2   0  14    3.17    0.38
   2   0  14    3.24    0.44
  -3   0 -14    0.03    0.30
   3   0  14    0.49    0.28
   3   0  14    0.93    0.35
  -4   0 -14    0.41    0.35
   4   0  14   -0.19    0.26
   4   0  14    0.54    0.36
   5   0  14    5.91    0.62
   5   0  14    6.36    0.57
   5  -1 -14    0.01    0.34
   4  -1 -14   -0.21    0.27
   4  -1 -14    0.07    0.35
   3  -1 -14    0.05    0.26
   3  -1 -14   -0.30    0.30
   2  -1 -14    0.18    0.28
   2  -1 -14    0.34    0.27
  -2   1  14   -0.16    0.27
   1  -1 -14    2.70    0.40
   1  -1 -14    2.15    0.33
  -1   1  14    2.26    0.39
   0  -1 -14    1.67    0.30
   0  -1 -14    1.66    0.36
   0   1  14    1.13    0.27
   0   1  14    1.33    0.32
  -1  -1 -14    4.83    0.43
  -1  -1 -14    4.12    0.46
  -1  -1 -14    4.62    0.41
  -1  -1 -14    4.31    0.39
   1   1  14    4.35    0.48
   1   1  14    4.47    0.41
  -2  -1 -14    3.11    0.40
  -2  -1 -14    1.74    0.29
   2   1  14    2.09    0.37
   2   1  14    2.32    0.34
  -3  -1 -14   -0.49    0.25
   3   1  14   -0.05    0.26
   3   1  14   -0.17    0.29
  -4  -1 -14    0.50    0.32
   4   1  14    0.46    0.31
   4   1  14    1.02    0.38
   5   1  14    0.02    0.31
   5   1  14    0.17    0.36
   6   1  14    0.67    0.41
   4  -2 -14    0.29    0.35
   4  -2 -14    0.19    0.31
   3  -2 -14   -0.27    0.26
   3  -2 -14   -0.21    0.32
   2  -2 -14    0.71    0.28
   2  -2 -14    0.58    0.33
  -2   2  14    0.83    0.34
   1  -2 -14    0.26    0.28
   1  -2 -14   -0.04    0.25
  -1   2  14    0.04    0.26
   0  -2 -14    0.76    0.26
   0  -2 -14    1.48    0.33
   0   2  14    1.00    0.31
   0   2  14    1.29    0.28
  -1  -2 -14   -0.09    0.25
  -1  -2 -14    0.36    0.23
   1   2  14   -0.10    0.28
   1   2  14    0.12    0.24
  -2  -2 -14    3.09    0.40
  -2  -2 -14    3.01    0.34
   2   2  14    3.17    0.42
   2   2  14    3.00    0.36
  -3  -2 -14    5.08    0.51
   3   2  14    5.10    0.45
   3   2  14    4.83    0.49
  -4  -2 -14    0.23    0.31
   4   2  14    0.13    0.28
   4   2  14    0.49    0.34
   5   2  14    0.97    0.38
   5   2  14    0.83    0.32
   6   2  14    5.63    0.59
   4  -3 -14    0.47    0.38
   3  -3 -14    0.04    0.35
   3  -3 -14    0.40    0.32
   2  -3 -14    0.34    0.32
   2  -3 -14   -0.10    0.28
  -2   3  14   -0.31    0.31
   1  -3 -14    0.98    0.36
   1  -3 -14    0.87    0.29
  -1   3  14    0.80    0.33
   0  -3 -14    2.59    0.34
   0  -3 -14    2.24    0.38
   0   3  14    1.74    0.36
  -1  -3 -14   -0.12    0.29
   1   3  14    0.33    0.29
  -2  -3 -14   14.02    0.78
  -2  -3 -14   13.15    0.68
   2   3  14   13.00    0.68
   2   3  14   12.13    0.73
  -3  -3 -14    2.08    0.37
   3   3  14    1.99    0.38
   3   3  14    1.36    0.31
  -4  -3 -14    1.11    0.34
   4   3  14    0.80    0.29
   4   3  14    1.61    0.38
   5   3  14    2.65    0.39
   5   3  14    1.33    0.39
   6   3  14    0.38    0.36
   7   3  14   -0.23    0.38
   3  -4 -14    0.12    0.36
   2  -4 -14   -0.21    0.32
  -2   4  14    0.10    0.35
   1  -4 -14    0.69    0.37
  -1   4  14    0.45    0.34
   0  -4 -14    2.96    0.43
   0   4  14    2.72    0.41
  -1  -4 -14    0.15    0.30
   1   4  14    0.20    0.31
  -2  -4 -14    0.06    0.26
   2   4  14    0.04    0.26
   2   4  14    0.05    0.30
  -3  -4 -14   -0.08    0.29
   3   4  14    0.13    0.29
   3   4  14    0.11    0.26
  -4  -4 -14    0.04    0.29
   4   4  14   -0.18    0.25
   4   4  14    0.29    0.31
   5   4  14    0.04    0.28
   5   4  14    0.11    0.34
   6   4  14    0.00    0.35
   7   4  14    0.91    0.40
   2  -5 -14    0.10    0.36
   1  -5 -14    0.33    0.35
  -1   5  14   -0.35    0.33
   0  -5 -14    0.42    0.37
   0   5  14    0.24    0.35
  -1  -5 -14    2.61    0.42
   1   5  14    2.32    0.42
  -2  -5 -14    1.35    0.38
   2   5  14    0.46    0.32
  -3  -5 -14    1.64    0.38
   3   5  14    1.25    0.36
   3   5  14    1.24    0.33
  -4  -5 -14    0.21    0.31
   4   5  14    0.16    0.29
   4   5  14    0.48    0.32
   5   5  14    0.23    0.35
   5   5  14    0.40    0.30
   6   5  14   -0.03    0.36
   1  -6 -14   -0.08    0.43
  -1   6  14    0.35    0.41
   0  -6 -14    0.32    0.42
   0   6  14    0.38    0.39
  -1  -6 -14    0.21    0.35
   1   6  14    0.55    0.39
  -2  -6 -14    0.13    0.33
   2   6  14    0.43    0.37
  -3  -6 -14    0.61    0.37
   3   6  14    0.54    0.37
  -4  -6 -14    0.31    0.34
   4   6  14    0.17    0.33
   5   6  14    0.61    0.34
   5   6  14    0.47    0.37
   6   6  14   -0.19    0.37
   0  -7 -14   -0.17    0.46
   0   7  14    0.08    0.39
  -1  -7 -14   -0.23    0.41
   1   7  14   -0.57    0.35
  -2  -7 -14    0.14    0.39
   2   7  14    0.09    0.36
  -3  -7 -14   -0.08    0.36
   3   7  14    0.23    0.38
   4   7  14    0.04    0.39
   5   7  14   -0.55    0.33
   4   4 -15   -0.04    0.39
   3   4 -15    0.08    0.40
   3   4 -15    0.10    0.33
   2   4 -15    0.04    0.41
  -2  -4  15    0.38    0.42
   1   4 -15    0.35    0.41
  -1  -4  15    0.11    0.42
   0   4 -15    1.83    0.54
   0  -4  15    1.22    0.50
  -1   4 -15    0.30    0.47
   1  -4  15    0.25    0.48
   4   3 -15    0.27    0.37
   3   3 -15    0.43    0.36
   2   3 -15   -0.25    0.34
  -2  -3  15   -0.02    0.37
   1   3 -15    0.77    0.41
  -1  -3  15    0.79    0.42
   0   3 -15    1.00    0.44
   0  -3  15    1.12    0.45
  -1   3 -15    0.88    0.42
   1  -3  15    0.93    0.47
  -2   3 -15    0.27    0.41
   2  -3  15    0.71    0.47
  -3   3 -15    0.35    0.47
   5   2 -15   -0.26    0.34
   4   2 -15    0.98    0.40
   4   2 -15    0.95    0.36
   3   2 -15    0.00    0.30
   3   2 -15    0.38    0.34
   2   2 -15   -0.15    0.29
   2   2 -15   -0.11    0.32
  -2  -2  15   -0.11    0.30
   1   2 -15    0.35    0.37
  -1  -2  15    0.16    0.35
   0   2 -15    0.72    0.36
   0  -2  15    0.47    0.34
  -1   2 -15    2.49    0.48
   1  -2  15    2.25    0.46
  -2   2 -15    0.32    0.37
   2  -2  15    0.19    0.37
  -3   2 -15    1.93    0.49
   3  -2  15    1.34    0.48
   4  -2  15    1.85    0.51
   5   1 -15    0.15    0.34
   4   1 -15    0.14    0.31
   4   1 -15    0.59    0.36
   3   1 -15    1.08    0.32
   3   1 -15    0.65    0.36
   2   1 -15    3.22    0.42
   2   1 -15    2.64    0.45
  -2  -1  15    3.42    0.47
   1   1 -15    0.33    0.35
  -1  -1  15    0.15    0.32
   0   1 -15    6.17    0.60
   0  -1  15    8.43    0.65
  -1   1 -15    4.96    0.56
   1  -1  15    4.96    0.54
  -2   1 -15    0.88    0.37
   2  -1  15    0.54    0.37
  -3   1 -15    1.86    0.43
   3  -1  15    2.34    0.48
   4  -1  15    0.19    0.39
   5   0 -15    0.01    0.37
   4   0 -15    0.08    0.33
   4   0 -15   -0.42    0.29
   3   0 -15    2.45    0.41
   3   0 -15    2.07    0.36
   2   0 -15    0.91    0.31
   2   0 -15    1.26    0.37
  -2   0  15    1.07    0.36
   1   0 -15    0.01    0.28
   1   0 -15   -0.14    0.25
  -1   0  15   -0.05    0.31
   0   0 -15    5.76    0.56
   0   0  15    4.39    0.51
  -1   0 -15    0.54    0.35
   1   0  15    0.57    0.34
  -2   0 -15    4.56    0.52
   2   0  15    4.91    0.53
  -3   0 -15    0.93    0.39
   3   0  15    0.98    0.39
   4   0  15    1.92    0.46
   5   0  15    1.26    0.45
   4  -1 -15    0.17    0.35
   3  -1 -15    1.07    0.38
   3  -1 -15    1.10    0.34
   2  -1 -15    2.59    0.43
   2  -1 -15    2.76    0.40
  -2   1  15    2.94    0.44
   1  -1 -15    0.86    0.35
   1  -1 -15    1.20    0.30
  -1   1  15    1.74    0.37
   0  -1 -15    0.24    0.32
   0   1  15    0.37    0.33
  -1  -1 -15    6.17    0.55
   1   1  15    6.84    0.58
  -2  -1 -15    0.81    0.35
   2   1  15    0.97    0.35
   2   1  15    0.71    0.30
  -3  -1 -15    2.32    0.43
   3   1  15    1.58    0.40
   3   1  15    1.68    0.36
  -4  -1 -15    2.80    0.46
   4   1  15    2.29    0.45
   4   1  15    2.61    0.40
   5   1  15    0.24    0.33
   5   1  15   -0.04    0.38
   6   1  15    0.23    0.44
   4  -2 -15   -0.14    0.34
   3  -2 -15    0.30    0.35
   3  -2 -15    0.85    0.34
   2  -2 -15    3.19    0.42
   2  -2 -15    3.81    0.49
  -2   2  15    3.14    0.46
   1  -2 -15    0.73    0.34
   1  -2 -15    0.97    0.32
  -1   2  15    0.61    0.33
   0  -2 -15    0.01    0.31
   0   2  15    0.33    0.32
  -1  -2 -15    2.72    0.44
   1   2  15    2.79    0.41
  -2  -2 -15    0.24    0.31
   2   2  15   -0.08    0.30
   2   2  15    0.11    0.28
  -3  -2 -15    1.56    0.39
   3   2  15    1.52    0.33
   3   2  15    1.60    0.38
  -4  -2 -15    0.48    0.34
   4   2  15    0.06    0.28
   4   2  15    0.19    0.32
   5   2  15   -0.31    0.30
   5   2  15    0.32    0.36
   6   2  15    0.75    0.43
   3  -3 -15   -0.09    0.36
   2  -3 -15    1.03    0.41
  -2   3  15    0.98    0.38
   1  -3 -15    1.22    0.39
  -1   3  15    1.18    0.36
   0  -3 -15   -0.24    0.30
   0   3  15    0.31    0.32
  -1  -3 -15    1.06    0.34
   1   3  15    1.04    0.35
  -2  -3 -15    2.52    0.42
   2   3  15    1.82    0.39
  -3  -3 -15   -0.49    0.29
   3   3  15   -0.23    0.31
   3   3  15   -0.24    0.26
  -4  -3 -15    1.74    0.40
   4   3  15    1.65    0.41
   4   3  15    0.98    0.35
   5   3  15   -0.04    0.36
   5   3  15   -0.03    0.28
   6   3  15    0.03    0.38
   3  -4 -15    0.08    0.38
   2  -4 -15    0.60    0.38
  -2   4  15    0.69    0.40
   1  -4 -15    0.71    0.38
  -1   4  15    1.28    0.38
   0  -4 -15    0.19    0.35
   0   4  15   -0.21    0.32
  -1  -4 -15    0.39    0.32
   1   4  15   -0.01    0.30
  -2  -4 -15    2.90    0.45
   2   4  15    2.14    0.41
  -3  -4 -15    1.77    0.39
   3   4  15    1.61    0.34
   3   4  15    1.47    0.40
  -4  -4 -15    0.30    0.31
   4   4  15    0.36    0.30
   4   4  15   -0.06    0.33
   5   4  15    0.62    0.38
   5   4  15    0.07    0.30
   6   4  15    0.72    0.41
   2  -5 -15    0.62    0.43
   1  -5 -15    0.49    0.39
  -1   5  15    0.78    0.41
   0  -5 -15    0.18    0.34
   0   5  15   -0.15    0.31
  -1  -5 -15   -0.20    0.34
   1   5  15   -0.07    0.31
  -2  -5 -15    0.40    0.37
   2   5  15    0.71    0.35
  -3  -5 -15    0.75    0.37
   3   5  15    0.94    0.36
  -4  -5 -15   -0.12    0.33
   4   5  15   -0.41    0.34
   4   5  15   -0.06    0.30
   5   5  15    1.35    0.44
   5   5  15    1.36    0.38
   6   5  15    0.06    0.39
   0  -6 -15   -0.12    0.41
   0   6  15   -0.37    0.37
  -1  -6 -15   -0.78    0.36
   1   6  15    0.05    0.38
  -2  -6 -15    0.13    0.38
   2   6  15    0.02    0.36
  -3  -6 -15    0.23    0.38
   3   6  15   -0.06    0.35
   4   6  15   -0.21    0.34
   5   6  15   -0.10    0.37
   6   6  15   -0.19    0.37
  -1  -7 -15   -0.62    0.37
   1   7  15   -0.53    0.36
  -2  -7 -15    0.43    0.44
   2   7  15   -0.34    0.36
  -3  -7 -15   -0.04    0.41
   3   7  15    0.40    0.40
   4   7  15   -0.01    0.39
   5   7  15    0.14    0.41
   2   4 -16    0.33    0.41
   1   4 -16    0.12    0.43
  -1  -4  16    0.68    0.48
   0   4 -16   -0.14    0.47
   0  -4  16    0.00    0.47
   4   3 -16    0.30    0.39
   3   3 -16   -0.31    0.37
   2   3 -16   -0.10    0.34
  -2  -3  16   -0.27    0.38
   1   3 -16    0.69    0.42
  -1  -3  16    0.83    0.45
   0   3 -16   -0.11    0.42
   0  -3  16    0.03    0.42
  -1   3 -16    0.87    0.44
   1  -3  16    0.05    0.43
  -2   3 -16    0.66    0.49
   2  -3  16   -0.37    0.46
   4   2 -16    0.60    0.40
   3   2 -16   -0.07    0.37
   2   2 -16    0.11    0.35
  -2  -2  16    0.04    0.38
   1   2 -16    0.18    0.39
  -1  -2  16    0.60    0.37
   0   2 -16    0.39    0.41
   0  -2  16    0.03    0.36
  -1   2 -16   -0.24    0.36
   1  -2  16    0.18    0.38
  -2   2 -16    0.57    0.41
   2  -2  16   -0.05    0.42
  -3   2 -16    0.02    0.43
   3  -2  16    0.05    0.42
   4   1 -16    0.70    0.40
   3   1 -16    3.20    0.44
   3   1 -16    2.12    0.46
   2   1 -16    0.05    0.36
  -2  -1  16   -0.45    0.31
   1   1 -16   -0.02    0.33
  -1  -1  16    0.31    0.36
   0   1 -16    1.38    0.40
   0  -1  16    1.77    0.42
  -1   1 -16    1.56    0.42
   1  -1  16    1.65    0.43
  -2   1 -16    0.73    0.41
   2  -1  16    0.54    0.36
  -3   1 -16    0.92    0.41
   3  -1  16    1.03    0.45
   4  -1  16    0.33    0.43
   4   0 -16    0.35    0.39
   3   0 -16    1.21    0.41
   3   0 -16    1.34    0.36
   2   0 -16   -0.38    0.32
  -2   0  16   -0.17    0.32
   1   0 -16    1.26    0.40
  -1   0  16    1.53    0.40
   0   0 -16    0.23    0.36
   0   0  16    0.60    0.37
  -1   0 -16    0.80    0.39
   1   0  16    0.30    0.32
  -2   0 -16    2.11    0.45
   2   0  16    1.51    0.40
  -3   0 -16    0.32    0.37
   3   0  16    0.45    0.38
   4   0  16   -0.36    0.35
   5   0  16    0.50    0.42
   4  -1 -16    0.31    0.39
   3  -1 -16   -0.02    0.35
   3  -1 -16    0.28    0.34
   2  -1 -16    1.66    0.42
  -2   1  16    2.09    0.42
   1  -1 -16    0.41    0.34
  -1   1  16    0.59    0.35
   0  -1 -16    0.37    0.35
   0   1  16    0.53    0.36
  -1  -1 -16    0.62    0.36
   1   1  16    1.02    0.34
  -2  -1 -16    1.01    0.37
   2   1  16    1.16    0.39
  -3  -1 -16    0.26    0.33
   3   1  16    0.37    0.38
   4   1  16    0.28    0.38
   5   1  16    2.35    0.49
   3  -2 -16    0.50    0.37
   2  -2 -16   -0.04    0.35
  -2   2  16   -0.18    0.34
   1  -2 -16    0.36    0.36
  -1   2  16    0.22    0.34
   0  -2 -16    1.11    0.39
   0   2  16    0.56    0.36
  -1  -2 -16    0.12    0.30
   1   2  16    0.06    0.32
  -2  -2 -16    0.06    0.33
   2   2  16   -0.16    0.30
  -3  -2 -16    0.10    0.31
   3   2  16    0.09    0.32
  -4  -2 -16   -0.15    0.34
   4   2  16    0.08    0.36
   5   2  16   -0.14    0.31
   5   2  16   -0.38    0.38
   3  -3 -16    1.50    0.43
   2  -3 -16    0.23    0.36
  -2   3  16   -0.15    0.35
   1  -3 -16    0.49    0.35
  -1   3  16   -0.35    0.30
   0  -3 -16    0.49    0.35
   0   3  16    0.54    0.36
  -1  -3 -16   -0.28    0.33
   1   3  16    0.30    0.35
  -2  -3 -16    0.32    0.33
   2   3  16   -0.03    0.31
  -3  -3 -16    0.52    0.36
   3   3  16    0.24    0.35
  -4  -3 -16    0.97    0.39
   4   3  16    1.60    0.44
   4   3  16    1.32    0.36
   5   3  16    0.16    0.33
   5   3  16    0.06    0.40
   6   3  16    1.16    0.46
   2  -4 -16    0.42    0.43
   1  -4 -16   -0.06    0.39
  -1   4  16   -0.06    0.38
   0  -4 -16    0.92    0.43
   0   4  16    0.33    0.35
  -1  -4 -16    0.24    0.34
   1   4  16    0.33    0.37
  -2  -4 -16    0.97    0.39
   2   4  16    0.22    0.34
  -3  -4 -16    0.96    0.36
   3   4  16    0.82    0.37
  -4  -4 -16    0.29    0.35
   4   4  16    0.28    0.34
   5   4  16   -0.34    0.30
   5   4  16   -0.12    0.37
   6   4  16    0.59    0.43
   1  -5 -16    1.10    0.48
  -1   5  16    0.42    0.38
   0  -5 -16   -0.06    0.40
   0   5  16    0.23    0.39
  -1  -5 -16    0.56    0.38
   1   5  16    0.41    0.39
  -2  -5 -16    0.59    0.40
   2   5  16   -0.08    0.35
  -3  -5 -16   -0.33    0.35
   3   5  16    0.28    0.38
   4   5  16   -0.05    0.37
   5   5  16    0.13    0.39
   0  -6 -16    0.00    0.40
   0   6  16    0.07    0.41
  -1  -6 -16    0.95    0.43
   1   6  16    0.80    0.40
  -2  -6 -16    0.63    0.44
   2   6  16    0.64    0.39
  -3  -6 -16    0.35    0.40
   3   6  16   -0.10    0.37
   4   6  16    1.09    0.44
   5   6  16    0.01    0.41
  -3  -7 -16   -0.40    0.41
   3   7  16   -0.50    0.39
   2   3 -17   -0.15    0.40
   1   3 -17   -0.15    0.41
  -1  -3  17    0.40    0.45
   0   3 -17    0.04    0.47
   0  -3  17    0.32    0.44
  -1   3 -17    0.47    0.48
   1  -3  17    0.05    0.49
   3   2 -17   -0.14    0.38
   2   2 -17    1.14    0.41
  -2  -2  17    0.94    0.41
   1   2 -17    0.20    0.39
  -1  -2  17    0.13    0.41
   0   2 -17    1.27    0.48
   0  -2  17    1.61    0.49
  -1   2 -17    0.23    0.45
   1  -2  17    0.75    0.46
  -2   2 -17   -0.13    0.44
   2  -2  17    0.32    0.45
   3   1 -17   -0.10    0.39
   2   1 -17    0.47    0.41
  -2  -1  17    0.71    0.38
   1   1 -17    0.30    0.41
  -1  -1  17    0.02    0.35
   0   1 -17    1.44    0.44
   0  -1  17    1.33    0.43
  -1   1 -17    2.06    0.48
   1  -1  17    1.34    0.43
  -2   1 -17    0.21    0.41
   2  -1  17    0.27    0.37
  -3   1 -17    1.37    0.49
   3  -1  17    1.89    0.49
   3   0 -17    0.55    0.39
   2   0 -17   -0.45    0.35
  -2   0  17   -0.10    0.35
   1   0 -17   -0.19    0.34
  -1   0  17    0.06    0.33
   0   0 -17    2.64    0.50
   0   0  17    1.56    0.43
  -1   0 -17    0.85    0.39
   1   0  17    1.18    0.38
  -2   0 -17   -0.28    0.38
   2   0  17    0.09    0.37
  -3   0 -17    0.37    0.40
   3   0  17    0.59    0.42
   4   0  17    0.45    0.43
   3  -1 -17   -0.24    0.34
   2  -1 -17    0.44    0.39
  -2   1  17    0.80    0.39
   1  -1 -17    0.27    0.39
  -1   1  17    0.23    0.36
   0  -1 -17    0.29    0.38
   0   1  17   -0.20    0.34
  -1  -1 -17    1.55    0.42
   1   1  17    1.34    0.39
  -2  -1 -17   -0.07    0.34
   2   1  17    0.28    0.35
  -3  -1 -17   -0.12    0.34
   3   1  17    0.37    0.39
   4   1  17    0.04    0.38
   3  -2 -17    0.03    0.39
   2  -2 -17    1.12    0.43
  -2   2  17    1.07    0.42
   1  -2 -17   -0.31    0.36
  -1   2  17    0.41    0.37
   0  -2 -17    0.06    0.38
   0   2  17   -0.02    0.35
  -1  -2 -17    2.77    0.47
   1   2  17    3.44    0.51
  -2  -2 -17    0.69    0.36
   2   2  17    0.23    0.35
  -3  -2 -17    0.69    0.40
   3   2  17    0.73    0.38
   4   2  17    0.01    0.37
   5   2  17   -0.14    0.41
   2  -3 -17    0.29    0.38
   1  -3 -17    0.29    0.40
  -1   3  17    0.02    0.38
   0  -3 -17    0.00    0.38
   0   3  17    0.12    0.36
  -1  -3 -17    0.19    0.38
   1   3  17    0.38    0.35
  -2  -3 -17    0.30    0.38
   2   3  17    0.51    0.38
  -3  -3 -17    0.09    0.33
   3   3  17   -0.71    0.34
   4   3  17    0.54    0.37
   5   3  17    0.08    0.39
   1  -4 -17    0.01    0.41
  -1   4  17    1.32    0.45
   0  -4 -17    1.09    0.44
   0   4  17    1.00    0.40
  -1  -4 -17   -0.15    0.37
   1   4  17   -0.08    0.37
  -2  -4 -17    0.85    0.39
   2   4  17    1.53    0.41
  -3  -4 -17    0.19    0.38
   3   4  17    0.04    0.38
   4   4  17    0.18    0.36
   5   4  17    0.12    0.41
   0  -5 -17    0.87    0.44
   0   5  17    0.88    0.43
  -1  -5 -17    0.25    0.39
   1   5  17    0.37    0.41
  -2  -5 -17    0.52    0.38
   2   5  17    0.59    0.43
  -3  -5 -17    0.16    0.39
   3   5  17    0.01    0.39
   4   5  17    0.42    0.39
   5   5  17   -0.09    0.41
  -1  -6 -17    0.22    0.42
   1   6  17   -0.23    0.41
  -2  -6 -17    0.27    0.44
   2   6  17    0.25    0.39
  -3  -6 -17    0.76    0.45
   3   6  17    0.04    0.37
   4   6  17   -0.17    0.38
   2   2 -18    0.51    0.45
   1   2 -18    0.27    0.41
  -1  -2  18    1.14    0.49
   0   2 -18    0.11    0.41
   0  -2  18   -0.19    0.43
  -1   2 -18    0.81    0.51
   1  -2  18    0.93    0.50
   2   1 -18    0.23    0.41
   1   1 -18   -0.26    0.41
  -1  -1  18    0.86    0.43
   0   1 -18    0.39    0.45
   0  -1  18   -0.03    0.37
  -1   1 -18   -0.48    0.41
   1  -1  18    0.07    0.41
  -2   1 -18    0.04    0.44
   2  -1  18    0.16    0.42
   2   0 -18    0.30    0.42
  -1   0  18   -0.13    0.37
   0   0 -18    2.05    0.47
   0   0  18    2.24    0.48
  -1   0 -18    0.28    0.45
   1   0  18    0.22    0.36
  -2   0 -18    0.94    0.46
   2   0  18    0.60    0.41
  -3   0 -18    0.14    0.43
   3   0  18    0.01    0.39
   2  -1 -18   -0.14    0.37
   1  -1 -18    0.10    0.40
  -1   1  18    0.16    0.38
   0  -1 -18    1.40    0.47
   0   1  18    1.74    0.45
  -1  -1 -18    0.19    0.38
   1   1  18   -0.21    0.38
  -2  -1 -18    0.24    0.41
   2   1  18    0.50    0.42
  -3  -1 -18    0.10    0.38
   3   1  18   -0.04    0.38
   4   1  18   -0.36    0.41
   2  -2 -18   -0.08    0.40
   1  -2 -18   -0.03    0.37
  -1   2  18    0.34    0.40
   0  -2 -18   -0.20    0.36
   0   2  18   -0.28    0.36
  -1  -2 -18    0.07    0.39
   1   2  18   -0.30    0.34
  -2  -2 -18   -0.50    0.38
   2   2  18    0.00    0.40
  -3  -2 -18    0.97    0.45
   3   2  18    0.53    0.39
   4   2  18    0.27    0.40
   1  -3 -18    0.61    0.44
  -1   3  18   -0.12    0.39
   0  -3 -18   -0.39    0.36
   0   3  18    0.36    0.39
  -1  -3 -18    0.38    0.42
   1   3  18    0.09    0.39
  -2  -3 -18   -0.13    0.35
   2   3  18    0.42    0.39
  -3  -3 -18    1.06    0.44
   3   3  18    0.70    0.43
   4   3  18   -0.17    0.36
   0  -4 -18    0.36    0.44
   0   4  18   -0.63    0.38
  -1  -4 -18   -0.02    0.39
   1   4  18    0.76    0.40
  -2  -4 -18    0.23    0.38
   2   4  18   -0.49    0.38
  -3  -4 -18    0.68    0.39
   3   4  18    0.80    0.43
   4   4  18    0.04    0.38
  -1  -5 -18   -0.29    0.43
   1   5  18    0.19    0.40
  -2  -5 -18    0.45    0.46
   2   5  18    0.40    0.45
  -3  -5 -18   -0.03    0.42
   3   5  18    0.36    0.41
   4   5  18    0.77    0.47
   1   1 -19    0.30    0.43
  -1  -1  19    0.30    0.40
   0   1 -19    0.25    0.43
   0  -1  19   -0.23    0.42
  -1   1 -19    1.25    0.51
   1  -1  19    0.73    0.48
   1   0 -19   -0.12    0.42
  -1   0  19   -0.53    0.37
   0   0 -19    0.45    0.43
   0   0  19    0.17    0.41
  -1   0 -19    1.42    0.50
   1   0  19    1.28    0.45
  -2   0 -19    0.01    0.44
   2   0  19    0.21    0.43
   1  -1 -19    0.14    0.40
  -1   1  19    0.79    0.44
   0  -1 -19    1.28    0.49
   0   1  19    0.25    0.42
  -1  -1 -19   -0.35    0.43
   1   1  19    0.49    0.43
  -2  -1 -19    0.42    0.45
   2   1  19    0.13    0.38
  -3  -1 -19    0.26    0.44
   3   1  19   -0.21    0.40
   1  -2 -19   -0.05    0.43
  -1   2  19    0.17    0.43
   0  -2 -19    0.05    0.42
   0   2  19   -0.04    0.39
  -1  -2 -19    0.31    0.43
   1   2  19    0.48    0.43
  -2  -2 -19    0.62    0.42
   2   2  19    0.25    0.41
  -3  -2 -19   -0.38    0.42
   3   2  19   -0.03    0.42
   0  -3 -19    0.19    0.41
   0   3  19   -0.25    0.41
  -1  -3 -19    0.28    0.40
   1   3  19    0.43    0.43
  -2  -3 -19    0.12    0.41
   2   3  19    0.48    0.39
  -3  -3 -19    0.26    0.45
   3   3  19   -0.27    0.41
  -1  -4 -19   -0.75    0.41
   1   4  19   -0.30    0.40
  -2  -4 -19    0.67    0.46
   2   4  19    0.86    0.42
  -3  -4 -19    1.70    0.50
   3   4  19    1.81    0.48
   0   0   0    0.00    0.00
;
_shelx_hkl_checksum              9640
_shelx_res_file
;
    shelx.res created by SHELXL-2014/7
TITL 40B1_0m in P-1 WHITE NEEDLE
CELL 0.71073 6.8248 7.2849 15.1587 79.746 83.570 65.091
ZERR 2.00 0.0003 0.0004 0.0009 0.003 0.002 0.002
LATT 1
SFAC C H O S Br
UNIT 26  18   8  2  2
L.S. 12
ACTA
BOND $H
CONF
LIST 4
FMAP 2
PLAN 8
REM  One beam-stop impeded reflection omitted
OMIT 0   0   1
SIZE 0.38 0.24 0.22
TEMP 23.000
MPLA O41 C41 C4
MPLA C1 C2 C3 C4 C5 C6
MPLA 6 C1' C2' C3' C4' C5' C6' Br4'
EQIV $1 -1+x,y,z
EQIV $2 1+x,-1+y,z
EQIV $3  1-x,1-y,-z
EQIV $4  2-x,1-y,-z
EQIV $5  3-x,-y,1-z
HTAB C2 O41_$1
HTAB C5' O3_$2
HTAB C3 O1_$3
HTAB C6' O41_$4
BIND Br4' Br4'_$5
WGHT    0.042000    0.014100
FVAR       0.23534
S1    4    0.336334    0.555054    0.273144    11.00000    0.04802    0.05917 =
         0.05101   -0.00640    0.00027   -0.02335
O1    3    0.315408    0.440425    0.211354    11.00000    0.07459    0.07627 =
         0.06124   -0.00973   -0.01225   -0.04275
O2    3    0.171691    0.631227    0.339300    11.00000    0.05115    0.08275 =
         0.06701   -0.01110    0.01162   -0.02501
O3    3    0.352117    0.758828    0.219144    11.00000    0.04951    0.05048 =
         0.05680   -0.00804    0.00475   -0.01472
C1    1    0.502735    0.745437    0.145980    11.00000    0.04346    0.03908 =
         0.04791   -0.00191   -0.00353   -0.01264
C2    1    0.457398    0.720406    0.064455    11.00000    0.04545    0.05139 =
         0.05411   -0.00252   -0.01089   -0.02153
AFIX  43
H2    2    0.333844    0.701345    0.057543    11.00000   -1.20000
AFIX   0
C3    1    0.599783    0.724181   -0.007240    11.00000    0.05420    0.05109 =
         0.04722   -0.00335   -0.01111   -0.02339
AFIX  43
H3    2    0.572478    0.706416   -0.063164    11.00000   -1.20000
AFIX   0
C4    1    0.782288    0.753979    0.002917    11.00000    0.04851    0.03850 =
         0.04917   -0.00203   -0.00447   -0.01768
C41   1    0.925764    0.764842   -0.075505    11.00000    0.06225    0.05211 =
         0.05574   -0.00382   -0.00420   -0.02580
AFIX  43
H41   2    0.891342    0.744595   -0.129606    11.00000   -1.20000
AFIX   0
O41   3    1.083688    0.797649   -0.075640    11.00000    0.06852    0.09550 =
         0.06832   -0.01197    0.00603   -0.04924
C5    1    0.822587    0.778795    0.086715    11.00000    0.05377    0.06261 =
         0.05504   -0.00290   -0.01100   -0.03309
AFIX  43
H5    2    0.944968    0.799497    0.093952    11.00000   -1.20000
AFIX   0
C6    1    0.684734    0.773194    0.158710    11.00000    0.06088    0.06378 =
         0.04677   -0.00604   -0.00956   -0.03143
AFIX  43
H6    2    0.712997    0.787779    0.215071    11.00000   -1.20000
AFIX   0
C1'   1    0.588996    0.424630    0.321135    11.00000    0.04814    0.04865 =
         0.04052   -0.00656    0.00342   -0.02075
C2'   1    0.632859    0.494609    0.391706    11.00000    0.05505    0.06559 =
         0.05765   -0.02393    0.00340   -0.02128
AFIX  43
H2'   2    0.527725    0.607885    0.414699    11.00000   -1.20000
AFIX   0
C3'   1    0.832087    0.396601    0.427894    11.00000    0.06684    0.07983 =
         0.06154   -0.01701   -0.00604   -0.03326
AFIX  43
H3'   2    0.863146    0.442390    0.475843    11.00000   -1.20000
AFIX   0
C4'   1    0.984135    0.232148    0.393401    11.00000    0.05400    0.06060 =
         0.05899    0.00836   -0.00679   -0.02461
BR4'  5    1.259885    0.097331    0.442897    11.00000    0.06865    0.09369 =
         0.12984    0.02523   -0.03928   -0.02494
C5'   1    0.942688    0.161270    0.323132    11.00000    0.06716    0.05509 =
         0.07191   -0.00989    0.00446   -0.00707
AFIX  43
H5'   2    1.048750    0.048175    0.300355    11.00000   -1.20000
AFIX   0
C6'   1    0.743032    0.258616    0.286510    11.00000    0.06836    0.05408 =
         0.05351   -0.01506   -0.00387   -0.01503
AFIX  43
H6'   2    0.712616    0.212240    0.238598    11.00000   -1.20000
AFIX   0
HKLF 4 1 1 0 0 0 1 0 0 0 1
REM  40B1_0m in P-1 WHITE NEEDLE
REM R1 =  0.0321 for    1978 Fo > 4sig(Fo)  and  0.0680 for all    3167 data
REM    172 parameters refined using      0 restraints
END
WGHT      0.0392      0.0272
REM Highest difference peak  0.255,  deepest hole -0.292,  1-sigma level  0.061
Q1    1   0.9936  0.8614 -0.1116  11.00000  0.05    0.25
Q2    1   0.1749  0.6879  0.3822  11.00000  0.05    0.19
Q3    1   1.0890  0.7311 -0.0694  11.00000  0.05    0.17
Q4    1   0.5933  0.7106  0.4187  11.00000  0.05    0.17
Q5    1   0.8124  0.8218 -0.1335  11.00000  0.05    0.17
Q6    1   0.6653  0.0622  0.1886  11.00000  0.05    0.17
Q7    1   0.8841  0.6863 -0.0272  11.00000  0.05    0.17
Q8    1   0.4927  0.8294  0.3732  11.00000  0.05    0.17
;
_shelx_res_checksum              84189
loop_
_space_group_symop_operation_xyz
'x, y, z'
'-x, -y, -z'
loop_
_atom_site_type_symbol
_atom_site_label
_atom_site_fract_x
_atom_site_fract_y
_atom_site_fract_z
_atom_site_U_iso_or_equiv
_atom_site_adp_type
_atom_site_calc_flag
_atom_site_occupancy
S S1 0.33633(8) 0.55505(8) 0.27314(3) 0.05267(16) Uani d 1
O O1 0.3154(3) 0.4404(2) 0.21135(10) 0.0659(4) Uani d 1
O O2 0.1717(2) 0.6312(2) 0.33930(10) 0.0690(4) Uani d 1
O O3 0.3521(2) 0.7588(2) 0.21914(9) 0.0548(3) Uani d 1
C C1 0.5027(3) 0.7454(3) 0.14598(13) 0.0454(4) Uani d 1
C C2 0.4574(3) 0.7204(3) 0.06445(13) 0.0497(5) Uani d 1
H H2 0.3338 0.7013 0.0575 0.060 Uiso calc 1
C C3 0.5998(3) 0.7242(3) -0.00724(13) 0.0500(5) Uani d 1
H H3 0.5725 0.7064 -0.0632 0.060 Uiso calc 1
C C4 0.7823(3) 0.7540(3) 0.00292(13) 0.0458(4) Uani d 1
C C41 0.9258(3) 0.7648(3) -0.07551(14) 0.0563(5) Uani d 1
H H41 0.8913 0.7446 -0.1296 0.068 Uiso calc 1
O O41 1.0837(3) 0.7976(3) -0.07564(10) 0.0728(4) Uani d 1
C C5 0.8226(3) 0.7788(3) 0.08671(13) 0.0540(5) Uani d 1
H H5 0.9450 0.7995 0.0940 0.065 Uiso calc 1
C C6 0.6847(3) 0.7732(3) 0.15871(13) 0.0548(5) Uani d 1
H H6 0.7130 0.7878 0.2151 0.066 Uiso calc 1
C C1' 0.5890(3) 0.4246(3) 0.32114(12) 0.0459(5) Uani d 1
C C2' 0.6329(3) 0.4946(3) 0.39171(14) 0.0591(5) Uani d 1
H H2' 0.5277 0.6079 0.4147 0.071 Uiso calc 1
C C3' 0.8321(4) 0.3966(4) 0.42789(16) 0.0671(6) Uani d 1
H H3' 0.8631 0.4424 0.4758 0.081 Uiso calc 1
C C4' 0.9841(4) 0.2321(4) 0.39340(16) 0.0594(6) Uani d 1
Br Br4' 1.25989(4) 0.09733(5) 0.44290(2) 0.10291(17) Uani d 1
C C5' 0.9427(4) 0.1613(4) 0.32313(17) 0.0715(6) Uani d 1
H H5' 1.0488 0.0482 0.3004 0.086 Uiso calc 1
C C6' 0.7430(4) 0.2586(3) 0.28651(15) 0.0610(6) Uani d 1
H H6' 0.7126 0.2122 0.2386 0.073 Uiso calc 1
loop_
_atom_site_aniso_label
_atom_site_aniso_U_11
_atom_site_aniso_U_22
_atom_site_aniso_U_33
_atom_site_aniso_U_12
_atom_site_aniso_U_13
_atom_site_aniso_U_23
S1 0.0480(3) 0.0592(3) 0.0510(3) -0.0234(2) 0.0003(2) -0.0064(3)
O1 0.0746(10) 0.0763(10) 0.0612(9) -0.0427(8) -0.0122(7) -0.0097(8)
O2 0.0512(8) 0.0827(11) 0.0670(10) -0.0250(8) 0.0116(8) -0.0111(8)
O3 0.0495(7) 0.0505(8) 0.0568(8) -0.0147(6) 0.0047(6) -0.0080(7)
C1 0.0435(10) 0.0391(10) 0.0479(11) -0.0126(8) -0.0035(9) -0.0019(9)
C2 0.0454(11) 0.0514(12) 0.0541(13) -0.0215(9) -0.0109(9) -0.0025(10)
C3 0.0542(11) 0.0511(12) 0.0472(11) -0.0234(10) -0.0111(9) -0.0033(9)
C4 0.0485(10) 0.0385(10) 0.0492(11) -0.0177(8) -0.0045(9) -0.0020(9)
C41 0.0623(13) 0.0521(13) 0.0557(13) -0.0258(11) -0.0042(10) -0.0038(10)
O41 0.0685(10) 0.0955(12) 0.0683(10) -0.0492(9) 0.0060(8) -0.0120(9)
C5 0.0538(11) 0.0626(13) 0.0550(13) -0.0331(10) -0.0110(10) -0.0029(10)
C6 0.0609(13) 0.0638(14) 0.0468(12) -0.0314(11) -0.0096(10) -0.0060(10)
C1' 0.0481(10) 0.0487(12) 0.0405(11) -0.0207(9) 0.0034(8) -0.0066(9)
C2' 0.0551(12) 0.0656(14) 0.0576(13) -0.0213(11) 0.0034(10) -0.0239(11)
C3' 0.0668(15) 0.0798(17) 0.0615(14) -0.0333(13) -0.0060(12) -0.0170(13)
C4' 0.0540(12) 0.0606(14) 0.0590(13) -0.0246(11) -0.0068(10) 0.0084(11)
Br4' 0.0686(2) 0.0937(3) 0.1298(3) -0.02494(17) -0.03928(17) 0.02523(19)
C5' 0.0672(15) 0.0551(14) 0.0719(16) -0.0071(12) 0.0045(12) -0.0099(12)
C6' 0.0684(14) 0.0541(13) 0.0535(13) -0.0150(12) -0.0039(11) -0.0151(11)
loop_
_atom_type_symbol
_atom_type_description
_atom_type_scat_dispersion_real
_atom_type_scat_dispersion_imag
_atom_type_scat_source
C C 0.0033 0.0016 'International Tables Vol C Tables 4.2.6.8 and 6.1.1.4'
H H 0.0000 0.0000 'International Tables Vol C Tables 4.2.6.8 and 6.1.1.4'
O O 0.0106 0.0060 'International Tables Vol C Tables 4.2.6.8 and 6.1.1.4'
S S 0.1246 0.1234 'International Tables Vol C Tables 4.2.6.8 and 6.1.1.4'
Br Br -0.2901 2.4595 'International Tables Vol C Tables 4.2.6.8 and 6.1.1.4'
loop_
_geom_angle_atom_site_label_1
_geom_angle_atom_site_label_2
_geom_angle_atom_site_label_3
_geom_angle_site_symmetry_3
_geom_angle
_geom_angle_publ_flag
O1 S1 O2 . 120.66(9) y
O1 S1 O3 . 109.03(8) y
O2 S1 O3 . 102.66(8) y
O1 S1 C1' . 109.48(10) y
O2 S1 C1' . 110.81(9) y
O3 S1 C1' . 102.44(8) y
C1 O3 S1 . 119.82(11) y
C2 C1 C6 . 122.43(18) ?
C2 C1 O3 . 119.73(16) ?
C6 C1 O3 . 117.67(17) ?
C1 C2 C3 . 118.22(17) ?
C1 C2 H2 . 120.9 ?
C3 C2 H2 . 120.9 ?
C4 C3 C2 . 120.86(17) ?
C4 C3 H3 . 119.6 ?
C2 C3 H3 . 119.6 ?
C3 C4 C5 . 119.18(17) ?
C3 C4 C41 . 119.36(18) ?
C5 C4 C41 . 121.43(17) ?
O41 C41 C4 . 125.4(2) ?
O41 C41 H41 . 117.3 y
C4 C41 H41 . 117.3 ?
C6 C5 C4 . 120.79(17) ?
C6 C5 H5 . 119.6 ?
C4 C5 H5 . 119.6 ?
C5 C6 C1 . 118.51(18) ?
C5 C6 H6 . 120.7 ?
C1 C6 H6 . 120.7 ?
C6' C1' C2' . 120.7(2) ?
C6' C1' S1 . 119.99(16) ?
C2' C1' S1 . 119.30(15) ?
C3' C2' C1' . 119.6(2) ?
C3' C2' H2' . 120.2 ?
C1' C2' H2' . 120.2 ?
C4' C3' C2' . 119.6(2) ?
C4' C3' H3' . 120.2 ?
C2' C3' H3' . 120.2 ?
C3' C4' C5' . 121.4(2) ?
C3' C4' Br4' . 119.64(19) ?
C5' C4' Br4' . 118.91(18) ?
C4' Br4' Br4' 2_856 171.27(8) ?
C4' C5' C6' . 119.3(2) ?
C4' C5' H5' . 120.3 ?
C6' C5' H5' . 120.3 ?
C1' C6' C5' . 119.4(2) ?
C1' C6' H6' . 120.3 ?
C5' C6' H6' . 120.3 ?
loop_
_geom_bond_atom_site_label_1
_geom_bond_atom_site_label_2
_geom_bond_site_symmetry_2
_geom_bond_distance
_geom_bond_publ_flag
S1 O1 . 1.4156(15) y
S1 O2 . 1.4130(15) y
S1 O3 . 1.6024(14) y
S1 C1' . 1.749(2) y
O3 C1 . 1.412(2) y
C1 C2 . 1.367(3) ?
C1 C6 . 1.378(3) ?
C2 C3 . 1.379(3) ?
C2 H2 . 0.9300 ?
C3 C4 . 1.380(2) ?
C3 H3 . 0.9300 ?
C4 C5 . 1.387(3) ?
C4 C41 . 1.466(3) y
C41 O41 . 1.198(2) y
C41 H41 . 0.9300 ?
C5 C6 . 1.365(3) ?
C5 H5 . 0.9300 ?
C6 H6 . 0.9300 ?
C1' C6' . 1.369(3) ?
C1' C2' . 1.374(3) ?
C2' C3' . 1.367(3) ?
C2' H2' . 0.9300 ?
C3' C4' . 1.356(3) ?
C3' H3' . 0.9300 ?
C4' C5' . 1.367(3) ?
C4' Br4' . 1.888(2) y
Br4' Br4' 2_856 3.4974(5) ?
C5' C6' . 1.372(3) ?
C5' H5' . 0.9300 ?
C6' H6' . 0.9300 ?
loop_
_geom_hbond_atom_site_label_D
_geom_hbond_atom_site_label_H
_geom_hbond_atom_site_label_A
_geom_hbond_site_symmetry_A
_geom_hbond_distance_DH
_geom_hbond_distance_HA
_geom_hbond_distance_DA
_geom_hbond_angle_DHA
C2 H2 O41 1_455 0.93 2.60 3.303(2) 133.2
C5' H5' O3 1_645 0.93 2.63 3.556(3) 173.2
C3 H3 O1 2_665 0.93 2.56 3.418(2) 153.4
C6' H6' O41 2_765 0.93 2.69 3.316(3) 125.1
loop_
_geom_torsion_atom_site_label_1
_geom_torsion_atom_site_label_2
_geom_torsion_atom_site_label_3
_geom_torsion_atom_site_label_4
_geom_torsion
O1 S1 O3 C1 -50.95(15)
O2 S1 O3 C1 179.97(13)
C1' S1 O3 C1 64.98(15)
S1 O3 C1 C2 78.78(19)
S1 O3 C1 C6 -105.78(18)
C6 C1 C2 C3 -0.3(3)
O3 C1 C2 C3 174.94(17)
C1 C2 C3 C4 -0.5(3)
C2 C3 C4 C5 0.5(3)
C2 C3 C4 C41 -177.70(18)
C3 C4 C41 O41 177.1(2)
C5 C4 C41 O41 -1.1(3)
C3 C4 C5 C6 0.3(3)
C41 C4 C5 C6 178.41(19)
C4 C5 C6 C1 -1.0(3)
C2 C1 C6 C5 1.0(3)
O3 C1 C6 C5 -174.31(17)
O1 S1 C1' C6' 10.64(19)
O2 S1 C1' C6' 146.14(16)
O3 S1 C1' C6' -104.96(17)
O1 S1 C1' C2' -171.44(15)
O2 S1 C1' C2' -35.95(18)
O3 S1 C1' C2' 72.95(17)
C6' C1' C2' C3' -0.3(3)
S1 C1' C2' C3' -178.23(17)
C1' C2' C3' C4' 0.3(3)
C2' C3' C4' C5' -0.2(4)
C2' C3' C4' Br4' 179.70(16)
C3' C4' C5' C6' 0.1(4)
Br4' C4' C5' C6' -179.79(17)
C2' C1' C6' C5' 0.2(3)
S1 C1' C6' C5' 178.13(17)
C4' C5' C6' C1' -0.1(3)

_cod_database_fobs_code 2021161
