#------------------------------------------------------------------------------
#$Date: 2022-07-23 06:54:42 +0300 (Sat, 23 Jul 2022) $
#$Revision: 276892 $
#$URL: file:///home/coder/svn-repositories/cod/cif/2/02/26/2022647.cif $
#------------------------------------------------------------------------------
#
# This file is available in the Crystallography Open Database (COD),
# http://www.crystallography.net/. The original data for this entry
# were provided by IUCr Journals, http://journals.iucr.org/.
#
# The file may be used within the scientific community so long as
# proper attribution is given to the journal article from which the
# data were obtained.
#
data_2022647
loop_
_publ_author_name
'Jeyaraman Selvaraj, Nirmalram'
'Sathya, Udhayasuriyan'
'Gomathi, Sundaramoorthy'
'Jegan Jennifer, Samson'
'Mathivathanan, Logesh'
'Abdul Razak, Ibrahim'
_publ_section_title
;
 Synthesis, crystal structure determination and Hirshfeld surface analysis
 of three new salt forms of creatinine with hydrobromic acid,
 3-aminobenzoic acid and 3,5-dinitrobenzoic acid
;
_journal_coeditor_code           DG3030
_journal_issue                   8
_journal_name_full               'Acta Crystallographica Section C'
_journal_page_first
;
;
_journal_paper_doi               10.1107/S2053229622006684
_journal_volume                  78
_journal_year                    2022
_chemical_formula_iupac          'C4 H8 N3 O +, Br -'
_chemical_formula_moiety         'C4 H8 N3 O +, Br -'
_chemical_formula_sum            'C4 H8 Br N3 O'
_chemical_formula_weight         194.04
_chemical_name_common
;
Creatininium bromide
;
_chemical_name_systematic
;
2-Amino-1-methyl-4-oxo-4,5-dihydro-1<i>H</i>-imidazol-3-ium bromide
;
_space_group_crystal_system      monoclinic
_space_group_IT_number           14
_space_group_name_Hall           '-P 2yn'
_space_group_name_H-M_alt        'P 1 21/n 1'
_atom_sites_solution_hydrogens   mixed
_audit_creation_method           SHELXL-2018/3
_cell_angle_alpha                90
_cell_angle_beta                 97.9690(10)
_cell_angle_gamma                90
_cell_formula_units_Z            4
_cell_length_a                   8.7252(4)
_cell_length_b                   7.7772(4)
_cell_length_c                   10.7406(5)
_cell_measurement_reflns_used    1473
_cell_measurement_temperature    293(2)
_cell_measurement_theta_max      26.4
_cell_measurement_theta_min      2.8
_cell_volume                     721.79(6)
_computing_cell_refinement
;
SAINT (Bruker, 2016)
;
_computing_data_collection
;
APEX2 (Bruker, 2016)
;
_computing_data_reduction
;
SAINT (Bruker, 2016)
;
_computing_molecular_graphics
;
PLATON (Spek, 2020), Mercury (Macrae <i>et al.</i>, 2020)
and POVRay (Cason, 2004)
;
_computing_publication_material
;
PLATON (Spek, 2020) and publCIF (Westrip, 2010)
;
_computing_structure_refinement
;
SHELXL2018 (Sheldrick, 2015<i>b</i>)
;
_computing_structure_solution
;
SHELXT2018 (Sheldrick, 2015<i>a</i>)
;
_diffrn_ambient_temperature      293(2)
_diffrn_measured_fraction_theta_full 1.000
_diffrn_measured_fraction_theta_max 1.000
_diffrn_measurement_device_type  'Bruker APEXII CCD'
_diffrn_measurement_method       '\f and \w scans'
_diffrn_radiation_type           MoK\a
_diffrn_radiation_wavelength     0.71073
_diffrn_reflns_av_R_equivalents  0.0287
_diffrn_reflns_av_unetI/netI     0.0189
_diffrn_reflns_limit_h_max       10
_diffrn_reflns_limit_h_min       -10
_diffrn_reflns_limit_k_max       9
_diffrn_reflns_limit_k_min       -9
_diffrn_reflns_limit_l_max       13
_diffrn_reflns_limit_l_min       -13
_diffrn_reflns_number            8609
_diffrn_reflns_theta_full        25.242
_diffrn_reflns_theta_max         26.370
_diffrn_reflns_theta_min         2.824
_exptl_absorpt_coefficient_mu    5.621
_exptl_absorpt_correction_T_max  0.9364
_exptl_absorpt_correction_T_min  0.6258
_exptl_absorpt_correction_type   multi-scan
_exptl_absorpt_process_details
;
(SADABS; Bruker, 2016)
;
_exptl_crystal_colour            colourless
_exptl_crystal_density_diffrn    1.786
_exptl_crystal_description       plate
_exptl_crystal_F_000             384
_exptl_crystal_size_max          0.250
_exptl_crystal_size_mid          0.250
_exptl_crystal_size_min          0.050
_refine_diff_density_max         0.243
_refine_diff_density_min         -0.304
_refine_ls_extinction_coef       0.0158(10)
_refine_ls_extinction_expression Fc^*^=kFc[1+0.001xFc^2^\l^3^/sin(2\q)]^-1/4^
_refine_ls_extinction_method
;
SHELXL2018 (Sheldrick, 2015<i>b</i>)
;
_refine_ls_goodness_of_fit_ref   1.063
_refine_ls_hydrogen_treatment    mixed
_refine_ls_matrix_type           full
_refine_ls_number_parameters     88
_refine_ls_number_reflns         1473
_refine_ls_number_restraints     0
_refine_ls_restrained_S_all      1.063
_refine_ls_R_factor_all          0.0289
_refine_ls_R_factor_gt           0.0215
_refine_ls_shift/su_max          0.000
_refine_ls_shift/su_mean         0.000
_refine_ls_structure_factor_coef Fsqd
_refine_ls_weighting_details
'w=1/[\s^2^(Fo^2^)+(0.0212P)^2^+0.3220P] where P=(Fo^2^+2Fc^2^)/3'
_refine_ls_weighting_scheme      calc
_refine_ls_wR_factor_gt          0.0464
_refine_ls_wR_factor_ref         0.0494
_reflns_number_gt                1258
_reflns_number_total             1473
_reflns_threshold_expression     'I > 2\s(I)'
_cod_data_source_file            dg3030sup1.cif
_cod_data_source_block           I
_cod_original_sg_symbol_H-M      'P 21/n'
_cod_database_code               2022647
_shelx_space_group_comment
;
The symmetry employed for this shelxl refinement is uniquely defined
by the following loop, which should always be used as a source of
symmetry information in preference to the above space-group names.
They are only intended as comments.
;
_shelx_estimated_absorpt_t_min   0.334
_shelx_estimated_absorpt_t_max   0.766
_shelx_hkl_file
;
   2   0   0  424.36    9.70
  -2   0   0  422.66    9.60
  -2   0   0  421.16    9.70
   2   0   0  438.06    9.70
   2   0   0  418.26    9.90
   2   0   0  420.76    9.50
  -2   0   0  404.46    9.90
  -2   0   0  425.66    9.70
  -3   0   0   -0.40    0.60
   3   0   0    0.00    0.40
  -3   0   0    0.10    0.50
  -3   0   0   -0.10    0.50
  -3   0   0    0.00    0.60
   3   0   0    0.20    0.50
   3   0   0    0.20    0.70
  -4   0   0 1884.51   42.00
   4   0   0 1793.52   42.40
   4   0   0 1936.71   41.70
  -4   0   0 1927.01   42.00
  -4   0   0 1848.62   42.50
  -4   0   0 1871.11   41.80
  -5   0   0    0.60    0.90
  -5   0   0    0.00    1.10
  -5   0   0    0.70    1.00
  -5   0   0    0.10    1.10
   5   0   0    0.60    0.70
   5   0   0    0.20    1.10
   6   0   0  175.18    6.20
   6   0   0  175.38    4.90
  -6   0   0  176.58    5.60
  -6   0   0  180.18    6.20
  -6   0   0  174.18    5.40
  -7   0   0    0.90    1.40
   7   0   0    0.10    1.60
   7   0   0    0.50    1.00
  -7   0   0   -0.40    1.50
  -8   0   0  757.12   19.40
   8   0   0  743.63   19.30
  -8   0   0  729.93   18.00
   8   0   0  666.53   16.90
  -9   0   0    1.10    2.10
   9   0   0    2.30    2.50
  -9   0   0    2.10    2.10
 -10   0   0   16.00    5.10
 -10   0   0    9.10    2.70
  10   0   0   11.80    3.20
   0  -1   0    6.20    0.60
   0   1   0    5.10    0.70
   1  -1   0    2.90    0.60
  -1  -1   0    3.40    0.50
   1  -1   0    3.60    0.50
   1  -1   0    3.50    0.60
   1  -1   0    3.10    0.40
  -1  -1   0    3.10    0.60
  -1  -1   0    3.80    0.50
  -1  -1   0    3.30    0.50
   1  -1   0    3.40    0.60
   1   1   0    2.90    0.50
  -1   1   0    2.80    0.40
   1   1   0    2.80    0.50
   1   1   0    3.50    0.50
   1   1   0    3.10    0.50
  -1   1   0    3.50    0.60
  -1   1   0    3.20    0.60
   1   1   0    3.90    0.60
  -1   1   0    3.50    0.60
  -1   1   0    3.60    0.60
  -2  -1   0 3572.54   80.79
   2  -1   0 3568.34   80.59
   2  -1   0 3497.15   80.89
  -2  -1   0 3604.24   80.49
  -2  -1   0 3497.05   80.39
   2  -1   0 3520.05   80.49
  -2  -1   0 3827.12   80.69
   2  -1   0 4095.79   80.49
  -2   1   0 3556.24   80.49
  -2   1   0 3745.63   80.49
   2   1   0 3479.55   80.49
   2   1   0 3786.12   80.79
  -2   1   0 3643.64   80.79
  -2   1   0 3625.14   80.89
  -2   1   0 3893.41   80.59
  -2   1   0 3464.25   80.49
   2   1   0 3754.92   80.69
   2   1   0 3772.02   80.49
   3  -1   0   74.99    2.40
   3  -1   0   70.89    2.30
   3  -1   0   76.39    2.60
  -3  -1   0   72.29    2.30
  -3  -1   0   67.99    2.60
  -3  -1   0   69.49    2.60
  -3  -1   0   68.79    2.40
  -3   1   0   72.89    2.30
  -3   1   0   76.39    2.40
  -3   1   0   73.69    2.30
   3   1   0   70.89    2.30
  -3   1   0   77.99    2.40
   3   1   0   72.49    2.60
  -4  -1   0   23.70    1.70
   4  -1   0   22.00    1.60
   4  -1   0   21.50    1.60
   4  -1   0   20.80    2.10
  -4  -1   0   21.00    1.90
  -4  -1   0   20.70    1.70
  -4   1   0   20.60    1.50
  -4   1   0   21.60    2.10
   4   1   0   22.90    1.40
  -4   1   0   18.00    1.60
  -4   1   0   21.00    1.60
   4   1   0   21.40    2.00
  -4   1   0   19.70    1.60
  -5  -1   0    4.70    1.20
  -5  -1   0    7.30    2.10
   5  -1   0    7.00    1.60
   5  -1   0    3.60    2.40
  -5  -1   0    7.10    1.80
   5   1   0    3.80    1.30
  -5   1   0    5.70    2.40
  -5   1   0    7.50    1.70
  -5   1   0    6.20    1.80
   5   1   0    7.10    1.30
   6  -1   0 1168.48   26.20
   6  -1   0 1104.89   27.40
  -6  -1   0 1153.88   27.30
  -6  -1   0 1115.49   26.20
  -6   1   0 1175.98   26.40
   6   1   0 1151.58   25.80
  -6   1   0 1140.99   26.40
   6   1   0 1142.39   27.30
  -6   1   0 1149.19   27.60
   7  -1   0   79.99    3.30
   7  -1   0   84.29    4.70
  -7  -1   0   82.19    4.40
  -7  -1   0   77.19    4.30
  -7  -1   0   79.89    4.40
  -7   1   0   83.39    3.80
   7   1   0   81.99    2.90
   7   1   0   79.99    4.50
  -7   1   0   79.69    4.50
  -7   1   0   76.89    3.70
   8  -1   0  217.78    8.10
  -8  -1   0  212.08    7.20
  -8  -1   0  206.28    7.70
   8  -1   0  190.08    6.00
  -8   1   0  210.68    7.90
   8   1   0  204.08    7.70
   8   1   0  190.18    5.50
  -8   1   0  202.08    6.70
   9  -1   0   -0.30    2.20
  -9  -1   0    3.20    2.30
  -9  -1   0    0.70    2.10
   9  -1   0    4.40    2.30
   9   1   0    0.70    2.20
  -9   1   0    3.70    2.10
  -9   1   0    4.70    2.50
 -10  -1   0  154.18    7.90
 -10  -1   0  156.98    7.50
  10   1   0  152.48    9.40
 -10   1   0  157.18    8.20
 -10   1   0  157.18    6.80
   0  -2   0 2792.42   58.89
   0  -2   0 2588.64   58.79
   0  -2   0 2612.74   58.99
   0   2   0 2744.33   58.99
   0   2   0 2426.86   58.69
   0   2   0 2813.32   58.89
   1  -2   0  355.56    8.40
  -1  -2   0  368.26    8.40
   1  -2   0  354.76    8.50
  -1  -2   0  355.16    8.20
   1  -2   0  348.77    8.60
   1   2   0  363.16    8.10
  -1   2   0  346.47    8.40
  -1   2   0  355.06    8.60
   1   2   0  363.16    8.30
  -1   2   0  357.16    8.40
   1   2   0  354.06    8.30
  -1   2   0  355.56    8.50
  -1   2   0  346.27    7.90
   1   2   0  347.67    8.60
   1   2   0  350.16    8.10
   2  -2   0  444.86   10.40
  -2  -2   0  430.66   10.70
   2  -2   0  453.45   10.60
   2  -2   0  435.46   10.70
  -2  -2   0  458.55   10.40
  -2   2   0  439.66   10.50
  -2   2   0  436.76   10.70
  -2   2   0  456.25   10.20
   2   2   0  453.55   10.40
   2   2   0  456.55   10.30
  -2   2   0  436.56   10.60
   2   2   0  453.05   10.30
  -2   2   0  446.56   10.80
   2   2   0  454.95   10.40
   3  -2   0    6.30    1.00
  -3  -2   0    4.70    1.60
   3  -2   0    3.70    1.00
   3  -2   0    4.10    1.30
  -3  -2   0    4.00    1.30
   3  -2   0    5.90    1.00
  -3  -2   0    5.20    1.00
  -3   2   0    6.60    1.10
   3   2   0    3.80    1.20
  -3   2   0    4.40    1.10
   3   2   0    5.30    1.00
   3   2   0    5.00    1.30
  -3   2   0    6.00    1.40
  -3   2   0    3.40    1.00
   4  -2   0 2290.97   53.49
  -4  -2   0 2361.96   53.29
   4  -2   0 2458.15   52.99
  -4  -2   0 2390.16   52.49
   4   2   0 2408.36   52.49
  -4   2   0 2387.46   52.69
   4   2   0 2439.06   53.19
  -4   2   0 2313.97   53.59
  -4   2   0 2369.06   52.79
   4   2   0 2233.28   52.79
  -4   2   0 2416.16   52.59
  -5  -2   0   15.70    1.70
   5  -2   0   16.90    2.00
   5  -2   0   15.20    2.40
  -5   2   0   14.60    1.70
   5   2   0   14.50    1.80
  -5   2   0   14.80    2.40
   5   2   0   16.80    2.30
  -5   2   0   14.40    1.90
  -6  -2   0   39.30    2.30
  -6  -2   0   38.20    3.10
  -6  -2   0   41.90    3.40
   6  -2   0   41.50    3.50
   6  -2   0   46.00    2.70
  -6   2   0   42.00    3.40
  -6   2   0   40.60    2.60
   6   2   0   38.90    3.20
   6   2   0   43.80    2.20
  -6   2   0   42.30    2.50
   7  -2   0    2.00    1.70
  -7  -2   0    2.40    1.80
  -7  -2   0    1.40    1.40
   7  -2   0   -0.20    1.50
   7   2   0    0.70    1.00
  -7   2   0   -0.30    1.30
   7   2   0   -0.60    1.50
  -7   2   0   -0.70    1.50
  -7   2   0    0.70    1.70
   8  -2   0  356.46   11.40
  -8  -2   0  354.76   10.80
  -8  -2   0  357.76   10.80
   8  -2   0  343.67    9.50
  -8   2   0  346.37    9.60
   8   2   0  356.16   11.00
  -8   2   0  349.17   11.40
  -9  -2   0   45.70    4.70
   9  -2   0   37.10    3.10
  -9  -2   0   35.10    5.00
  -9   2   0   46.60    4.10
   9   2   0   43.50    5.20
  -9   2   0   41.60    5.40
 -10  -2   0   36.10    5.70
 -10  -2   0   43.00    6.60
 -10   2   0   45.40    6.40
   0  -3   0    0.10    0.70
   0  -3   0   -0.60    0.70
   0  -3   0    0.30    0.60
   0   3   0    0.30    0.60
   0   3   0    2.00    0.90
   1  -3   0  330.27    8.40
  -1  -3   0  344.07    8.30
   1  -3   0  342.37    8.20
  -1  -3   0  341.97    8.70
  -1  -3   0  331.67    8.10
   1  -3   0  326.97    8.70
  -1   3   0  330.57    8.40
   1   3   0  348.27    7.90
  -1   3   0  342.87    8.70
   1   3   0  335.27    7.70
   2  -3   0  656.63   15.80
  -2  -3   0  632.24   15.60
  -2  -3   0  673.83   15.20
  -2  -3   0  681.13   15.10
   2  -3   0  647.14   15.40
   2  -3   0  648.54   15.30
   2   3   0  651.23   15.20
  -2   3   0  650.53   15.70
  -2   3   0  651.53   15.40
   2   3   0  652.43   14.80
  -2   3   0  644.24   14.70
   2   3   0  656.83   15.20
   2   3   0  640.94   14.90
   3  -3   0   88.79    2.90
  -3  -3   0   86.59    3.60
   3  -3   0   93.39    3.40
  -3  -3   0   84.39    3.00
  -3   3   0   83.49    3.40
   3   3   0   86.39    2.90
   3   3   0   88.99    3.00
  -3   3   0   89.89    3.70
  -3   3   0   91.79    2.70
   3   3   0   91.89    3.00
   4  -3   0  249.97    6.30
   4  -3   0  258.17    7.00
  -4   3   0  247.08    7.50
   4   3   0  247.88    6.70
  -4   3   0  245.28    6.30
   4   3   0  248.48    6.60
  -4   3   0  249.88    6.40
   4   3   0  236.78    6.30
  -4   3   0  239.38    6.80
  -5  -3   0   63.79    3.80
   5  -3   0   67.49    3.60
  -5   3   0   66.29    2.90
   5   3   0   64.49    3.30
  -5   3   0   62.39    3.90
   5   3   0   62.99    3.20
   5   3   0   67.69    2.60
  -5   3   0   65.79    2.80
   6  -3   0  406.06   10.70
  -6  -3   0  397.66   11.30
  -6   3   0  406.26   11.80
  -6   3   0  401.96   10.30
   6   3   0  416.96   11.10
   6   3   0  424.66    9.90
   6   3   0  384.46   10.30
  -6   3   0  395.66   10.10
   7  -3   0  171.38    5.80
  -7  -3   0  164.08    6.70
  -7  -3   0  171.08    6.20
  -7   3   0  166.68    5.60
   7   3   0  167.48    6.30
   7   3   0  168.18    5.10
  -7   3   0  173.58    7.20
  -7   3   0  163.48    5.30
  -8  -3   0   77.19    4.80
  -8  -3   0   77.09    5.60
   8  -3   0   79.39    4.10
  -8   3   0   79.49    5.90
   8   3   0   79.29    5.00
  -8   3   0   72.19    4.30
  -9  -3   0    2.70    2.60
  -9  -3   0    1.70    2.10
   9  -3   0    0.80    1.80
  -9   3   0    1.60    2.80
   9   3   0    0.80    2.30
 -10  -3   0   84.49    8.80
 -10   3   0   94.29    7.40
   0  -4   0  639.24   15.60
   0  -4   0  677.93   16.30
   0  -4   0  671.43   15.30
   0   4   0  640.04   15.20
   1  -4   0 1041.30   23.90
  -1  -4   0 1051.69   23.80
   1  -4   0 1048.70   23.50
   1  -4   0 1017.50   24.40
  -1  -4   0 1005.50   23.60
  -1  -4   0 1022.40   24.30
   1   4   0 1056.89   22.90
   1   4   0 1044.60   23.10
  -1   4   0 1015.40   24.00
  -1   4   0  998.20   23.40
  -2  -4   0   18.70    2.00
   2  -4   0   24.40    2.40
   2  -4   0   19.70    2.10
  -2  -4   0   17.10    2.40
  -2  -4   0   20.40    1.70
   2   4   0   19.70    1.90
  -2   4   0   19.90    2.60
  -2   4   0   21.30    1.10
   2   4   0   17.70    1.50
   2   4   0   21.70    1.50
  -3  -4   0  416.06   11.40
   3  -4   0  414.96   11.80
   3  -4   0  435.66   10.70
  -3  -4   0  440.06   10.70
   3   4   0  436.56   10.70
  -3   4   0  440.56   10.10
  -3   4   0  432.36   11.60
   3   4   0  446.26   10.50
  -4  -4   0  890.31   21.90
   4  -4   0  921.81   20.70
   4  -4   0  896.61   21.40
   4   4   0  915.91   21.00
  -4   4   0  850.21   23.10
  -4   4   0  897.31   20.40
   4   4   0  897.91   20.90
   5  -4   0  244.48    6.50
  -5  -4   0  243.28    8.10
   5  -4   0  252.67    7.50
   5   4   0  249.18    7.00
  -5   4   0  248.18    6.70
  -5   4   0  240.98    8.20
   5   4   0  247.88    7.10
  -5   4   0  247.78    6.70
   6  -4   0   40.40    3.20
  -6  -4   0   40.40    4.10
  -6   4   0   38.10    2.80
   6   4   0   40.20    3.30
  -6   4   0   40.10    4.10
  -6   4   0   38.50    2.80
   6   4   0   35.60    3.30
  -7  -4   0   76.59    4.20
   7  -4   0   76.09    4.30
  -7  -4   0   79.79    5.50
  -7   4   0   74.69    3.70
   7   4   0   69.39    4.40
   7   4   0   73.59    3.90
  -7   4   0   86.89    5.50
   8  -4   0  166.88    6.40
  -8  -4   0  162.48    6.60
  -8  -4   0  172.58    7.90
   8   4   0  166.08    7.00
  -8   4   0  166.28    8.00
   9  -4   0   62.89    4.40
  -9  -4   0   56.39    4.80
  -9  -4   0   52.89    8.40
   9   4   0   47.80    5.30
  -9   4   0   54.59    6.30
   0  -5   0    0.40    1.40
   0  -5   0    0.70    1.10
   0  -5   0    0.50    0.80
   0   5   0    0.70    0.80
   1  -5   0  691.73   16.20
   1  -5   0  648.74   16.90
  -1  -5   0  692.83   15.60
   1  -5   0  648.04   16.30
  -1  -5   0  583.74   17.70
   1   5   0  686.53   15.20
  -1   5   0  664.03   16.10
   1   5   0  679.33   14.90
   2  -5   0  543.55   13.90
   2  -5   0  521.35   13.60
  -2  -5   0  505.25   13.90
  -2  -5   0  547.35   13.50
  -2  -5   0  486.75   13.00
   2   5   0  555.64   12.50
   2   5   0  592.14   13.00
   2   5   0  542.25   13.40
  -2   5   0  528.15   14.00
  -3  -5   0  386.36    9.80
   3  -5   0  376.86   10.00
  -3  -5   0  394.86   10.10
  -3  -5   0  365.46   10.80
   3  -5   0  360.86   10.30
   3   5   0  391.36   10.00
   3   5   0  389.26    9.30
  -3   5   0  382.16   11.00
  -3   5   0  369.56    8.90
   4  -5   0   57.09    3.60
  -4  -5   0   58.29    4.10
   4  -5   0   59.09    2.90
  -4   5   0   58.69    2.60
   4   5   0   60.29    3.30
  -4   5   0   59.39    4.30
   4   5   0   61.69    3.00
   5  -5   0   96.99    4.80
   5  -5   0   98.69    3.80
  -5  -5   0   97.39    5.60
  -5   5   0  107.79    5.70
  -5   5   0  100.29    4.00
   5   5   0   99.49    4.30
   5   5   0  100.29    4.20
  -5   5   0  102.09    3.80
   6  -5   0  162.88    6.40
  -6  -5   0  170.08    7.40
   6   5   0  170.18    6.00
  -6   5   0  168.38    5.40
   6   5   0  167.78    6.00
  -6   5   0  178.98    7.70
  -7  -5   0  192.48    8.30
  -7  -5   0  188.68    6.50
   7  -5   0  191.48    7.10
   7   5   0  180.38    6.80
  -7   5   0  192.98    8.60
  -7   5   0  200.38    7.20
  -8  -5   0    3.40    3.20
   8  -5   0   11.40    3.70
  -8  -5   0    1.70    1.80
  -8   5   0    1.70    2.90
   8   5   0   -2.30    2.10
  -9  -5   0    6.90    2.20
   9  -5   0    8.90    2.60
  -9  -5   0    4.60    3.50
  -9   5   0   18.50    6.40
   9   5   0    6.30    2.80
   0  -6   0  450.35   11.20
   0  -6   0  483.75   13.40
   0  -6   0  447.46   12.20
   0   6   0  483.55   11.30
   1  -6   0  367.86   11.50
   1  -6   0  378.36   10.70
  -1  -6   0  386.76    9.40
  -1  -6   0  395.46   10.60
  -1  -6   0  400.46   11.60
   1   6   0  395.76    9.30
   1   6   0  385.26   10.50
  -1   6   0  382.06   10.10
   2  -6   0    3.00    1.70
  -2  -6   0    2.00    1.90
   2  -6   0   14.60    4.40
  -2  -6   0    2.30    1.70
  -2   6   0    4.10    1.90
   2   6   0    2.30    1.40
   3  -6   0  290.37    8.60
   3  -6   0  284.17    8.80
  -3  -6   0  275.77    9.40
  -3  -6   0  288.57    8.50
   3   6   0  296.97    7.40
   3   6   0  285.57    8.30
  -3   6   0  288.37    9.70
   4  -6   0  344.97    9.40
   4  -6   0  351.56   10.30
  -4  -6   0  349.77   10.90
  -4   6   0  337.37   11.00
   4   6   0  340.67    9.50
   4   6   0  346.67    8.90
   5  -6   0  300.37    9.60
  -5  -6   0  303.77   10.60
   5  -6   0  300.87    8.40
   5   6   0  315.87    8.60
   5   6   0  304.27    8.90
  -5   6   0  305.57   10.70
  -5   6   0  318.77    8.70
  -6  -6   0    1.90    2.70
  -6  -6   0   -0.90    1.30
   6  -6   0    4.20    2.30
  -6   6   0    0.90    2.60
   6   6   0    0.00    1.90
   6   6   0    1.90    1.70
  -6   6   0    1.90    1.80
  -7  -6   0   42.70    3.50
   7  -6   0   42.10    4.70
   7   6   0   39.60    4.30
  -7   6   0   48.80    6.10
  -8  -6   0   45.00    7.10
   8  -6   0   35.10    4.70
  -8   6   0   27.50    7.80
   0  -7   0    1.20    2.40
   0  -7   0    0.00    1.90
   0   7   0    1.80    1.20
   0   7   0    1.50    1.70
  -1  -7   0   49.40    4.10
   1  -7   0   32.20    5.00
  -1  -7   0   50.79    5.00
   1  -7   0   49.30    3.90
  -1   7   0   46.10    3.20
   1   7   0   44.70    3.60
  -2  -7   0  104.19    6.20
  -2  -7   0   95.79    5.00
   2  -7   0   84.69    5.40
   2  -7   0  105.09    5.30
   2   7   0  100.79    4.80
  -2   7   0  101.49    5.40
   3  -7   0  370.46   11.40
  -3  -7   0  389.96   11.20
  -3  -7   0  390.46   12.30
   3  -7   0  390.66   11.20
   3   7   0  389.66   11.00
  -3   7   0  397.46   11.90
   4  -7   0    8.50    2.80
   4  -7   0    4.20    2.30
  -4  -7   0    5.30    2.70
  -4   7   0    2.90    2.40
   4   7   0   11.60    2.80
  -5  -7   0   37.70    5.60
   5  -7   0   44.50    4.90
   5  -7   0   41.40    4.20
   5   7   0   38.80    3.80
  -5   7   0   40.80    5.70
  -6  -7   0   33.80    5.50
   6  -7   0   24.40    4.90
  -6   7   0   33.50    6.20
   6   7   0   35.70    3.80
  -7  -7   0   75.69    7.50
   7  -7   0   73.99    5.90
  -7   7   0   87.39    7.90
   0  -8   0   10.50    3.40
   0  -8   0   16.80    3.90
   0   8   0    9.20    2.50
   1  -8   0   93.99    7.00
   1  -8   0   96.59    5.90
  -1  -8   0  101.59    5.80
  -1  -8   0  111.29    7.20
   1   8   0  101.39    5.40
  -1   8   0   95.09    5.60
   2  -8   0    2.20    2.40
  -2  -8   0    7.10    3.10
   2  -8   0   13.10    4.10
  -2  -8   0    6.70    2.40
   2   8   0    7.90    2.30
  -3  -8   0   62.29    6.40
   3  -8   0   57.49    5.20
  -3  -8   0   54.49    5.10
   3  -8   0   56.79    4.50
   3   8   0   63.79    4.50
  -3   8   0   63.39    5.70
  -4  -8   0   16.20    4.30
   4  -8   0   23.50    7.70
   4  -8   0   15.80    3.40
   4   8   0   23.90    3.60
  -4   8   0   22.00    5.40
  -5  -8   0  165.78    9.20
   5  -8   0  168.28    7.90
   5   8   0  153.08    6.70
  -5   8   0  137.79    8.60
  -6  -8   0    5.00    3.60
   6  -8   0    0.40    3.00
  -6   8   0   -2.90    3.60
   0  -9   0   -6.10    4.20
   0  -9   0   -1.00    3.40
   0   9   0    5.60    4.10
  -1  -9   0   45.30    5.60
  -1  -9   0   45.60    7.50
  -1   9   0   45.30    5.30
   1   9   0   51.29    5.50
   2  -9   0   -0.20    2.70
   2  -9   0    3.20    2.90
  -2  -9   0    8.30    5.80
  -2  -9   0    3.00    2.70
  -2   9   0    3.10    2.90
   2   9   0    5.50    2.60
  -3  -9   0   88.89    7.90
   3  -9   0   84.99    6.80
   3  -9   0   79.69    6.60
   3   9   0   86.59    5.40
   4  -9   0    3.60    3.10
  -4  -9   0   -2.50    3.80
   4   9   0    0.50    2.30
 -10   0   1    1.50    2.50
 -10   0   1    2.30    3.00
  -9   0   1  221.68    7.50
   9   0  -1  207.08    6.50
  -9   0   1  216.68    8.60
  -8   0   1    0.50    1.70
  -8   0   1    2.10    1.90
   8   0  -1    0.10    1.30
   8   0  -1    0.00    1.90
  -7   0   1  210.28    7.40
  -7   0   1  231.58    6.70
   7   0  -1  209.88    7.40
   7   0  -1  209.28    6.10
   6   0  -1   -0.20    0.90
  -6   0   1   -0.80    1.10
   6   0  -1   -1.10    1.20
  -6   0   1    0.30    1.20
   5   0  -1 1201.78   28.20
  -5   0   1 1208.88   28.20
   5   0  -1 1195.98   27.30
  -5   0   1 1208.28   27.40
   4   0  -1    0.30    0.90
  -4   0   1   -0.20    0.70
  -4   0   1   -0.10    0.80
   4   0  -1   -0.10    0.70
   4   0  -1   -0.50    0.70
  -4   0   1    0.10    0.90
   3   0  -1 2803.32   60.09
  -3   0   1 2655.63   60.49
   3   0  -1 2787.72   60.19
  -3   0   1 2756.62   60.09
  -3   0   1 2725.03   60.29
  -3   0   1 2658.63   61.09
   3   0  -1 2714.23   61.09
   3   0  -1 2644.34   60.49
   2   0  -1    0.80    0.30
  -2   0   1    1.00    0.50
   2   0  -1    0.60    0.50
  -2   0   1    1.00    0.50
  -2   0   1    0.90    0.40
  -2   0   1    3.30    0.90
   2   0  -1    2.60    0.80
  -1   0   1  808.72   18.40
   1   0  -1  843.82   18.70
  -1   0   1  834.52   18.60
   1   0  -1  821.82   18.60
   1   0  -1  841.02   18.40
  -1   0  -1  125.99    2.90
   1   0   1  124.79    2.90
  -1   0  -1  120.59    3.10
  -2   0  -1    2.70    0.90
   2   0   1    2.90    0.90
   3   0   1 1570.84   36.50
  -3   0  -1 1648.24   35.60
   3   0   1 1677.13   35.60
  -3   0  -1 1578.54   36.00
  -3   0  -1 1580.44   36.20
   3   0   1 1635.24   36.20
  -4   0  -1    0.30    0.80
  -4   0  -1   -0.50    0.80
   4   0   1    0.30    0.90
  -4   0  -1    0.50    0.60
   4   0   1    0.30    0.50
  -5   0  -1    0.00    1.10
  -5   0  -1    0.90    0.80
   5   0   1    1.40    0.70
  -6   0  -1    1.10    1.20
   6   0   1   -0.50    1.30
  -6   0  -1    1.70    2.30
  -6   0  -1   -2.50    1.20
  -6   0  -1    0.10    1.20
   6   0   1   -0.20    0.70
  -7   0  -1  297.17    8.50
  -7   0  -1  294.57    8.40
  -7   0  -1  302.77    8.80
   7   0   1  304.67    9.50
   7   0   1  316.87    7.50
  -7   0  -1  313.77    9.50
   8   0   1   -1.80    1.90
  -8   0  -1    1.50    1.90
  -8   0  -1   -0.30    1.80
  -8   0  -1   -0.40    1.80
   8   0   1   -1.20    1.00
  -9   0  -1    0.90    2.30
  -9   0  -1    0.90    2.30
   9   0   1   -0.40    2.30
 -10   0  -1    1.30    2.40
  10   0   1   -0.50    2.80
 -10   0  -1    4.10    2.60
 -10  -1   1    4.30    2.80
 -10   1   1    3.50    2.80
 -10   1   1   -0.10    2.80
   9  -1  -1  100.59    4.40
  -9  -1   1  111.39    6.20
  -9  -1   1  113.29    5.80
  -9   1   1  110.49    5.20
   9   1  -1  112.79    6.40
  -9   1   1  111.49    6.60
  -8  -1   1   23.00    3.60
  -8  -1   1   22.30    3.70
  -8   1   1   23.10    3.90
   8   1  -1   23.80    2.40
   8   1  -1   27.60    3.90
  -7  -1   1  669.53   16.40
   7  -1  -1  652.93   15.80
  -7  -1   1  642.14   16.90
   7   1  -1  653.53   15.60
  -7   1   1  646.24   17.30
  -7   1   1  652.43   15.80
   7   1  -1  660.03   17.00
  -6  -1   1    3.20    1.30
   6  -1  -1    3.60    1.10
   6  -1  -1    2.90    1.50
  -6  -1   1    3.60    1.30
   6   1  -1    3.60    1.40
  -6   1   1    4.40    1.50
  -6   1   1    2.70    1.10
   6   1  -1    3.90    1.10
  -5  -1   1  488.25   12.50
   5  -1  -1  452.35   13.20
  -5  -1   1  481.35   12.00
  -5  -1   1  489.75   12.40
   5  -1  -1  480.65   11.70
   5  -1  -1  453.95   11.50
   5   1  -1  505.65   11.80
   5   1  -1  501.65   12.40
  -5   1   1  465.45   13.40
  -5   1   1  503.35   11.50
   4  -1  -1   19.50    1.40
  -4  -1   1   21.30    2.10
  -4  -1   1   20.30    1.90
   4  -1  -1   22.50    1.60
  -4  -1   1   22.50    1.80
   4   1  -1   21.30    2.00
   4   1  -1   22.60    1.90
  -4   1   1   21.20    2.10
  -4   1   1   24.00    1.40
   3  -1  -1 1963.70   43.60
  -3  -1   1 1935.71   43.70
  -3  -1   1 1960.80   43.80
   3  -1  -1 1964.40   43.40
  -3  -1   1 1987.30   43.80
   3  -1  -1 1980.60   43.20
  -3  -1   1 1977.30   43.80
   3   1  -1 1946.31   43.70
  -3   1   1 1881.21   44.10
  -3   1   1 1962.30   43.20
  -3   1   1 1976.80   43.60
   3   1  -1 1995.30   43.80
   3   1  -1 1867.31   43.80
  -3   1   1 2014.50   43.20
  -2  -1   1  120.79    3.30
  -2  -1   1  113.69    3.10
  -2  -1   1  123.39    3.20
   2  -1  -1  111.99    3.20
   2  -1  -1  114.89    3.00
   2  -1  -1  114.59    3.50
  -2   1   1  112.29    2.80
   2   1  -1  112.49    3.30
   2   1  -1  116.89    3.20
  -2   1   1  113.69    3.60
  -2   1   1  118.89    3.20
   2   1  -1  115.19    3.40
  -1  -1   1   22.30    0.80
   1  -1  -1   24.10    1.30
  -1  -1   1   19.60    1.00
   1  -1  -1   18.40    1.00
  -1  -1   1   19.50    0.80
   1   1  -1   22.60    0.80
   1   1  -1   20.40    1.10
   0  -1  -1  117.59    2.90
   0  -1   1  116.49    3.30
   0  -1  -1  119.79    3.20
   0  -1  -1  120.39    2.90
   0   1   1  118.29    3.20
   0   1   1  120.09    2.90
   0   1   1  120.09    2.90
   0   1  -1  122.09    2.80
   0   1  -1  112.79    3.20
  -1  -1  -1 2798.12   58.89
   1  -1   1 2667.13   58.79
  -1  -1  -1 2640.64   58.59
   1  -1   1 2637.14   58.89
   1  -1   1 2685.03   58.79
  -1  -1  -1 2476.45   58.49
  -1  -1  -1 2621.84   58.89
  -1   1  -1 2756.02   58.79
   1   1   1 2633.54   58.89
  -1   1  -1 2777.12   58.79
  -1   1  -1 2590.44   58.89
   1   1   1 2644.04   58.49
   1   1   1 2747.12   58.89
   2  -1   1   10.00    1.10
  -2  -1  -1   10.70    0.90
  -2  -1  -1   10.00    1.20
  -2  -1  -1   11.80    1.10
   2  -1   1   12.40    1.10
   2  -1   1   11.10    0.90
  -2   1  -1   13.00    1.20
   2   1   1   10.40    0.90
  -2   1  -1   11.30    1.10
   2   1   1   11.50    1.10
  -2   1  -1   10.50    0.90
  -2   1  -1   12.70    0.90
  -2   1  -1   10.90    1.10
   3  -1   1  221.68    6.20
  -3  -1  -1  220.18    6.00
   3  -1   1  230.68    5.90
  -3  -1  -1  226.18    5.70
   3  -1   1  227.18    5.60
  -3   1  -1  227.88    5.80
  -3   1  -1  239.38    5.60
  -3   1  -1  222.58    5.90
   3   1   1  234.98    6.10
  -3   1  -1  217.78    5.60
   4  -1   1  714.33   16.40
   4  -1   1  712.83   17.30
  -4  -1  -1  712.63   17.00
  -4  -1  -1  716.03   16.60
  -4   1  -1  709.53   16.60
  -4   1  -1  735.73   16.70
   4   1   1  708.13   17.20
  -4   1  -1  722.23   16.40
  -5  -1  -1 1316.17   31.00
   5  -1   1 1347.27   30.50
  -5  -1  -1 1348.77   31.20
   5  -1   1 1289.97   31.80
  -5   1  -1 1330.97   31.90
  -5   1  -1 1535.65   31.20
  -5   1  -1 1342.37   30.90
   5   1   1 1337.47   31.60
  -6  -1  -1    7.30    2.10
   6  -1   1    9.40    1.70
  -6  -1  -1    8.40    2.60
   6  -1   1    4.60    1.50
  -6   1  -1    9.50    2.30
  -6   1  -1    6.70    1.50
   6   1   1    5.30    1.60
  -6   1  -1    4.50    1.50
  -7  -1  -1    2.30    1.50
   7  -1   1   -0.50    1.60
  -7  -1  -1   -0.70    1.60
   7  -1   1   -0.40    1.00
  -7  -1  -1   -1.40    1.50
  -7   1  -1    1.20    1.60
  -7   1  -1   -0.50    1.40
  -7   1  -1    0.30    1.60
   7   1   1    0.50    1.70
   8  -1   1    0.40    2.00
  -8  -1  -1    1.60    1.70
   8  -1   1    2.90    1.20
  -8  -1  -1    1.80    1.90
   8   1   1   -0.50    2.00
  -8   1  -1    1.40    2.00
  -8   1  -1    1.40    2.10
  -8   1  -1    1.60    1.80
   9  -1   1  272.07   10.10
  -9  -1  -1  279.67   10.00
  -9  -1  -1  263.67    9.20
  -9   1  -1  275.27   10.10
  -9   1  -1  266.97    8.80
   9   1   1  281.77   10.00
 -10  -1  -1    7.50    2.90
 -10  -1  -1    5.40    2.90
  10  -1   1    3.40    2.80
 -10   1  -1    2.80    2.50
 -10   1  -1    2.70    2.70
  10   1   1    3.70    2.80
 -10  -2   1   33.10    5.30
 -10  -2   1   27.70    5.60
 -10   2   1   25.70    5.50
  -9  -2   1  181.48    7.60
   9  -2  -1  160.38    6.00
  -9  -2   1  181.58    7.40
   9   2  -1  190.58    7.80
  -9   2   1  173.58    6.40
  -9   2   1  181.38    8.40
  -8  -2   1    1.60    1.70
  -8  -2   1    0.80    2.00
   8  -2  -1    0.70    1.40
   8   2  -1   -1.10    2.00
  -8   2   1   -1.70    2.00
  -8   2   1    1.90    1.60
   8   2  -1    3.30    1.40
  -7  -2   1  446.66   12.20
  -7  -2   1  447.86   12.30
   7  -2  -1  442.06   11.50
  -7   2   1  436.16   12.90
   7   2  -1  469.95   11.30
   7   2  -1  443.86   12.30
  -7   2   1  420.76   11.00
   6  -2  -1   87.39    3.70
  -6  -2   1   81.29    4.10
  -6  -2   1   71.69    3.70
   6   2  -1   77.99    4.00
  -6   2   1   79.89    3.00
   6   2  -1   85.89    3.60
  -6   2   1   80.69    4.40
  -5  -2   1  444.96   11.40
  -5  -2   1  442.26   11.30
   5  -2  -1  452.55   11.10
  -5   2   1  430.06   10.60
  -5   2   1  431.16   11.90
  -5   2   1  446.16   10.40
   5   2  -1  444.86   11.30
   5   2  -1  426.26   11.10
  -4  -2   1   72.59    3.20
   4  -2  -1   72.29    2.90
  -4  -2   1   70.99    2.90
  -4  -2   1   66.29    2.70
  -4   2   1   70.79    2.50
  -4   2   1   64.29    3.40
  -4   2   1   73.39    2.30
   4   2  -1   76.79    3.00
   4   2  -1   66.29    3.20
   3  -2  -1  427.06   10.20
   3  -2  -1  399.86    9.60
  -3  -2   1  414.96   10.00
  -3  -2   1  408.06   10.30
  -3  -2   1  422.56   10.00
  -3  -2   1  408.16    9.90
  -3   2   1  411.46   10.70
  -3   2   1  408.06    9.60
   3   2  -1  425.96   10.20
  -3   2   1  411.66    9.40
   3   2  -1  417.26    9.90
   2  -2  -1  755.32   18.20
  -2  -2   1  777.42   17.60
  -2  -2   1  770.42   17.80
   2  -2  -1  786.42   18.00
   2  -2  -1  788.62   17.40
  -2  -2   1  762.22   18.20
   2  -2  -1  810.92   17.40
  -2  -2   1  775.92   17.60
   2   2  -1  773.42   17.90
   2   2  -1  772.92   17.80
  -2   2   1  783.92   18.40
  -2   2   1  807.52   17.50
   2   2  -1  780.32   17.60
   1  -2  -1 2492.35   56.49
  -1  -2   1 2556.94   56.19
   1  -2  -1 2443.36   55.99
  -1  -2   1 2593.04   56.09
   1   2  -1 2569.24   56.09
  -1   2   1 2389.76   56.59
   1   2  -1 2571.04   56.19
  -1   2   1 2550.14   55.79
   1   2  -1 2588.24   56.49
  -1   2   1 2579.54   56.09
   0  -2  -1  111.79    3.10
   0  -2  -1  113.29    3.10
   0  -2   1  110.89    3.60
   0  -2  -1  111.59    3.50
   0   2  -1  109.99    3.20
   0   2   1  112.39    3.10
   0   2  -1  107.29    3.50
   0   2   1  111.89    3.00
   0   2  -1  115.09    3.20
   0   2   1  113.69    3.30
  -1  -2  -1  750.82   16.90
   1  -2   1  761.42   17.20
  -1  -2  -1  793.12   17.20
  -1  -2  -1  761.52   16.70
   1  -2   1  731.53   17.40
   1  -2   1  758.62   17.00
  -1  -2  -1  729.33   17.20
  -1   2  -1  731.03   17.40
  -1   2  -1  770.92   17.20
   1   2   1  735.73   17.00
   1   2   1  755.52   16.90
  -1   2  -1  757.72   17.00
   1   2   1  752.02   16.70
   1   2   1  724.13   17.20
  -1   2  -1  750.42   17.00
   2  -2   1  663.03   15.50
   2  -2   1  675.53   15.60
   2  -2   1  664.13   15.70
  -2  -2  -1  667.03   15.60
  -2  -2  -1  652.93   15.70
  -2  -2  -1  683.03   15.30
  -2  -2  -1  663.33   15.20
   2   2   1  688.33   15.20
  -2   2  -1  679.13   15.70
  -2   2  -1  690.83   15.60
  -2   2  -1  695.93   15.80
   2   2   1  661.63   15.20
   2   2   1  687.43   15.60
  -2   2  -1  659.83   15.50
   2   2   1  674.13   15.20
  -2   2  -1  672.23   15.20
   3  -2   1 1442.96   32.70
   3  -2   1 1422.16   32.20
  -3  -2  -1 1419.66   32.60
   3  -2   1 1393.26   32.20
  -3  -2  -1 1418.66   32.10
  -3   2  -1 1459.65   32.70
  -3   2  -1 1437.46   32.00
  -3   2  -1 1436.96   32.30
   3   2   1 1422.46   31.70
   3   2   1 1434.66   31.80
  -3   2  -1 1443.86   32.50
   3   2   1 1460.65   32.50
   4  -2   1   16.00    2.20
   4  -2   1   18.80    1.70
  -4  -2  -1   16.80    2.20
  -4  -2  -1   15.80    1.70
  -4   2  -1   16.40    1.70
  -4   2  -1   17.80    1.60
  -4   2  -1   17.70    2.30
   4   2   1   17.00    2.10
   5  -2   1  104.69    4.50
   5  -2   1  107.49    3.70
  -5  -2  -1  108.49    4.40
  -5  -2  -1  108.69    3.70
  -5   2  -1  104.59    4.20
  -5   2  -1  102.79    3.80
   5   2   1  105.09    4.20
  -5   2  -1  107.69    4.50
   6  -2   1  115.79    4.00
  -6  -2  -1  112.29    4.20
   6  -2   1  118.19    5.20
  -6  -2  -1  108.79    4.80
  -6   2  -1  115.89    4.30
   6   2   1  115.19    4.90
  -6   2  -1  120.09    5.20
  -6   2  -1  113.79    4.10
   7  -2   1  344.27    8.90
  -7  -2  -1  331.87   10.00
   7  -2   1  331.37   10.40
   7   2   1  330.27   10.10
  -7   2  -1  331.67    9.30
  -7   2  -1  328.57   10.50
  -7   2  -1  338.27    9.20
  -8  -2  -1    0.50    1.90
   8  -2   1    2.40    2.30
  -8  -2  -1    5.60    2.30
  -8   2  -1    4.90    2.20
   8   2   1    3.00    2.00
  -8   2  -1    5.40    2.10
  -8   2  -1    1.30    1.80
  -9  -2  -1    0.00    2.00
   9  -2   1   -0.30    2.40
  -9  -2  -1   -2.00    2.40
  -9   2  -1   -1.30    1.90
   9   2   1    0.80    2.40
  -9   2  -1    1.00    2.50
 -10  -2  -1   13.00    3.20
  10  -2   1   25.90    5.50
 -10  -2  -1   11.70    2.90
 -10   2  -1   10.60    2.90
  10   2   1   11.60    3.30
 -10   2  -1   11.50    3.20
  10  -3  -1    2.00    2.00
 -10  -3   1   -2.30    2.80
 -10  -3   1    3.40    2.40
 -10   3   1   -0.90    2.80
  -9  -3   1   91.89    6.50
   9  -3  -1   78.09    4.80
  -9  -3   1   90.69    5.50
  -9   3   1   92.69    7.00
   9   3  -1   95.39    6.00
   8  -3  -1  128.89    5.20
  -8  -3   1  125.69    5.70
  -8  -3   1  126.19    6.60
  -8   3   1  132.59    7.00
   8   3  -1  131.69    5.40
  -8   3   1  120.69    4.50
   8   3  -1  130.19    6.10
  -7  -3   1  159.88    6.60
   7  -3  -1  160.08    5.70
  -7  -3   1  164.78    6.00
   7   3  -1  157.78    5.60
  -7   3   1  157.58    7.00
   7   3  -1  159.88    6.10
  -7   3   1  166.18    4.90
   6  -3  -1    0.80    1.30
  -6  -3   1    0.80    1.70
  -6  -3   1    1.30    1.30
  -6   3   1    0.70    0.90
  -6   3   1    2.00    1.70
   6   3  -1   -1.20    1.50
   6   3  -1   -0.20    1.50
  -6   3   1   -0.20    1.80
  -5  -3   1  161.18    5.80
   5  -3  -1  149.69    5.30
  -5  -3   1  159.38    5.10
   5   3  -1  158.58    5.40
  -5   3   1  158.78    6.10
   5   3  -1  157.88    5.20
  -5   3   1  150.98    4.20
  -5   3   1  153.08    4.80
  -4  -3   1  365.36   11.20
  -4  -3   1  400.16    9.90
   4  -3  -1  399.26   10.20
  -4   3   1  385.16    9.60
  -4   3   1  383.36   10.90
   4   3  -1  401.26   10.10
   4   3  -1  412.96    9.90
  -4   3   1  407.56    9.30
   3  -3  -1 1411.96   30.60
   3  -3  -1 1400.76   31.40
  -3  -3   1 1345.97   30.80
   3  -3  -1 1328.17   30.60
  -3  -3   1 1312.57   31.60
   3   3  -1 1384.06   30.80
  -3   3   1 1403.16   30.80
  -3   3   1 1401.46   32.10
   3   3  -1 1375.56   31.30
   2  -3  -1   99.59    3.50
   2  -3  -1  106.19    3.20
  -2  -3   1   99.09    2.70
   2   3  -1  100.49    3.40
   2   3  -1   99.59    2.70
  -2   3   1  101.99    4.10
  -2   3   1  102.99    3.10
   1  -3  -1  361.36    9.00
   1  -3  -1  356.56    9.30
  -1  -3   1  360.36    9.50
  -1  -3   1  372.76    9.00
   1  -3  -1  366.06    9.10
   1   3  -1  370.86    9.00
  -1   3   1  362.26    9.50
  -1   3   1  361.96    8.70
   0  -3  -1  170.78    4.60
   0  -3   1  169.28    4.70
   0  -3  -1  168.58    4.70
   0  -3   1  159.48    5.20
   0  -3  -1  161.58    4.90
   0   3   1  160.68    4.50
   0   3  -1  164.18    4.60
   0   3   1  165.78    4.60
   1  -3   1 2793.92   62.19
   1  -3   1 2657.13   62.59
  -1  -3  -1 2830.72   62.19
  -1  -3  -1 2814.02   62.29
  -1  -3  -1 2853.81   61.99
  -1   3  -1 2763.62   61.99
   1   3   1 2840.82   61.99
  -1   3  -1 2838.52   61.79
   1   3   1 2842.42   61.39
   1   3   1 2717.83   61.89
   2  -3   1   43.20    2.30
  -2  -3  -1   43.00    2.50
   2  -3   1   43.50    2.20
   2  -3   1   43.00    2.20
  -2  -3  -1   46.70    2.00
  -2  -3  -1   47.70    2.20
   2   3   1   48.80    2.10
   2   3   1   42.90    1.70
  -2   3  -1   45.90    2.30
   2   3   1   46.20    1.90
   2   3   1   44.60    1.90
  -2   3  -1   41.60    2.20
  -3  -3  -1  171.38    4.50
   3  -3   1  163.08    4.90
   3  -3   1  162.68    5.20
   3  -3   1  168.58    4.80
   3   3   1  171.88    4.50
   3   3   1  169.08    4.90
   3   3   1  157.68    4.40
  -3   3  -1  164.28    5.20
  -3   3  -1  159.38    4.40
   4  -3   1  612.04   15.60
   4  -3   1  615.04   15.10
   4  -3   1  642.74   14.90
  -4  -3  -1  632.84   15.60
  -4   3  -1  632.94   15.00
  -4   3  -1  607.04   14.60
   4   3   1  650.23   15.20
   4   3   1  628.24   14.60
   4   3   1  623.64   14.40
  -4   3  -1  626.34   15.70
   5  -3   1  944.51   21.00
  -5  -3  -1  900.41   21.60
   5  -3   1  879.21   21.70
  -5   3  -1  881.41   21.80
   5   3   1  854.61   20.40
   5   3   1  882.01   19.90
  -5   3  -1  829.12   21.00
  -5   3  -1  895.21   20.70
   5   3   1  900.01   21.40
   6  -3   1   30.70    2.60
  -6  -3  -1   26.10    3.60
   6  -3   1   34.10    3.50
   6   3   1   34.40    3.30
  -6   3  -1   31.30    3.40
  -6   3  -1   28.70    2.70
  -6   3  -1   33.80    2.70
   7  -3   1   71.69    4.90
   7  -3   1   80.59    3.80
  -7  -3  -1   72.69    5.00
  -7   3  -1   70.29    5.00
  -7   3  -1   70.99    3.90
   7   3   1   74.69    4.60
   8  -3   1   33.90    3.20
  -8  -3  -1   29.80    4.00
   8  -3   1   36.30    4.70
  -8  -3  -1   29.80    4.80
  -8   3  -1   36.60    3.60
  -8   3  -1   31.70    4.70
  -8   3  -1   36.20    3.60
   8   3   1   27.20    4.30
  -9  -3  -1  160.98    7.20
   9  -3   1  152.28    5.80
  -9  -3  -1  164.08    7.80
  -9   3  -1  162.38    6.40
   9   3   1  164.58    7.50
 -10  -3  -1   10.70    2.80
 -10  -3  -1   22.90    5.80
  10   3   1   11.50    3.20
  -9  -4   1   31.50    4.00
   9  -4  -1   23.90    3.80
  -9  -4   1   25.50    5.80
  -9   4   1   31.10    5.70
   9   4  -1   27.10    4.90
  -8  -4   1   19.20    3.20
  -8  -4   1   14.80    4.90
   8  -4  -1   12.90    3.40
   8   4  -1   10.60    2.50
  -8   4   1   17.40    5.10
   7  -4  -1  206.68    7.20
  -7  -4   1  217.48    7.00
  -7  -4   1  211.48    8.20
  -7   4   1  213.38    8.60
  -7   4   1  220.98    5.90
   7   4  -1  200.58    7.20
   7   4  -1  219.88    7.30
  -6  -4   1  407.26   11.70
   6  -4  -1  386.46   10.90
   6   4  -1  402.06   10.90
  -6   4   1  390.76    9.60
  -6   4   1  385.96   12.00
  -5  -4   1  363.76   10.60
  -5  -4   1  364.76    9.50
   5  -4  -1  360.36   10.10
   5   4  -1  383.26    9.70
  -5   4   1  376.06    8.90
  -5   4   1  351.16   10.90
   5   4  -1  367.36    9.90
  -5   4   1  361.06    9.40
   4  -4  -1   40.00    2.90
  -4  -4   1   35.20    3.40
  -4  -4   1   40.50    2.30
   4  -4  -1   38.10    1.90
  -4   4   1   38.50    2.50
   4   4  -1   39.10    2.40
   4   4  -1   42.00    2.70
  -4   4   1   32.10    4.10
   3  -4  -1  255.47    6.50
  -3  -4   1  237.88    6.30
   3  -4  -1  253.67    7.20
  -3  -4   1  237.18    7.50
  -3   4   1  246.28    6.50
   3   4  -1  238.78    6.80
  -3   4   1  246.48    8.00
   3   4  -1  254.67    6.20
   2  -4  -1  210.88    6.10
  -2  -4   1  203.78    6.00
   2  -4  -1  220.08    6.10
  -2  -4   1  201.48    6.50
  -2   4   1  204.58    6.80
  -2   4   1  197.78    5.60
   2   4  -1  206.98    6.00
   1  -4  -1  594.04   14.80
   1  -4  -1  603.84   14.60
  -1  -4   1  604.84   14.60
  -1  -4   1  597.04   15.20
  -1   4   1  602.74   14.90
   1   4  -1  611.74   14.60
   0  -4  -1  295.07    8.00
   0  -4  -1  290.57    8.10
   0  -4   1  303.07    8.00
   0  -4  -1  295.97    7.80
   0  -4   1  293.87    8.60
   0   4   1  305.97    7.70
   0   4  -1  293.57    7.90
  -1  -4  -1  511.95   13.00
  -1  -4  -1  494.55   12.90
   1  -4   1  516.25   12.80
  -1  -4  -1  529.05   12.60
   1  -4   1  517.75   13.50
  -1   4  -1  516.45   12.60
   1   4   1  517.95   12.30
  -1   4  -1  541.25   12.10
   1   4   1  533.85   11.70
  -2  -4  -1  484.25   11.50
   2  -4   1  467.65   11.80
  -2  -4  -1  464.75   11.70
  -2  -4  -1  456.85   12.10
   2  -4   1  476.75   12.10
  -2   4  -1  474.25   11.80
   2   4   1  479.05   11.30
   2   4   1  453.05   10.80
   2   4   1  465.25   11.40
   3  -4   1  363.66   10.80
   3  -4   1  384.86   10.00
  -3  -4  -1  380.16   10.50
  -3  -4  -1  411.06    9.80
  -3   4  -1  389.76   10.50
   3   4   1  398.06    9.70
  -3   4  -1  388.16    9.30
   3   4   1  401.06    9.80
  -4  -4  -1   11.70    2.70
   4  -4   1   13.10    2.10
   4  -4   1   12.20    2.30
   4   4   1   12.70    1.80
   4   4   1   10.50    2.10
  -4   4  -1    8.40    2.30
  -4   4  -1   12.10    1.70
   5  -4   1   49.40    3.20
   5  -4   1   49.10    2.80
  -5  -4  -1   48.40    4.00
   5   4   1   51.69    4.00
   5   4   1   51.49    2.80
  -5   4  -1   50.59    3.00
  -5   4  -1   45.60    3.30
  -5   4  -1   51.59    3.80
   6  -4   1   17.90    2.90
  -6  -4  -1   13.80    3.70
   6   4   1   19.50    2.60
   6   4   1   19.80    3.10
  -6   4  -1   19.10    2.50
  -6   4  -1   20.60    2.80
  -6   4  -1   21.00    3.60
  -7  -4  -1  270.17    9.40
   7  -4   1  264.27    8.20
  -7   4  -1  248.78    8.80
   7   4   1  264.47    8.60
  -7   4  -1  277.47    9.70
  -7   4  -1  269.67    7.80
  -8  -4  -1   61.79    5.70
   8  -4   1   68.79    4.30
  -8  -4  -1   64.19    4.60
  -8   4  -1   61.79    4.40
   8   4   1   63.09    5.20
  -8   4  -1   72.79    4.40
  -8   4  -1   73.49    6.30
  -9  -4  -1    0.10    3.10
  -9  -4  -1    1.60    2.10
   9  -4   1   -0.20    2.00
  -9   4  -1    2.60    2.80
   9   4   1   -2.10    2.40
   9  -5  -1   44.60    4.80
  -9  -5   1   47.20    4.40
  -9  -5   1   49.70    7.10
   9   5  -1   56.19    5.70
  -9   5   1   46.90    7.00
  -8  -5   1   95.59    7.00
   8  -5  -1   83.79    5.30
  -8  -5   1   89.29    4.60
  -8   5   1   88.29    7.20
   8   5  -1   81.79    5.30
  -7  -5   1   31.10    3.10
   7  -5  -1   30.90    3.80
  -7  -5   1   28.40    5.00
  -7   5   1   26.80    5.30
   7   5  -1   36.40    3.90
   7   5  -1   32.90    6.20
  -6  -5   1   39.00    4.90
  -6  -5   1   41.60    3.70
   6  -5  -1   48.80    3.90
  -6   5   1   43.90    5.00
  -6   5   1   41.30    2.70
   6   5  -1   43.20    3.90
   5  -5  -1   39.80    2.40
  -5  -5   1   38.40    4.40
  -5  -5   1   41.60    2.70
   5  -5  -1   41.20    3.50
  -5   5   1   33.70    4.40
   5   5  -1   42.80    3.00
  -5   5   1   41.10    2.60
   4  -5  -1  453.25   11.00
  -4  -5   1  470.15   10.90
  -4  -5   1  445.76   12.70
   4  -5  -1  446.06   12.10
   4   5  -1  479.85   11.00
   4   5  -1  392.96   13.70
  -4   5   1  452.85   13.10
   3  -5  -1  431.96   10.70
  -3  -5   1  397.06   11.70
   3  -5  -1  411.96   11.20
  -3   5   1  423.16   12.30
   2  -5  -1   49.00    3.40
  -2  -5   1   47.40    3.70
  -2  -5   1   44.20    3.80
   2  -5  -1   49.10    3.10
  -2   5   1   46.40    3.80
   2   5  -1   50.59    3.00
   1  -5  -1  316.67    8.80
  -1  -5   1  322.67    9.70
   1  -5  -1  315.67    9.20
  -1  -5   1  318.47    8.80
   1   5  -1  328.07    8.80
  -1   5   1  320.97    8.90
   0  -5  -1  280.77    8.10
   0  -5   1  288.17    8.10
   0  -5   1  286.07    9.30
   0  -5  -1  291.27    8.50
   0   5   1  291.07    7.60
   0   5  -1  283.57    8.00
  -1  -5  -1  350.06    9.20
   1  -5   1  336.17   10.20
   1  -5   1  338.87    9.30
  -1  -5  -1  332.77   10.00
  -1   5  -1  348.77    8.40
   1   5   1  344.77    8.50
  -1   5  -1  333.37    8.90
   2  -5   1  152.28    5.80
  -2  -5  -1  148.89    5.60
  -2  -5  -1  154.88    5.10
   2  -5   1  142.59    5.30
  -2   5  -1  153.48    5.50
   2   5   1  150.28    4.10
   2   5   1  155.78    4.60
  -2   5  -1  157.88    4.00
   2   5   1  151.38    5.00
   3  -5   1    6.40    1.50
  -3  -5  -1    6.10    1.80
   3  -5   1    7.60    2.50
  -3  -5  -1    8.80    2.40
   3   5   1    8.10    2.00
   3   5   1    5.20    1.40
  -3   5  -1    7.60    1.50
  -3   5  -1    5.90    1.70
   4  -5   1  137.69    4.90
  -4  -5  -1  130.49    6.00
   4  -5   1  138.89    5.30
   4   5   1  139.69    4.60
   4   5   1  137.29    4.70
  -4   5  -1  133.79    4.10
  -4   5  -1  136.49    5.80
   5  -5   1  209.48    7.00
  -5  -5  -1  197.58    7.60
   5  -5   1  207.18    6.30
  -5   5  -1  208.68    6.50
   5   5   1  192.88    8.90
  -5   5  -1  200.58    7.50
  -5   5  -1  201.58    6.50
   5   5   1  202.38    6.10
   6  -5   1  118.49    5.30
  -6  -5  -1  109.49    6.30
  -6   5  -1  115.19    4.40
   6   5   1  117.59    5.00
   6   5   1  108.99    4.50
  -6   5  -1  103.19    5.60
  -6   5  -1  117.79    6.20
  -7  -5  -1    7.00    2.90
   7  -5   1   11.30    3.50
  -7   5  -1    6.90    2.10
  -7   5  -1    7.20    2.00
   7   5   1   12.50    3.60
  -7   5  -1    4.50    2.80
  -8  -5  -1   64.99    7.80
   8  -5   1   67.39    4.80
  -8  -5  -1   64.19    4.60
   8   5   1   71.19    5.40
  -8   5  -1   64.09    6.80
  -9  -5  -1   58.09    7.30
   9  -5   1   70.29    5.00
  -9  -5  -1   58.09    5.20
   9   5   1   71.99    5.90
  -9   5  -1   64.39    7.70
   8  -6  -1    7.30    4.30
  -8  -6   1    2.00    3.40
  -8   6   1   -0.90    5.70
  -7  -6   1   38.80    6.40
   7  -6  -1   37.20    4.60
   7   6  -1   50.69    7.00
  -7   6   1   35.80    6.10
  -6  -6   1  153.08    7.70
  -6  -6   1  158.78    5.80
   6  -6  -1  150.68    6.80
   6   6  -1  154.08    6.00
   6   6  -1  148.19    6.00
  -6   6   1  156.58    8.00
  -5  -6   1  103.19    3.90
   5  -6  -1  102.29    3.80
   5  -6  -1  106.89    5.50
  -5  -6   1  106.69    6.30
  -5   6   1  113.49    4.30
  -5   6   1  108.69    6.60
   5   6  -1  103.39    4.80
   5   6  -1  114.59    4.40
  -4  -6   1  114.39    6.10
   4  -6  -1  112.99    5.40
   4  -6  -1  106.79    4.10
   4   6  -1  111.69    4.80
  -4   6   1  100.19    6.10
   3  -6  -1   60.39    3.70
   3  -6  -1   54.69    3.90
  -3  -6   1   53.59    4.70
   3   6  -1   54.59    3.50
  -3   6   1   60.69    4.80
   2  -6  -1  567.94   14.60
   2  -6  -1  564.74   15.00
  -2  -6   1  569.14   14.50
  -2  -6   1  562.14   15.60
   2   6  -1  558.94   14.40
  -2   6   1  555.04   15.00
  -1  -6   1   35.00    4.40
  -1  -6   1   36.20    3.20
   1  -6  -1   34.30    3.10
   1   6  -1   25.50    2.90
  -1   6   1   31.80    3.00
   0  -6  -1    1.80    1.50
   0  -6  -1    0.70    1.90
   0  -6   1    1.00    2.00
   0  -6   1    2.20    1.50
   0   6  -1    0.90    1.40
   0   6   1    0.80    1.20
   1  -6   1   13.50    3.80
   1  -6   1   20.80    3.00
  -1  -6  -1   22.70    2.90
  -1  -6  -1   24.30    3.60
  -1   6  -1   16.10    2.30
  -1   6  -1   20.70    2.60
   1   6   1   23.40    2.20
   2  -6   1  114.99    4.90
   2  -6   1  115.59    5.40
  -2  -6  -1  107.79    5.40
  -2  -6  -1  113.79    4.70
   2   6   1  116.99    3.90
  -2   6  -1  112.89    3.20
   2   6   1  117.39    4.50
  -2   6  -1  114.19    5.20
   3  -6   1   35.80    3.60
  -3  -6  -1   33.50    3.20
  -3  -6  -1   33.50    4.20
   3  -6   1   37.30    3.30
  -3   6  -1   38.30    2.10
   3   6   1   37.80    2.70
  -3   6  -1   33.60    4.40
   3   6   1   38.10    3.00
   4  -6   1  164.68    5.70
   4  -6   1  162.98    6.40
  -4  -6  -1  168.58    7.10
   4   6   1  160.98    5.50
  -4   6  -1  168.78    4.90
  -4   6  -1  163.08    6.90
   4   6   1  164.18    5.50
  -5  -6  -1    8.60    2.80
   5  -6   1    8.00    2.60
   5  -6   1   10.20    3.40
  -5   6  -1   11.40    2.60
   5   6   1    6.20    1.70
  -5   6  -1    7.90    2.00
  -5   6  -1    4.70    2.40
  -6  -6  -1  169.98    8.00
   6  -6   1  160.88    5.50
   6  -6   1  168.78    6.90
   6   6   1  160.88    6.10
  -6   6  -1  162.18    7.80
  -6   6  -1  170.38    6.10
  -6   6  -1  167.28    5.60
   7  -6   1   70.19    5.20
  -7  -6  -1   64.39    7.30
   7   6   1   64.39    4.80
  -7   6  -1   74.79    4.20
  -7   6  -1   70.69    6.60
  -8  -6  -1   21.70    6.60
   8  -6   1   19.20    4.40
  -8   6  -1   20.30    6.80
   8   6   1   15.00    3.00
   7  -7  -1   18.10    4.70
  -7  -7   1   23.30    6.60
  -7   7   1   21.50    6.90
   6  -7  -1    2.00    2.50
  -6  -7   1    4.40    3.10
   6   7  -1   -3.40    1.90
  -6   7   1    2.20    3.20
  -5  -7   1    8.00    3.10
   5  -7  -1    5.10    2.40
   5   7  -1   10.50    3.40
  -5   7   1   -1.20    2.70
   4  -7  -1  152.08    6.80
   4  -7  -1  151.08    5.60
  -4  -7   1  152.48    7.90
  -4   7   1  157.48    7.50
   4   7  -1  155.58    6.10
   3  -7  -1   23.30    3.40
   3  -7  -1   28.20    3.80
  -3  -7   1   24.60    5.10
   3   7  -1   31.30    3.60
  -3   7   1   33.00    4.60
  -2  -7   1   90.19    6.30
  -2  -7   1   97.89    5.00
   2  -7  -1   88.29    4.90
   2  -7  -1   72.89    5.30
  -2   7   1   94.59    5.40
   2   7  -1   92.99    4.80
   1  -7  -1    2.40    1.90
   1  -7  -1   -3.60    2.20
  -1  -7   1   -0.90    1.80
  -1  -7   1   -0.20    2.40
   1   7  -1    1.70    1.80
  -1   7   1    1.20    1.60
   0  -7   1  530.05   14.50
   0  -7   1  543.85   15.90
   0  -7  -1  552.74   15.50
   0  -7  -1  536.95   14.40
   0   7   1  538.65   13.30
   0   7  -1  538.55   14.50
  -1  -7  -1   72.49    4.50
   1  -7   1   61.09    5.40
   1  -7   1   77.09    4.60
  -1  -7  -1   80.09    5.50
  -1   7  -1   78.79    4.60
   1   7   1   77.39    4.30
  -1   7  -1   74.79    3.40
   1   7   1   76.19    3.50
  -2  -7  -1   87.89    5.80
   2  -7   1   92.59    5.10
  -2  -7  -1   83.29    4.80
   2  -7   1   86.49    5.40
   2   7   1   85.99    4.50
  -2   7  -1   91.29    5.00
   2   7   1   88.29    3.70
  -3  -7  -1    3.00    2.40
  -3  -7  -1    2.90    2.00
   3  -7   1   -0.40    1.60
   3  -7   1    1.20    2.10
  -3   7  -1    4.80    2.80
   3   7   1    2.20    1.40
   3   7   1    3.00    1.70
  -4  -7  -1  155.08    7.60
   4  -7   1  151.58    6.70
   4  -7   1  150.68    5.80
  -4   7  -1  145.79    7.30
   4   7   1  153.98    5.70
   4   7   1  152.78    5.40
  -5  -7  -1   15.40    5.20
   5  -7   1   22.10    3.00
   5  -7   1   27.90    4.50
   5   7   1   16.30    3.20
  -5   7  -1   31.40    5.30
   6  -7   1   22.60    4.60
  -6  -7  -1   22.10    6.10
  -6   7  -1   31.90    6.00
  -7  -7  -1   -1.30    3.50
   7  -7   1    5.40    2.80
  -7   7  -1   -0.40    3.40
  -6  -8   1  129.49    9.40
   6  -8  -1  127.59    7.60
   6   8  -1  136.79    6.80
  -6   8   1  117.09    8.80
  -5  -8   1   -2.00    3.30
   5  -8  -1    4.20    2.90
  -5   8   1    4.10    3.20
   5   8  -1   -0.10    2.40
   4  -8  -1   -0.80    4.00
  -4  -8   1    6.10    5.30
   4   8  -1   11.60    3.70
  -4   8   1   18.80    5.30
   3  -8  -1   -0.40    2.40
  -3  -8   1    0.80    3.10
   3  -8  -1   -3.00    1.90
   3   8  -1    1.10    2.10
  -3   8   1    2.60    2.40
   2  -8  -1  164.98    7.70
   2  -8  -1  191.28    7.70
  -2  -8   1  198.18    9.20
  -2  -8   1  189.78    7.70
   2   8  -1  179.18    7.20
  -2   8   1  186.48    7.10
   1  -8  -1   15.20    3.30
  -1  -8   1   20.50    4.20
  -1  -8   1   14.30    3.50
   1  -8  -1   14.20    4.20
   1   8  -1   18.60    4.00
  -1   8   1   17.10    3.70
   0  -8  -1   11.60    3.10
   0  -8   1   12.90    3.50
   0  -8   1   18.00    4.30
   0  -8  -1   15.70    3.90
   0   8  -1    9.50    2.50
  -1  -8  -1    0.60    2.80
   1  -8   1    4.70    2.40
  -1  -8  -1    4.90    2.40
   1   8   1    0.30    1.80
  -1   8  -1   -2.10    2.20
  -2  -8  -1  229.68    8.30
   2  -8   1  217.98    8.50
  -2  -8  -1  231.78    9.50
   2  -8   1  222.58    8.90
  -2   8  -1  235.88    8.70
   2   8   1  221.58    7.90
  -3  -8  -1   14.00    3.40
   3  -8   1    5.90    2.30
   3  -8   1   10.20    2.90
  -3  -8  -1   15.70    4.20
   3   8   1   14.10    3.50
  -3   8  -1   11.00    2.80
  -4  -8  -1    3.90    4.80
   4  -8   1   12.00    3.40
   4  -8   1    8.60    3.20
   4   8   1   13.10    3.50
  -4   8  -1   10.90    3.80
   5  -8   1    2.10    2.80
  -5  -8  -1    2.70    3.20
   5   8   1   -0.90    2.00
  -5   8  -1   -1.50    3.40
  -4  -9   1   99.19    9.10
   4  -9  -1  112.49    7.20
   4   9  -1  114.69    6.60
  -3  -9   1    1.00    3.70
   3  -9  -1    2.10    3.00
   3   9  -1    2.10    2.80
  -2  -9   1    2.20    3.40
   2  -9  -1    6.80    2.90
  -2  -9   1    6.50    5.00
   2   9  -1    1.20    4.00
  -1  -9   1    3.20    3.50
   1  -9  -1    0.20    2.80
   1  -9  -1    2.50    3.40
   0  -9   1  144.89    7.50
   0  -9   1  155.68    9.00
   0  -9  -1  145.89    8.90
   0   9  -1  143.19    7.40
  -1  -9  -1   -2.40    2.60
  -1  -9  -1    5.60    3.40
   1  -9   1    3.60    2.90
   1   9   1    1.30    2.40
  -1   9  -1    1.40    2.60
  -2  -9  -1   17.60    4.30
   2  -9   1   30.60    5.50
  -2  -9  -1   20.20    5.00
   2  -9   1   10.50    3.30
  -2   9  -1   23.80    5.00
   2   9   1   14.00    4.20
   3  -9   1   -1.10    2.40
  -3  -9  -1    0.00    2.80
  -3  -9  -1   -2.90    3.40
   3  -9   1    5.10    3.00
   3   9   1    0.30    2.20
  -3   9  -1   -0.50    3.00
 -10   0   2   -2.00    2.40
  -9   0   2   -1.70    2.00
  -9   0   2    3.50    2.30
   9   0  -2    0.40    1.60
  -8   0   2  158.58    5.80
   8   0  -2  159.28    5.90
  -8   0   2  161.98    6.90
  -7   0   2   -1.40    1.50
   7   0  -2    1.70    1.30
  -7   0   2   -0.10    1.30
  -6   0   2    6.80    2.00
   6   0  -2    3.70    1.30
  -6   0   2    3.70    1.40
  -5   0   2    0.30    1.20
   5   0  -2   -0.10    1.00
  -5   0   2   -0.20    0.90
   4   0  -2 1365.86   29.80
  -4   0   2 1267.87   30.10
  -4   0   2 1320.37   29.40
   4   0  -2 1265.77   29.30
   3   0  -2    0.90    0.60
  -3   0   2    1.00    0.50
  -3   0   2   -0.20    0.70
   3   0  -2    1.20    0.80
  -3   0   2    1.60    0.80
  -2   0   2   18.70    1.20
  -2   0   2   18.10    1.60
   2   0  -2   22.60    1.20
   2   0  -2   19.50    1.50
  -2   0   2   16.80    1.50
   2   0  -2   18.40    1.60
  -1   0   2    0.90    0.60
   1   0  -2    0.80    0.60
   1   0  -2    0.60    0.60
  -1   0   2    1.00    0.60
   0   0   2  621.84   15.10
   0   0   2  656.93   15.00
   0   0   2  655.63   15.10
   0   0  -2  690.43   15.10
   0   0  -2  678.83   15.00
   1   0   2    2.20    0.70
  -1   0  -2    1.30    0.50
   1   0   2    0.40    0.40
   1   0   2    1.20    0.50
  -1   0  -2    1.30    0.50
  -1   0  -2    1.40    0.50
   1   0   2    0.90    0.50
  -1   0  -2    0.90    0.40
  -2   0  -2 3110.89   67.39
   2   0   2 3053.39   67.39
   2   0   2 3012.70   67.49
  -2   0  -2 3043.10   67.39
  -2   0  -2 3075.09   66.79
  -2   0  -2 3044.70   67.49
  -2   0  -2 2952.70   66.89
  -3   0  -2   -0.20    0.70
   3   0   2    0.20    0.70
  -3   0  -2   -0.20    0.70
  -4   0  -2 1412.76   31.50
   4   0   2 1358.16   32.10
  -4   0  -2 1416.36   31.90
   5   0   2    0.10    1.10
  -5   0  -2    2.00    1.10
  -5   0  -2    0.30    1.20
  -6   0  -2  210.08    6.60
  -6   0  -2  199.38    6.10
   6   0   2  217.88    7.10
   7   0   2   -1.20    1.60
  -7   0  -2    1.50    1.70
  -7   0  -2    1.80    1.70
  -8   0  -2  306.87    9.50
  -8   0  -2  295.27    9.10
   8   0   2  323.87   10.40
  -8   0  -2  317.47   10.40
   9   0   2    0.50    2.30
  -9   0  -2    1.30    2.30
  -9   0  -2    0.40    2.40
  -9   0  -2    0.50    2.40
 -10   0  -2  160.48    8.30
 -10   0  -2  158.28    7.60
  10   0   2  159.68    8.40
 -10  -1   2  181.48    8.80
 -10  -1   2  164.58    7.50
  10  -1  -2  177.28    8.80
 -10   1   2  172.78    9.00
   9  -1  -2    2.00    1.70
  -9  -1   2    3.10    2.30
  -9  -1   2    1.20    2.30
  -9   1   2    2.50    2.00
  -9   1   2    0.70    2.50
  -8  -1   2   -0.70    1.90
   8  -1  -2    2.00    1.50
  -8  -1   2    4.20    2.00
  -8   1   2    2.60    2.10
   8   1  -2    3.50    1.70
  -8   1   2    1.30    1.60
   7  -1  -2    8.90    2.70
  -7  -1   2    4.40    1.60
   7   1  -2    5.10    1.50
  -7   1   2    6.40    1.90
  -7   1   2    7.60    2.20
  -6  -1   2  854.41   20.10
  -6  -1   2  830.02   20.60
   6  -1  -2  851.81   20.00
   6   1  -2  848.42   20.10
  -6   1   2  825.62   21.00
  -6   1   2  842.12   19.40
  -5  -1   2  465.25   12.00
  -5  -1   2  466.55   11.70
   5  -1  -2  467.45   11.00
   5  -1  -2  464.15   11.60
  -5   1   2  472.45   11.00
   5   1  -2  468.65   11.90
  -4  -1   2  248.18    6.80
   4  -1  -2  252.17    6.80
  -4  -1   2  255.27    7.00
   4  -1  -2  256.17    6.10
   4   1  -2  256.17    7.20
  -4   1   2  267.37    6.20
  -3  -1   2   38.50    2.00
  -3  -1   2   40.70    2.40
   3  -1  -2   42.20    2.00
  -3  -1   2   40.60    2.00
   3  -1  -2   42.70    1.30
  -3  -1   2   40.70    2.00
  -3   1   2   41.10    1.30
   3   1  -2   41.60    2.10
   3   1  -2   39.50    2.00
   3   1  -2   38.10    2.40
   2  -1  -2 2157.48   47.60
   2  -1  -2 2037.10   48.10
  -2  -1   2 2144.09   47.70
  -2  -1   2 2159.98   47.60
  -2  -1   2 2138.19   47.90
   2   1  -2 2121.69   47.50
  -2   1   2 2121.19   48.20
  -2   1   2 2245.88   47.60
   2   1  -2 2151.08   47.90
   2   1  -2 2093.39   47.70
   1  -1  -2   19.90    0.80
  -1  -1   2   22.50    1.40
  -1  -1   2   21.20    1.30
   1  -1  -2   21.00    0.80
  -1  -1   2   18.70    1.50
   1   1  -2   18.50    1.30
  -1   1   2   21.40    0.80
   1   1  -2   21.90    1.40
   1   1  -2   21.10    1.50
   0  -1  -2   16.10    1.20
   0  -1   2   17.30    0.90
   0  -1  -2   16.80    0.90
   0  -1   2   17.50    1.30
   0  -1  -2   16.60    1.00
   0   1   2   18.20    0.90
   0   1  -2   16.80    1.20
   0   1  -2   17.30    0.90
   0   1   2   16.70    1.00
   0   1   2   17.80    1.30
  -1  -1  -2   66.39    1.80
   1  -1   2   63.19    2.10
  -1  -1  -2   61.99    2.10
   1  -1   2   65.09    2.00
   1  -1   2   64.49    2.10
  -1   1  -2   63.89    2.00
  -1   1  -2   66.09    2.30
   1   1   2   60.29    2.20
  -1   1  -2   63.99    2.00
   1   1   2   66.69    1.90
  -1   1  -2   63.59    2.10
  -2  -1  -2 2252.47   50.69
   2  -1   2 2228.98   50.79
   2  -1   2 2296.37   50.39
  -2  -1  -2 2411.56   51.39
  -2  -1  -2 2217.18   50.39
   2  -1   2 2303.27   50.79
  -2   1  -2 2157.88   50.69
   2   1   2 2215.98   50.79
  -2   1  -2 2293.57   50.79
  -2   1  -2 2332.87   50.79
  -2   1  -2 2385.66   50.39
  -2   1  -2 2240.78   50.39
  -3  -1  -2   56.19    2.10
  -3  -1  -2   56.19    2.50
   3  -1   2   55.99    2.00
   3  -1   2   58.69    2.60
  -3   1  -2   57.39    2.50
  -3   1  -2   58.89    2.00
  -3   1  -2   55.39    2.20
   4  -1   2  684.73   15.40
  -4  -1  -2  687.63   16.20
   4  -1   2  673.43   16.40
  -4  -1  -2  642.94   15.70
  -4   1  -2  684.03   16.00
  -4   1  -2  712.83   15.40
  -4   1  -2  646.94   15.70
   4   1   2  649.54   16.30
  -5  -1  -2    8.10    1.80
   5  -1   2    8.70    2.30
  -5  -1  -2    9.40    2.60
   5  -1   2    8.30    1.40
   5   1   2    5.50    1.40
  -5   1  -2    8.50    1.80
  -5   1  -2    7.50    1.60
  -5   1  -2    6.90    2.10
  -6  -1  -2  819.02   19.40
   6  -1   2  829.62   18.70
  -6  -1  -2  824.62   19.90
   6  -1   2  813.72   20.40
   6   1   2  815.72   20.20
  -6   1  -2  802.22   19.60
  -6   1  -2  797.42   19.30
  -7  -1  -2   29.80    3.50
  -7  -1  -2   27.30    2.90
   7  -1   2   29.30    3.70
   7  -1   2   27.60    2.40
  -7   1  -2   30.30    3.00
  -7   1  -2   27.40    3.70
   7   1   2   29.00    3.70
  -7   1  -2   28.60    3.30
  -8  -1  -2  150.28    6.80
   8  -1   2  162.88    7.00
  -8  -1  -2  150.18    6.50
  -8  -1  -2  151.48    5.90
   8   1   2  162.38    7.10
  -8   1  -2  156.78    5.90
  -8   1  -2  151.98    6.30
  -8   1  -2  151.18    7.00
  -9  -1  -2    3.00    2.30
   9  -1   2    3.80    2.60
  -9  -1  -2    4.70    2.50
  -9  -1  -2    2.80    2.40
  -9   1  -2    1.10    2.40
   9   1   2    2.70    2.50
  -9   1  -2    4.20    2.50
  -9   1  -2    5.40    2.40
 -10  -1  -2   40.70    5.90
 -10  -1  -2   49.10    5.80
  10  -1   2   35.80    6.00
 -10   1  -2   34.20    5.60
  10   1   2   37.90    5.90
 -10   1  -2   45.80    5.50
 -10  -2   2    5.60    2.70
  10  -2  -2    1.50    1.90
 -10  -2   2    2.20    2.90
 -10   2   2   -1.80    2.80
  -9  -2   2    1.30    2.50
  -9  -2   2    4.80    2.30
   9  -2  -2    4.20    1.90
  -9   2   2    0.70    2.50
  -8  -2   2  215.68    7.60
  -8  -2   2  209.58    7.60
   8  -2  -2  197.18    6.80
  -8   2   2  200.78    8.30
  -8   2   2  213.78    6.10
   8   2  -2  211.08    8.20
   7  -2  -2   70.79    3.70
  -7  -2   2   72.89    4.00
  -7  -2   2   74.99    4.40
  -7   2   2   69.09    3.00
  -7   2   2   70.39    4.80
   7   2  -2   66.19    3.90
  -6  -2   2   56.39    3.20
   6  -2  -2   45.70    3.00
  -6  -2   2   49.40    3.50
  -6   2   2   50.19    2.60
  -6   2   2   49.20    3.90
  -6   2   2   53.19    2.20
   6   2  -2   50.09    3.40
   6   2  -2   52.29    3.50
  -5  -2   2   19.80    2.30
  -5  -2   2   21.00    2.50
   5  -2  -2   21.20    2.30
   5   2  -2   20.40    2.40
  -5   2   2   20.10    1.30
   5   2  -2   17.00    2.60
  -5   2   2   20.70    1.60
  -5   2   2   21.00    2.80
   4  -2  -2 1023.40   23.10
  -4  -2   2  996.30   23.30
  -4  -2   2  976.40   23.00
   4   2  -2  989.30   23.50
  -4   2   2  983.10   23.90
   3  -2  -2  545.85   12.70
   3  -2  -2  555.24   13.30
  -3  -2   2  551.64   13.00
  -3  -2   2  563.84   13.50
  -3  -2   2  550.64   13.00
  -3   2   2  560.24   14.10
   3   2  -2  550.74   13.60
  -2  -2   2  619.04   14.90
  -2  -2   2  620.94   14.20
  -2  -2   2  616.84   14.10
  -2   2   2  618.74   15.40
   2   2  -2  623.54   14.70
   1  -2  -2   87.69    2.40
   1  -2  -2   90.39    2.80
  -1  -2   2   80.19    2.90
   1  -2  -2   84.69    3.50
  -1  -2   2   87.89    3.40
   1   2  -2   82.99    2.80
   1   2  -2   84.09    3.60
  -1   2   2   87.29    3.50
  -1   2   2   90.69    2.30
  -1   2   2   86.69    2.80
   0  -2  -2 2356.66   51.79
   0  -2  -2 2370.76   51.89
   0  -2  -2 2346.37   52.39
   0  -2   2 2355.66   52.09
   0  -2   2 2269.77   51.49
   0  -2   2 2344.47   51.99
   0   2   2 2293.67   52.19
   0   2  -2 2305.57   51.49
   0   2  -2 2269.27   52.49
   0   2  -2 2305.17   52.09
   0   2   2 2435.76   51.79
   0   2   2 2431.86   51.89
   0   2  -2 2333.27   51.99
  -1  -2  -2  605.54   13.80
   1  -2   2  605.54   14.60
  -1  -2  -2  595.94   14.00
   1  -2   2  615.24   14.10
   1  -2   2  636.64   14.40
  -1  -2  -2  622.94   14.50
  -1  -2  -2  621.34   14.30
  -1   2  -2  587.44   14.30
   1   2   2  587.34   14.30
  -1   2  -2  603.14   14.30
  -1   2  -2  656.73   14.10
  -1   2  -2  615.54   14.70
   1   2   2  641.24   14.00
   1   2   2  612.04   14.30
   2  -2   2  391.16    9.40
  -2  -2  -2  385.66    9.60
  -2  -2  -2  391.66    9.10
  -2  -2  -2  390.76    8.90
   2  -2   2  387.96    9.60
   2  -2   2  390.76    9.50
  -2   2  -2  382.36    9.40
   2   2   2  386.36    9.50
  -2   2  -2  387.36    9.40
   2   2   2  380.26    8.90
   3  -2   2  121.79    4.10
   3  -2   2  123.59    4.00
  -3  -2  -2  120.49    4.10
   3  -2   2  124.89    3.80
  -3  -2  -2  124.49    3.60
  -3   2  -2  130.49    4.10
   3   2   2  127.09    4.20
  -3   2  -2  127.19    3.60
  -4  -2  -2  404.16   10.40
   4  -2   2  392.56    9.70
   4  -2   2  399.16   10.00
  -4  -2  -2  397.76    9.80
   4  -2   2  400.26   10.50
  -4   2  -2  396.66   10.00
  -4   2  -2  382.36    9.70
   4   2   2  398.26   10.40
  -5  -2  -2   99.99    3.60
  -5  -2  -2   96.29    4.30
   5  -2   2   99.79    4.40
   5  -2   2   94.59    3.50
   5   2   2   95.39    4.20
  -5   2  -2   95.39    3.60
  -5   2  -2   95.49    3.90
  -5   2  -2  100.39    4.40
   6  -2   2  567.54   15.20
  -6  -2  -2  569.24   14.80
   6  -2   2  566.04   13.80
  -6  -2  -2  561.34   14.10
  -6   2  -2  586.64   14.50
  -6   2  -2  560.54   14.00
   6   2   2  570.64   14.90
  -6   2  -2  583.94   15.30
   7  -2   2    1.10    1.20
  -7  -2  -2   -0.80    1.70
   7  -2   2    0.10    1.80
  -7  -2  -2    3.00    1.90
  -7   2  -2    0.90    1.70
  -7   2  -2    0.30    1.70
   7   2   2    1.30    1.70
  -7   2  -2    1.60    1.80
   8  -2   2  247.28    9.20
  -8  -2  -2  241.78    8.70
   8  -2   2  235.18    7.10
  -8  -2  -2  250.27    7.90
   8   2   2  259.07    9.00
  -8   2  -2  246.28    7.90
  -8   2  -2  245.58    9.20
  -8   2  -2  249.28    7.80
   9  -2   2   35.10    6.80
  -9  -2  -2   50.19    5.50
  -9  -2  -2   38.40    5.10
   9   2   2   39.30    5.30
  -9   2  -2   37.90    4.30
  -9   2  -2   29.70    6.70
  -9   2  -2   37.90    4.60
 -10  -2  -2  103.69    7.00
  10  -2   2  110.09    7.60
 -10  -2  -2   92.59    7.40
 -10   2  -2  109.19    6.10
 -10   2  -2  104.19    7.30
  10   2   2  104.09    7.30
 -10   2  -2  113.39    6.60
  10  -3  -2  104.19    5.50
 -10  -3   2   90.99    7.30
 -10  -3   2  108.79    6.50
 -10   3   2  115.59    8.10
  -9  -3   2   32.10    4.30
  -9  -3   2   35.60    5.50
   9  -3  -2   27.40    3.80
  -9   3   2   34.50    5.70
   8  -3  -2   50.09    3.90
  -8  -3   2   50.29    4.90
  -8  -3   2   51.49    4.00
  -8   3   2   47.60    5.10
   8   3  -2   40.20    4.10
   7  -3  -2   23.80    3.10
  -7  -3   2   22.20    3.00
  -7  -3   2   16.40    3.80
  -7   3   2   18.30    3.90
   7   3  -2   11.50    3.30
  -7   3   2   19.60    1.90
   6  -3  -2  715.03   16.80
  -6  -3   2  656.33   17.10
   6   3  -2  642.14   17.40
   6   3  -2  688.13   17.00
  -6   3   2  645.84   17.80
  -5  -3   2  394.86   10.70
   5  -3  -2  362.46   10.10
  -5  -3   2  384.76    9.90
  -5   3   2  369.46   11.10
   5   3  -2  373.26    9.80
   5   3  -2  381.56   10.40
  -4  -3   2  101.89    5.10
   4  -3  -2  112.39    4.30
  -4  -3   2  105.79    3.60
  -4   3   2  109.19    5.20
   4   3  -2  105.49    4.20
  -3  -3   2   17.30    1.40
   3  -3  -2   14.90    1.20
  -3  -3   2   17.30    1.40
   3  -3  -2   15.60    2.00
  -3  -3   2   16.50    2.30
  -3   3   2   16.90    2.80
   3   3  -2   18.30    2.10
   2  -3  -2 2053.19   45.20
   2  -3  -2 2003.90   44.20
  -2  -3   2 1989.20   45.70
   2  -3  -2 1963.10   44.70
   2   3  -2 2020.50   45.20
  -2   3   2 2023.00   44.40
  -2   3   2 2007.60   46.20
   1  -3  -2  193.58    5.10
   1  -3  -2  185.78    5.30
  -1  -3   2  186.58    6.00
   1   3  -2  194.18    5.40
  -1   3   2  188.88    6.00
  -1   3   2  187.98    4.80
   0  -3  -2  381.56   10.20
   0  -3   2  379.86    9.50
   0  -3   2  374.96   10.20
   0  -3  -2  384.96    9.30
   0  -3  -2  373.06    9.20
   0   3  -2  376.56    9.50
   0   3   2  381.56    9.60
   0   3   2  375.96    9.20
   1  -3   2  147.39    4.90
   1  -3   2  144.69    4.00
  -1  -3  -2  146.29    4.10
  -1  -3  -2  144.09    3.60
  -1  -3  -2  142.89    4.40
   1   3   2  148.29    4.40
   1   3   2  156.28    4.60
  -1   3  -2  146.69    3.90
  -1   3  -2  147.39    4.10
   2  -3   2 1317.17   31.10
   2  -3   2 1352.86   30.80
   2  -3   2 1327.17   30.90
  -2  -3  -2 1361.36   30.40
  -2  -3  -2 1366.06   31.10
  -2  -3  -2 1393.26   30.30
  -2   3  -2 1358.16   30.80
   2   3   2 1360.06   30.80
   2   3   2 1367.06   30.40
   3  -3   2  433.36   11.20
   3  -3   2  447.56   11.10
  -3  -3  -2  455.65   10.40
  -3  -3  -2  441.06   11.40
   3  -3   2  440.66   11.00
  -3  -3  -2  449.46   10.60
   3   3   2  441.06   10.30
  -3   3  -2  437.06   10.50
   3   3   2  445.16   10.40
   3   3   2  433.86   11.10
  -3   3  -2  443.56   11.30
   4  -3   2  184.98    6.00
  -4  -3  -2  174.18    6.00
   4  -3   2  183.68    5.50
   4  -3   2  179.28    5.50
  -4  -3  -2  181.28    5.20
   4   3   2  180.48    5.80
  -4   3  -2  187.08    5.20
  -4   3  -2  185.98    6.10
  -4   3  -2  182.58    5.60
   5  -3   2   -0.30    1.30
  -5  -3  -2   -2.10    1.20
   5  -3   2   -0.30    1.10
  -5  -3  -2    0.70    1.50
   5  -3   2    1.30    1.20
  -5   3  -2    1.60    1.30
  -5   3  -2   -0.60    1.40
   5   3   2   -0.50    1.30
  -5   3  -2   -1.20    1.20
   6  -3   2  181.48    5.90
   6  -3   2  180.48    6.90
  -6  -3  -2  187.28    6.90
  -6  -3  -2  189.48    5.90
  -6   3  -2  178.08    5.70
  -6   3  -2  191.58    6.20
  -6   3  -2  184.18    6.90
   6   3   2  184.38    6.60
   7  -3   2  171.98    5.70
   7  -3   2  177.28    7.20
  -7  -3  -2  169.58    7.10
  -7   3  -2  178.98    6.00
  -7   3  -2  173.38    7.30
   7   3   2  174.38    6.80
  -7   3  -2  169.98    6.10
  -8  -3  -2  155.68    7.20
   8  -3   2  136.29    7.20
   8  -3   2  133.89    5.30
   8   3   2  146.69    6.90
  -8   3  -2  149.59    5.90
  -8   3  -2  151.08    7.30
  -8   3  -2  146.39    5.90
  -9  -3  -2   -2.90    2.30
   9  -3   2    0.90    2.70
  -9  -3  -2    4.80    2.80
   9   3   2   -3.60    2.50
  -9   3  -2   -0.50    2.30
  -9   3  -2   -1.00    2.60
  -9   3  -2    4.10    2.90
   9  -4  -2   43.50    4.50
  -9  -4   2   31.70    6.20
  -9  -4   2   45.90    4.50
  -9   4   2   37.00    6.40
  -8  -4   2  172.88    7.90
  -8  -4   2  167.08    6.40
   8  -4  -2  162.18    6.60
   8   4  -2  158.08    6.40
  -8   4   2  171.48    8.50
  -7  -4   2    7.00    2.50
   7  -4  -2   10.50    3.20
   7   4  -2   11.60    3.80
  -7   4   2    7.10    2.50
   6  -4  -2   40.40    3.50
  -6  -4   2   39.00    3.20
  -6  -4   2   40.80    4.30
  -6   4   2   34.00    4.50
   6   4  -2   40.20    4.40
  -5  -4   2    3.90    1.90
  -5  -4   2    5.90    2.00
   5  -4  -2    9.50    2.60
   5   4  -2    3.10    1.70
  -5   4   2    5.00    2.00
   4  -4  -2  301.07    8.70
  -4  -4   2  313.57    7.80
  -4  -4   2  303.17    9.20
  -4  -4   2  307.47    7.80
   4   4  -2  311.57    8.70
  -4   4   2  316.67    9.90
   3  -4  -2  386.66   10.20
   3  -4  -2  381.16    9.00
  -3  -4   2  374.16   10.80
   3  -4  -2  390.66    9.30
   3   4  -2  397.16   10.20
  -3   4   2  394.56   11.50
  -3   4   2  389.96    9.10
   2  -4  -2  330.07    8.50
   2  -4  -2  320.07    8.90
  -2  -4   2  329.67    9.60
  -2   4   2  320.57    9.70
  -2   4   2  322.47    7.90
   2   4  -2  329.57    8.70
  -1  -4   2  185.68    5.60
   1  -4  -2  181.58    5.50
   1  -4  -2  180.58    5.50
  -1  -4   2  187.58    6.40
  -1   4   2  181.68    6.00
   1   4  -2  185.38    5.60
   0  -4  -2  534.35   13.00
   0  -4   2  533.25   13.20
   0  -4   2  516.75   14.10
   0  -4  -2  535.45   13.10
   0   4   2  535.25   13.10
   0   4  -2  550.74   13.20
  -1  -4  -2  240.88    6.50
   1  -4   2  226.38    6.80
  -1  -4  -2  237.78    6.90
   1  -4   2  248.38    7.70
  -1   4  -2  241.88    6.90
   1   4   2  249.58    6.60
  -1   4  -2  243.08    6.00
  -1   4  -2  239.58    6.30
  -2  -4  -2  310.87    8.50
  -2  -4  -2  314.57    7.30
   2  -4   2  276.97    8.80
  -2  -4  -2  311.87    7.80
   2  -4   2  300.67    8.60
   2   4   2  304.67    8.00
  -2   4  -2  308.07    8.10
   3  -4   2   33.80    2.70
   3  -4   2   38.10    2.60
  -3  -4  -2   40.60    3.20
   3  -4   2   37.30    2.80
  -3  -4  -2   39.30    2.10
  -3  -4  -2   37.00    2.30
   3   4   2   39.20    2.60
   3   4   2   40.00    2.20
  -3   4  -2   37.30    2.10
  -3   4  -2   37.00    2.90
   4  -4   2  418.86   11.00
  -4  -4  -2  430.26   10.50
   4  -4   2  399.26   11.10
  -4  -4  -2  417.36   11.70
   4   4   2  428.66   11.10
   4   4   2  466.75   10.70
   4   4   2  427.06   10.30
  -4   4  -2  411.36   10.40
   5  -4   2  452.45   12.50
   5  -4   2  451.75   11.80
  -5  -4  -2  462.55   12.60
   5  -4   2  406.26   13.40
   5   4   2  448.76   10.70
  -5   4  -2  453.35   12.50
   5   4   2  455.75   11.90
  -5   4  -2  456.45   11.20
  -5   4  -2  437.06   12.50
   5   4   2  460.05   10.90
   6  -4   2  264.37    8.20
   6  -4   2  274.67    9.10
  -6  -4  -2  273.97    9.10
  -6   4  -2  288.77    8.20
  -6   4  -2  276.97    9.30
  -6   4  -2  267.37    7.60
   6   4   2  280.47    8.60
  -7  -4  -2   14.20    4.30
   7  -4   2   20.90    3.10
   7  -4   2   22.50    4.00
   7   4   2   22.10    3.80
  -7   4  -2   21.80    3.20
  -7   4  -2   20.00    4.10
  -7   4  -2   14.80    3.60
   8  -4   2   27.40    5.00
  -8  -4  -2   24.50    5.20
   8  -4   2   22.40    3.50
   8   4   2   26.90    4.70
  -8   4  -2   29.80    5.00
  -8   4  -2   26.00    4.00
  -8   4  -2   31.00    4.00
   9  -4   2   84.89    5.70
  -9  -4  -2   78.49    6.80
  -9  -4  -2   71.29    5.70
   9   4   2   70.89    6.40
  -9   4  -2   79.09    6.90
  -9   4  -2   74.99    5.30
  -9  -5   2   60.29    4.90
   9  -5  -2   39.70    4.70
  -9  -5   2   55.79    7.10
  -9   5   2   41.30    7.10
   8  -5  -2    3.30    2.30
  -8  -5   2    4.00    1.80
  -8  -5   2    1.40    2.90
  -8   5   2    0.80    3.10
   7  -5  -2   64.09    4.80
  -7  -5   2   65.99    5.90
  -7  -5   2   66.19    3.80
   7   5  -2   70.99    4.70
  -7   5   2   67.79    6.20
  -6  -5   2  143.49    5.20
   6  -5  -2  147.09    6.20
  -6  -5   2  141.79    7.00
   6   5  -2  147.09    5.90
  -6   5   2  145.99    7.40
  -5  -5   2  114.59    4.00
   5  -5  -2  113.69    5.20
  -5  -5   2  112.69    5.90
  -5   5   2  106.39    6.30
   5   5  -2  110.19    4.90
  -4  -5   2    0.10    1.70
   4  -5  -2    1.30    0.80
   4  -5  -2   -0.60    1.40
  -4   5   2    1.70    1.00
   4   5  -2    1.10    1.40
  -4   5   2   -2.90    1.70
   3  -5  -2   95.59    4.40
  -3  -5   2   96.79    5.10
   3  -5  -2  103.29    3.70
   3   5  -2  100.59    4.20
  -3   5   2   93.39    6.50
  -3   5   2  101.69    3.80
  -2  -5   2  316.57    9.80
   2  -5  -2  320.67    9.00
   2  -5  -2  320.27    8.90
  -2   5   2  319.07    9.80
   2   5  -2  311.77    8.80
  -1  -5   2  277.07    9.00
   1  -5  -2  276.47    7.90
   1  -5  -2  279.37    8.10
  -1  -5   2  283.17    8.00
   1   5  -2  283.97    8.00
  -1   5   2  264.67    8.10
   0  -5   2  297.37    8.50
   0  -5   2  298.57    9.60
   0  -5  -2  303.37    8.60
   0  -5  -2  293.67    8.40
   0   5  -2  306.07    8.50
   0   5   2  311.47    8.30
  -1  -5  -2   41.40    2.90
   1  -5   2   32.00    4.90
   1  -5   2   43.20    3.00
  -1   5  -2   42.50    2.70
  -1   5  -2   41.20    2.10
  -1   5  -2   40.50    3.00
   1   5   2   43.10    2.60
  -2  -5  -2  408.16   10.20
   2  -5   2  381.86   10.60
  -2  -5  -2  387.66   10.90
  -2   5  -2  398.06   10.70
   2   5   2  396.56   10.10
  -2   5  -2  394.36   10.40
   3  -5   2  495.85   13.20
  -3  -5  -2  496.05   13.60
  -3  -5  -2  518.45   12.60
   3   5   2  514.55   12.60
  -3   5  -2  506.35   13.30
   3   5   2  516.15   12.80
  -3   5  -2  511.05   12.10
   4  -5   2   48.80    3.50
  -4  -5  -2   42.90    4.00
   4  -5   2   48.60    3.20
  -4  -5  -2   51.29    3.10
   4   5   2   46.70    3.40
  -4   5  -2   45.70    3.80
  -4   5  -2   52.49    2.80
   4   5   2   52.59    2.80
  -5  -5  -2   52.99    4.70
   5  -5   2   50.69    3.80
   5  -5   2   61.19    3.30
   5   5   2   52.29    2.90
  -5   5  -2   47.50    4.40
   5   5   2   47.50    3.70
  -5   5  -2   54.19    3.00
  -5   5  -2   50.89    3.80
  -6  -5  -2   49.60    5.20
   6  -5   2   51.59    4.00
   6  -5   2   49.50    3.20
  -6   5  -2   50.49    4.90
   6   5   2   43.30    4.00
  -6   5  -2   53.09    4.00
  -6   5  -2   43.10    3.30
  -7  -5  -2  107.39    6.70
   7  -5   2  110.59    5.40
  -7   5  -2  109.29    5.30
  -7   5  -2  106.29    4.80
  -7   5  -2  109.19    6.90
   7   5   2  111.49    5.70
  -8  -5  -2   52.29    6.50
   8  -5   2   68.79    4.60
  -8   5  -2   49.80    6.40
  -8   5  -2   60.69    6.00
   8   5   2   57.79    5.40
  -8   5  -2   58.99    4.70
   8  -6  -2   35.10    5.20
  -8   6   2   34.70    6.90
  -7  -6   2  110.89    7.70
   7  -6  -2  116.59    6.30
   7   6  -2  118.69    6.00
  -7   6   2  106.49    8.00
  -6  -6   2    5.30    2.80
   6  -6  -2    7.20    2.40
  -6   6   2    4.50    2.90
   6   6  -2    4.60    2.00
  -5  -6   2  106.19    6.50
   5  -6  -2   92.09    5.30
   5   6  -2   98.69    4.90
  -5   6   2   96.29    6.60
   4  -6  -2   18.50    2.20
   4  -6  -2   17.00    3.50
  -4  -6   2   25.60    4.50
  -4   6   2   19.70    4.40
   4   6  -2   17.40    3.20
   3  -6  -2   98.09    4.90
   3  -6  -2   99.79    4.30
  -3  -6   2  100.79    5.90
   3   6  -2  102.09    4.60
  -3   6   2   87.59    5.60
  -2  -6   2   23.50    4.40
   2  -6  -2   24.10    3.20
   2  -6  -2   18.70    3.30
   2   6  -2   22.60    2.90
  -2   6   2   20.80    4.60
   1  -6  -2   -1.90    1.80
  -1  -6   2    2.90    2.30
   1  -6  -2    2.70    1.60
  -1  -6   2    2.60    1.60
   1   6  -2    0.90    1.50
  -1   6   2    0.70    1.50
   0  -6  -2   39.60    3.20
   0  -6   2   42.30    3.50
   0  -6  -2   50.09    3.80
   0  -6   2   42.20    4.70
   0   6   2   40.80    3.00
   0   6  -2   44.00    3.30
   1  -6   2  534.35   14.20
  -1  -6  -2  553.64   13.90
   1  -6   2  543.95   15.30
  -1  -6  -2  537.65   14.50
   1   6   2  534.15   13.40
  -1   6  -2  548.65   14.30
   2  -6   2   60.99    4.00
   2  -6   2   57.39    4.40
  -2  -6  -2   59.99    4.40
  -2  -6  -2   62.79    3.70
  -2   6  -2   64.09    4.10
  -2   6  -2   62.59    4.10
   2   6   2   62.59    3.40
  -3  -6  -2  101.99    4.50
   3  -6   2   98.49    4.80
   3  -6   2   99.89    5.00
  -3  -6  -2  102.69    5.40
  -3   6  -2   98.89    3.50
  -3   6  -2  105.29    5.30
   3   6   2   98.79    4.20
   3   6   2  103.39    4.30
  -3   6  -2  103.09    5.00
  -4  -6  -2  128.79    6.40
   4  -6   2  119.89    5.00
   4  -6   2  120.89    5.60
  -4   6  -2  121.89    4.20
   4   6   2  116.59    5.20
  -4   6  -2  121.19    5.80
  -5  -6  -2  188.88    8.00
   5  -6   2  182.38    7.10
   5  -6   2  185.58    6.30
   5   6   2  170.98    5.90
  -5   6  -2  187.38    6.90
  -5   6  -2  191.08    7.70
  -5   6  -2  188.78    5.70
   5   6   2  189.48    6.50
  -6  -6  -2   48.30    5.70
   6  -6   2   46.20    4.60
   6  -6   2   44.00    3.30
   6   6   2   49.50    4.30
  -6   6  -2   47.60    4.30
  -6   6  -2   48.60    5.50
  -6   6  -2   40.30    3.40
   7  -6   2   12.10    4.00
  -7  -6  -2    0.30    3.00
  -7   6  -2    5.40    3.20
  -7   6  -2    4.10    2.60
   7   6   2    4.00    2.20
  -7   6  -2    7.80    2.40
  -8  -6  -2    6.80    3.70
   8  -6   2    9.70    2.70
  -8   6  -2    8.30    3.60
   8   6   2   17.30    4.90
  -8   6  -2    8.70    3.00
  -7  -7   2   27.60    6.70
   7  -7  -2   25.90    5.20
   7   7  -2   28.30    5.60
  -7   7   2   17.10    4.30
  -6  -7   2   22.20    6.20
  -6   7   2   13.70    3.80
   6   7  -2   16.20    4.00
   5  -7  -2  116.39    6.50
  -5  -7   2  115.99    7.40
   5   7  -2  117.49    5.80
  -5   7   2  128.19    7.60
   4  -7  -2    3.60    2.30
  -4  -7   2    1.00    2.80
  -4   7   2    1.20    2.50
   4   7  -2    0.60    2.00
   3  -7  -2   69.09    4.80
   3  -7  -2   80.69    4.60
  -3  -7   2   71.79    6.20
  -3   7   2   57.79    5.40
   3   7  -2   73.69    4.40
   2  -7  -2   54.29    5.00
   2  -7  -2   54.39    4.20
  -2  -7   2   57.49    5.50
   2   7  -2   55.39    4.10
  -2   7   2   60.89    4.40
   1  -7  -2  435.26   13.40
  -1  -7   2  471.45   14.40
  -1  -7   2  461.35   12.80
   1  -7  -2  456.15   12.70
   1   7  -2  470.25   12.80
  -1   7   2  448.56   12.40
   0  -7  -2    2.60    1.90
   0  -7  -2   -1.20    2.20
   0  -7   2   -0.40    2.60
   0  -7   2    0.50    1.80
   0   7   2    2.00    1.60
   0   7  -2    1.70    2.00
   1  -7   2   63.99    4.50
   1  -7   2   54.09    5.40
  -1  -7  -2   82.39    5.40
  -1  -7  -2   69.29    4.40
  -1   7  -2   71.49    4.60
   1   7   2   67.59    3.70
  -2  -7  -2   39.30    3.80
  -2  -7  -2   39.10    4.70
   2  -7   2   42.00    4.10
   2  -7   2   36.30    4.60
  -2   7  -2   41.20    4.10
   2   7   2   35.40    3.30
   2   7   2   44.10    3.50
  -2   7  -2   32.00    4.00
  -2   7  -2   44.10    2.40
   3  -7   2  166.88    6.80
   3  -7   2  161.58    6.90
  -3  -7  -2  162.18    7.60
  -3  -7  -2  169.08    6.40
  -3   7  -2  162.98    4.80
  -3   7  -2  173.98    7.10
   3   7   2  170.78    5.90
  -3   7  -2  167.18    7.50
   3   7   2  156.18    5.90
   4  -7   2    0.50    2.20
  -4  -7  -2    4.40    2.60
  -4  -7  -2    5.10    2.10
   4  -7   2    2.70    1.70
   4   7   2    5.40    1.90
  -4   7  -2    3.20    2.40
   4   7   2    2.80    1.70
  -4   7  -2    5.00    2.00
  -4   7  -2    1.90    2.40
  -5  -7  -2    0.70    2.70
   5  -7   2   -0.50    2.30
   5  -7   2    3.20    1.70
  -5   7  -2    3.90    2.50
   5   7   2    4.30    1.70
  -5   7  -2   -2.60    2.30
   5   7   2    1.10    1.90
  -6  -7  -2   16.00    3.60
   6  -7   2   16.90    4.10
   6  -7   2   24.00    5.10
  -6   7  -2   24.90    5.40
  -6   7  -2   14.30    3.40
  -7  -7  -2   94.29    7.90
   7  -7   2   88.99    6.50
  -7   7  -2   90.19    7.90
  -7   7  -2  102.49    6.90
   6  -8  -2    4.00    3.00
  -6  -8   2    0.50    3.70
  -6   8   2    3.20    3.90
   6   8  -2   -3.10    2.30
   5  -8  -2    7.10    3.00
  -5  -8   2    4.20    3.70
   5   8  -2    4.00    2.50
  -5   8   2   -2.60    3.30
  -4  -8   2   11.40    5.00
   4  -8  -2    5.10    2.80
  -4   8   2    7.70    3.10
   4   8  -2    7.10    2.60
  -3  -8   2  165.88    8.90
   3  -8  -2  179.38    8.50
   3  -8  -2  164.58    7.50
  -3   8   2  161.28    7.40
   3   8  -2  177.98    7.20
   2  -8  -2   -1.00    2.70
  -2  -8   2    2.20    3.20
   2  -8  -2    0.20    2.40
   2   8  -2   -1.40    2.00
  -2   8   2   -0.60    1.90
   1  -8  -2    8.60    3.10
   1  -8  -2   10.70    2.60
  -1  -8   2   10.40    2.70
  -1  -8   2   12.10    3.60
   1   8  -2   11.40    2.70
  -1   8   2    9.70    3.40
   0  -8  -2   16.60    4.10
   0  -8  -2   15.50    3.40
   0  -8   2   17.30    4.30
   0   8  -2   13.90    4.00
   0   8   2   18.10    3.80
  -1  -8  -2  192.98    8.70
   1  -8   2  187.48    7.80
  -1  -8  -2  196.88    7.50
   1  -8   2  182.08    8.80
  -1   8  -2  205.68    7.90
  -2  -8  -2    2.40    2.30
  -2  -8  -2    1.10    2.80
   2  -8   2   -1.40    2.30
   2   8   2   -0.80    1.80
  -2   8  -2    2.10    2.50
   3  -8   2    0.70    2.20
  -3  -8  -2   16.20    5.30
  -3  -8  -2    2.80    2.40
   3  -8   2    3.30    2.60
  -3   8  -2    7.00    3.00
   3   8   2    3.30    2.00
   4  -8   2    4.70    2.70
  -4  -8  -2   -3.60    2.30
   4   8   2    2.80    1.80
   5  -8   2  177.28    9.00
   5  -8   2  156.38    7.90
  -5  -8  -2  155.78    9.10
  -5   8  -2  157.18    8.10
  -3  -9   2   13.70    4.50
   3  -9  -2   16.50    5.30
   3   9  -2   25.20    5.00
   2  -9  -2    2.60    3.70
   2  -9  -2    4.80    2.90
  -2  -9   2    0.30    3.60
   2   9  -2    0.90    2.40
   1  -9  -2  150.38    9.00
   1  -9  -2  152.78    7.60
  -1  -9   2  145.19    7.40
  -1  -9   2  150.98   12.20
   1   9  -2  142.09    7.20
   0  -9   2    4.40    2.90
   0  -9  -2    5.50    3.30
   0   9  -2    7.00    2.90
  -1  -9  -2   14.10    4.70
   1  -9   2    4.30    2.90
  -1  -9  -2    8.60    3.40
   1  -9   2    5.00    3.10
   1   9   2    6.60    2.60
  -1   9  -2    1.50    2.80
  -2  -9  -2    0.90    4.00
  -2  -9  -2   -3.20    2.70
   2  -9   2   -0.10    3.00
   2  -9   2   -1.90    2.60
  -2   9  -2    3.90    2.80
   2   9   2    0.00    2.10
  -3  -9  -2  105.39    8.60
   3  -9   2   99.29    6.60
   3  -9   2  100.49    7.30
  -3  -9  -2  103.59    6.50
   3   9   2  113.89    5.90
  -3   9  -2  114.39    7.40
  10   0  -3   -1.40    1.90
  -9   0   3  395.66   13.00
  -9   0   3  414.26   11.30
   9   0  -3  399.46   11.20
  -8   0   3   -0.80    1.90
  -8   0   3    0.00    1.90
   8   0  -3   -2.50    1.50
   7   0  -3  101.39    4.40
  -7   0   3   98.79    4.10
  -7   0   3   97.59    5.10
  -6   0   3    0.40    1.10
  -6   0   3   -1.50    1.30
   6   0  -3   -0.40    1.40
  -5   0   3 1211.08   28.70
  -5   0   3 1216.08   27.60
   5   0  -3 1203.48   28.20
   4   0  -3    0.00    0.70
  -4   0   3    0.20    1.00
  -4   0   3    0.30    0.80
   4   0  -3    0.80    1.10
  -3   0   3  128.19    3.90
  -3   0   3  130.49    4.60
   3   0  -3  131.79    4.40
   3   0  -3  132.79    3.80
   2   0  -3    0.50    0.80
   2   0  -3    1.90    1.00
  -2   0   3    0.90    0.70
   2   0  -3   -0.10    0.60
  -2   0   3    0.30    0.90
  -1   0   3 8364.16  200.78
   1   0  -3 9999.00  200.88
   1   0  -3 8750.82  201.28
  -1   0   3 9871.11  201.38
  -1   0   3 8759.82  201.28
   0   0  -3    0.20    0.50
   0   0  -3    0.00    0.50
   0   0   3   -0.60    0.70
   0   0  -3   -0.20    0.60
   0   0  -3   -0.80    0.70
   0   0   3   -0.20    0.60
   0   0   3   -0.40    0.60
   1   0   3  258.27    6.50
  -1   0  -3  249.78    6.40
   1   0   3  249.08    6.50
  -1   0  -3  254.97    6.50
  -1   0  -3  249.78    6.50
   1   0   3  256.37    6.30
   2   0   3    0.20    0.70
  -2   0  -3   -0.20    0.50
  -2   0  -3    0.20    0.60
   2   0   3   -0.10    0.40
  -2   0  -3    0.60    0.70
   3   0   3 1604.74   36.90
  -3   0  -3 1649.83   36.40
  -3   0  -3 1634.54   36.00
  -3   0  -3 1598.54   36.80
  -4   0  -3   -0.60    1.00
   4   0   3    1.60    1.10
  -4   0  -3    2.00    1.10
   5   0   3  178.08    6.20
  -5   0  -3  190.38    6.10
  -5   0  -3  185.18    5.50
   6   0   3    0.80    1.50
  -6   0  -3   -0.10    1.50
  -6   0  -3    0.40    1.40
  -7   0  -3  872.51   21.30
   7   0   3  897.81   22.50
  -7   0  -3  888.51   21.90
  -8   0  -3    1.20    2.10
  -8   0  -3    4.30    2.10
   8   0   3   -0.30    2.20
  -9   0  -3   29.50    5.00
  -9   0  -3   19.30    5.50
  10   0   3    2.30    2.90
 -10   0  -3    4.00    3.00
 -10   0  -3    3.30    2.90
 -10   0  -3    0.50    3.10
 -10  -1   3    0.70    2.50
 -10  -1   3   -0.70    2.60
  10  -1  -3   -0.40    2.00
 -10   1   3    0.00    2.70
  -9  -1   3  100.99    6.20
   9  -1  -3  105.79    5.00
  -9  -1   3  102.79    5.60
  -9   1   3  101.99    6.70
  -9   1   3  109.99    5.40
   9   1  -3   97.29    4.80
  -8  -1   3   38.70    4.20
  -8  -1   3   33.70    4.00
   8  -1  -3   34.90    3.40
  -8   1   3   38.50    4.70
  -8   1   3   40.80    3.20
   8   1  -3   39.10    3.60
  -7  -1   3  629.24   17.40
  -7  -1   3  668.63   17.30
   7  -1  -3  676.13   16.60
  -7   1   3  679.43   17.80
  -7   1   3  669.43   15.80
  -6  -1   3    1.60    1.30
  -6  -1   3    0.90    1.30
   6  -1  -3    3.50    0.90
   6  -1  -3    1.70    1.50
  -6   1   3    2.80    1.00
   6   1  -3    1.90    1.50
  -6   1   3    2.50    1.50
  -5  -1   3   33.20    2.80
   5  -1  -3   32.50    1.70
   5  -1  -3   31.50    2.60
  -5  -1   3   33.90    2.50
   5   1  -3   32.80    3.10
  -5   1   3   29.40    2.80
  -5   1   3   31.30    1.80
   4  -1  -3   25.70    2.20
   4  -1  -3   29.40    1.30
  -4  -1   3   24.40    2.10
  -4  -1   3   23.30    2.20
  -4   1   3   28.60    1.50
   4   1  -3   26.50    2.70
  -4   1   3   26.90    2.80
  -3  -1   3 2299.07   52.29
  -3  -1   3 2304.67   52.09
   3  -1  -3 2352.06   52.09
   3   1  -3 2372.06   52.79
  -3   1   3 2304.07   52.89
   3   1  -3 2315.27   52.59
  -2  -1   3    4.90    1.60
   2  -1  -3    5.10    0.80
  -2  -1   3    4.50    1.60
   2  -1  -3    6.20    1.40
   2   1  -3    4.40    1.50
  -2   1   3    2.90    1.10
  -2   1   3    4.70    0.80
   2   1  -3    5.90    1.50
   2   1  -3    5.00    1.20
   1  -1  -3    5.80    1.30
  -1  -1   3    7.70    1.50
  -1  -1   3    5.60    1.20
   1  -1  -3    4.10    0.80
  -1  -1   3    3.00    0.90
   1  -1  -3    5.90    1.60
   1  -1  -3    6.10    0.80
  -1   1   3    6.20    1.70
   1   1  -3    5.30    1.40
   1   1  -3    5.80    1.30
  -1   1   3    5.10    0.80
   1   1  -3    4.70    1.40
  -1   1   3    3.40    0.80
   0  -1  -3    5.00    1.10
   0  -1   3    3.00    1.00
   0  -1  -3    4.20    1.00
   0  -1   3    3.70    1.20
   0  -1  -3    2.50    0.70
   0  -1   3    3.40    0.80
   0   1  -3    2.60    0.60
   0   1   3    3.30    1.10
   0   1  -3    4.10    1.30
   0   1   3    4.40    1.00
   0   1  -3    5.00    1.40
   0   1   3    2.80    0.80
   1  -1   3 3214.28   71.69
   1  -1   3 3245.58   71.89
  -1  -1  -3 3381.16   71.99
   1  -1   3 3325.87   72.09
  -1  -1  -3 3292.47   71.49
  -1  -1  -3 3267.17   71.89
   1   1   3 3326.07   71.89
   1   1   3 3182.98   71.69
  -1   1  -3 3185.08   71.69
   1   1   3 3035.40   71.99
  -1   1  -3 3168.98   71.79
  -1   1  -3 3313.97   71.89
  -2  -1  -3   13.40    1.60
   2  -1   3   14.70    1.60
  -2  -1  -3   14.30    0.90
   2  -1   3   14.60    1.70
   2   1   3   13.00    1.20
  -2   1  -3   15.30    1.70
   2   1   3   12.70    1.60
  -2   1  -3   14.30    1.30
  -2   1  -3   12.90    1.20
   3  -1   3   22.10    2.00
  -3  -1  -3   27.00    2.20
  -3  -1  -3   26.80    1.70
   3  -1   3   24.80    1.60
   3  -1   3   24.80    2.10
  -3   1  -3   26.00    1.60
  -3   1  -3   26.20    2.10
  -3   1  -3   26.10    1.60
   3   1   3   23.10    2.20
   4  -1   3    2.20    1.20
  -4  -1  -3    0.80    1.10
  -4  -1  -3    2.50    1.20
   4  -1   3    1.80    0.80
  -4   1  -3    2.30    1.10
   4   1   3    1.20    1.10
  -4   1  -3    1.40    1.10
  -4   1  -3    0.50    0.80
  -4   1  -3    2.30    0.80
  -5  -1  -3 1177.98   28.00
   5  -1   3 1179.08   28.30
  -5  -1  -3 1151.58   27.40
   5  -1   3 1264.37   26.90
  -5   1  -3 1153.68   26.80
  -5   1  -3 1200.78   27.90
  -5   1  -3 1197.28   26.90
   5   1   3 1191.38   28.30
  -5   1  -3 1202.38   27.40
  -6  -1  -3   83.29    3.70
   6  -1   3   83.29    4.50
   6  -1   3   90.99    3.00
  -6  -1  -3   82.89    4.40
  -6   1  -3   81.49    4.20
  -6   1  -3   83.09    3.10
  -6   1  -3   85.29    3.80
  -6   1  -3   82.09    3.20
   6   1   3   82.39    4.50
   7  -1   3  248.68    6.60
  -7  -1  -3  248.98    7.60
   7  -1   3  261.17    8.80
  -7  -1  -3  254.37    8.40
   7   1   3  260.67    8.70
  -7   1  -3  241.48    7.50
  -7   1  -3  249.48    8.00
  -7   1  -3  253.47    6.60
   8  -1   3    1.50    2.30
  -8  -1  -3    2.70    2.20
  -8  -1  -3    1.30    2.10
  -8   1  -3    2.70    2.20
  -8   1  -3    2.40    2.10
   8   1   3    1.10    2.20
  -8   1  -3   -1.10    2.10
   9  -1   3  185.08   11.90
  -9  -1  -3  204.38    8.20
  -9  -1  -3  192.48   10.70
  -9   1  -3  193.68    9.70
  -9   1  -3  205.38    8.00
  -9   1  -3  179.48   12.00
   9   1   3  189.38    9.80
 -10  -1  -3   -0.70    2.80
  10  -1   3   -3.70    2.80
 -10  -1  -3    0.30    2.60
 -10  -1  -3    1.50    3.10
 -10   1  -3   -0.50    2.80
 -10   1  -3    2.20    3.00
 -10   1  -3    0.50    2.80
  10   1   3   -5.50    2.70
 -10  -2   3   16.20    5.00
  10  -2  -3   17.40    4.20
 -10  -2   3   21.90    5.50
 -10   2   3   19.00    6.00
  -9  -2   3  193.98    7.90
   9  -2  -3  177.98    6.90
  -9  -2   3  187.88    7.70
   9   2  -3  169.98    6.60
  -9   2   3  181.98    8.70
  -8  -2   3    0.70    2.10
  -8  -2   3   -0.30    1.80
   8   2  -3    1.10    1.90
  -8   2   3    1.20    2.20
  -8   2   3    1.70    1.80
  -7  -2   3   13.00    2.90
  -7  -2   3   16.90    3.50
   7  -2  -3   21.70    2.90
   7   2  -3   15.00    3.70
  -7   2   3   19.00    2.00
  -7   2   3   14.70    3.60
  -6  -2   3   15.20    3.00
  -6  -2   3   15.60    2.50
   6  -2  -3   14.30    2.60
  -6   2   3   12.10    3.00
   6   2  -3   12.00    3.10
  -5  -2   3 1356.86   31.00
  -5  -2   3 1368.76   31.10
   5  -2  -3 1240.68   31.60
  -5   2   3 1336.37   32.00
   5   2  -3 1366.36   31.50
  -4  -2   3    0.80    1.00
   4  -2  -3    1.80    1.10
  -4  -2   3    2.70    1.20
   4   2  -3    1.60    1.30
  -4   2   3    1.00    1.60
   3  -2  -3  124.39    4.20
  -3  -2   3  125.99    3.90
  -3  -2   3  130.09    4.10
  -3  -2   3  128.69    4.50
   3   2  -3  134.09    4.70
   3   2  -3  133.19    4.10
  -3   2   3  126.19    5.20
  -2  -2   3  132.69    3.90
   2  -2  -3  126.99    4.00
   2   2  -3  129.69    4.30
  -2   2   3  117.09    4.90
   2   2  -3  126.89    3.70
  -1  -2   3 2055.89   45.40
   1  -2  -3 1927.71   44.60
  -1  -2   3 2037.80   44.20
   1  -2  -3 2028.60   44.10
   1   2  -3 1897.21   44.30
  -1   2   3 1950.70   45.40
   1   2  -3 2011.70   44.90
  -1   2   3 2037.10   44.10
   0  -2  -3  341.97    8.40
   0  -2   3  354.96    8.20
   0  -2   3  346.67    9.20
   0  -2  -3  337.47    8.40
   0   2  -3  346.67    8.20
   0   2   3  353.96    8.40
   0   2   3  352.36    9.00
   0   2   3  341.97    8.40
   1  -2   3  313.77    8.40
  -1  -2  -3  317.37    8.00
  -1  -2  -3  315.57    7.60
   1  -2   3  318.17    7.80
  -1   2  -3  313.27    8.00
   1   2   3  314.87    8.20
   1   2   3  330.47    7.70
  -1   2  -3  307.77    7.70
  -2  -2  -3    2.10    0.80
  -2  -2  -3    1.30    0.60
   2  -2   3    1.80    1.00
  -2  -2  -3    0.80    0.90
   2  -2   3    2.70    0.90
   2  -2   3    1.60    0.80
   2   2   3    1.30    0.90
   2   2   3    1.70    0.60
  -2   2  -3    1.90    0.90
   3  -2   3 2330.57   51.49
  -3  -2  -3 2238.28   51.39
  -3  -2  -3 2241.98   50.69
   3  -2   3 2305.47   51.39
   3  -2   3 2284.67   50.99
   3   2   3 2238.18   51.39
  -3   2  -3 2229.08   50.89
  -3   2  -3 2374.66   51.49
  -4  -2  -3   11.10    1.80
   4  -2   3    8.70    2.00
   4  -2   3   10.10    2.60
   4  -2   3   11.00    1.70
  -4  -2  -3   15.30    2.50
  -4   2  -3   10.50    2.20
  -4   2  -3   13.20    2.40
   4   2   3    7.20    2.40
  -4   2  -3   11.40    1.90
  -5  -2  -3   59.39    2.80
  -5  -2  -3   50.09    3.50
   5  -2   3   51.99    2.60
   5  -2   3   54.79    3.60
   5   2   3   56.29    3.50
  -5   2  -3   55.99    2.80
  -5   2  -3   55.99    3.40
  -5   2  -3   56.39    3.00
  -6  -2  -3    0.70    1.50
  -6  -2  -3    1.70    1.70
   6  -2   3   -1.40    1.10
   6  -2   3   -1.20    1.50
   6   2   3    0.80    1.50
  -6   2  -3    1.90    1.30
  -6   2  -3    2.10    1.60
  -6   2  -3   -0.40    1.60
   7  -2   3  431.06   12.60
   7  -2   3  405.76   10.50
  -7  -2  -3  412.46   12.00
  -7  -2  -3  403.36   11.10
  -7   2  -3  425.86   11.10
  -7   2  -3  418.76   11.60
  -7   2  -3  419.86   12.60
  -7   2  -3  416.56   10.60
   7   2   3  421.26   12.20
   8  -2   3   56.59    5.30
  -8  -2  -3   50.19    4.20
  -8  -2  -3   53.89    5.10
  -8   2  -3   52.89    4.10
  -8   2  -3   63.19    4.70
  -8   2  -3   53.89    5.20
   8   2   3   60.29    5.20
  -8   2  -3   59.69    4.70
  -9  -2  -3   58.09    4.60
  -9  -2  -3   54.29    6.00
   9  -2   3   51.89    5.90
  -9   2  -3   50.39    5.70
  -9   2  -3   47.30    5.20
   9   2   3   50.79    7.50
 -10  -3   3    6.20    2.60
  10  -3  -3    0.40    2.30
 -10  -3   3    4.50    3.20
 -10   3   3   -1.30    3.10
   9  -3  -3   50.29    4.40
  -9  -3   3   55.69    5.90
  -9  -3   3   53.09    4.70
   9   3  -3   43.40    4.60
  -9   3   3   44.10    7.10
  -8  -3   3   93.49    5.00
   8  -3  -3   83.59    5.00
  -8  -3   3   88.89    5.70
   8   3  -3   84.59    5.00
  -8   3   3   92.09    6.50
  -7  -3   3  213.68    7.20
  -7  -3   3  223.68    7.80
   7  -3  -3  208.28    7.20
   7   3  -3  206.78    7.40
  -7   3   3  209.08    8.50
   6  -3  -3   35.00    3.20
  -6  -3   3   33.30    3.30
  -6  -3   3   37.40    3.80
  -6   3   3   30.30    3.90
   5  -3  -3   99.89    4.40
  -5  -3   3  103.49    4.00
  -5  -3   3  105.59    4.70
   5   3  -3  107.09    4.90
  -5   3   3   97.09    5.20
  -4  -3   3   53.29    4.30
   4  -3  -3   57.29    3.10
  -4  -3   3   55.69    2.70
   4   3  -3   52.79    3.40
  -4   3   3   52.99    4.00
   3  -3  -3  641.74   15.40
  -3  -3   3  635.84   16.00
  -3  -3   3  616.94   14.60
   3  -3  -3  610.24   14.40
  -3  -3   3  656.03   14.90
  -3   3   3  634.64   16.70
   3   3  -3  626.34   15.60
   2  -3  -3  224.88    6.40
  -2  -3   3  235.18    7.20
   2  -3  -3  230.18    5.70
  -2   3   3  235.18    5.50
  -2   3   3  218.48    7.50
   2   3  -3  223.88    6.60
   1  -3  -3    1.50    0.90
   1  -3  -3    1.20    0.70
  -1  -3   3    2.10    1.30
  -1   3   3    0.70    0.70
  -1   3   3    0.40    1.20
   1   3  -3    0.20    0.90
   0  -3   3  327.47    7.70
   0  -3  -3  327.27    8.30
   0  -3  -3  340.67    8.40
   0  -3   3  320.47    9.30
   0   3  -3  321.97    8.60
   0   3  -3  343.17    7.70
   0   3   3  328.77    8.80
  -1  -3  -3  622.44   14.00
   1  -3   3  615.24   14.30
  -1  -3  -3  623.74   14.80
   1  -3   3  630.24   14.80
  -1  -3  -3  618.54   14.40
   1  -3   3  598.64   15.30
   1   3   3  616.04   14.90
  -1   3  -3  608.14   14.80
  -1   3  -3  604.94   14.20
   2  -3   3   96.79    3.40
  -2  -3  -3   95.19    2.90
  -2  -3  -3   95.89    3.00
   2  -3   3   89.39    3.90
   2  -3   3  100.09    3.60
  -2  -3  -3   94.69    3.80
   2   3   3   94.39    3.00
  -2   3  -3   93.99    3.60
   2   3   3   93.69    3.60
   3  -3   3  255.07    7.20
  -3  -3  -3  254.67    6.50
  -3  -3  -3  264.77    6.30
   3  -3   3  259.37    7.10
   3  -3   3  245.38    7.30
  -3  -3  -3  246.48    7.70
   3   3   3  260.97    6.20
  -3   3  -3  250.57    7.00
   3   3   3  245.98    7.20
  -4  -3  -3   50.99    3.10
   4  -3   3   53.59    3.20
   4  -3   3   52.79    2.90
  -4  -3  -3   52.69    3.40
  -4   3  -3   54.89    3.30
  -4   3  -3   53.09    3.00
   4   3   3   56.39    3.40
  -4   3  -3   49.80    4.50
  -5  -3  -3  463.85   12.90
   5  -3   3  480.85   12.30
   5  -3   3  464.45   12.90
   5  -3   3  479.05   12.10
  -5  -3  -3  480.35   11.90
  -5   3  -3  479.45   13.10
  -5   3  -3  482.55   12.10
   5   3   3  471.75   12.70
  -5   3  -3  486.45   12.50
  -5   3  -3  481.15   11.90
  -6  -3  -3  193.98    6.10
   6  -3   3  183.38    6.00
   6  -3   3  192.48    7.20
  -6  -3  -3  191.28    7.10
  -6   3  -3  172.58    6.70
   6   3   3  193.28    6.90
  -6   3  -3  183.08    6.50
  -6   3  -3  199.68    6.10
  -6   3  -3  193.88    7.20
  -7  -3  -3   70.89    4.10
  -7  -3  -3   79.79    5.30
   7  -3   3   71.09    5.30
   7  -3   3   78.79    3.80
   7   3   3   76.89    5.00
  -7   3  -3   79.19    4.10
  -7   3  -3   78.59    4.60
  -7   3  -3   77.09    4.00
  -7   3  -3   70.09    5.10
  -8  -3  -3    4.90    2.60
   8  -3   3    2.20    1.60
  -8  -3  -3    2.70    2.20
   8  -3   3    0.20    2.30
  -8   3  -3    3.20    2.30
   8   3   3    3.70    2.40
  -8   3  -3    1.80    1.80
  -8   3  -3   -0.10    2.30
  -8   3  -3    2.40    2.30
  -9  -3  -3  114.29    7.40
   9  -3   3  113.39    7.30
  -9   3  -3  113.79    7.80
  -9   3  -3  115.09    6.30
  -9   3  -3  108.49    7.20
  -9  -4   3   96.09    5.60
   9  -4  -3   94.59    5.60
  -9  -4   3   89.39    7.00
  -9   4   3   86.29    7.60
  -8  -4   3   43.60    4.00
   8  -4  -3   40.40    4.30
  -8  -4   3   44.60    5.60
  -8   4   3   38.40    5.90
   8   4  -3   43.80    4.30
   7  -4  -3   15.40    3.50
  -7  -4   3   13.90    4.40
  -7  -4   3   12.00    3.00
  -7   4   3    9.40    2.90
   7   4  -3    9.40    2.40
  -6  -4   3  154.48    6.60
  -6  -4   3  155.18    5.50
   6  -4  -3  153.68    6.00
  -6   4   3  150.48    7.30
   6   4  -3  154.58    6.30
   5  -4  -3  508.35   13.50
  -5  -4   3  504.25   14.10
  -5  -4   3  529.05   12.80
   5   4  -3  516.95   13.70
  -5   4   3  504.35   15.00
   4  -4  -3  287.27    8.30
  -4  -4   3  270.47    8.80
  -4  -4   3  275.77    7.20
  -4  -4   3  294.67    7.40
  -4   4   3  280.17    9.60
   4   4  -3  286.17    8.40
   3  -4  -3    9.60    2.30
  -3  -4   3    6.90    1.90
   3  -4  -3   11.30    1.10
   3   4  -3    4.60    2.50
  -2  -4   3  734.83   18.40
   2  -4  -3  708.63   16.80
   2  -4  -3  702.93   17.50
  -2   4   3  709.73   18.50
   2   4  -3  704.13   18.30
  -2   4   3  739.23   16.40
  -1  -4   3  503.05   14.70
   1  -4  -3  506.25   12.40
   1  -4  -3  505.25   12.10
  -1   4   3  490.85   13.00
   1   4  -3  466.45   12.60
   0  -4   3  684.73   17.70
   0  -4  -3  688.03   16.20
   0  -4  -3  691.83   16.20
   0  -4   3  641.94   17.20
   0   4   3  689.33   16.60
   0   4  -3  662.43   17.30
   1  -4   3   22.40    1.70
  -1  -4  -3   20.00    1.20
   1  -4   3   21.10    3.10
  -1  -4  -3   20.60    2.10
  -1  -4  -3   17.40    2.30
  -1   4  -3   20.90    1.80
  -1   4  -3   18.10    1.60
   1   4   3   21.90    2.30
  -2  -4  -3  331.47    8.40
   2  -4   3  326.77    9.50
   2  -4   3  317.67    8.90
  -2  -4  -3  343.17    8.00
   2  -4   3  336.87    8.60
  -2   4  -3  317.57    9.00
  -2   4  -3  347.07    8.70
   2   4   3  324.17    8.90
  -3  -4  -3  927.61   21.10
  -3  -4  -3  886.71   22.20
   3  -4   3  914.81   21.90
  -3  -4  -3  944.61   21.20
   3  -4   3  918.41   21.90
  -3   4  -3  922.61   22.00
   3   4   3  917.21   21.90
  -3   4  -3  938.01   22.00
  -4  -4  -3  261.27    6.60
   4  -4   3  258.07    7.50
   4  -4   3  255.77    7.80
  -4  -4  -3  245.68    8.10
   4  -4   3  254.57    7.50
  -4   4  -3  257.17    7.80
  -4   4  -3  250.77    7.00
   4   4   3  259.97    6.50
  -4   4  -3  256.97    7.60
   4   4   3  251.57    6.40
  -4   4  -3  247.68    7.90
   4   4   3  255.47    7.70
  -5  -4  -3   49.80    4.10
   5  -4   3   48.10    3.30
   5  -4   3   48.90    3.20
  -5  -4  -3   48.80    3.00
   5  -4   3   45.00    3.70
  -5   4  -3   51.79    3.70
  -5   4  -3   45.10    3.00
  -5   4  -3   44.90    3.40
  -5   4  -3   48.10    4.00
   5   4   3   52.19    3.80
   6  -4   3   81.79    5.00
  -6  -4  -3   83.39    5.40
   6  -4   3   83.39    4.20
  -6  -4  -3   88.89    4.10
  -6   4  -3   83.79    4.30
  -6   4  -3   88.59    4.70
  -6   4  -3   90.39    4.10
   6   4   3   89.49    4.90
  -6   4  -3   78.29    5.20
   7  -4   3  174.78    6.30
   7  -4   3  177.18    7.70
  -7  -4  -3  183.28    7.80
   7   4   3  170.98    7.20
  -7   4  -3  171.28    6.10
  -7   4  -3  170.78    7.60
  -7   4  -3  180.18    6.70
  -7   4  -3  168.08    6.40
   8  -4   3   68.99    6.10
   8  -4   3   72.79    4.20
  -8  -4  -3   55.89   10.50
  -8   4  -3   63.39    4.50
  -8   4  -3   61.19    5.10
  -8   4  -3   66.39    4.60
   8   4   3   69.19    5.60
  -8   4  -3   71.89    6.00
   9  -4   3   24.30    5.40
  -9  -4  -3   11.90    3.60
  -9   4  -3   21.90    4.60
   9   4   3   23.10    6.60
  -9   4  -3   25.30    5.30
  -9   4  -3   16.60    5.60
  -9  -5   3    0.70    3.20
   9  -5  -3    6.00    3.50
  -9   5   3    5.70    3.60
  -8  -5   3  108.89    7.50
  -8  -5   3  106.59    5.20
   8  -5  -3  111.49    6.10
   8   5  -3  102.09    6.20
  -8   5   3  104.59    8.00
  -7  -5   3  117.49    7.10
  -7  -5   3  115.79    4.90
   7  -5  -3  111.49    6.00
  -7   5   3  105.99    7.40
   7   5  -3  126.19    6.00
   6  -5  -3   64.39    4.50
  -6  -5   3   56.29    3.50
  -6  -5   3   65.79    5.70
   6   5  -3   68.89    4.60
  -6   5   3   66.19    5.90
  -5  -5   3   57.49    4.90
   5  -5  -3   59.99    4.30
  -5  -5   3   58.89    2.90
  -5   5   3   54.79    5.30
   5   5  -3   56.79    3.90
   4  -5  -3  266.27    8.30
  -4  -5   3  269.97    9.30
  -4   5   3  262.67    9.60
   4   5  -3  262.17    8.20
  -3  -5   3  341.37   10.80
   3  -5  -3  365.26    8.80
   3  -5  -3  333.37    9.80
  -3   5   3  356.66   11.20
  -3   5   3  327.97    8.40
   3   5  -3  356.26   10.00
   2  -5  -3  452.95   11.60
   2  -5  -3  447.26   11.90
  -2  -5   3  450.25   13.10
   2   5  -3  454.55   12.00
   1  -5  -3    3.60    1.40
   1  -5  -3    2.10    1.30
  -1  -5   3    0.50    2.00
  -1   5   3    1.20    1.60
   1   5  -3    0.50    1.30
   0  -5  -3  534.55   13.30
   0  -5   3  509.35   13.40
   0  -5  -3  525.45   13.10
   0  -5   3  518.85   14.60
   0   5  -3  500.65   13.40
   0   5   3  525.65   13.30
   1  -5   3  448.06   11.80
   1  -5   3  437.76   12.70
  -1  -5  -3  440.36   11.50
  -1  -5  -3  442.66   11.90
  -1   5  -3  443.66   11.80
   1   5   3  449.36   11.50
  -1   5  -3  440.26   10.80
  -1   5  -3  447.96   10.50
   2  -5   3  324.97    9.60
  -2  -5  -3  346.17    9.00
   2  -5   3  348.47   10.20
  -2  -5  -3  340.17    9.80
  -2   5  -3  347.27    9.20
  -2   5  -3  332.47    9.60
   2   5   3  338.47    9.20
   3  -5   3   40.80    3.40
   3  -5   3   40.10    3.30
  -3  -5  -3   43.20    2.80
  -3  -5  -3   38.80    3.60
  -3   5  -3   43.20    3.40
  -3   5  -3   42.60    3.40
   4  -5   3   95.29    4.60
  -4  -5  -3   96.59    3.80
   4  -5   3   94.79    4.40
   4  -5   3   97.29    4.50
  -4  -5  -3   96.49    5.30
  -4   5  -3   96.09    4.90
   4   5   3   95.79    4.50
   4   5   3   94.89    3.60
  -4   5  -3   92.99    4.60
  -4   5  -3   98.79    3.80
   5  -5   3  162.08    5.80
  -5  -5  -3  164.68    7.00
   5  -5   3  161.18    6.50
   5  -5   3  166.08    6.10
  -5   5  -3  167.48    6.40
   5   5   3  163.18    6.20
  -5   5  -3  163.18    5.30
   5   5   3  156.58    4.80
  -5   5  -3  162.18    6.60
  -5   5  -3  152.98    6.20
   6  -5   3  204.08    7.40
   6  -5   3  215.88    8.10
   6  -5   3  205.98    6.80
  -6  -5  -3  211.88    8.30
  -6   5  -3  207.58    7.30
  -6   5  -3  212.08    7.60
   6   5   3  214.38    7.70
  -6   5  -3  215.78    6.70
  -6   5  -3  214.18    8.30
  -7  -5  -3    3.30    2.80
   7  -5   3    4.60    2.10
  -7   5  -3    5.10    2.50
  -7   5  -3    0.40    2.30
  -7   5  -3    1.80    2.30
   7   5   3    1.40    2.40
  -7   5  -3    2.40    2.20
   8  -5   3   13.30    3.90
  -8  -5  -3   17.20    5.50
   8   5   3    8.90    2.90
  -8   5  -3   10.50    2.70
  -8   5  -3   14.80    4.10
  -8   5  -3   15.90    4.90
   8  -6  -3   22.70    4.90
  -8  -6   3   31.40    7.00
  -8   6   3   24.80    7.10
  -7  -6   3    5.70    4.00
   7  -6  -3    0.40    2.50
   7   6  -3    3.10    2.50
  -7   6   3   -0.30    3.30
  -6  -6   3  183.48    8.80
   6  -6  -3  189.68    7.80
  -6   6   3  187.58    9.50
   6   6  -3  192.58    7.40
  -5  -6   3  219.08    9.20
   5  -6  -3  221.78    8.20
  -5   6   3  210.48    9.30
   5   6  -3  215.88    7.90
  -4  -6   3  177.78    7.90
   4  -6  -3  176.48    4.90
   4  -6  -3  172.38    6.90
  -4   6   3  165.98    7.90
   4   6  -3  178.68    6.70
   3  -6  -3    1.70    1.40
  -3  -6   3    0.10    2.30
   3  -6  -3   -0.80    1.80
   3   6  -3   -1.20    1.60
  -3   6   3    1.50    2.10
  -2  -6   3  274.27    9.80
   2  -6  -3  263.57    8.40
   2  -6  -3  266.27    8.30
  -2   6   3  269.07    8.90
   2   6  -3  263.17    8.30
   1  -6  -3  326.77    9.40
  -1  -6   3  337.87   11.20
   1  -6  -3  328.27    9.60
   1   6  -3  328.27    9.60
  -1   6   3  302.27   10.70
   0  -6  -3  356.66   10.20
   0  -6  -3  343.47    9.70
   0  -6   3  339.87   10.00
   0  -6   3  347.57   11.30
   0   6   3  340.77    9.70
   0   6  -3  344.27   10.10
   1  -6   3    5.20    1.80
  -1  -6  -3    4.30    1.80
   1  -6   3    3.60    2.10
  -1  -6  -3    4.20    1.70
  -1   6  -3    5.40    1.90
   1   6   3    4.70    1.70
  -2  -6  -3  272.27    8.00
  -2  -6  -3  272.57    8.90
   2  -6   3  265.57    8.60
   2  -6   3  276.17    9.20
  -2   6  -3  271.27    8.70
  -2   6  -3  274.27    8.10
   3  -6   3  313.87    9.80
  -3  -6  -3  326.77    8.90
  -3  -6  -3  318.07   10.10
   3  -6   3  299.67    9.60
  -3   6  -3  308.67    9.50
   3   6   3  319.27    8.70
  -3   6  -3  319.27    9.80
   3   6   3  308.57    9.00
  -3   6  -3  321.07    8.20
  -4  -6  -3  316.57   10.40
   4  -6   3  317.77    9.80
   4  -6   3  320.07    9.60
  -4  -6  -3  324.77    9.10
   4   6   3  318.67    9.30
  -4   6  -3  327.87   10.00
  -4   6  -3  310.27    9.80
  -4   6  -3  313.97    8.30
   4   6   3  292.37    9.00
   5  -6   3    5.60    1.70
  -5  -6  -3    2.70    2.50
  -5   6  -3    2.20    2.20
  -5   6  -3    4.90    2.40
  -5   6  -3    1.40    1.70
   5   6   3    1.80    1.80
  -5   6  -3    4.20    2.40
  -6  -6  -3   36.30    5.50
   6  -6   3   46.20    4.50
   6  -6   3   40.00    3.70
  -6   6  -3   41.10    5.30
   6   6   3   34.20    4.40
  -6   6  -3   38.40    4.70
  -6   6  -3   35.70    3.50
  -6   6  -3   31.20    4.60
   7  -6   3   51.89    4.60
  -7  -6  -3   46.60    6.30
  -7   6  -3   35.90    5.10
   7   6   3   36.70    4.90
  -7   6  -3   41.60    4.20
  -7   6  -3   45.00    6.30
  -7   6  -3   42.20    5.30
  -7  -7   3    9.50    4.00
   7  -7  -3   15.20    5.10
  -6  -7   3   28.40    6.50
   6  -7  -3   22.70    4.80
   6   7  -3   27.00    4.40
  -6   7   3   34.30    6.60
   5  -7  -3    2.40    2.60
  -5  -7   3    5.10    3.20
  -5   7   3   -4.40    2.70
   5   7  -3    2.90    2.30
   4  -7  -3  260.87    9.20
  -4  -7   3  259.77   10.50
  -4   7   3  263.87   10.40
   4   7  -3  268.77    9.20
   3  -7  -3   87.59    5.30
   3  -7  -3  103.29    4.80
  -3  -7   3   86.59    6.70
  -3   7   3   96.29    5.90
   3   7  -3   83.29    5.20
  -2  -7   3   45.50    5.80
   2  -7  -3   45.30    4.40
   2   7  -3   43.80    4.00
  -2   7   3   47.50    4.40
   1  -7  -3    2.10    2.00
  -1  -7   3    1.60    2.90
   1  -7  -3   -3.80    2.10
  -1   7   3    0.20    1.70
   1   7  -3    0.10    1.80
   0  -7  -3   31.70    4.40
   0  -7   3   19.00    4.80
   0  -7  -3   29.50    3.70
   0  -7   3   35.70    4.00
   0   7  -3   36.30    4.00
   0   7   3   27.90    3.30
  -1  -7  -3   80.79    5.40
   1  -7   3   66.09    5.50
   1  -7   3   69.59    4.70
  -1  -7  -3   70.79    4.50
  -1   7  -3   67.39    4.70
   1   7   3   74.39    4.00
  -2  -7  -3  378.66   11.70
  -2  -7  -3  366.86   10.60
   2  -7   3  365.96   11.30
   2  -7   3  384.56   12.10
   2   7   3  368.36   10.30
  -2   7  -3  389.26   11.20
  -2   7  -3  362.86   11.30
   3  -7   3   15.00    3.70
   3  -7   3    6.60    2.40
  -3  -7  -3    3.60    2.50
  -3  -7  -3   12.60    3.40
  -3   7  -3    6.30    2.40
  -3   7  -3   14.10    2.70
   3   7   3    5.80    1.90
  -3   7  -3    8.60    2.80
   3   7   3    9.00    2.70
   4  -7   3   39.00    4.00
   4  -7   3   45.60    4.90
  -4  -7  -3   44.30    5.50
  -4  -7  -3   41.70    3.90
  -4   7  -3   40.60    4.80
  -4   7  -3   43.30    3.20
   4   7   3   41.30    3.90
  -4   7  -3   43.50    5.00
   4   7   3   39.40    3.20
   5  -7   3   28.20    4.80
   5  -7   3   35.40    3.90
  -5  -7  -3   25.20    8.50
  -5   7  -3   34.30    3.60
  -5   7  -3   37.20    5.20
  -5   7  -3   38.90    5.10
   5   7   3   42.10    4.40
   6  -7   3   77.49    4.70
  -6  -7  -3   85.49    7.40
  -6   7  -3   94.59    6.20
  -6   7  -3   89.19    6.90
   6   7   3   87.49    5.70
   5  -8  -3   10.30    3.10
  -5  -8   3   11.40    4.10
  -5   8   3   26.10    6.80
   5   8  -3    9.40    2.60
   4  -8  -3   57.29    5.50
  -4  -8   3   56.79    7.20
  -4   8   3   53.99    6.10
   4   8  -3   42.60    5.30
  -3  -8   3    3.00    3.20
   3  -8  -3    7.00    2.80
   3   8  -3    6.90    2.40
  -3   8   3   13.70    4.70
  -2  -8   3   83.19    7.30
   2  -8  -3   70.39    6.10
   2  -8  -3   78.29    5.70
   2   8  -3   91.99    5.60
  -2   8   3   88.79    5.30
   1  -8  -3   14.60    4.20
   1  -8  -3    8.60    3.00
  -1  -8   3    4.70    3.30
   1   8  -3    6.90    2.50
   0  -8  -3   82.89    6.40
   0  -8  -3   88.09    5.60
   0  -8   3   71.39    6.40
   0  -8   3   80.29    5.50
   0   8  -3   88.09    5.70
   0   8   3   86.79    4.60
   1  -8   3    5.10    2.60
  -1  -8  -3    7.50    2.90
  -1  -8  -3    6.70    2.50
   1  -8   3   -0.50    2.60
  -1   8  -3    5.60    2.50
   1   8   3   13.50    3.50
  -2  -8  -3   66.99    6.20
   2  -8   3   47.80    5.20
   2  -8   3   53.69    5.40
  -2  -8  -3   58.59    5.00
   2   8   3   60.39    4.20
   2   8   3   60.99    4.50
  -2   8  -3   62.79    5.40
   3  -8   3   21.50    4.50
  -3  -8  -3   16.00    4.40
   3  -8   3   18.70    5.90
  -3  -8  -3   21.30    5.50
  -3   8  -3   28.30    8.00
   3   8   3   11.90    3.40
  -4  -8  -3  175.88    7.20
   4  -8   3  175.38    7.50
  -4  -8  -3  173.58    9.10
   4  -8   3  182.88    8.30
   4   8   3  169.08    6.50
  -4   8  -3  173.18    8.30
  -5  -8  -3    1.50    3.50
   5  -8   3    1.90    2.90
  -5   8  -3   -5.70    2.70
  -3  -9   3    4.20    4.20
   3  -9  -3    6.20    3.20
   3   9  -3    7.50    2.90
  -2  -9   3   36.80    7.50
   2  -9  -3   41.70    5.80
   2   9  -3   54.29    5.40
   1  -9  -3    4.50    3.40
   1  -9  -3    3.50    2.80
  -1  -9   3   -3.60    3.20
   1   9  -3    0.60    2.80
   0  -9  -3   36.70    6.70
   0  -9   3   36.50    5.40
   0   9  -3   41.70    5.40
  -1  -9  -3    2.30    3.30
   1  -9   3    6.00    2.90
  -1  -9  -3    3.30    2.80
  -1   9  -3   -0.10    2.90
   1   9   3   -2.90    2.20
   2  -9   3   68.79    6.40
  -2  -9  -3   82.39    6.20
   2  -9   3   80.09    6.90
  -2   9  -3   75.29    6.80
   2   9   3   73.29    5.20
 -10   0   4   96.19    7.80
  10   0  -4  103.29    5.60
  -9   0   4    1.10    2.40
  -9   0   4    3.70    2.20
   9   0  -4    2.40    2.00
   8   0  -4  118.39    5.50
  -8   0   4  117.29    5.10
  -8   0   4  121.49    6.20
  -7   0   4   -1.70    1.60
  -7   0   4    1.00    1.50
   7   0  -4    0.50    1.70
   6   0  -4  588.44   15.30
  -6   0   4  596.24   14.50
  -6   0   4  590.54   15.80
   5   0  -4    0.00    1.50
  -5   0   4   -1.70    1.50
  -5   0   4    0.90    1.10
  -4   0   4  994.60   23.50
   4   0  -4  935.21   23.10
   4   0  -4  905.91   22.10
  -4   0   4 1015.90   22.40
   3   0  -4   -0.10    0.80
  -3   0   4    1.30    0.90
   3   0  -4   -0.10    1.20
  -3   0   4    1.00    1.30
  -2   0   4  876.51   19.90
   2   0  -4  875.91   20.50
   2   0  -4  854.71   19.90
  -2   0   4  836.92   20.80
   1   0  -4    1.10    0.80
   1   0  -4    0.40    1.00
  -1   0   4   -0.60    0.90
  -1   0   4    0.30    0.80
   0   0  -4   81.49    3.30
   0   0   4   79.99    3.30
   0   0   4   91.39    3.30
   1   0   4   -0.30    0.70
   1   0   4    0.40    0.80
  -1   0  -4   -0.40    0.90
   1   0   4   -1.20    0.80
  -1   0  -4    0.20    0.80
  -2   0  -4 1241.88   28.70
   2   0   4 1268.67   28.40
  -2   0  -4 1278.87   29.10
   2   0   4 1271.77   29.10
   3   0   4    0.40    1.00
  -3   0  -4   -0.30    0.90
  -3   0  -4   -0.60    1.00
  -3   0  -4   -0.20    0.70
   4   0   4    2.10    1.20
  -4   0  -4    0.40    1.20
  -4   0  -4    3.00    1.20
  -5   0  -4   -0.50    1.20
   5   0   4   -1.60    1.30
  -5   0  -4    1.00    1.40
  -6   0  -4  338.57    9.30
   6   0   4  354.26   10.50
  -6   0  -4  338.47   10.00
  -7   0  -4   -0.60    1.90
   7   0   4    1.20    1.90
  -7   0  -4   -1.60    1.70
  -8   0  -4    0.10    2.40
   8   0   4   -1.40    2.20
  -8   0  -4   -2.10    2.10
  -9   0  -4    1.30    2.60
  -9   0  -4    0.80    2.50
  -9   0  -4    4.30    2.60
   9   0   4   -1.40    2.70
 -10  -1   4   56.69    5.80
  10  -1  -4   43.10    4.80
 -10  -1   4   63.09    7.20
 -10   1   4   42.70    6.40
  10   1  -4   43.80    4.50
  -9  -1   4   17.10    4.30
  -9  -1   4   17.60    4.40
   9  -1  -4   15.20    3.90
  -9   1   4   19.60    5.00
   9   1  -4   12.20    3.80
  -8  -1   4  305.47    9.40
   8  -1  -4  323.77    9.70
  -8  -1   4  316.97   10.30
   8   1  -4  303.07    9.60
  -8   1   4  308.17    8.50
  -8   1   4  312.07   10.80
  -7  -1   4   -0.50    1.60
   7  -1  -4    0.80    1.60
  -7   1   4    1.00    1.30
   7   1  -4   -0.30    1.80
  -7   1   4    0.00    1.80
  -6  -1   4  208.78    6.50
  -6  -1   4  203.48    7.10
   6  -1  -4  200.28    5.50
   6  -1  -4  214.88    6.90
  -6   1   4  209.58    7.60
  -6   1   4  208.28    5.70
   6   1  -4  199.18    7.00
   5  -1  -4    7.60    2.30
  -5  -1   4    7.70    2.40
   5  -1  -4    7.70    1.30
  -5  -1   4    8.20    2.60
  -5   1   4   10.80    2.80
  -5   1   4   11.20    1.80
   5   1  -4   10.30    2.90
  -4  -1   4  865.81   21.40
   4  -1  -4  867.51   19.80
  -4  -1   4  892.71   20.90
   4  -1  -4  883.81   21.10
  -4   1   4  890.21   22.00
  -4   1   4  877.01   20.00
   4   1  -4  897.31   21.60
   3  -1  -4   50.89    2.80
  -3  -1   4   51.79    3.00
   3  -1  -4   49.30    2.00
  -3  -1   4   54.99    3.10
  -3   1   4   49.99    1.90
   3   1  -4   51.79    3.30
  -3   1   4   51.49    3.60
   2  -1  -4    5.80    1.10
   2  -1  -4    5.40    1.80
  -2  -1   4    8.20    1.90
   2  -1  -4    7.20    1.20
  -2  -1   4    4.80    1.30
   2   1  -4   10.10    2.10
  -2   1   4    7.20    1.10
  -2   1   4    3.10    1.30
   2   1  -4    7.30    2.00
   1  -1  -4  146.09    4.00
   1  -1  -4  146.89    4.50
  -1  -1   4  139.89    4.50
   1  -1  -4  150.38    4.00
  -1  -1   4  135.79    4.60
   1   1  -4  144.09    4.80
  -1   1   4  142.39    4.00
   1   1  -4  149.69    4.60
   0  -1   4 1829.12   41.40
   0  -1  -4 1848.72   41.40
   0  -1  -4 1916.61   41.30
   0  -1  -4 1785.42   41.20
   0  -1   4 1854.21   41.70
   0   1  -4 1876.51   41.80
   0   1   4 1829.92   41.90
   0   1   4 1807.72   41.50
   0   1   4 1905.91   41.40
   0   1  -4 1782.72   41.40
   1  -1   4    0.70    0.70
   1  -1   4    0.70    0.90
  -1  -1  -4    0.10    0.80
  -1  -1  -4    0.80    0.80
  -1   1  -4    1.40    0.90
   1   1   4   -0.20    0.80
   1   1   4   -0.40    0.90
  -2  -1  -4  167.38    5.10
  -2  -1  -4  177.18    4.40
   2  -1   4  173.28    5.30
   2  -1   4  169.78    5.10
   2  -1   4  166.08    4.60
  -2   1  -4  168.28    5.30
  -2   1  -4  162.58    4.70
  -2   1  -4  173.38    4.90
   2   1   4  167.18    4.70
   2   1   4  166.58    5.20
  -3  -1  -4  424.76   11.00
   3  -1   4  427.26   11.00
   3  -1   4  412.36   11.10
  -3   1  -4  440.36   10.50
  -3   1  -4  427.16   11.00
  -3   1  -4  429.86   10.20
   3   1   4  431.86   11.20
  -4  -1  -4 1217.28   27.60
  -4  -1  -4 1190.98   28.20
   4  -1   4 1179.08   28.40
   4   1   4 1195.58   28.40
  -4   1  -4 1215.88   27.60
  -4   1  -4 1205.08   28.30
  -4   1  -4 1223.08   27.30
  -4   1  -4 1214.58   27.20
   5  -1   4    1.50    1.40
  -5  -1  -4    2.40    1.60
  -5  -1  -4    1.20    1.30
  -5   1  -4    0.80    1.00
   5   1   4    1.60    1.40
  -5   1  -4    2.40    1.10
  -5   1  -4    1.50    1.30
  -5   1  -4    0.60    1.50
   6  -1   4    1.40    1.60
  -6  -1  -4    0.60    1.80
  -6  -1  -4    0.40    1.60
  -6   1  -4   -1.10    1.10
  -6   1  -4   -1.30    1.60
  -6   1  -4    2.40    1.70
   6   1   4    1.10    1.70
   7  -1   4   -0.40    2.00
  -7  -1  -4    5.80    1.90
  -7  -1  -4    2.60    2.10
  -7   1  -4    3.60    2.10
   7   1   4    1.90    1.90
  -7   1  -4    0.90    1.90
   8  -1   4  264.87    9.90
  -8  -1  -4  281.37    8.70
  -8  -1  -4  266.07    9.50
  -8   1  -4  274.77    8.70
   8   1   4  274.97    9.90
  -8   1  -4  270.77    9.20
   9  -1   4    1.90    2.60
  -9  -1  -4    2.40    2.80
  -9  -1  -4    5.20    2.80
  -9   1  -4    2.10    2.70
   9   1   4    5.50    2.80
  -9   1  -4    2.60    2.70
  -9   1  -4    3.60    2.70
 -10  -2   4   89.09    6.80
 -10  -2   4   83.89    6.40
  10  -2  -4   80.19    5.80
 -10   2   4   80.89    7.40
   9  -2  -4    0.50    2.10
  -9  -2   4    5.20    2.70
  -9  -2   4    1.70    2.20
  -9   2   4   -3.00    2.70
   9   2  -4   -1.50    2.10
  -8  -2   4  193.78    7.60
  -8  -2   4  217.08    7.80
   8  -2  -4  204.98    7.50
  -8   2   4  203.98    8.80
   8   2  -4  188.78    7.50
  -7  -2   4   49.20    3.80
  -7  -2   4   46.20    4.20
   7  -2  -4   55.79    3.90
   7   2  -4   42.60    4.30
  -7   2   4   47.00    4.70
  -6  -2   4  295.37    8.90
  -6  -2   4  292.47    8.80
   6  -2  -4  290.27    8.80
   6   2  -4  304.97    9.30
  -6   2   4  291.77    9.90
  -5  -2   4   15.00    2.90
  -5  -2   4   17.70    2.70
   5  -2  -4   17.00    2.60
  -5   2   4   15.00    3.20
  -4  -2   4  274.07    8.10
   4  -2  -4  249.08    9.70
  -4  -2   4  290.17    7.90
  -4   2   4  272.87    9.00
   4   2  -4  277.07    8.50
  -3  -2   4  355.56    9.20
  -3  -2   4  346.97    9.60
   3  -2  -4  353.66    9.20
  -3   2   4  351.86   10.40
   3   2  -4  338.47    9.10
   3   2  -4  329.37    9.70
  -2  -2   4 1335.57   32.20
   2  -2  -4 1407.66   31.50
   2  -2  -4 1445.46   31.50
  -2  -2   4 1379.56   33.00
   2   2  -4 1447.66   32.90
  -2   2   4 1399.26   33.60
   2   2  -4 1509.15   32.30
   1  -2  -4   81.09    3.10
   1  -2  -4   85.39    2.60
   1  -2  -4   81.59    2.60
  -1  -2   4   81.39    2.90
  -1  -2   4   82.79    3.80
   1   2  -4   83.99    3.10
   1   2  -4   75.29    3.40
  -1   2   4   82.19    2.70
  -1   2   4   79.29    3.90
   0  -2  -4  313.67    8.00
   0  -2   4  314.97    7.80
   0  -2  -4  319.97    8.00
   0  -2   4  311.87    8.80
   0   2   4  323.87    8.70
   0   2  -4  309.97    8.40
   0   2  -4  321.27    7.90
   1  -2   4  374.36    9.10
  -1  -2  -4  364.36    8.80
  -1  -2  -4  356.06    9.20
   1  -2   4  362.26    9.70
  -1   2  -4  364.76    9.30
   1   2   4  364.26    8.90
   1   2   4  355.86    9.60
   2  -2   4 1111.69   26.00
  -2  -2  -4 1119.39   25.80
   2  -2   4 1085.59   25.70
  -2  -2  -4 1099.89   24.90
  -2   2  -4 1128.19   25.60
   2   2   4 1111.39   26.00
   2   2   4 1130.29   25.20
   3  -2   4    6.20    2.10
  -3  -2  -4   10.10    1.70
   3  -2   4    6.00    1.40
   3   2   4    9.20    2.30
  -3   2  -4    6.10    1.50
  -3   2  -4    9.20    1.80
  -4  -2  -4   76.29    3.80
   4  -2   4   78.59    3.60
  -4  -2  -4   77.39    3.10
   4  -2   4   80.79    3.20
   4  -2   4   74.99    3.80
   4   2   4   73.99    3.80
  -4   2  -4   79.09    3.20
  -4   2  -4   77.59    3.80
  -5  -2  -4  106.09    4.00
   5  -2   4  102.29    3.80
  -5  -2  -4  101.29    4.90
   5  -2   4   97.79    4.70
  -5   2  -4   99.39    4.70
   5   2   4   99.99    4.80
  -5   2  -4   99.49    4.00
  -5   2  -4  106.59    3.90
  -6  -2  -4  313.87    8.70
  -6  -2  -4  320.67    9.80
   6  -2   4  315.37    9.90
   6  -2   4  315.67    8.40
  -6   2  -4  319.07    9.50
   6   2   4  313.97    9.80
  -6   2  -4  308.57    8.80
  -6   2  -4  323.27    8.50
  -7  -2  -4   -0.50    2.20
  -7  -2  -4   -1.00    1.90
   7  -2   4    1.60    2.00
  -7   2  -4    3.10    1.60
  -7   2  -4    1.30    2.00
  -7   2  -4    5.90    2.10
   7   2   4    1.30    2.10
   8  -2   4   -1.00    2.30
  -8  -2  -4    0.20    2.20
  -8  -2  -4   -0.20    2.40
   8   2   4    2.10    2.30
  -8   2  -4   -0.70    2.30
  -8   2  -4    0.60    2.20
  -8   2  -4   -3.00    2.30
   9  -2   4   15.60    5.50
  -9  -2  -4   14.10    3.30
  -9  -2  -4   20.00    4.40
  -9   2  -4   22.60    5.10
   9   2   4   17.30    5.20
  -9   2  -4   15.60    4.10
  -9   2  -4   12.10    3.30
 -10  -3   4   33.20    5.20
  10  -3  -4   36.80    4.90
 -10  -3   4   42.20    6.70
 -10   3   4   19.50    6.60
   9  -3  -4   60.49    5.00
  -9  -3   4   60.99    6.40
  -9  -3   4   57.79    4.90
   9   3  -4   45.60    4.90
  -9   3   4   43.90    8.80
  -8  -3   4   96.29    5.10
  -8  -3   4   93.99    6.20
   8  -3  -4   96.19    5.30
  -8   3   4   78.39    6.70
   8   3  -4   90.09    5.50
  -7  -3   4    1.40    1.60
  -7  -3   4    2.20    2.10
   7  -3  -4    1.50    1.90
  -7   3   4    3.00    2.20
   7   3  -4   -0.90    2.10
  -6  -3   4   87.69    5.30
  -6  -3   4  101.19    5.20
   6  -3  -4   85.89    4.60
  -6   3   4   93.29    5.90
   6   3  -4   89.89    5.10
   5  -3  -4  191.88    6.50
  -5  -3   4  200.48    6.30
  -5  -3   4  196.18    7.00
  -5   3   4  200.88    7.80
   5   3  -4  189.28    7.00
   4  -3  -4  757.12   18.50
  -4  -3   4  752.62   19.00
  -4  -3   4  767.12   18.20
  -4   3   4  756.02   19.90
   4   3  -4  733.53   19.10
  -3  -3   4   28.90    1.90
  -3  -3   4   21.60    2.30
  -3  -3   4   26.60    3.90
   3  -3  -4   27.20    2.40
   3   3  -4   26.90    2.10
   3   3  -4   28.40    2.90
  -2  -3   4  300.07    9.00
   2  -3  -4  296.47    7.10
   2  -3  -4  293.17    8.00
   2  -3  -4  300.07    7.00
  -2  -3   4  295.57    7.30
   2   3  -4  286.37    7.30
   2   3  -4  297.77    8.40
  -2   3   4  287.77    9.40
  -2   3   4  289.27    7.00
  -1  -3   4  118.09    4.90
   1  -3  -4  117.89    3.60
  -1  -3   4  115.49    3.20
   1  -3  -4  109.29    3.90
   1   3  -4  108.99    3.40
  -1   3   4  108.79    4.80
  -1   3   4  118.39    3.50
   0  -3  -4 1511.45   34.70
   0  -3  -4 1536.15   34.70
   0  -3   4 1565.24   36.00
   0  -3   4 1520.95   34.30
   0   3   4 1566.94   35.60
   0   3  -4 1553.84   35.20
   0   3  -4 1488.85   34.30
  -1  -3  -4   57.19    2.50
   1  -3   4   56.39    3.40
   1  -3   4   54.29    2.40
  -1  -3  -4   54.69    2.80
  -1   3  -4   54.89    2.90
  -1   3  -4   50.49    2.50
   1   3   4   59.09    3.10
  -2  -3  -4  129.29    4.60
   2  -3   4  129.39    4.50
  -2  -3  -4  128.59    3.80
  -2  -3  -4  133.59    3.80
   2  -3   4  128.69    5.00
   2  -3   4  132.39    4.30
   2   3   4  130.49    4.80
  -2   3  -4  125.19    4.40
   2   3   4  129.39    3.90
  -3  -3  -4  514.35   13.40
   3  -3   4  513.45   13.10
   3  -3   4  529.85   13.00
  -3  -3  -4  520.55   12.40
   3  -3   4  516.85   13.40
  -3  -3  -4  521.55   12.10
   3   3   4  501.85   13.50
   3   3   4  529.35   12.20
  -3   3  -4  537.95   13.10
   4  -3   4  732.83   17.30
  -4  -3  -4  722.33   16.80
   4  -3   4  702.13   17.60
  -4  -3  -4  707.33   17.80
   4  -3   4  683.53   17.60
  -4   3  -4  733.53   17.20
   4   3   4  702.53   17.80
  -4   3  -4  699.43   17.70
   5  -3   4   29.10    2.80
  -5  -3  -4   31.50    2.50
  -5  -3  -4   26.20    3.60
   5  -3   4   28.50    3.30
  -5   3  -4   27.70    2.80
  -5   3  -4   29.30    3.40
   5   3   4   26.70    3.40
  -6  -3  -4   50.69    3.50
  -6  -3  -4   57.59    4.70
   6  -3   4   53.09    4.50
   6  -3   4   55.09    3.30
  -6   3  -4   60.09    4.60
  -6   3  -4   64.09    3.70
  -6   3  -4   55.89    3.50
   6   3   4   54.19    4.40
  -6   3  -4   47.80    4.30
  -7  -3  -4   26.70    3.50
   7  -3   4   19.90    2.90
  -7  -3  -4   24.30    4.70
   7  -3   4   26.30    4.40
  -7   3  -4   22.20    4.20
   7   3   4   26.90    4.30
  -7   3  -4   30.40    4.30
  -7   3  -4   25.90    3.20
  -7   3  -4   24.10    3.60
   8  -3   4  166.98    8.10
  -8  -3  -4  171.78    6.80
  -8  -3  -4  185.78    8.20
  -8   3  -4  176.78    7.40
   8   3   4  179.68    7.90
  -8   3  -4  182.68    6.80
  -8   3  -4  168.58    8.20
  -9  -3  -4   12.80    3.50
   9  -3   4   16.60    3.50
  -9  -3  -4   22.10    4.30
  -9   3  -4   16.90    4.60
  -9   3  -4   14.20    3.50
  -9   3  -4   26.00    5.20
   9   3   4   25.50    5.70
  -9  -4   4    1.50    2.10
  -9  -4   4    5.70    3.30
   9   4  -4    0.40    2.70
  -9   4   4    4.60    3.20
   8  -4  -4   97.29    5.80
  -8  -4   4   97.49    5.20
  -8  -4   4  108.69    6.90
  -8   4   4  106.69    7.60
   8   4  -4  108.49    6.20
   7  -4  -4  182.88    7.40
  -7  -4   4  189.08    6.70
  -7  -4   4  194.48    8.10
   7   4  -4  198.48    7.70
  -7   4   4  197.38    9.10
  -6  -4   4  184.88    7.80
  -6  -4   4  197.58    6.50
   6  -4  -4  184.08    7.00
   6   4  -4  195.58    7.50
  -6   4   4  202.78    8.70
   5  -4  -4   12.80    3.00
  -5  -4   4   11.80    2.50
  -5  -4   4    8.70    2.30
  -5   4   4   13.50    3.90
   5   4  -4   14.80    3.20
  -4  -4   4  136.49    4.40
  -4  -4   4  121.99    3.90
  -4  -4   4  121.59    5.80
   4   4  -4  129.89    5.40
  -4   4   4  126.79    6.20
  -3  -4   4  133.19    5.90
   3  -4  -4  130.69    3.60
   3  -4  -4  129.79    4.90
  -3   4   4  128.19    6.30
   3   4  -4  133.99    5.20
  -2  -4   4  430.06   12.40
   2  -4  -4  415.36   11.20
   2  -4  -4  437.76   10.50
  -2   4   4  435.26   10.20
   2   4  -4  428.66   11.50
   1  -4  -4  212.38    5.80
   1  -4  -4  185.28    8.10
  -1  -4   4  204.38    7.30
  -1   4   4  206.68    7.10
   1   4  -4  209.98    6.50
   0  -4   4  319.17    9.70
   0  -4  -4  322.17    8.50
   0  -4  -4  326.47    8.50
   0   4   4  322.17    9.20
   0   4  -4  309.87    8.90
   1  -4   4  323.27    8.00
  -1  -4  -4  313.07    7.60
  -1  -4  -4  320.77    8.70
   1  -4   4  321.87    9.60
  -1  -4  -4  314.47    8.30
   1   4   4  320.77    9.00
  -1   4  -4  309.47    7.90
  -1   4  -4  313.37    8.80
   2  -4   4  315.17    9.30
   2  -4   4  311.77    8.30
  -2  -4  -4  317.17    7.70
   2  -4   4  308.97    8.80
  -2  -4  -4  316.67    8.90
  -2  -4  -4  316.17    8.10
  -2   4  -4  316.77    8.90
   3  -4   4   22.20    2.80
   3  -4   4   22.60    2.70
  -3  -4  -4   21.60    2.00
  -3  -4  -4   16.90    1.90
   3  -4   4   14.00    2.50
  -3  -4  -4   19.90    3.00
   3   4   4   18.80    2.80
  -3   4  -4   15.80    2.60
  -4  -4  -4   25.60    2.00
   4  -4   4   23.00    2.80
  -4  -4  -4   22.40    2.20
  -4  -4  -4   22.30    3.60
   4  -4   4   24.50    2.90
   4  -4   4   24.20    3.00
  -4   4  -4   19.30    3.10
   4   4   4   25.20    3.10
   4   4   4   26.00    2.50
  -4   4  -4   19.00    3.30
  -4   4  -4   22.30    3.00
  -5  -4  -4   21.40    2.50
   5  -4   4   16.10    3.00
   5  -4   4   19.20    2.90
   5  -4   4   21.00    3.40
  -5  -4  -4   20.10    3.90
  -5   4  -4   20.10    3.40
  -5   4  -4   22.00    2.80
   5   4   4   15.20    3.40
  -5   4  -4   20.00    3.00
  -5   4  -4   24.50    3.60
   6  -4   4  247.88    8.00
   6  -4   4  269.37    9.00
  -6  -4  -4  263.77    7.70
   6  -4   4  257.17    7.90
  -6  -4  -4  254.27    9.10
  -6   4  -4  238.18    7.90
  -6   4  -4  259.47    8.50
  -6   4  -4  253.27    9.10
  -6   4  -4  261.57    7.70
   6   4   4  267.37    8.80
   7  -4   4   72.59    4.20
  -7  -4  -4   60.79    5.40
  -7  -4  -4   70.39    4.30
   7  -4   4   70.59    5.50
  -7   4  -4   73.49    5.80
  -7   4  -4   74.79    4.50
  -7   4  -4   76.09    4.60
  -7   4  -4   73.49    5.20
   7   4   4   72.39    5.40
   8  -4   4    8.10    4.00
  -8  -4  -4    2.30    2.30
  -8  -4  -4    3.20    3.00
   8  -4   4   -0.20    1.90
  -8   4  -4    0.90    2.20
  -8   4  -4   -0.10    2.50
  -8   4  -4   -0.80    3.20
   8   4   4    3.00    2.50
  -8   4  -4    1.10    2.60
   9  -5  -4   43.60    5.70
  -9  -5   4   39.10    7.50
  -9   5   4   46.30    7.50
  -8  -5   4    3.00    3.40
   8  -5  -4   10.60    2.90
  -8   5   4    7.20    5.60
   8   5  -4    9.10    2.90
   7  -5  -4   16.30    4.20
  -7  -5   4   16.40    3.60
   7   5  -4   25.70    4.50
  -7   5   4   21.30    5.80
  -6  -5   4   16.20    3.10
  -6  -5   4   18.60    5.00
   6  -5  -4   18.70    3.90
  -6   5   4   20.30    4.90
   6   5  -4   19.40    4.10
  -5  -5   4  224.68    8.80
   5  -5  -4  242.38    8.00
  -5   5   4  231.08    9.50
   5   5  -4  227.48    8.10
  -4  -5   4  236.98    8.80
   4  -5  -4  244.88    7.90
  -4   5   4  241.68    9.40
   4   5  -4  238.88    8.10
   3  -5  -4   40.40    2.50
  -3  -5   4   35.70    4.60
   3  -5  -4   42.70    3.50
   3   5  -4   40.20    3.60
  -3   5   4   39.60    2.10
  -3   5   4   33.60    4.40
   2  -5  -4  142.79    4.90
  -2  -5   4  141.89    6.60
   2  -5  -4  140.79    5.30
   2   5  -4  140.79    5.70
  -2   5   4  148.69    6.40
   1  -5  -4  199.48    6.40
   1  -5  -4  205.78    6.20
  -1  -5   4  191.68    7.70
   1   5  -4  192.98    6.60
  -1   5   4  197.88    7.00
   0  -5  -4  260.27    7.40
   0  -5   4  242.48    8.90
   0  -5  -4  270.97    7.60
   0   5   4  235.28    8.80
   0   5  -4  258.67    7.90
  -1  -5  -4  133.39    5.10
   1  -5   4  131.39    4.10
  -1  -5  -4  137.19    3.60
   1  -5   4  131.29    6.00
  -1   5  -4  131.79    4.20
   1   5   4  122.09    5.20
  -1   5  -4  121.79    4.00
  -1   5  -4  128.19    5.10
  -2  -5  -4    3.20    1.40
  -2  -5  -4    3.10    1.70
   2  -5   4    3.90    1.60
  -2  -5  -4    6.70    1.50
   2  -5   4    2.40    1.30
   2  -5   4    4.00    1.70
  -2   5  -4    2.30    1.40
   2   5   4    3.50    1.60
  -2   5  -4    2.40    1.60
   3  -5   4  113.69    5.10
   3  -5   4  115.39    5.40
   3  -5   4  124.09    4.90
  -3  -5  -4  120.69    3.90
  -3  -5  -4  119.09    4.30
  -3  -5  -4  118.29    5.50
   3   5   4  120.19    5.10
  -3   5  -4  116.49    5.10
  -3   5  -4  121.99    5.10
  -4  -5  -4  169.78    7.10
   4  -5   4  183.88    6.50
   4  -5   4  187.18    6.50
  -4  -5  -4  194.18    5.50
   4  -5   4  183.58    6.70
  -4  -5  -4  177.28    5.40
  -4   5  -4  179.88    6.60
  -4   5  -4  182.18    5.70
   4   5   4  183.98    6.50
   4   5   4  177.28    5.30
  -4   5  -4  176.48    6.70
   5  -5   4  113.59    5.60
  -5  -5  -4  118.09    4.40
   5  -5   4  108.89    5.20
   5  -5   4  109.29    5.20
  -5  -5  -4  109.39    6.30
  -5   5  -4  117.99    5.40
   5   5   4  110.79    5.50
  -5   5  -4  106.79    5.60
  -5   5  -4  115.89    4.60
  -5   5  -4  109.89    5.60
  -6  -5  -4    6.80    2.70
   6  -5   4   14.40    3.20
  -6  -5  -4    7.90    2.10
   6  -5   4    4.00    2.20
   6  -5   4    5.00    2.00
  -6   5  -4    7.60    2.50
  -6   5  -4    5.40    2.30
   6   5   4   11.10    4.00
  -6   5  -4    8.10    2.20
  -6   5  -4    7.30    2.30
   7  -5   4   81.29    6.00
  -7  -5  -4   74.29    6.50
   7  -5   4   65.49    4.70
  -7   5  -4   71.19    5.10
  -7   5  -4   76.89    6.20
  -7   5  -4   76.89    5.60
   7   5   4   68.19    5.50
  -7   5  -4   70.49    4.80
   8  -5   4   73.29    4.90
  -8  -5  -4   64.79    6.90
   8  -5   4   83.49    6.50
   8   5   4   74.09    6.10
  -8   5  -4   67.89    6.10
  -8   5  -4   73.29    6.90
  -8   5  -4   54.89    5.10
  -8   5  -4   74.99    5.70
   8  -6  -4   21.90    5.20
  -8  -6   4   14.80    4.20
   8   6  -4   20.50    5.40
  -8   6   4   23.70    7.20
  -7   6   4   72.89    7.70
   7   6  -4   81.89    5.90
  -6  -6   4   58.79    6.50
   6  -6  -4   63.09    5.40
  -6   6   4   63.29    6.90
   6   6  -4   66.69    5.20
   5  -6  -4   66.49    5.10
  -5  -6   4   63.49    5.90
  -5   6   4   60.99    6.40
   5   6  -4   65.89    4.80
  -4  -6   4   25.50    5.10
   4  -6  -4   23.70    4.00
  -4   6   4   31.80    5.20
   4   6  -4   30.90    3.90
   3  -6  -4  339.37    9.30
   3  -6  -4  349.17   10.30
  -3  -6   4  357.46   11.80
  -3   6   4  337.97   11.40
   3   6  -4  346.57   10.60
   2  -6  -4   35.30    3.50
  -2  -6   4   28.90    5.20
   2  -6  -4   28.70    3.60
  -2   6   4   35.30    4.20
   2   6  -4   29.30    3.60
  -1  -6   4   -3.80    2.20
   1  -6  -4    2.00    1.70
   1  -6  -4    0.70    1.70
   1   6  -4   10.30    3.00
  -1   6   4    3.80    1.70
   0  -6  -4   11.80    2.90
   0  -6  -4    9.80    2.10
   0  -6   4    4.00    2.40
   0   6  -4    9.10    3.00
   0   6   4   14.30    2.90
  -1  -6  -4   93.39    4.40
  -1  -6  -4   90.39    4.90
   1  -6   4   91.29    5.70
   1  -6   4   90.89    4.80
   1   6   4   94.79    4.40
  -1   6  -4   88.99    4.80
   2  -6   4   39.90    4.40
  -2  -6  -4   49.40    4.40
   2  -6   4   43.10    4.00
  -2  -6  -4   39.40    3.40
  -2   6  -4   47.50    3.70
  -2   6  -4   43.30    4.10
   2   6   4   47.40    3.60
  -3  -6  -4  154.48    5.50
   3  -6   4  147.49    6.40
  -3  -6  -4  162.78    6.80
   3  -6   4  157.68    6.60
  -3   6  -4  147.69    6.30
   3   6   4  149.79    6.00
  -3   6  -4  161.48    6.50
   4  -6   4    6.50    2.10
  -4  -6  -4   18.30    4.50
   4  -6   4    6.60    2.20
  -4  -6  -4   12.30    3.30
  -4   6  -4   17.30    3.80
  -4   6  -4    8.50    2.40
  -4   6  -4    8.00    1.90
   4   6   4    6.20    2.00
   4   6   4    9.60    2.60
  -5  -6  -4  154.08    7.30
   5  -6   4  146.79    6.20
   5  -6   4  142.89    6.40
  -5   6  -4  139.79    6.70
  -5   6  -4  145.29    6.70
  -5   6  -4  147.29    5.40
   5   6   4  143.19    6.40
  -5   6  -4  137.69    6.90
   6  -6   4   66.29    5.00
   6  -6   4   67.19    4.50
  -6  -6  -4   64.79    6.00
  -6   6  -4   76.39    5.60
  -6   6  -4   72.09    5.70
  -6   6  -4   73.79    6.00
   6   6   4   69.59    5.40
  -6   6  -4   67.99    4.40
  -7  -6  -4   21.00    6.20
   7  -6   4   14.00    2.80
  -7   6  -4   18.60    4.00
   7   6   4   26.90    5.10
  -7   6  -4   25.60    5.10
  -7   6  -4   16.10    3.30
  -7   6  -4   28.80    6.00
   7  -7  -4    1.20    2.70
  -7  -7   4   -3.80    3.70
  -7   7   4    0.70    3.60
   7   7  -4    4.80    2.90
  -6  -7   4    5.70    3.60
   6  -7  -4    4.80    3.00
   6   7  -4    0.60    2.40
  -6   7   4    0.10    3.40
   5  -7  -4  102.09    6.90
  -5  -7   4  116.19    8.60
   5   7  -4   87.99    6.10
  -5   7   4  104.09    8.10
   4  -7  -4   22.90    4.40
  -4  -7   4    9.20    3.50
   4   7  -4   16.20    4.20
  -4   7   4   17.60    5.50
  -3  -7   4   67.39    6.40
   3  -7  -4   69.49    5.10
  -3   7   4   70.59    5.80
   3   7  -4   61.99    5.10
   2  -7  -4   -1.00    2.50
  -2  -7   4   -0.60    2.90
   2  -7  -4    1.40    2.10
  -2   7   4   -0.30    2.10
   2   7  -4    2.80    2.10
   1  -7  -4  359.76   11.10
   1  -7  -4  356.96   10.70
  -1  -7   4  358.86   12.50
   1   7  -4  346.37   10.90
  -1   7   4  364.66   10.80
   0  -7   4   53.59    5.60
   0  -7  -4   54.99    4.80
   0  -7  -4   54.39    4.40
   0   7  -4   62.79    4.70
   0   7   4   51.99    4.10
   1  -7   4   59.39    4.70
  -1  -7  -4   57.39    5.00
   1  -7   4   50.69    5.50
  -1  -7  -4   62.79    4.40
  -1   7  -4   57.49    4.70
   1   7   4   64.89    4.10
   2  -7   4    3.20    2.30
   2  -7   4    0.50    2.30
  -2  -7  -4   -0.70    2.30
  -2  -7  -4    3.30    2.00
   2   7   4    2.70    1.90
  -2   7  -4    3.60    2.30
  -3  -7  -4  117.29    6.60
   3  -7   4  116.39    6.20
  -3  -7  -4  102.79    5.30
   3  -7   4  106.99    6.00
   3   7   4  106.29    5.30
  -3   7  -4  118.49    8.20
   3   7   4  107.69    4.70
  -3   7  -4  111.49    6.20
   4  -7   4   20.20    4.50
   4  -7   4   28.20    4.30
  -4  -7  -4   34.80    5.50
  -4  -7  -4   23.40    3.80
   4   7   4   22.20    2.90
  -4   7  -4   26.30    4.80
   4   7   4   18.60    4.00
  -4   7  -4   21.20    3.10
  -4   7  -4   27.90    5.00
  -5  -7  -4   34.20    6.10
   5  -7   4   32.60    4.60
   5  -7   4   33.80    4.50
  -5   7  -4   22.70    5.10
  -5   7  -4   35.60    5.40
   5   7   4   32.90    4.50
  -5   7  -4   20.60    5.60
  -5   7  -4   25.00    3.60
  -6  -7  -4    3.80    3.40
   6  -7   4    0.70    2.00
   6  -7   4    0.40    2.60
  -6   7  -4    1.80    3.20
   6   7   4    3.80    2.70
  -6   7  -4    3.80    3.00
  -6   7  -4    1.50    3.40
  -6   7  -4    6.80    3.00
   5  -8  -4    5.70    2.80
  -5  -8   4   -5.00    3.70
  -5   8   4    3.90    3.70
   5   8  -4    8.20    3.40
  -4  -8   4   -0.20    3.40
   4  -8  -4    0.10    2.70
   4   8  -4   -0.70    2.50
  -4   8   4    2.50    3.20
  -3  -8   4  109.09   11.60
  -3   8   4  120.89    7.20
   3   8  -4  123.19    7.10
   2  -8  -4    8.40    2.70
  -2  -8   4    5.00    3.50
  -2   8   4    9.90    2.60
   1  -8  -4   13.00    4.30
  -1  -8   4    8.30    3.30
   1  -8  -4    5.50    2.90
  -1   8   4   14.80    3.60
   1   8  -4   10.30    2.70
   0  -8  -4    3.50    2.80
   0  -8   4   -2.90    2.60
   0  -8  -4    0.40    2.40
   0   8  -4    1.90    2.40
   0   8   4   -2.70    1.70
  -1  -8  -4  177.18    8.20
   1  -8   4  148.89    8.40
   1  -8   4  155.78    7.70
  -1  -8  -4  176.68    7.20
   1   8   4  172.78    6.60
  -1   8  -4  174.28    7.90
   2  -8   4    7.90    3.50
   2  -8   4   16.50    5.10
  -2  -8  -4   12.50    4.20
  -2  -8  -4   15.10    5.10
   2   8   4    6.60    2.30
  -2   8  -4    8.50    3.70
   3  -8   4    4.50    2.80
  -3  -8  -4   16.90    4.20
  -3  -8  -4   10.40    3.30
   3  -8   4    7.80    2.90
   3   8   4    7.40    2.60
   3   8   4    8.00    2.10
  -3   8  -4   15.70    5.30
   4  -8   4    1.20    2.90
   4  -8   4    3.10    2.50
  -4  -8  -4    0.80    3.10
  -4   8  -4   -2.20    2.90
   2  -9  -4   -0.90    2.90
   2   9  -4    2.20    2.90
   1  -9  -4  104.89    7.00
  -1  -9   4   83.19    7.90
   1   9  -4  103.49    6.60
   0  -9  -4    2.20    3.00
   0  -9   4   -3.50    3.20
   0  -9  -4    1.50    3.30
   0   9  -4   -2.70    2.70
  -1  -9  -4   22.30    5.10
  -1  -9  -4   31.40    6.30
  -1   9  -4   27.60    5.30
   2  -9   4    1.30    3.20
   2  -9   4   -1.30    3.00
  -2  -9  -4    0.30    2.80
  -2  -9  -4    5.50    4.20
   2   9   4    0.40    2.20
  -2   9  -4    1.10    3.20
 -10   0   5    0.80    2.80
  10   0  -5   14.10    4.80
   9   0  -5   52.89    4.90
  -9   0   5   50.19    5.60
  -8   0   5   -3.30    2.00
   8   0  -5    0.10    2.20
  -8   0   5    0.90    2.00
  -7   0   5    7.40    2.30
   7   0  -5   13.30    3.40
  -7   0   5    8.10    1.90
  -6   0   5   -1.60    1.40
   6   0  -5   -1.30    1.60
  -6   0   5    1.20    1.80
  -5   0   5  628.54   14.90
   5   0  -5  577.24   15.70
  -5   0   5  607.84   16.20
  -4   0   5   -0.10    1.50
  -4   0   5    0.00    1.00
  -3   0   5   16.70    2.90
   3   0  -5   20.40    2.80
  -3   0   5   20.80    2.10
  -2   0   5    0.30    1.00
  -2   0   5    0.20    1.10
   2   0  -5    0.30    1.30
  -1   0   5  574.54   13.30
  -1   0   5  511.35   13.80
   1   0  -5  543.15   13.80
   0   0   5    1.00    1.10
   0   0  -5    1.20    1.00
   0   0   5   -0.30    0.90
   0   0  -5    0.10    1.10
   1   0   5 1328.07   30.30
  -1   0  -5 1282.37   30.30
  -1   0  -5 1320.97   30.30
   1   0   5 1325.67   30.40
  -2   0  -5   -0.70    1.00
  -2   0  -5    0.40    1.10
   2   0   5    0.00    1.00
   2   0   5   -0.50    0.90
   2   0   5   -0.70    1.00
  -3   0  -5  979.20   23.10
   3   0   5  964.10   23.10
  -3   0  -5  962.20   21.90
  -3   0  -5  928.11   22.30
   3   0   5  992.50   21.90
   4   0   5    0.00    1.30
  -4   0  -5   -0.50    1.10
  -4   0  -5   -0.10    1.40
  -4   0  -5    0.60    1.30
  -4   0  -5    0.50    0.90
  -5   0  -5  153.48    5.20
  -5   0  -5  156.48    5.90
   5   0   5  149.69    6.00
  -6   0  -5   -1.00    1.80
  -6   0  -5   -1.80    1.60
   6   0   5   -1.10    1.60
   7   0   5  261.37    9.30
  -7   0  -5  259.27    9.00
  -7   0  -5  257.57    8.10
  -8   0  -5   -1.10    2.50
  -8   0  -5   -0.70    2.10
   8   0   5    2.40    2.40
   9   0   5  162.68    8.40
  -9   0  -5  164.48    7.00
  -9   0  -5  150.68    9.00
  10  -1  -5    0.60    2.60
 -10   1   5   -0.10    3.00
   9  -1  -5    3.40    2.30
  -9  -1   5    1.30    2.60
  -9  -1   5    4.90    2.50
  -9   1   5    0.10    2.70
   9   1  -5    2.80    2.50
   8  -1  -5    3.30    2.10
  -8  -1   5    1.30    2.20
  -8  -1   5    3.50    2.10
   8   1  -5    4.30    2.20
  -8   1   5    1.40    2.30
  -7  -1   5  335.07   10.60
   7  -1  -5  322.97   10.20
  -7   1   5  340.37   11.20
   7   1  -5  326.17   10.50
  -7   1   5  338.07    8.80
  -6  -1   5  144.59    5.50
   6  -1  -5  134.69    4.10
   6  -1  -5  135.39    5.80
  -6  -1   5  138.79    5.90
  -6   1   5  158.88    4.50
   6   1  -5  134.69    6.10
  -6   1   5  128.59    6.40
   5  -1  -5  130.69    3.90
   5  -1  -5  140.39    5.40
  -5  -1   5  138.79    5.20
   5   1  -5  133.99    5.80
  -5   1   5  136.99    4.20
  -5   1   5  140.29    6.10
   4  -1  -5   19.50    2.50
  -4  -1   5   20.70    3.00
  -4  -1   5   21.80    2.80
   4  -1  -5   19.20    1.70
  -4   1   5   16.20    1.70
  -4   1   5   24.10    3.10
   4   1  -5   12.10    3.60
   3  -1  -5 1016.60   23.20
  -3  -1   5 1047.30   24.20
  -3  -1   5 1007.20   24.50
   3  -1  -5  984.00   24.20
   3   1  -5 1039.50   24.80
  -3   1   5 1006.70   25.20
  -3   1   5 1021.20   23.10
   2  -1  -5   10.30    1.40
   2  -1  -5   10.20    1.60
  -2  -1   5    6.00    2.20
  -2  -1   5   13.50    2.30
   2  -1  -5    8.80    2.20
   2   1  -5    6.20    1.60
  -2   1   5    7.30    2.60
  -2   1   5    8.70    1.50
  -1  -1   5   11.00    2.00
  -1  -1   5    7.00    2.00
   1  -1  -5    8.40    1.50
   1  -1  -5    9.20    2.10
  -1   1   5    8.10    1.60
   1   1  -5   12.20    2.40
  -1   1   5   11.30    2.40
   0  -1   5   16.30    2.00
   0  -1   5   15.90    2.20
   0  -1  -5   15.70    2.10
   0  -1  -5   15.40    1.80
   0   1  -5   12.00    2.30
   0   1   5   14.40    2.20
  -1  -1  -5 1135.89   25.90
   1  -1   5 1132.79   26.20
  -1  -1  -5 1130.79   25.60
   1  -1   5 1090.79   25.90
  -1   1  -5 1117.89   26.10
   1   1   5 1082.69   26.20
  -1   1  -5 1131.59   26.20
   2  -1   5   48.10    2.80
  -2  -1  -5   52.69    2.40
  -2  -1  -5   49.30    2.90
   2  -1   5   48.20    3.10
   2   1   5   48.80    3.00
  -2   1  -5   52.69    2.90
  -2   1  -5   46.50    3.00
   2   1   5   51.09    2.60
  -3  -1  -5  454.65   10.40
   3  -1   5  440.56   11.60
  -3  -1  -5  440.26   11.60
   3   1   5  432.66   11.70
   3   1   5  432.56   10.40
  -3   1  -5  433.06   11.60
  -3   1  -5  459.55   11.10
  -4  -1  -5    6.10    1.70
   4  -1   5    8.40    2.50
  -4  -1  -5    6.40    1.50
  -4   1  -5   11.30    2.80
   4   1   5    6.70    1.60
  -4   1  -5   10.20    2.20
   5  -1   5  561.94   15.20
  -5  -1  -5  586.64   14.20
  -5  -1  -5  566.34   15.00
  -5   1  -5  595.54   14.40
  -5   1  -5  567.84   15.00
  -5   1  -5  568.24   13.90
   5   1   5  571.24   15.30
  -6  -1  -5   20.60    3.80
   6  -1   5   18.90    3.90
  -6  -1  -5   24.20    3.00
   6   1   5   20.60    3.70
  -6   1  -5   26.00    3.80
  -6   1  -5   20.50    3.00
   7  -1   5  133.19    6.60
  -7  -1  -5  128.19    6.50
  -7  -1  -5  129.09    5.50
   7   1   5  125.09    6.60
  -7   1  -5  123.29    6.30
  -7   1  -5  130.59    5.50
  -8  -1  -5    0.30    2.50
   8  -1   5    3.30    2.50
  -8  -1  -5    2.00    2.60
  -8   1  -5    5.70    2.50
  -8   1  -5    2.40    2.40
   8   1   5    4.60    2.60
  -9  -1  -5   40.80    4.60
  -9  -1  -5   36.00    6.20
   9  -1   5   41.90    6.10
  -9   1  -5   35.60    5.00
   9   1   5   40.70    6.10
  -9   1  -5   31.10    5.70
  -9   1  -5   30.90    8.80
 -10  -2   5    2.00    3.20
  10   2  -5    2.60    2.70
 -10   2   5    3.70    3.20
   9  -2  -5   86.59    6.00
  -9  -2   5   74.29    5.80
  -9  -2   5   93.49    6.40
   9   2  -5   74.89    5.70
  -9   2   5   93.69    8.70
  -8  -2   5   26.60    4.60
  -8  -2   5   23.60    4.10
   8  -2  -5   31.60    4.30
   8   2  -5   22.50    4.40
  -8   2   5   30.50    4.90
   7  -2  -5   23.10    3.90
  -7  -2   5   21.60    3.50
  -7  -2   5   21.90    4.10
   7   2  -5   16.30    4.00
  -7   2   5   12.90    2.90
  -6  -2   5   11.60    3.60
   6  -2  -5   10.90    3.10
  -6  -2   5    6.80    1.80
   6   2  -5    8.70    2.40
  -6   2   5   11.60    3.70
  -5  -2   5  419.76   11.50
  -5  -2   5  379.36   12.90
   5  -2  -5  408.46   11.30
   5   2  -5  414.36   11.90
  -5   2   5  410.26   12.50
  -4  -2   5  211.08    7.10
  -4  -2   5  212.18    6.80
   4   2  -5  198.58    7.30
  -3  -2   5  233.68    7.10
   3  -2  -5  228.78    5.50
  -3  -2   5  247.78    7.50
   3  -2  -5  231.88    5.70
   3   2  -5  209.08    9.60
  -3   2   5  209.08    9.00
   2  -2  -5   24.60    1.50
   2  -2  -5   26.60    2.50
  -2  -2   5   19.90    2.30
  -2  -2   5   25.00    2.90
   2  -2  -5   24.20    1.50
   2   2  -5   27.10    2.90
  -2   2   5   22.20    3.20
  -1  -2   5 1117.39   25.40
   1  -2  -5 1092.89   25.50
   1  -2  -5 1054.99   25.00
  -1  -2   5 1047.70   26.10
  -1   2   5 1102.89   26.50
   1   2  -5 1183.08   26.30
   1   2  -5 1091.99   26.00
   0  -2   5  204.98    6.60
   0  -2   5  206.68    5.80
   0  -2  -5  202.38    5.80
   0  -2  -5  208.08    5.90
   0   2  -5  211.58    6.50
   0   2   5  209.88    6.70
   1  -2   5  280.77    8.30
  -1  -2  -5  280.37    7.80
   1  -2   5  288.07    7.70
  -1  -2  -5  291.37    7.40
   1   2   5  285.57    8.30
  -1   2  -5  285.37    7.90
  -2  -2  -5   61.49    3.40
  -2  -2  -5   61.59    2.40
   2  -2   5   59.49    3.10
   2  -2   5   57.99    4.00
   2   2   5   54.59    2.80
  -2   2  -5   63.29    3.20
   3  -2   5  286.37    8.40
  -3  -2  -5  299.77    8.50
  -3  -2  -5  289.37    8.10
  -3  -2  -5  297.07    7.00
   3  -2   5  268.07   10.40
   3   2   5  279.27    7.40
  -3   2  -5  297.57    8.60
  -3   2  -5  312.97    8.10
   3   2   5  298.27    8.60
  -4  -2  -5   90.39    3.50
   4  -2   5   81.19    4.30
   4  -2   5   85.69    4.10
  -4  -2  -5   88.49    4.40
   4   2   5   80.69    4.30
  -4   2  -5   89.79    3.80
  -4   2  -5   89.09    4.40
  -5  -2  -5  469.75   11.90
  -5  -2  -5  473.75   12.90
   5  -2   5  464.15   13.00
  -5   2  -5  465.45   12.70
   5   2   5  466.35   13.00
  -5   2  -5  475.85   11.80
  -5   2  -5  453.15   12.00
  -6  -2  -5    2.80    1.90
   6  -2   5    1.20    1.80
  -6  -2  -5    2.00    2.10
  -6   2  -5    0.30    1.60
  -6   2  -5    1.60    1.90
  -6   2  -5    5.00    2.20
   6   2   5    2.90    2.00
   7  -2   5  207.98    8.50
  -7  -2  -5  213.58    7.20
  -7  -2  -5  210.48    8.40
  -7   2  -5  226.18    8.30
   7   2   5  223.08    8.50
  -7   2  -5  214.18    7.30
  -7   2  -5  228.68    8.20
  -8  -2  -5   39.10    5.60
   8  -2   5   38.10    6.50
  -8  -2  -5   37.70    4.90
  -8   2  -5   42.60    5.50
   8   2   5   43.10    5.30
  -8   2  -5   45.90    4.80
  -9  -2  -5  105.49    5.90
   9  -2   5  108.59    7.50
  -9  -2  -5  101.89    7.40
   9   2   5  100.59    7.00
  -9   2  -5   95.99    5.90
  -9   2  -5   93.89    7.20
  -9   2  -5  101.79    8.00
 -10  -3   5    8.80    3.00
 -10  -3   5   19.80    6.40
 -10   3   5   13.00    4.00
  -9  -3   5   20.60    4.20
  -9  -3   5   25.20    6.10
   9  -3  -5   17.10    4.90
  -9   3   5   13.10    3.50
   9   3  -5   13.60    3.20
   8  -3  -5    4.70    2.40
  -8  -3   5    4.50    2.80
  -8  -3   5    5.30    1.90
  -8   3   5    0.10    2.60
   8   3  -5    7.60    2.60
  -7  -3   5  299.17    9.40
   7  -3  -5  302.17    9.80
  -7  -3   5  303.77   10.10
   7   3  -5  310.77   10.20
  -7   3   5  288.57   11.10
   6  -3  -5  142.79    6.00
  -6  -3   5  143.39    6.60
  -6   3   5  137.69    7.20
   6   3  -5  152.78    6.60
  -5  -3   5   41.30    3.30
   5  -3  -5   39.60    3.50
  -5  -3   5   39.30    4.10
   5   3  -5   44.50    4.00
  -5   3   5   40.00    4.50
  -4  -3   5    9.50    2.60
  -4  -3   5   10.70    3.20
   4  -3  -5    9.00    2.50
  -4   3   5    5.60    2.00
   4   3  -5    9.10    3.10
  -3  -3   5  661.23   16.20
   3  -3  -5  657.93   16.60
  -3  -3   5  695.23   17.50
  -3   3   5  668.93   18.20
   3   3  -5  660.43   16.10
   3   3  -5  691.93   17.30
   2  -3  -5  111.79    4.60
   2  -3  -5  122.39    3.60
  -2  -3   5  119.19    5.40
  -2  -3   5  126.29    4.00
   2  -3  -5  123.99    3.60
   2   3  -5  123.99    5.00
   2   3  -5  131.39    4.30
  -2   3   5  126.99    3.70
  -1  -3   5  257.47    9.50
  -1  -3   5  276.17    7.00
   1  -3  -5  278.47    7.10
   1  -3  -5  265.47    7.50
   1   3  -5  258.27    8.80
   1   3  -5  282.77    7.20
  -1   3   5  268.67    9.50
   0  -3  -5   57.59    2.90
   0  -3   5   58.19    3.90
   0  -3   5   60.79    2.60
   0  -3  -5   59.89    2.90
   0   3   5   61.79    3.90
   0   3  -5   60.09    2.70
   0   3  -5   52.39    5.10
   1  -3   5  705.73   17.70
   1  -3   5  715.23   16.50
  -1  -3  -5  697.73   16.80
  -1  -3  -5  690.63   16.40
  -1   3  -5  665.53   17.90
  -2  -3  -5  272.87    8.00
  -2  -3  -5  279.87    7.10
   2  -3   5  269.37    8.30
   2  -3   5  281.27    7.70
   2   3   5  266.27    8.10
  -2   3  -5  263.97    8.60
  -3  -3  -5  130.39    5.80
   3  -3   5  140.09    5.40
  -3  -3  -5  139.99    5.40
  -3  -3  -5  142.99    4.00
   3   3   5  134.69    4.30
  -3   3  -5  133.79    5.60
   3   3   5  138.69    5.40
   4  -3   5    0.40    1.30
   4  -3   5    0.20    1.40
  -4  -3  -5    2.50    1.70
  -4  -3  -5    1.80    1.30
  -4   3  -5    1.10    1.70
  -4   3  -5    1.60    1.80
   4   3   5    2.60    1.60
   5  -3   5  146.19    5.80
  -5  -3  -5  149.29    6.30
   5  -3   5  153.68    6.20
  -5  -3  -5  146.19    5.10
   5   3   5  147.59    6.10
  -5   3  -5  157.98    5.40
  -5   3  -5  155.58    5.50
  -5   3  -5  145.19    6.10
   6  -3   5  135.59    6.30
  -6  -3  -5  138.59    5.10
  -6  -3  -5  134.29    6.40
  -6   3  -5  137.39    5.40
  -6   3  -5  135.09    6.30
  -6   3  -5  139.09    5.30
   6   3   5  143.49    6.40
   7  -3   5  139.99    7.20
  -7  -3  -5  136.89    5.80
  -7  -3  -5  139.99    7.00
  -7   3  -5  149.69    7.30
  -7   3  -5  142.69    5.80
   7   3   5  136.39    7.00
  -7   3  -5  144.59    6.90
  -7   3  -5  142.89    5.60
   8  -3   5   -1.50    4.30
  -8  -3  -5   -2.90    2.70
  -8   3  -5    1.10    2.60
  -8   3  -5    1.80    4.40
  -9  -4   5   70.29    7.30
  -9  -4   5   73.99    5.20
  -9   4   5   72.09    7.70
   9   4  -5   61.79    5.80
  -8  -4   5    3.10    3.10
   8  -4  -5    8.90    2.70
  -8  -4   5   11.50    3.50
  -8   4   5    7.30    3.20
   7  -4  -5   23.30    4.30
  -7  -4   5   15.50    5.30
  -7  -4   5   10.40    2.10
  -7   4   5   10.50    3.10
   7   4  -5   14.20    4.50
   6  -4  -5    1.00    2.00
  -6  -4   5    1.40    1.70
  -6  -4   5    0.30    2.50
   6   4  -5    2.20    2.20
  -6   4   5   -1.50    2.20
  -5  -4   5  146.09    6.80
   5  -4  -5  147.69    6.10
  -5  -4   5  139.39    5.30
   5   4  -5  144.69    6.50
  -5   4   5  146.39    7.30
   4  -4  -5  206.58    6.90
  -4  -4   5  211.68    7.80
  -4  -4   5  189.48    5.60
  -4  -4   5  211.38    6.10
  -4   4   5  193.68    8.40
   4   4  -5  201.38    7.40
  -3  -4   5  118.89    5.90
   3  -4  -5  108.19    4.70
  -3   4   5  107.89    6.00
   3   4  -5  116.89    5.20
   2  -4  -5   62.59    2.40
   2  -4  -5   66.89    2.70
   2  -4  -5   62.99    3.60
  -2  -4   5   54.09    4.50
   2   4  -5   61.29    3.80
  -2   4   5   63.29    2.70
  -2   4   5   64.29    4.70
   1  -4  -5  307.87    8.00
   1  -4  -5  298.47    8.40
  -1  -4   5  301.67    9.60
   1   4  -5  296.77    8.90
  -1   4   5  291.17    9.30
   0  -4   5  168.18    6.70
   0  -4   5  170.48    4.70
   0  -4  -5  169.88    5.60
   0  -4  -5  174.38    5.50
   0   4   5  169.58    6.10
   0   4  -5  156.98    5.90
   0   4  -5  177.38    4.90
  -1  -4  -5  212.18    7.40
   1  -4   5  215.28    7.60
   1  -4   5  221.58    6.10
  -1  -4  -5  207.78    6.20
   1   4   5  215.68    7.00
  -1   4  -5  211.38    6.80
  -2  -4  -5    9.20    1.70
   2  -4   5   10.10    2.30
  -2  -4  -5   13.80    3.00
  -2  -4  -5   11.70    2.10
   2  -4   5   16.80    3.10
  -2   4  -5   11.10    2.60
   2   4   5   18.00    2.90
   3  -4   5  285.47    9.00
  -3  -4  -5  309.77    7.60
  -3  -4  -5  289.17    9.00
   3   4   5  285.77    8.80
  -3   4  -5  291.07    8.60
  -4  -4  -5  313.37    9.70
   4  -4   5  311.87    9.30
   4  -4   5  308.17    9.30
  -4  -4  -5  314.67    8.20
   4   4   5  296.07    9.40
  -4   4  -5  308.37    9.70
  -4   4  -5  303.87    9.00
  -5  -4  -5  216.48    8.10
   5  -4   5  224.48    8.00
   5  -4   5  218.58    7.60
  -5  -4  -5  228.28    6.70
   5  -4   5  222.18    7.20
  -5   4  -5  217.68    8.00
  -5   4  -5  221.98    7.00
   5   4   5  214.08    7.80
  -5   4  -5  218.68    7.20
  -5   4  -5  231.68    8.10
  -6  -4  -5   17.00    4.30
  -6  -4  -5   13.70    3.00
   6  -4   5   10.80    3.40
   6  -4   5   14.10    4.00
   6  -4   5    9.10    3.10
  -6   4  -5    7.80    2.10
  -6   4  -5   16.60    3.40
   6   4   5    8.40    2.40
  -6   4  -5    9.50    2.60
  -6   4  -5    7.00    2.50
   7  -4   5   15.40    3.00
  -7  -4  -5   21.60    3.70
  -7   4  -5   21.00    3.80
   7   4   5   28.60    5.20
  -7   4  -5   26.60    3.80
  -7   4  -5   16.60    3.00
  -7   4  -5   23.60    5.00
  -8  -4  -5   70.69    4.90
   8  -4   5   63.39    6.20
  -8  -4  -5   70.19    6.90
   8   4   5   64.29    6.30
  -8   4  -5   67.69    6.10
  -8   4  -5   70.19    5.10
  -8   4  -5   70.59    6.30
  -8  -5   5   23.00    6.10
   8  -5  -5   19.90    6.10
   8   5  -5   29.90    5.50
  -8   5   5   26.50    6.80
   7  -5  -5   68.89    5.30
  -7  -5   5   64.59    6.50
   7   5  -5   77.09    5.90
  -7   5   5   62.39    7.00
  -6  -5   5   64.69    6.10
   6  -5  -5   62.39    5.10
  -6   5   5   61.59    6.00
   6   5  -5   66.99    5.40
   5  -5  -5    1.60    2.00
  -5  -5   5   -0.20    2.50
   5   5  -5    6.00    2.30
  -5   5   5    2.40    2.60
  -4  -5   5   42.10    5.10
   4  -5  -5   34.90    3.90
   4   5  -5   41.90    4.10
  -4   5   5   42.40    5.00
  -3  -5   5  185.08    7.90
   3  -5  -5  185.18    6.70
   3  -5  -5  184.88    5.30
  -3   5   5  173.38    7.80
   3   5  -5  186.38    7.00
  -2  -5   5  168.48    7.30
   2  -5  -5  162.18    6.00
   2  -5  -5  168.48    5.40
  -2   5   5  167.28    7.00
   2   5  -5  166.68    6.40
   1  -5  -5  139.89    5.00
   1  -5  -5  135.59    5.20
  -1  -5   5  136.29    6.70
  -1   5   5  132.69    5.90
   1   5  -5  138.29    5.70
   0  -5  -5   24.60    1.50
   0  -5  -5   24.00    2.90
   0  -5   5   13.20    3.90
   0   5  -5   27.00    3.30
   0   5   5   25.40    3.20
  -1  -5  -5  214.68    5.40
  -1  -5  -5  209.48    6.40
  -1  -5  -5  211.78    7.00
   1  -5   5  212.58    5.90
   1  -5   5  206.88    7.90
   1   5   5  201.18    7.00
  -1   5  -5  197.78    7.00
  -1   5  -5  213.98    6.10
  -2  -5  -5  319.87    9.60
  -2  -5  -5  323.57    8.80
   2  -5   5  326.17   10.30
   2  -5   5  320.87    8.80
  -2  -5  -5  321.67    8.00
  -2   5  -5  324.27    8.90
   2   5   5  310.37    9.50
  -2   5  -5  314.07    9.50
  -3  -5  -5   30.70    2.90
  -3  -5  -5   27.30    2.80
  -3  -5  -5   26.60    4.00
   3  -5   5   26.30    3.50
   3  -5   5   27.60    5.60
   3  -5   5   31.40    3.80
  -3   5  -5   32.00    3.50
  -3   5  -5   28.10    4.90
   3   5   5   31.20    3.60
  -4  -5  -5   32.50    4.50
   4  -5   5   37.50    3.70
  -4  -5  -5   36.70    2.90
  -4  -5  -5   30.90    2.60
   4  -5   5   37.50    3.80
   4  -5   5   30.90    3.30
  -4   5  -5   38.70    3.80
   4   5   5   33.00    4.10
  -4   5  -5   28.50    3.80
   5  -5   5   40.40    4.30
   5  -5   5   45.60    4.20
   5  -5   5   45.90    4.30
  -5  -5  -5   44.60    3.10
  -5  -5  -5   37.50    5.20
   5   5   5   43.50    4.50
  -5   5  -5   48.80    4.60
  -5   5  -5   43.30    4.80
  -5   5  -5   36.90    4.20
  -5   5  -5   39.70    3.70
   6  -5   5   91.99    5.10
   6  -5   5   84.79    5.00
   6  -5   5   83.49    5.70
  -6  -5  -5   90.19    4.40
  -6  -5  -5   92.39    6.60
   6   5   5   87.19    5.60
  -6   5  -5   90.59    5.90
  -6   5  -5   76.09    5.20
  -6   5  -5   80.59    5.90
  -6   5  -5   86.99    4.90
   7  -5   5   50.59    4.60
  -7  -5  -5   65.19    4.30
  -7  -5  -5   48.30    6.10
   7  -5   5   51.69    5.50
  -7   5  -5   57.59    4.80
  -7   5  -5   40.50    4.80
   7   5   5   47.00    5.70
  -7   5  -5   54.89    5.80
  -7   5  -5   37.70    5.80
  -8  -6   5   53.49    8.00
   8  -6  -5   38.20    6.30
  -8   6   5   58.99    8.00
   8   6  -5   51.19    6.30
  -7  -6   5   -1.60    3.40
   7  -6  -5   -1.10    2.80
   7   6  -5   17.70    5.10
  -7   6   5    3.10    4.60
  -6  -6   5   41.20    6.60
   6  -6  -5   40.60    5.20
  -6   6   5   24.90    6.60
   6   6  -5   45.90    5.30
  -5  -6   5    6.80    3.30
   5  -6  -5    7.70    2.60
   5   6  -5    7.60    2.50
  -5   6   5    3.70    3.00
   4  -6  -5   47.30    4.70
  -4  -6   5   51.39    6.00
  -4   6   5   50.09    6.10
   4   6  -5   45.00    4.70
  -3  -6   5    9.80    3.00
   3  -6  -5   11.80    3.70
  -3   6   5   13.00    4.60
   3   6  -5   13.20    3.80
   2  -6  -5    0.80    1.50
  -2  -6   5   -3.10    2.40
   2  -6  -5    3.40    1.90
  -2   6   5    0.40    2.10
   2   6  -5   -0.50    1.90
   1  -6  -5   49.20    3.90
  -1  -6   5   37.80    5.10
   1  -6  -5   40.70    4.60
   1   6  -5   40.60    4.20
  -1   6   5   44.40    4.30
   0  -6   5  319.87   11.30
   0  -6  -5  334.57    9.80
   0  -6  -5  324.17    9.60
   0   6   5  316.57    9.90
   0   6  -5  331.47   10.10
  -1  -6  -5   31.20    4.10
  -1  -6  -5   40.10    1.80
  -1  -6  -5   31.30    3.40
   1  -6   5   38.50    4.90
  -1   6  -5   31.20    3.80
  -2  -6  -5   47.30    4.50
   2  -6   5   62.09    5.10
  -2  -6  -5   50.79    2.50
  -2  -6  -5   54.29    3.70
  -2   6  -5   50.69    3.90
   2   6   5   48.40    4.20
  -2   6  -5   54.99    4.30
  -3  -6  -5   83.89    3.50
   3  -6   5   81.89    5.00
  -3  -6  -5   79.69    5.60
   3  -6   5   83.89    5.30
  -3  -6  -5   90.69    4.30
  -3   6  -5   75.49    6.00
   3   6   5   83.59    4.90
  -3   6  -5   82.59    5.10
  -4  -6  -5  150.88    7.30
   4  -6   5  153.48    6.70
  -4  -6  -5  144.09    4.90
  -4  -6  -5  146.89    5.50
   4  -6   5  147.99    6.50
   4  -6   5  146.19    6.10
   4   6   5  142.59    6.40
  -4   6  -5  151.38    6.90
  -4   6  -5  145.99    6.30
  -5  -6  -5   33.10    3.20
  -5  -6  -5   34.70    5.60
   5  -6   5   33.20    4.50
   5  -6   5   45.70    4.40
   5  -6   5   43.20    4.50
  -5   6  -5   38.60    4.70
  -5   6  -5   33.90    5.50
   5   6   5   35.20    4.70
  -5   6  -5   29.40    4.60
  -5   6  -5   35.00    3.80
  -6  -6  -5    5.50    3.20
   6  -6   5    5.20    2.30
   6  -6   5    6.20    2.50
   6  -6   5   11.60    3.80
  -6   6  -5    3.50    2.90
   6   6   5    4.40    2.60
  -6   6  -5    0.70    2.70
  -6   6  -5    3.10    2.80
  -6   6  -5    5.00    2.50
   6  -7  -5   59.19    6.40
  -6  -7   5   58.69    7.70
   6   7  -5   63.59    6.00
  -6   7   5   60.89    9.30
  -5  -7   5    0.50    3.40
   5  -7  -5   -0.10    2.60
  -5   7   5    1.90    3.40
   5   7  -5   -0.20    2.50
   4  -7  -5   37.50    4.90
  -4  -7   5   28.80    6.50
  -4   7   5   23.20    6.20
   4   7  -5   30.30    4.80
  -3  -7   5   21.00    6.00
   3  -7  -5   19.10    4.80
  -3   7   5   31.40    5.40
   3   7  -5   23.30    4.60
   2  -7  -5  217.88    9.20
   2  -7  -5  236.88    8.60
  -2  -7   5  254.77   10.30
   2   7  -5  248.98    9.20
  -2   7   5  250.37    9.20
   1  -7  -5    2.20    2.20
   1  -7  -5    0.20    2.10
  -1  -7   5    0.50    2.80
  -1   7   5    1.80    2.10
   1   7  -5    3.30    2.30
   0  -7  -5   33.00    4.20
   0  -7  -5   32.00    4.60
   0  -7   5   16.80    5.30
   0   7   5   27.30    4.00
   0   7  -5   38.40    4.30
   1  -7   5   22.00    5.10
  -1  -7  -5   32.80    4.00
  -1  -7  -5   24.40    4.50
  -1   7  -5   22.20    4.40
  -2  -7  -5  114.29    6.60
   2  -7   5  120.19    6.80
  -2  -7  -5  113.89    5.50
  -2   7  -5  117.29    6.30
   2   7   5  112.99    5.80
  -3  -7  -5    1.50    2.60
   3  -7   5    2.90    2.40
  -3  -7  -5    0.30    1.90
   3  -7   5    0.50    2.40
   3   7   5   -1.80    2.10
  -3   7  -5   -0.30    2.30
  -4  -7  -5    2.30    2.90
   4  -7   5   -1.20    2.40
   4  -7   5    3.10    2.50
   4   7   5    2.40    2.30
  -4   7  -5   -2.60    2.60
  -4   7  -5    2.80    2.20
   5  -7   5   13.70    4.60
  -5  -7  -5    8.20    3.50
   5  -7   5    6.30    3.50
  -5   7  -5    5.70    4.80
  -5   7  -5    7.60    3.30
   5   7   5   10.20    2.80
  -5   7  -5   11.60    2.60
  -5   7  -5   13.30    5.70
   5  -8  -5    2.50    3.20
  -5  -8   5   -3.50    4.00
  -5   8   5    3.00    4.20
   5   8  -5    1.60    3.10
   4  -8  -5   75.99    6.60
  -4  -8   5   89.39    8.40
  -4   8   5   74.69    7.50
   4   8  -5   80.99    6.20
  -3  -8   5   -6.10    3.20
   3  -8  -5   -0.10    2.60
  -3   8   5   -1.90    3.00
   3   8  -5   -0.50    3.10
   2  -8  -5    5.10    2.80
  -2  -8   5   -2.40    3.40
  -2   8   5   -1.10    2.50
  -1  -8   5    1.80    3.80
   1  -8  -5    3.80    2.80
   1  -8  -5    4.30    2.80
   1   8  -5   11.00    3.90
  -1   8   5    6.80    2.40
   0  -8  -5  130.69    7.40
   0  -8   5  134.69    8.40
   0  -8  -5  131.69    6.50
   0   8   5  113.19    6.10
   0   8  -5  129.19    7.80
  -1  -8  -5    0.50    2.50
   1  -8   5   -2.10    2.80
  -1  -8  -5   -0.70    2.70
  -1   8  -5   -3.30    2.50
  -2  -8  -5    3.90    2.60
  -2  -8  -5    4.60    3.00
   2  -8   5    4.30    2.80
  -2   8  -5    2.60    2.60
   2   8   5    2.20    2.40
   3  -8   5    3.90    2.80
  -3  -8  -5   -2.30    2.50
   3  -8   5   -2.30    2.60
   3   8   5   -3.00    2.30
  -3   8  -5    5.20    3.00
   3   8   5    0.40    1.80
   4  -8   5  103.59    7.00
  -4  -8  -5  114.69    8.10
   4   8   5  117.59    6.90
  -4   8  -5  110.39    7.30
   1  -9  -5    1.50    3.10
  -1  -9   5   -2.80    3.50
   1   9  -5   -1.10    2.90
   0  -9  -5    2.20    3.10
 -10   0   6  135.69    8.40
  10   0  -6  138.09    7.50
   9   0  -6    3.90    2.70
  -9   0   6   -4.70    2.50
  -8   0   6   47.50    4.60
  -8   0   6   32.60    4.90
   8   0  -6   45.90    5.30
   7   0  -6    0.10    2.20
  -7   0   6    1.30    1.90
  -6   0   6  493.75   14.30
   6   0  -6  450.25   13.80
  -6   0   6  517.85   12.60
   5   0  -6    0.40    1.80
  -5   0   6    1.00    1.40
  -5   0   6    2.90    1.70
  -4   0   6   15.50    3.10
  -4   0   6   20.20    2.60
   4   0  -6   17.20    3.40
   3   0  -6    0.20    1.50
  -3   0   6    0.80    1.20
  -3   0   6   -1.10    1.60
  -2   0   6 3984.60   86.29
   2   0  -6 3915.81   86.99
  -2   0   6 3709.43   87.19
  -1   0   6   -0.90    1.10
   1   0  -6    0.30    1.50
  -1   0   6   -0.70    1.30
   0   0   6   48.60    3.10
   0   0  -6   44.00    3.00
   0   0   6   47.40    3.30
   0   0  -6   49.10    3.40
  -1   0  -6   -0.10    1.50
   1   0   6   -0.90    1.20
   1   0   6   -0.70    1.20
  -1   0  -6    0.30    1.40
  -2   0  -6  809.82   19.70
   2   0   6  812.62   20.00
   2   0   6  830.02   19.90
  -2   0  -6  824.62   20.00
  -3   0  -6   -0.20    1.40
   3   0   6   -1.80    1.30
  -3   0  -6    0.60    1.40
  -4   0  -6  111.49    3.70
  -4   0  -6  110.79    4.20
   4   0   6  108.69    5.00
  -4   0  -6  117.59    5.30
   5   0   6   -1.10    1.70
  -5   0  -6    0.10    1.90
  -5   0  -6   -0.60    1.70
   6   0   6  656.73   18.20
  -6   0  -6  679.53   16.90
  -6   0  -6  692.83   18.00
  -7   0  -6    0.20    2.10
  -7   0  -6   -0.10    2.20
   7   0   6   -1.00    2.30
   8   0   6   25.50    5.00
  -8   0  -6   28.80    4.20
  -8   0  -6   34.40    6.20
  10  -1  -6   42.20    5.80
 -10  -1   6   33.50    5.70
 -10   1   6   23.30    6.50
  10   1  -6   30.70    5.90
  -9  -1   6    1.80    2.70
   9  -1  -6   14.70    4.90
  -9  -1   6    4.00    3.00
   9   1  -6    7.90    2.90
  -9   1   6    6.50    3.20
  -8  -1   6  245.38    8.40
  -8  -1   6  232.08    9.30
   8  -1  -6  235.98    8.90
   8   1  -6  244.68    9.30
  -8   1   6  243.58    9.90
  -7  -1   6    0.90    1.80
   7  -1  -6    0.10    2.20
  -7  -1   6    1.60    2.30
  -7   1   6    0.40    1.50
   7   1  -6    0.90    2.20
  -7   1   6   -1.60    2.00
   6  -1  -6   19.60    3.70
  -6  -1   6   20.50    3.80
  -6  -1   6   10.70    3.10
  -6   1   6   11.40    3.60
  -6   1   6   15.80    2.40
   6   1  -6   17.20    4.10
   5  -1  -6    4.40    1.90
   5  -1  -6    1.80    1.10
  -5  -1   6    9.30    2.90
  -5   1   6   10.90    3.20
   5   1  -6    2.90    2.00
  -5   1   6    3.30    1.20
  -4  -1   6  901.81   21.50
  -4  -1   6  947.41   22.40
   4  -1  -6  832.82   21.90
   4  -1  -6  866.41   20.50
  -4   1   6  883.21   22.90
   4   1  -6  891.31   22.40
  -4   1   6  874.61   20.40
  -3  -1   6    0.00    1.40
   3  -1  -6    0.00    1.40
   3  -1  -6    0.20    1.00
  -3  -1   6    1.90    1.50
   3  -1  -6   -0.80    0.90
  -3   1   6    0.50    1.00
  -3   1   6    2.90    1.60
   3   1  -6   -1.30    1.40
  -2  -1   6    1.80    1.40
  -2  -1   6    1.60    1.40
   2  -1  -6    0.80    1.60
   2  -1  -6    2.00    1.00
  -2   1   6    0.10    1.70
   2   1  -6    1.70    2.60
  -2   1   6    0.70    1.00
  -1  -1   6   -0.10    1.30
   1  -1  -6    0.40    1.00
  -1  -1   6   -1.40    1.10
   1  -1  -6    2.20    1.40
  -1   1   6    2.00    1.50
   1   1  -6   -1.80    1.40
  -1   1   6   -1.20    1.00
   0  -1  -6 1561.04   36.80
   0  -1   6 1603.24   37.00
   0  -1   6 1647.04   37.20
   0  -1  -6 1621.04   36.70
   0   1  -6 1624.24   37.40
   0   1   6 1574.84   37.40
  -1  -1  -6   -1.00    1.10
   1  -1   6    0.40    1.20
  -1  -1  -6    1.20    1.10
  -1   1  -6    0.10    2.40
  -1   1  -6    0.80    1.50
   1   1   6    0.70    1.30
   2  -1   6   37.60    4.90
  -2  -1  -6   41.00    3.10
  -2  -1  -6   42.40    2.60
   2  -1   6   38.10    3.10
   2   1   6   38.70    3.00
  -2   1  -6   41.40    3.20
  -2   1  -6   39.80    3.30
  -3  -1  -6    0.00    1.40
   3  -1   6    0.30    1.20
  -3  -1  -6    0.60    1.00
   3  -1   6    1.40    1.40
   3   1   6   -0.50    1.30
   3   1   6    0.20    0.90
  -3   1  -6   -0.10    1.40
  -3   1  -6   -0.40    1.40
  -4  -1  -6  762.92   19.00
  -4  -1  -6  750.42   18.00
   4  -1   6  735.93   19.00
   4   1   6  733.03   19.10
  -4   1  -6  770.92   18.20
  -4   1  -6  753.32   19.00
   5  -1   6   47.10    4.00
  -5  -1  -6   43.50    3.20
  -5  -1  -6   44.90    4.30
  -5   1  -6   43.20    4.20
  -5   1  -6   39.70    3.30
   5   1   6   46.00    4.20
  -5   1  -6   44.20    3.50
  -6  -1  -6  198.58    6.70
  -6  -1  -6  189.28    7.70
   6  -1   6  198.38    7.80
  -6   1  -6  186.88    6.60
  -6   1  -6  192.88    6.60
   6   1   6  203.78    7.80
  -6   1  -6  193.48    7.60
   7  -1   6    1.90    2.20
  -7  -1  -6    0.90    2.20
  -7  -1  -6    0.10    2.40
   7   1   6    1.40    2.30
  -7   1  -6    2.00    2.40
  -7   1  -6    2.80    2.10
  -8  -1  -6  168.68    6.70
  -8  -1  -6  148.69    9.10
   8  -1   6  159.48    8.30
  -8   1  -6  160.48    6.80
   8   1   6  174.58    8.20
  -8   1  -6  170.98    7.90
  10  -2  -6   52.09   10.10
  10   2  -6   62.29    6.10
 -10   2   6   67.19    7.40
  -9  -2   6   -1.90    2.30
   9  -2  -6    2.20    2.90
  -9  -2   6    1.40    2.90
   9   2  -6    1.30    2.90
  -9   2   6    1.20    3.10
   8  -2  -6    8.10    2.80
  -8  -2   6    7.70    2.90
  -8  -2   6    3.40    2.20
   8   2  -6    2.60    2.60
  -8   2   6    0.60    2.70
  -7  -2   6    4.00    1.90
  -7  -2   6    5.00    2.50
   7  -2  -6    4.20    2.30
   7   2  -6    3.80    2.50
  -7   2   6    4.50    2.20
  -6  -2   6  509.85   14.30
   6  -2  -6  502.25   14.30
  -6  -2   6  510.95   14.20
  -6   2   6  514.85   15.50
   6   2  -6  538.55   14.80
  -5  -2   6   10.40    3.50
   5  -2  -6   13.00    3.20
  -5   2   6   12.90    3.80
   5   2  -6    8.20    2.30
  -4  -2   6   17.70    3.20
  -4  -2   6   22.60    3.30
   4  -2  -6   16.10    3.00
   4   2  -6   17.60    3.60
  -4   2   6   17.60    3.60
   3  -2  -6   39.20    2.00
   3  -2  -6   41.80    3.40
   3  -2  -6   49.50    2.10
  -3  -2   6   39.70    3.30
   3   2  -6   39.00    3.80
  -3   2   6   43.80    3.90
  -2  -2   6  918.81   22.00
  -2  -2   6  930.71   22.80
   2  -2  -6  929.41   21.10
   2  -2  -6  900.81   22.20
   2   2  -6  901.41   22.60
  -2   2   6  905.61   23.10
   1  -2  -6  133.59    4.30
  -1  -2   6  140.49    4.80
   1  -2  -6  139.69    5.00
  -1   2   6  131.19    5.60
   1   2  -6  130.49    6.20
   0  -2  -6   79.49    3.50
   0  -2   6   81.99    4.10
   0  -2  -6   80.19    3.60
   0  -2   6   81.89    3.60
   0   2   6   83.39    4.20
   0   2  -6   81.29    4.30
  -1  -2  -6    2.20    1.30
   1  -2   6    0.20    1.50
  -1  -2  -6    7.40    2.00
   1  -2   6    3.50    1.20
  -1   2  -6    3.40    1.60
   1   2   6    8.40    2.40
  -2  -2  -6 1223.48   27.20
   2  -2   6 1180.38   28.40
   2  -2   6 1190.08   28.10
  -2  -2  -6 1193.48   28.20
  -2   2  -6 1196.78   28.60
  -2   2  -6 1201.68   28.10
   2   2   6 1173.28   28.50
   3  -2   6    4.40    1.50
  -3  -2  -6    4.80    1.70
   3  -2   6    5.00    1.50
  -3  -2  -6    4.60    1.00
   3   2   6    7.40    2.20
   3   2   6    7.70    2.70
  -3   2  -6   12.60    3.10
  -3   2  -6    5.90    1.70
   4  -2   6   27.20    3.20
  -4  -2  -6   28.50    3.50
  -4  -2  -6   28.20    2.70
   4  -2   6   28.60    3.30
   4   2   6   32.60    3.50
  -4   2  -6   25.40    3.20
  -4   2  -6   28.90    3.70
  -5  -2  -6    2.50    1.90
   5  -2   6    0.20    1.80
  -5  -2  -6   -1.10    1.60
  -5   2  -6    0.30    1.70
  -5   2  -6   -0.10    1.80
   5   2   6    3.00    1.80
  -5   2  -6    0.60    2.00
   6  -2   6  307.47   10.20
  -6  -2  -6  309.47    9.00
  -6  -2  -6  306.07   10.20
  -6   2  -6  314.87    9.20
  -6   2  -6  300.77    8.90
   6   2   6  308.67   10.30
  -6   2  -6  305.97   10.00
  -7  -2  -6   52.79    5.20
   7  -2   6   46.80    5.20
  -7  -2  -6   47.10    4.10
  -7   2  -6   46.30    5.40
   7   2   6   42.30    5.40
  -7   2  -6   54.99    4.40
  -8  -2  -6   42.60    4.70
  -8  -2  -6   52.69    6.20
   8  -2   6   41.70    5.70
  -8   2  -6   51.09    4.90
  -8   2  -6   28.30    5.40
   8   2   6   41.40    6.10
  -9  -3   6   26.70    4.80
  -9  -3   6   19.80    6.40
   9  -3  -6   27.50    5.60
  -9   3   6   22.80    6.50
   9   3  -6   37.40    5.50
   8  -3  -6   72.99    6.20
  -8  -3   6   78.79    5.10
  -8  -3   6   78.09    6.60
   8   3  -6   71.79    6.00
  -8   3   6   77.59    6.70
  -7  -3   6    9.40    3.30
   7  -3  -6   15.70    4.50
  -7  -3   6   13.40    3.10
  -7   3   6    8.40    3.00
   7   3  -6    9.60    2.90
  -6  -3   6   26.00    4.60
   6  -3  -6   25.20    3.90
  -6  -3   6   25.20    3.30
   6   3  -6   34.20    4.60
  -6   3   6   23.50    4.70
  -5  -3   6   26.60    3.50
   5  -3  -6   23.80    3.60
  -5  -3   6   26.30    4.30
   5   3  -6   24.40    4.10
  -5   3   6   23.80    4.50
  -4  -3   6  349.87   10.50
  -4  -3   6  346.27    9.50
   4  -3  -6  319.47    9.80
   4   3  -6  311.17   10.30
  -4   3   6  336.87   11.30
   3  -3  -6   92.89    2.90
  -3  -3   6   89.59    5.10
  -3  -3   6   95.09    4.10
   3  -3  -6   87.19    4.40
   3  -3  -6   93.79    2.90
   3   3  -6   94.19    4.90
  -3   3   6   85.79    5.40
  -2  -3   6    3.20    1.20
  -2  -3   6    0.20    1.60
   2  -3  -6    1.80    0.90
   2  -3  -6    1.80    1.50
  -2   3   6    3.30    1.80
   2   3  -6    1.10    1.50
   1  -3  -6  153.78    5.30
  -1  -3   6  147.79    4.80
  -1  -3   6  153.68    6.20
   1  -3  -6  153.48    4.80
  -1   3   6  154.18    6.30
   1   3  -6  154.18    5.90
   0  -3  -6  427.76   10.90
   0  -3   6  436.56   10.80
   0  -3  -6  428.06   10.90
   0  -3   6  409.06   12.00
   0   3   6  426.16   12.00
   0   3  -6  417.06   11.60
   1  -3   6   71.29    3.40
   1  -3   6   74.69    4.30
  -1  -3  -6   68.39    3.20
  -1  -3  -6   70.09    3.60
  -1   3  -6   70.89    3.90
   1   3   6   70.19    4.00
   2  -3   6  120.79    4.80
   2  -3   6  120.49    5.30
  -2  -3  -6  116.99    5.00
  -2  -3  -6  123.79    4.10
   2   3   6  116.39    5.20
  -2   3  -6  125.09    5.00
   3  -3   6   29.00    3.10
  -3  -3  -6   23.70    3.40
  -3  -3  -6   26.30    2.20
  -3  -3  -6   20.80    2.20
   3  -3   6   23.50    3.20
  -3   3  -6   25.30    3.90
  -3   3  -6   27.30    3.20
   3   3   6   30.20    3.50
   4  -3   6  337.17   10.00
  -4  -3  -6  328.17   10.20
  -4  -3  -6  332.17    8.90
   4  -3   6  341.17   10.10
  -4   3  -6  339.47    9.60
  -4   3  -6  332.17   10.40
   4   3   6  339.67   10.30
   5  -3   6  139.49    5.90
  -5  -3  -6  143.59    5.10
  -5  -3  -6  139.09    6.50
   5  -3   6  142.59    6.20
  -5   3  -6  141.69    5.60
  -5   3  -6  137.99    6.40
  -5   3  -6  138.39    5.40
   5   3   6  136.59    6.40
  -6  -3  -6   54.29    5.20
  -6  -3  -6   52.99    3.80
   6  -3   6   55.29    4.90
  -6   3  -6   56.79    4.10
  -6   3  -6   50.79    5.30
   6   3   6   52.19    5.00
  -6   3  -6   55.39    4.20
  -7  -3  -6    3.90    2.30
   7  -3   6    3.20    2.50
  -7   3  -6    1.90    2.70
   7   3   6    0.20    2.40
  -7   3  -6   -0.20    2.40
   8  -3   6   92.59    7.20
  -8  -3  -6   90.39    5.30
  -8  -3  -6   91.89    7.40
  -8   3  -6   90.59    7.20
   8   3   6   92.49    7.00
  -8   3  -6   91.89    8.20
  -8   3  -6   87.19    5.80
  -9  -4   6   14.10    4.00
   9  -4  -6   20.10    5.60
   9   4  -6   12.90    3.40
  -9   4   6   16.90    4.50
   8  -4  -6    1.30    2.70
  -8  -4   6    3.60    3.30
  -8  -4   6    1.70    2.00
   8   4  -6   -2.00    2.80
  -8   4   6    0.10    3.20
   7  -4  -6   59.59    5.50
  -7  -4   6   70.09    6.80
  -7  -4   6   69.29    4.40
   7   4  -6   81.09    6.20
  -7   4   6   77.89    6.80
  -6  -4   6  206.98    7.20
  -6  -4   6  201.18    8.60
   6  -4  -6  191.78    7.80
  -6   4   6  202.28    9.50
   6   4  -6  203.18    8.30
  -5  -4   6   95.69    4.60
   5  -4  -6  101.69    5.40
  -5  -4   6  106.19    6.40
   5   4  -6   96.39    5.70
  -5   4   6   92.99    6.70
  -4  -4   6    0.70    1.40
  -4  -4   6    0.70    2.40
   4  -4  -6    2.40    1.90
  -4   4   6    1.90    2.20
   4   4  -6    1.50    2.10
   3  -4  -6  256.97    6.30
   3  -4  -6  262.57    8.20
  -3  -4   6  261.27    9.10
  -3  -4   6  254.27    7.00
   3   4  -6  258.27    8.70
   3   4  -6  241.18    7.00
  -3   4   6  248.18    9.40
   2  -4  -6  276.77    7.10
  -2  -4   6  262.97    6.90
   2  -4  -6  257.07    8.00
  -2  -4   6  264.77    9.10
   2   4  -6  251.17    8.50
   2   4  -6  263.17    7.20
  -2   4   6  262.57    9.30
  -1  -4   6  268.47    9.20
   1  -4  -6  282.77    7.60
   1  -4  -6  258.57    7.90
  -1  -4   6  277.67    7.00
   1   4  -6  264.57    8.50
   1   4  -6  257.87    7.30
  -1   4   6  267.17    9.10
   0  -4   6   10.20    3.40
   0  -4  -6    8.30    2.60
   0  -4  -6   10.80    2.60
   0  -4   6   10.10    1.90
   0   4  -6    5.80    1.80
   0   4   6    6.80    1.80
  -1  -4  -6  143.79    5.40
  -1  -4  -6  145.69    5.00
   1  -4   6  143.39    4.80
   1  -4   6  145.99    6.40
   1   4   6  136.69    5.80
  -1   4  -6  136.09    5.70
   2  -4   6  522.05   14.50
   2  -4   6  535.75   13.40
  -2  -4  -6  505.65   13.70
  -2  -4  -6  521.05   12.60
  -2  -4  -6  517.15   12.80
   2   4   6  517.05   14.00
  -2   4  -6  524.05   13.90
   3  -4   6  168.78    6.00
  -3  -4  -6  176.98    5.20
  -3  -4  -6  166.48    5.20
   3  -4   6  169.68    6.80
  -3  -4  -6  168.98    6.60
   3   4   6  166.38    6.60
  -3   4  -6  170.58    6.30
   4  -4   6   30.00    3.70
   4  -4   6   28.50    3.50
  -4  -4  -6   28.60    2.40
  -4  -4  -6   30.40    4.20
  -4  -4  -6   33.50    2.70
  -4   4  -6   33.40    3.50
   4   4   6   26.10    4.10
  -4   4  -6   29.70    4.50
   5  -4   6   55.29    4.70
  -5  -4  -6   63.39    5.60
  -5  -4  -6   58.89    3.70
   5  -4   6   64.19    4.50
  -5   4  -6   61.09    5.20
   5   4   6   59.89    5.00
  -5   4  -6   56.29    4.00
  -5   4  -6   63.59    4.30
  -6  -4  -6  107.49    6.70
  -6  -4  -6  107.89    5.00
   6  -4   6  111.39    5.80
   6  -4   6  110.99    6.40
  -6   4  -6  115.69    6.60
  -6   4  -6  108.99    5.50
  -6   4  -6  119.09    5.50
   6   4   6  110.89    6.60
  -7  -4  -6   56.89    4.50
  -7  -4  -6   57.29    6.30
   7  -4   6   62.29    5.80
  -7   4  -6   48.00    4.70
  -7   4  -6   64.99    5.10
  -7   4  -6   54.99    6.00
   7   4   6   53.89    9.10
  -7   4  -6   48.20    6.00
   8  -5  -6   54.09    6.10
  -8  -5   6   51.19   13.10
  -8   5   6   62.09    7.70
   8   5  -6   52.09    6.40
   7  -5  -6   17.70    5.60
  -7  -5   6   19.50    4.10
  -7   5   6   29.10    7.20
   7   5  -6   27.00    5.30
   6  -5  -6   31.50    4.70
  -6  -5   6   33.20    5.80
  -6   5   6   29.40    6.20
   6   5  -6   35.60    5.10
  -5  -5   6  125.19    7.20
   5  -5  -6  117.59    6.00
   5   5  -6  123.29    6.70
  -5   5   6  117.59    7.70
  -4  -5   6  130.99    7.40
   4  -5  -6  134.69    6.10
   4   5  -6  139.79    6.70
  -4   5   6  141.89    7.70
   3  -5  -6  170.68    5.20
  -3  -5   6  183.58    7.80
   3  -5  -6  174.18    6.70
   3   5  -6  180.58    7.30
  -3   5   6  177.68    8.10
  -2  -5   6    1.60    2.30
   2  -5  -6    0.90    1.70
   2  -5  -6    1.00    1.40
   2   5  -6    2.00    1.80
  -2   5   6    2.90    2.10
   1  -5  -6  232.48    7.10
   1  -5  -6  229.18    7.40
  -1  -5   6  223.98    8.80
  -1   5   6  225.18    8.40
   1   5  -6  224.98    8.00
   0  -5   6  226.88    8.70
   0  -5  -6  222.68    7.20
   0  -5  -6  215.98    7.00
   0   5  -6  217.58    7.80
   0   5   6  214.18    7.80
   1  -5   6  202.28    6.00
  -1  -5  -6  200.48    5.40
  -1  -5  -6  192.18    6.30
  -1  -5  -6  200.78    6.90
   1  -5   6  202.68    8.10
  -1   5  -6  192.48    7.20
   1   5   6  191.28    7.10
  -2  -5  -6   23.80    3.40
   2  -5   6   34.70    4.40
  -2  -5  -6   23.50    2.20
  -2  -5  -6   26.00    3.80
   2  -5   6   27.90    3.00
   2   5   6   27.60    3.80
  -2   5  -6   28.20    3.70
  -3  -5  -6   58.49    3.60
   3  -5   6   56.79    4.80
  -3  -5  -6   55.39    4.80
  -3  -5  -6   54.79    2.90
   3  -5   6   49.50    3.80
  -3   5  -6   61.49    4.40
   3   5   6   58.69    4.80
   4  -5   6  105.29    5.50
   4  -5   6  110.19    6.00
  -4  -5  -6  113.99    6.30
  -4  -5  -6  113.19    4.20
   4   5   6  103.59    5.80
  -4   5  -6  100.29    5.60
  -4   5  -6   98.99    6.40
  -4   5  -6  109.29    5.50
   5  -5   6  156.68    7.00
   5  -5   6  150.48    6.70
  -5  -5  -6  152.48    5.50
  -5  -5  -6  160.18    7.60
   5   5   6  156.08    7.20
  -5   5  -6  158.28    7.00
  -5   5  -6  152.78    7.50
  -5   5  -6  154.18    6.00
  -5   5  -6  158.88    6.80
   6  -5   6   12.40    4.10
  -6  -5  -6    4.60    3.00
  -6  -5  -6    7.20    2.30
   6  -5   6    6.90    2.40
  -6   5  -6   13.90    4.30
  -6   5  -6    2.70    2.70
  -6   5  -6    2.30    2.50
  -6   5  -6    7.00    2.90
   6   5   6    2.60    2.60
  -7  -5  -6    9.00    2.60
  -7  -5  -6    3.10    3.40
   7  -5   6    6.00    4.50
  -7   5  -6    4.90    3.50
  -7   5  -6    7.50    3.70
   7   5   6    6.30    2.90
  -7   5  -6   10.30    3.20
   7  -6  -6   87.69    6.80
  -7  -6   6   74.49    8.00
   7   6  -6   77.29    6.60
  -7   6   6   73.59    8.20
  -6  -6   6  102.19    9.50
   6  -6  -6   84.79    6.50
  -6   6   6   82.49    7.90
   6   6  -6   73.99    6.70
  -5  -6   6   79.49    7.20
   5  -6  -6   81.49    5.80
   5   6  -6   73.69    5.90
  -5   6   6   77.59    7.80
   4  -6  -6    2.30    2.30
  -4  -6   6    3.70    2.90
   4   6  -6   -0.40    2.50
  -4   6   6    0.30    2.80
   3  -6  -6  123.69    6.20
  -3  -6   6  129.19    7.20
  -3   6   6  128.99    7.40
   3   6  -6  120.99    6.60
   2  -6  -6  135.89    6.10
  -2  -6   6  131.99    7.30
   2  -6  -6  130.39    5.80
   2   6  -6  131.59    6.40
  -2   6   6  132.69    7.10
   1  -6  -6  200.78    7.10
   1  -6  -6  183.58    6.80
  -1  -6   6  190.78    8.70
   1   6  -6  182.78    7.50
  -1   6   6  186.88    7.80
   0  -6  -6    3.40    1.90
   0  -6   6   -1.80    2.50
   0  -6  -6    0.90    1.80
   0   6   6    1.30    2.00
   0   6  -6   -0.10    2.20
  -1  -6  -6  153.48    6.60
  -1  -6  -6  150.28    6.00
   1  -6   6  159.68    7.80
  -1  -6  -6  163.48    4.90
   1   6   6  158.78    6.60
  -1   6  -6  155.98    6.90
  -2  -6  -6  172.38    5.00
   2  -6   6  172.38    8.00
   2  -6   6  156.18    5.90
  -2  -6  -6  167.38    6.10
  -2  -6  -6  177.78    7.20
  -2   6  -6  172.28    7.10
  -2   6  -6  168.18    6.30
   2   6   6  167.08    7.10
   3  -6   6  206.58    8.50
  -3  -6  -6  204.38    6.60
  -3  -6  -6  191.48    5.70
  -3  -6  -6  203.48    8.30
   3  -6   6  190.08    6.70
  -3   6  -6  190.28    7.20
  -3   6  -6  198.58    7.80
   3   6   6  194.38    7.80
  -4  -6  -6    3.20    2.70
  -4  -6  -6    7.00    1.70
   4  -6   6    4.80    2.70
   4  -6   6    1.90    1.90
  -4   6  -6    0.00    2.40
   4   6   6    2.90    2.40
  -4   6  -6    2.00    2.10
   5  -6   6   22.50    4.40
  -5  -6  -6   17.70    5.60
  -5  -6  -6   24.20    3.10
   5  -6   6   16.60    4.90
   5   6   6   24.60    5.00
  -5   6  -6   17.20    3.60
  -5   6  -6   28.70    4.70
  -5   6  -6   17.00    4.80
  -5   6  -6   18.50    4.00
  -6  -6  -6   24.50    6.30
   6  -6   6   28.90    5.20
   6  -6   6   38.10    4.90
  -6  -6  -6   38.60    3.80
   6   6   6   25.50    5.30
  -6   6  -6   36.20    4.60
  -6   6  -6   41.60    5.40
  -6   6  -6   30.90    6.00
  -6   6  -6   31.90    5.40
  -6  -7   6    3.50    4.10
   6  -7  -6   -0.80    3.00
  -6   7   6   -2.40    3.90
   6   7  -6    3.20    3.20
   5  -7  -6  105.59    7.20
  -5  -7   6  121.79    8.40
   5   7  -6  103.79    8.20
  -5   7   6  113.59    8.70
  -4  -7   6   36.00    8.30
   4   7  -6   38.70    5.40
  -4   7   6   42.80    6.70
  -3  -7   6   25.10    5.60
   3  -7  -6   36.20    5.00
  -3   7   6   32.80    6.00
   3   7  -6   34.50    5.00
   2  -7  -6    1.30    2.40
  -2  -7   6   -5.20    2.60
  -2   7   6   -0.80    2.50
   2   7  -6    3.40    2.60
   1  -7  -6   18.70    4.40
   1  -7  -6   10.20    2.80
  -1  -7   6   13.80    3.50
  -1   7   6   13.70    4.30
   1   7  -6   14.80    4.90
   0  -7  -6   37.30    4.40
   0  -7  -6   39.00    4.80
   0  -7   6   33.40    5.90
   0   7   6   38.50    4.70
   0   7  -6   37.80    5.10
  -1  -7  -6  220.58    7.80
  -1  -7  -6  230.08    8.60
   1  -7   6  223.08   10.00
  -1   7  -6  204.58    8.50
   1   7   6  217.38    8.30
  -2  -7  -6    6.20    2.30
   2  -7   6    7.50    3.00
  -2  -7  -6    5.00    2.80
   2   7   6   13.20    4.50
  -2   7  -6    7.80    2.80
  -3  -7  -6   24.60    5.30
  -3  -7  -6   30.90    4.30
   3  -7   6   35.10    5.70
  -3   7  -6   38.40    5.20
   3   7   6   38.50    5.10
  -4  -7  -6   36.60    5.80
   4   7   6   24.70    5.00
  -4   7  -6   22.20    3.90
  -4   7  -6   15.20    4.30
  -5  -7  -6   72.99    7.20
   5  -7   6   79.89    6.40
  -5   7  -6   61.99    6.30
  -5   7  -6   66.59    4.90
  -5   7  -6   54.09    8.70
   5   7   6   73.99    6.20
   4  -8  -6    1.70    3.30
   4   8  -6    2.30    3.10
  -4   8   6    3.90    3.80
   3  -8  -6   40.20    5.80
   3   8  -6   51.99    6.00
  -3   8   6   53.29    6.60
   2  -8  -6    8.80    3.00
  -2  -8   6   -1.10    3.20
  -2   8   6    7.70    3.00
   2   8  -6    6.80    3.00
   1  -8  -6   49.60    5.60
  -1  -8   6   44.40    6.60
   1   8  -6   51.19    6.20
  -1   8   6   51.89    5.70
   0  -8  -6    3.40    3.00
   0  -8   6    4.70    3.30
   0  -8  -6    1.20    2.70
   0   8   6   -4.30    2.40
   0   8  -6    4.10    3.10
  -1  -8  -6   31.60    5.00
   1  -8   6   22.80    6.20
  -1  -8  -6   34.50    5.70
   1   8   6   36.00    5.20
  -1   8  -6   36.70    5.70
  -2  -8  -6    6.60    3.10
   2  -8   6    9.80    3.50
  -2  -8  -6   10.20    2.90
  -2   8  -6   23.30    5.70
   2   8   6   21.20    5.10
   3  -8   6  109.89    7.80
  -3  -8  -6  123.89    8.00
  -3   8  -6  121.59    7.70
   3   8   6  116.09    7.00
  -9   0   7   40.60    5.60
   9   0  -7   34.50    6.10
   8   0  -7    3.30    2.90
  -8   0   7   -4.40    2.20
  -7   0   7  203.58    8.50
   7   0  -7  190.08    8.30
  -7   0   7  208.28    7.00
   6   0  -7   -1.60    2.30
  -6   0   7   -1.00    1.70
  -6   0   7    1.60    1.90
  -5   0   7  219.08    8.40
   5   0  -7  226.58    8.40
  -5   0   7  229.38    7.10
  -4   0   7   -0.50    1.40
   4   0  -7    0.90    1.90
  -4   0   7   -1.20    1.70
  -3   0   7  402.16   11.90
   3   0  -7  401.56   11.70
  -3   0   7  395.26   10.70
   2   0  -7   -0.50    1.60
  -2   0   7   -0.60    1.30
  -2   0   7    0.60    1.50
   1   0  -7   13.60    2.60
  -1   0   7    7.10    1.90
  -1   0   7    9.60    2.70
   1   0  -7    8.50    2.60
   0   0   7   -1.00    2.50
   0   0  -7    0.30    1.80
   0   0   7   -2.30    1.20
  -1   0  -7  650.93   16.30
   1   0   7  629.84   16.20
   1   0   7  638.44   16.50
  -1   0  -7  653.13   16.40
  -2   0  -7    1.10    1.70
   2   0   7   -0.60    1.40
  -2   0  -7    0.90    1.60
  -3   0  -7    0.00    1.70
  -3   0  -7    2.80    1.60
   3   0   7    0.80    1.60
   4   0   7    1.40    1.70
  -4   0  -7    0.00    2.00
  -4   0  -7    0.90    1.70
  -5   0  -7  223.68    7.10
   5   0   7  225.78    8.30
  -5   0  -7  222.58    8.20
  -6   0  -7    0.60    2.50
   6   0   7    0.60    2.30
  -6   0  -7    3.20    2.20
   7   0   7   -0.90    3.00
  -7   0  -7   -2.10    3.80
  -7   0  -7    2.30    2.70
  -8   0  -7    2.60    2.70
  -8   0  -7    0.60    2.90
   8   0   7    2.30    2.70
   9  -1  -7  103.99    7.20
  -9  -1   7   98.49    7.00
   9   1  -7  104.89    7.00
  -9   1   7  102.99    7.70
   8  -1  -7    0.50    2.60
  -8  -1   7   -1.90    2.20
  -8   1   7   -4.70    2.50
   8   1  -7   -2.60    2.80
  -7  -1   7   48.50    4.40
   7  -1  -7   50.59    5.50
  -7  -1   7   60.59    5.00
  -7   1   7   57.19    5.40
   7   1  -7   60.49    5.60
  -6  -1   7    3.30    2.10
   6  -1  -7    2.10    2.30
  -6  -1   7    4.70    1.90
   6   1  -7    1.20    2.50
  -6   1   7    2.90    2.40
  -6   1   7    4.20    1.50
  -5  -1   7  317.37    9.50
   5  -1  -7  281.27    9.80
  -5  -1   7  313.97    9.90
  -5   1   7  303.47   10.50
   5   1  -7  321.37   10.30
  -5   1   7  295.17    8.10
   4  -1  -7    2.40    1.90
  -4  -1   7    7.10    2.00
  -4  -1   7    8.80    2.80
   4   1  -7    5.50    2.30
  -4   1   7    6.90    2.20
  -4   1   7    8.20    2.30
   3  -1  -7   10.60    3.10
  -3  -1   7    9.10    2.00
   3  -1  -7   14.10    2.30
   3   1  -7   15.20    3.70
  -3   1   7   11.30    2.20
  -3   1   7   10.60    3.50
  -2  -1   7   50.29    3.90
  -2  -1   7   49.40    4.00
   2  -1  -7   50.09    3.70
   2  -1  -7   48.40    3.00
  -2   1   7   44.50    4.00
   2   1  -7   47.50    4.10
  -2   1   7   50.29    3.00
   1  -1  -7  718.93   20.20
  -1  -1   7  798.42   19.50
   1  -1  -7  792.82   18.70
  -1  -1   7  760.02   20.30
  -1   1   7  781.32   18.60
  -1   1   7  770.52   20.00
   1   1  -7  803.32   19.90
   0  -1  -7    2.30    1.40
   0  -1  -7   -0.50    1.50
   0  -1   7   -1.90    1.40
   0  -1   7    0.50    1.40
   0   1  -7    2.40    3.20
   1  -1   7   75.39    4.00
  -1  -1  -7   73.59    3.90
  -1  -1  -7   73.59    3.90
   1  -1   7   69.99    3.90
  -1   1  -7   71.59    4.40
  -1   1  -7   71.79    4.30
  -2  -1  -7  119.29    5.10
  -2  -1  -7  118.49    4.50
   2  -1   7  111.19    4.90
   2  -1   7  116.89    5.10
   2   1   7  111.49    5.20
  -2   1  -7  116.99    5.20
  -2   1  -7  108.09    5.30
  -3  -1  -7  640.74   16.70
   3  -1   7  642.14   16.60
   3  -1   7  647.44   16.80
  -3  -1  -7  670.43   15.50
   3   1   7  630.84   16.90
  -3   1  -7  636.14   16.30
  -3   1  -7  633.04   16.80
   4  -1   7   -0.70    1.70
  -4  -1  -7   -1.10    1.80
  -4   1  -7   -0.60    1.90
   4   1   7   -1.00    1.70
  -4   1  -7    1.30    1.90
  -5  -1  -7   -2.30    1.80
   5  -1   7   -0.10    2.00
  -5  -1  -7    1.60    2.20
  -5   1  -7   -0.20    2.00
  -5   1  -7   -0.30    2.20
  -5   1  -7    1.00    2.10
   5   1   7   -0.70    1.80
   6  -1   7    2.30    2.20
  -6  -1  -7    0.60    2.20
  -6  -1  -7    1.40    2.00
  -6   1  -7    3.80    2.30
   6   1   7    2.50    2.30
  -6   1  -7    0.90    2.30
  -7  -1  -7  155.88    8.10
   7  -1   7  157.78    9.00
  -7  -1  -7  161.78   10.00
  -7   1  -7  177.78    8.00
   8  -1   7    1.00    2.80
  -8  -1  -7   -1.50    2.70
  -8  -1  -7   -2.50    3.00
  -8   1  -7   -1.10    2.90
  -8   1  -7    6.40    2.90
   8   1   7   -1.50    2.90
  -9  -2   7   74.49    6.00
  -9  -2   7   65.09    7.00
   9  -2  -7   69.89    8.50
  -9   2   7   46.10    6.80
   9   2  -7   61.89    6.40
  -8  -2   7   26.30    5.30
  -8  -2   7   13.40    4.20
   8  -2  -7   25.00    5.40
   8   2  -7   22.60    5.40
  -8   2   7   13.00    3.70
  -7  -2   7  124.49    5.90
  -7  -2   7   99.69    6.10
   7  -2  -7  102.99    6.50
   7   2  -7  113.79    6.70
  -7   2   7  124.89    7.40
  -6  -2   7   -0.50    1.60
  -6  -2   7   -3.60    1.90
   6  -2  -7    1.90    2.30
   6   2  -7    5.00    2.60
  -6   2   7    0.40    2.40
  -5  -2   7   91.99    5.30
  -5  -2   7  103.99    5.30
   5  -2  -7   96.09    5.50
  -5   2   7  102.59    6.30
   5   2  -7  114.69    6.20
   4  -2  -7   94.49    5.20
  -4  -2   7   95.99    5.20
   4  -2  -7   99.19    3.30
   4  -2  -7   99.19    3.50
  -4  -2   7  102.09    5.20
  -4   2   7   99.19    6.10
   4   2  -7   99.69    5.60
  -3  -2   7  485.05   13.20
   3  -2  -7  462.75   13.00
   3  -2  -7  483.35   11.60
  -3  -2   7  488.15   13.00
  -3   2   7  466.85   14.10
   3   2  -7  457.55   13.50
  -2  -2   7   18.00    2.90
   2  -2  -7   21.50    3.00
  -2  -2   7   15.40    3.10
   2  -2  -7   16.70    2.20
  -2   2   7   17.90    3.50
   2   2  -7   20.50    3.60
  -1  -2   7   86.09    4.70
  -1  -2   7   97.09    4.40
   1  -2  -7   91.39    4.30
   1  -2  -7   88.89    3.80
  -1   2   7   90.79    5.00
   1   2  -7   94.49    4.90
   0  -2  -7  101.89    4.40
   0  -2   7   99.09    4.40
   0  -2  -7   98.79    4.20
   0  -2   7  102.59    5.00
   0   2  -7   99.09    4.90
   0   2   7   98.89    5.00
   1  -2   7  488.45   13.20
  -1  -2  -7  496.75   12.20
   1  -2   7  428.56   14.80
  -1  -2  -7  496.35   12.70
  -1   2  -7  487.75   13.00
   1   2   7  469.85   13.20
  -2  -2  -7    3.10    1.60
   2  -2   7    5.40    1.50
   2  -2   7   10.60    2.70
  -2  -2  -7    6.80    2.30
   2   2   7    3.20    1.70
  -2   2  -7    2.00    1.80
  -2   2  -7    2.40    1.90
   3  -2   7   25.60    3.40
   3  -2   7   30.90    3.50
  -3  -2  -7   27.70    2.40
  -3  -2  -7   23.20    3.70
  -3   2  -7   22.20    3.90
  -3   2  -7   22.00    4.40
   3   2   7   26.80    3.60
   4  -2   7   58.49    4.30
  -4  -2  -7   58.19    3.40
  -4  -2  -7   59.79    4.60
   4  -2   7   54.59    4.30
   4   2   7   53.09    4.60
  -4   2  -7   59.29    4.70
  -5  -2  -7  185.68    6.30
   5  -2   7  181.48    7.50
  -5  -2  -7  178.78    7.30
  -5   2  -7  183.48    7.00
  -5   2  -7  180.78    7.50
   5   2   7  181.78    7.60
  -6  -2  -7    1.40    2.50
   6  -2   7   -3.70    2.10
  -6  -2  -7    0.10    2.00
  -6   2  -7    1.30    2.30
  -6   2  -7    2.30    3.10
  -6   2  -7    0.80    2.40
   6   2   7    1.20    2.40
   7  -2   7   -0.50    3.90
  -7  -2  -7   -2.80    2.70
  -7   2  -7    1.40    3.00
   7   2   7   -2.70    2.50
  -7   2  -7    1.80    2.60
  -8  -2  -7   12.00    3.70
  -8  -2  -7   24.00    4.30
   8  -2   7    7.40    3.20
   8   2   7   16.70    5.80
  -8   2  -7   10.70    3.10
  -8   2  -7    5.20    3.20
  -9  -3   7   30.00    6.80
   9  -3  -7   33.00    6.40
  -9  -3   7   40.50    5.20
   9   3  -7   39.20    6.10
  -9   3   7   31.30    6.70
  -8  -3   7    0.50    3.10
  -8  -3   7    5.40    2.20
   8  -3  -7    2.00    3.00
   8   3  -7    4.90    3.20
  -8   3   7   -1.40    3.10
  -7  -3   7   25.20    3.80
  -7  -3   7   33.80    5.50
   7  -3  -7   33.70    5.00
   7   3  -7   26.20    5.20
   6  -3  -7   72.39    5.50
  -6  -3   7   68.09    4.40
  -6  -3   7   61.29    5.40
   6   3  -7   68.29    5.90
  -6   3   7   70.59    6.10
  -5  -3   7  268.47    9.30
   5  -3  -7  259.27    9.10
  -5   3   7  265.67   10.40
   5   3  -7  264.27    9.60
   4  -3  -7    4.50    2.10
  -4  -3   7    2.90    1.70
  -4  -3   7    2.60    2.10
   4   3  -7    8.50    2.40
  -4   3   7    6.40    2.50
   3  -3  -7  116.99    3.70
  -3  -3   7  105.89    4.70
   3  -3  -7  107.29    3.60
  -3  -3   7  105.49    5.50
   3  -3  -7  112.59    5.20
  -3   3   7   97.99    6.10
   3   3  -7  106.29    5.70
   2  -3  -7   60.69    2.90
  -2  -3   7   59.29    3.50
   2  -3  -7   57.39    3.90
  -2  -3   7   56.09    4.30
   2   3  -7   59.49    4.40
  -2   3   7   56.19    4.90
  -1  -3   7  482.05   13.90
   1  -3  -7  483.75   12.80
   1  -3  -7  501.95   12.40
  -1  -3   7  484.25   12.50
   1   3  -7  491.75   13.60
  -1   3   7  487.95   14.10
   0  -3  -7   40.10    3.20
   0  -3   7   34.80    3.90
   0  -3   7   36.20    2.90
   0   3   7   38.20    3.80
   0   3  -7   31.70    3.50
  -1  -3  -7   44.00    3.50
   1  -3   7   52.19    3.40
  -1  -3  -7   48.90    3.20
   1  -3   7   54.69    4.20
   1   3   7   53.59    4.00
  -1   3  -7   44.90    3.90
   2  -3   7  239.78    7.50
  -2  -3  -7  235.08    6.70
   2  -3   7  234.48    8.30
  -2  -3  -7  227.88    7.60
  -2   3  -7  236.08    7.80
   2   3   7  233.78    8.20
  -3  -3  -7  345.37   10.50
   3  -3   7  351.96   10.30
   3  -3   7  350.46   10.90
  -3  -3  -7  363.66    9.00
  -3  -3  -7  354.16    9.40
  -3   3  -7  362.16   10.30
  -3   3  -7  357.46   11.20
   3   3   7  355.26   10.90
  -4  -3  -7   17.00    4.10
   4  -3   7   15.50    3.70
  -4  -3  -7   13.40    2.70
   4  -3   7   15.70    3.70
  -4   3  -7   18.90    4.40
   4   3   7   16.90    4.10
  -4   3  -7   18.00    3.60
  -5  -3  -7   23.60    3.30
   5  -3   7   18.60    4.20
  -5  -3  -7   30.00    4.40
   5  -3   7   33.80    4.40
   5   3   7   23.00    4.50
  -5   3  -7   33.60    4.00
  -5   3  -7   25.20    4.60
   6  -3   7   19.30    4.40
  -6  -3  -7   16.80    3.50
  -6  -3  -7   10.60    2.90
  -6   3  -7   15.50    4.20
  -6   3  -7    9.10    2.70
   6   3   7    8.40    2.90
  -6   3  -7    9.70    3.00
  -7  -3  -7  119.89    7.70
  -7   3  -7  113.19    9.50
  -7   3  -7  126.19    6.30
   7   3   7  127.69    7.20
   8  -4  -7   60.09    6.70
  -8  -4   7   65.39    7.20
  -8   4   7   72.49    8.00
   8   4  -7   51.29    6.40
   7  -4  -7   69.09    6.10
  -7  -4   7   59.49    6.50
  -7  -4   7   64.89    4.40
   7   4  -7   55.79    6.40
  -7   4   7   65.09    7.10
   6  -4  -7    0.10    2.50
  -6  -4   7    1.10    2.10
  -6  -4   7   -2.60    2.70
   6   4  -7    2.10    2.80
  -6   4   7   -0.50    2.70
  -5  -4   7   44.00    3.90
   5  -4  -7   41.60    4.60
  -5  -4   7   35.80    5.10
   5   4  -7   41.90    5.20
  -5   4   7   45.70    6.00
   4  -4  -7   56.49    4.50
  -4  -4   7   54.09    3.60
  -4  -4   7   47.00    4.80
  -4   4   7   54.09    5.50
   4   4  -7   57.69    5.10
  -3  -4   7  166.58    7.30
  -3  -4   7  161.78    5.50
   3  -4  -7  161.28    6.50
   3  -4  -7  156.48    4.80
   3   4  -7  173.18    7.30
  -3   4   7  168.78    8.00
   2  -4  -7   88.19    4.70
  -2  -4   7   93.59    3.90
   2  -4  -7   98.89    3.90
  -2  -4   7   90.09    5.60
   2   4  -7   91.39    5.30
  -2   4   7   94.69    6.00
  -1  -4   7  110.69    6.00
  -1  -4   7  111.29    4.10
   1  -4  -7  109.59    4.50
   1  -4  -7  109.59    4.90
   1   4  -7  106.99    5.50
  -1   4   7  109.19    6.00
   0  -4  -7  145.79    5.60
   0  -4   7  146.19    6.60
   0  -4   7  146.19    5.00
   0  -4  -7  143.39    5.40
   0   4  -7  143.29    6.20
   0   4   7  137.89    6.40
  -1  -4  -7  149.19    5.40
   1  -4   7  157.58    7.00
   1  -4   7  159.98    5.50
  -1  -4  -7  151.28    6.00
  -1   4  -7  159.38    6.40
   1   4   7  161.68    6.60
  -2  -4  -7   12.30    3.50
   2  -4   7   14.10    4.00
  -2  -4  -7   14.60    2.90
   2  -4   7   16.50    2.90
  -2   4  -7   10.90    3.50
   2   4   7   16.90    3.90
  -3  -4  -7    2.40    1.50
  -3  -4  -7    7.60    2.30
   3  -4   7    2.60    1.70
   3  -4   7    3.10    2.10
  -3  -4  -7    2.20    1.50
  -3   4  -7    2.40    2.50
  -3   4  -7    3.30    2.20
   3   4   7    5.70    2.20
   4  -4   7   18.30    3.60
  -4  -4  -7   16.20    4.30
  -4  -4  -7   14.90    2.80
   4  -4   7   12.50    4.20
  -4   4  -7   10.60    2.40
   4   4   7   18.80    4.40
  -4   4  -7   10.00    2.80
  -5  -4  -7  150.78    5.70
   5  -4   7  150.98    6.90
   5  -4   7  162.88    7.10
  -5  -4  -7  162.68    7.60
  -5   4  -7  159.28    6.80
   5   4   7  148.69    7.50
  -5   4  -7  149.09    7.50
  -6  -4  -7   40.30    3.80
  -6  -4  -7   42.80    6.00
   6  -4   7   49.40    5.20
  -6   4  -7   45.90    4.90
  -6   4  -7   49.10    6.10
   6   4   7   53.89    5.80
  -6   4  -7   48.60    4.80
  -7  -4  -7   -4.70    2.50
   7  -4   7   -3.00    2.90
  -7  -4  -7   -1.20    3.00
  -7   4  -7    0.70    3.10
   7   4   7    2.60    2.90
  -7   4  -7    0.00    3.00
  -7   4  -7   -1.80    3.20
   8  -5  -7    9.60    3.60
  -8  -5   7   10.70    4.30
  -8   5   7    5.80    4.00
  -7  -5   7    2.40    3.50
   7  -5  -7   10.40    3.30
  -7   5   7   -4.00    3.20
   7   5  -7    0.50    3.30
   6  -5  -7   72.99    6.00
  -6  -5   7   74.09    7.10
   6   5  -7   76.19    6.40
  -6   5   7   75.39    7.60
  -5  -5   7   86.39    6.80
   5  -5  -7   98.59    6.10
   5   5  -7  101.49    6.60
  -5   5   7  100.79    7.80
   4  -5  -7   27.10    4.40
   4   5  -7   28.10    4.70
  -4   5   7   24.00    5.70
   3  -5  -7   44.60    4.50
  -3  -5   7   37.30    5.00
   3   5  -7   42.50    4.80
  -3   5   7   44.60    5.60
   2  -5  -7   91.89    4.20
  -2  -5   7   93.59    6.10
   2  -5  -7   99.79    5.20
   2   5  -7   84.89    5.50
  -2   5   7   97.59    6.20
  -1  -5   7  126.79    6.90
   1  -5  -7  122.39    5.50
   1   5  -7  121.79    6.10
  -1   5   7  116.29    6.40
   0  -5   7   71.79    3.40
   0  -5   7   70.99    5.80
   0  -5  -7   67.99    4.20
   0  -5  -7   71.79    4.50
   0   5  -7   71.79    5.10
   0   5   7   72.59    5.20
   1  -5   7   -0.10    2.30
   1  -5   7    0.50    1.40
  -1  -5  -7    1.70    1.70
  -1  -5  -7    1.80    1.90
   1   5   7    1.40    1.90
  -1   5  -7    0.70    2.10
  -2  -5  -7   74.79    3.20
  -2  -5  -7   67.39    5.00
   2  -5   7   65.89    5.30
  -2  -5  -7   74.99    4.00
  -2   5  -7   63.69    5.00
   2   5   7   73.89    5.40
  -3  -5  -7  110.99    6.10
   3  -5   7  112.49    6.60
  -3  -5  -7  103.99    4.70
   3  -5   7  103.59    5.10
  -3  -5  -7  106.59    4.10
  -3   5  -7  116.39    6.20
   3   5   7  104.89    6.30
   4  -5   7   79.49    5.70
  -4  -5  -7   67.49    3.70
  -4  -5  -7   74.99    5.80
   4  -5   7   71.59    4.80
   4   5   7   72.69    5.80
  -4   5  -7   63.69    6.30
  -4   5  -7   76.99    5.60
   5  -5   7    0.00    2.20
   5  -5   7    3.60    2.50
  -5   5  -7   -0.10    2.50
   5   5   7    3.00    2.70
  -5   5  -7    5.60    3.10
  -5   5  -7    1.10    2.60
  -5   5  -7    1.50    2.70
  -6  -5  -7   45.80    4.00
   6  -5   7   42.40    5.30
  -6  -5  -7   50.19    6.70
   6  -5   7   45.40    7.20
  -6   5  -7   43.50    5.90
  -6   5  -7   46.60    5.50
  -6   5  -7   38.90   10.00
  -6   5  -7   43.30    6.10
   6   5   7   44.70    6.00
  -7  -6   7   23.10    7.70
   7  -6  -7   25.50    6.20
  -7   6   7   25.60    7.70
   7   6  -7   24.00    6.30
   6  -6  -7   25.00    5.40
  -6  -6   7   18.40    4.40
  -6   6   7   18.30    4.50
   6   6  -7   23.40    5.00
  -5  -6   7   -1.20    3.10
  -5   6   7    8.00    3.80
   5   6  -7    5.80    3.10
  -4  -6   7  142.99    7.70
   4  -6  -7  133.79    6.90
   4   6  -7  137.39    7.50
  -4   6   7  132.79    8.70
  -3  -6   7   14.80    5.00
   3  -6  -7   14.40    4.30
  -3   6   7   14.30    3.60
   3   6  -7   20.20    4.90
  -2  -6   7   -0.90    2.80
   2  -6  -7    5.10    2.40
   2  -6  -7    4.00    1.90
  -2   6   7    2.10    2.60
   2   6  -7    3.10    2.60
   1  -6  -7    3.30    2.30
   1  -6  -7    2.20    2.00
  -1  -6   7    1.60    2.70
   1   6  -7    5.60    2.60
  -1   6   7    5.00    2.60
   0  -6  -7   44.30    4.30
   0  -6  -7   51.79    4.50
   0  -6   7   39.80    5.80
   0   6   7   42.10    5.10
   0   6  -7   46.90    4.90
  -1  -6  -7   31.70    3.90
  -1  -6  -7   26.60    4.50
   1  -6   7   30.70    5.50
  -1   6  -7   22.90    4.70
   1   6   7   39.80    4.60
  -2  -6  -7   94.79    4.80
  -2  -6  -7   90.19    6.00
   2  -6   7   97.09    6.90
  -2   6  -7   92.39    6.10
   2   6   7   84.89    6.20
   3  -6   7    4.20    2.90
  -3  -6  -7    4.90    2.10
  -3  -6  -7    7.30    2.90
   3  -6   7    2.70    2.20
   3   6   7    8.00    2.60
  -3   6  -7    5.40    2.90
  -3   6  -7    3.30    2.30
   4  -6   7   62.39    5.00
  -4  -6  -7   68.69    6.90
  -4  -6  -7   72.59    3.80
   4  -6   7   76.49    6.30
   4   6   7   77.19    6.10
  -4   6  -7   70.59    5.60
  -4   6  -7   82.19    6.20
  -4   6  -7   67.19    7.00
   5  -6   7   38.90    5.60
  -5  -6  -7   37.40    3.50
  -5  -6  -7   47.00    6.80
   5  -6   7   33.60    4.90
  -5   6  -7   39.90    4.50
   5   6   7   35.50    6.50
  -5   6  -7   25.70    5.30
  -5   6  -7   37.40    6.70
  -5   6  -7   43.10    5.80
   5  -7  -7    3.50    3.10
  -5   7   7    8.50    4.00
   5   7  -7    8.50    3.30
   4  -7  -7   28.50    5.90
  -4  -7   7   23.20    5.50
   4   7  -7   30.90    5.90
  -4   7   7   28.70    7.20
   3  -7  -7    0.20    3.40
  -3  -7   7   -1.90    2.90
  -3   7   7   -2.70    3.10
   2  -7  -7  155.28    7.40
  -2   7   7  148.39    8.10
  -1  -7   7   22.70    5.80
   1  -7  -7   23.60    4.70
   1  -7  -7   28.20    4.90
   1   7  -7   25.60    7.70
  -1   7   7   31.80    5.30
   0  -7  -7   26.50    4.90
   0  -7   7   27.50    5.80
   0  -7  -7   26.30    5.00
   0   7  -7   25.40    6.80
   0   7   7   22.10    5.00
   1  -7   7    2.70    3.70
  -1  -7  -7    0.90    2.60
  -1  -7  -7    1.90    2.40
   1   7   7    3.30    2.60
  -2  -7  -7   55.79    5.60
  -2  -7  -7   49.00    4.70
   2   7   7   45.80    5.70
  -2   7  -7   47.70    6.90
   3  -7   7    6.60    3.10
  -3  -7  -7   10.10    3.50
  -3   7  -7   13.50    3.30
   3   7   7   16.70    5.30
  -4  -7  -7   22.70    6.20
   4  -7   7   24.60    6.10
  -4   7  -7   30.20    6.00
   4   7   7   18.80    5.60
  -3  -8   7    6.80    3.50
   3  -8  -7   -1.00    3.30
   3   8  -7    7.50    3.50
  -2  -8   7   -1.70    3.50
   2  -8  -7    4.30    3.20
  -2   8   7    1.20    3.10
   2   8  -7    5.30    3.40
  -1  -8   7    2.80    3.20
   1  -8  -7    4.90    3.70
  -1   8   7   -1.10    2.90
   1   8  -7   -1.10    3.00
   0  -8   7   66.49    7.50
   0  -8  -7   73.49    6.10
   0  -8  -7   77.39    6.70
   0   8   7   83.79    6.40
   0   8  -7   71.39    7.10
  -1  -8  -7    6.50    2.90
  -1  -8  -7    3.50    3.00
   1  -8   7    1.20    3.50
  -1   8  -7   -0.10    3.30
   1   8   7    5.80    3.00
  -9   0   8    1.80    2.80
  -8   0   8    7.70    2.80
   8   0  -8    9.20    3.20
  -7   0   8   -2.40    2.30
   7   0  -8    1.20    2.70
  -7   0   8   -2.80    2.20
   6   0  -8  176.18    8.00
  -6   0   8  179.98    6.50
  -6   0   8  181.58    8.00
   5   0  -8   -0.40    2.30
  -5   0   8    3.00    2.10
  -5   0   8    0.40    1.80
  -4   0   8   23.30    4.00
  -4   0   8   25.60    3.60
   4   0  -8   22.50    4.30
  -3   0   8    0.80    1.70
   3   0  -8   -3.80    1.80
  -3   0   8    0.80    1.80
  -2   0   8  190.08    7.50
   2   0  -8  200.08    7.50
   1   0  -8   -0.50    1.60
   1   0  -8   -1.70    1.80
  -1   0   8   -1.90    1.50
  -1   0   8    1.60    1.60
   0   0   8  343.87   10.40
   0   0  -8  339.27   10.10
   0   0   8  343.57   10.00
   0   0  -8  337.17   10.30
  -1   0  -8   -2.50    2.30
  -1   0  -8   -0.60    1.60
   1   0   8   -0.30    1.50
   1   0   8    0.80    1.70
  -2   0  -8  389.16   11.10
  -2   0  -8  385.76   11.40
   2   0   8  403.26   11.70
  -3   0  -8    1.50    2.00
  -3   0  -8   -0.80    2.00
   3   0   8    1.90    1.80
  -4   0  -8   85.19    5.70
  -4   0  -8   80.79    4.40
   4   0   8   90.69    5.60
  -5   0  -8   -0.20    2.10
  -5   0  -8    1.30    2.50
   5   0   8   -2.30    2.20
  -6   0  -8  132.59    6.00
   6   0   8  133.69    7.30
  -6   0  -8  131.69    7.30
  -7   0  -8   -0.20    3.00
  -7   0  -8   -3.60    2.50
   7   0   8   -2.20    2.60
   9  -1  -8    1.30    3.40
  -9  -1   8   14.90    5.10
  -9   1   8    2.90    3.10
  -8  -1   8   79.19    5.80
   8  -1  -8   76.39    7.20
  -8  -1   8   92.09    6.60
   8   1  -8   86.29    6.90
  -8   1   8  105.09    7.50
  -7  -1   8   22.50    4.50
  -7  -1   8   21.40    4.10
   7  -1  -8   29.40    5.60
  -7   1   8   35.10    5.40
   7   1  -8   23.00    5.30
  -6  -1   8   50.49    4.70
  -6  -1   8   36.90    4.00
   6  -1  -8   40.20    5.10
  -6   1   8   40.00    5.20
  -6   1   8   38.10    3.50
   6   1  -8   41.70    5.50
  -5  -1   8    5.50    1.90
   5  -1  -8    1.70    2.30
  -5  -1   8    4.30    2.10
  -5   1   8    4.40    1.70
   5   1  -8    4.30    2.60
  -5   1   8    6.60    2.40
  -4  -1   8  323.47    9.70
   4  -1  -8  327.27    9.00
  -4  -1   8  325.67   10.40
   4  -1  -8  339.77   10.80
  -4   1   8  305.57    8.80
   4   1  -8  328.37   10.70
  -4   1   8  338.17   11.20
   3  -1  -8    1.50    2.00
  -3  -1   8    2.50    1.80
  -3  -1   8    1.30    1.70
   3  -1  -8    2.20    1.40
   3   1  -8    3.20    2.20
  -3   1   8    3.00    1.50
  -3   1   8    1.80    1.90
   2  -1  -8   17.20    3.50
  -2  -1   8   15.40    3.10
  -2  -1   8   16.70    3.30
   2  -1  -8   12.10    2.80
  -2   1   8   15.20    2.80
  -2   1   8    9.10    2.30
   2   1  -8   13.00    3.70
   1  -1  -8   -1.60    1.70
   1  -1  -8    0.40    1.60
  -1  -1   8   -2.40    1.50
  -1  -1   8   -1.30    1.50
   1   1  -8    1.10    2.00
  -1   1   8    0.50    1.70
  -1   1   8    3.10    2.00
   0  -1   8  362.46   10.60
   0  -1   8  346.67   10.50
   0  -1  -8  358.96   10.40
   0  -1  -8  361.16   10.20
   0   1  -8  356.76   10.90
   0   1  -8  368.16   10.80
   0   1   8  351.16   11.00
   1  -1   8   31.70    3.60
  -1  -1  -8   20.60    3.50
   1  -1   8   27.00    3.50
  -1  -1  -8   27.50    4.30
  -1   1  -8   27.30    3.90
  -1   1  -8   29.90    4.00
   1   1   8   28.90    3.70
   2  -1   8  182.38    6.90
  -2  -1  -8  188.68    7.00
  -2  -1  -8  185.38    6.30
   2  -1   8  182.58    6.80
   2   1   8  182.88    7.20
  -2   1  -8  184.58    7.00
  -2   1  -8  176.58    7.00
   3  -1   8    2.00    1.80
  -3  -1  -8    4.10    1.70
   3  -1   8    3.90    1.90
  -3  -1  -8    3.10    2.10
   3   1   8   -0.60    2.00
  -3   1  -8    5.20    2.20
  -3   1  -8    2.10    2.80
   4  -1   8  252.37    8.90
  -4  -1  -8  250.97    9.00
  -4  -1  -8  249.18    6.90
  -4   1  -8  241.48    8.90
   4   1   8  255.87    9.00
  -4   1  -8  232.28    8.30
  -5  -1  -8   13.30    3.30
  -5  -1  -8   10.00    2.80
   5  -1   8   12.80    4.40
  -5   1  -8    9.90    2.70
  -5   1  -8   17.20    4.50
   5   1   8    7.80    2.60
  -6  -1  -8   75.29    4.70
   6  -1   8   64.49    6.10
  -6  -1  -8   68.89    6.00
  -6   1  -8   75.59    6.10
  -6   1  -8   61.19    4.70
   6   1   8   71.09    5.80
  -7  -1  -8    4.00    2.60
   7  -1   8   -3.60    2.70
  -7  -1  -8   -5.00    2.70
  -7   1  -8   -0.30    2.70
  -7   1  -8    2.70    2.70
   7   1   8    2.30    2.80
  -9  -2   8    7.00    2.90
   9  -2  -8    3.30    3.40
   9   2  -8    5.60    4.50
  -9   2   8    6.80    3.40
   8  -2  -8    5.10    3.50
  -8  -2   8   -4.30    2.40
  -8  -2   8    1.00    2.30
   8   2  -8    4.30    3.30
  -8   2   8    3.90    3.80
  -7  -2   8    0.70    2.30
  -7  -2   8    0.00    2.00
   7  -2  -8    1.00    2.80
  -7   2   8    0.90    2.70
   7   2  -8    0.10    2.80
  -6  -2   8  105.89    5.80
   6  -2  -8  103.39    6.60
  -6  -2   8  107.49    5.80
   6   2  -8  116.09    6.80
  -6   2   8  105.89    7.10
  -5  -2   8   43.30    4.30
  -5  -2   8   50.59    4.10
   5  -2  -8   48.40    2.60
   5  -2  -8   38.40    4.80
  -5   2   8   53.49    5.70
   5   2  -8   39.60    5.40
  -4  -2   8   81.69    5.00
   4  -2  -8   80.09    5.30
  -4  -2   8   78.59    4.70
   4  -2  -8   68.79    5.20
   4   2  -8   75.99    5.60
  -4   2   8   84.09    5.80
  -3  -2   8    1.00    1.60
  -3  -2   8    0.10    1.80
   3  -2  -8    2.60    2.10
   3  -2  -8    3.50    1.40
  -3   2   8    0.70    2.10
   3   2  -8    3.00    2.40
   2  -2  -8  289.17    8.20
  -2  -2   8  302.07    9.50
   2  -2  -8  283.07    9.10
  -2   2   8  295.37   10.30
   2   2  -8  297.17    9.90
   1  -2  -8   58.69    3.90
  -1  -2   8   53.89    4.40
  -1  -2   8   58.79    4.40
   1  -2  -8   55.69    4.40
  -1   2   8   54.79    4.60
   1   2  -8   55.39    4.60
   0  -2   8  119.09    5.80
   0  -2  -8  126.49    5.10
   0  -2  -8  129.39    5.20
   0  -2   8  129.19    5.40
   0   2   8  123.29    6.10
   0   2  -8  122.49    5.90
  -1  -2  -8   13.70    3.40
   1  -2   8    8.70    2.20
   1   2   8   19.00    3.60
  -1   2  -8   12.60    3.70
  -1   2  -8   15.60    3.90
   2  -2   8  136.89    5.80
  -2  -2  -8  143.69    5.20
   2  -2   8  132.09    6.30
  -2  -2  -8  137.79    6.00
  -2   2  -8  135.49    6.40
  -2   2  -8  140.99    6.20
   2   2   8  143.39    6.40
   3  -2   8   55.09    4.30
  -3  -2  -8   54.29    3.20
   3  -2   8   46.90    4.30
  -3  -2  -8   54.09    4.80
  -3   2  -8   48.60    4.40
  -3   2  -8   58.99    5.10
   3   2   8   63.59    4.90
   4  -2   8  239.48    8.60
  -4  -2  -8  239.68    7.50
   4  -2   8  242.48    8.70
  -4  -2  -8  248.58    8.90
  -4   2  -8  235.58    8.20
   4   2   8  250.27    9.20
  -4   2  -8  241.48    9.10
  -5  -2  -8    5.00    2.60
  -5  -2  -8    3.00    2.10
   5  -2   8    3.70    2.30
   5   2   8    3.90    2.50
  -5   2  -8    0.00    2.70
  -5   2  -8    6.20    2.40
   6  -2   8  125.99    7.20
  -6  -2  -8  125.79    5.80
  -6   2  -8  127.59    7.20
  -7  -2  -8   17.90    4.50
  -7  -2  -8   28.40    6.00
   7  -2   8   28.80    5.50
  -7   2  -8   27.10    4.50
   7   2   8   22.00    5.80
  -7   2  -8   17.00    5.60
  -8  -3   8   71.19    6.70
  -8  -3   8   75.39    5.70
   8  -3  -8   91.99    7.30
   8   3  -8   87.69    7.30
  -8   3   8   92.99    7.90
  -7  -3   8   45.10    4.50
   7  -3  -8   40.00    5.80
   7   3  -8   46.00    5.90
  -7   3   8   32.80    6.20
   6  -3  -8    6.90    2.90
  -6  -3   8   11.10    3.30
   6   3  -8   12.00    3.40
  -6   3   8   10.10    3.40
   5  -3  -8    1.70    2.40
  -5  -3   8    3.80    1.80
  -5  -3   8    1.70    2.20
   5   3  -8    0.80    2.60
  -5   3   8    4.10    2.70
   4  -3  -8  165.48    7.20
  -4  -3   8  167.88    7.30
   4  -3  -8  174.08    4.90
  -4   3   8  182.88    8.40
   4   3  -8  175.18    7.80
  -3  -3   8   48.20    4.50
   3  -3  -8   48.10    2.90
  -3  -3   8   49.60    4.10
   3  -3  -8   51.69    4.40
  -3   3   8   56.09    5.50
   3   3  -8   48.50    4.90
   2  -3  -8  113.89    5.40
  -2  -3   8  110.29    5.10
  -2  -3   8  106.99    6.00
   2  -3  -8  108.79    4.40
   2   3  -8  110.49    6.10
  -2   3   8  108.29    6.50
  -1  -3   8   14.90    3.10
  -1  -3   8   18.30    4.10
   1  -3  -8   12.20    3.30
   1  -3  -8   19.20    3.30
   1   3  -8   11.60    2.60
  -1   3   8   15.70    3.90
   0  -3  -8  255.27    7.90
   0  -3   8  247.48    9.00
   0  -3  -8  249.28    7.80
   0   3   8  245.48    9.20
   0   3  -8  253.87    8.80
  -1  -3  -8  111.89    4.70
   1  -3   8  107.39    5.90
  -1  -3  -8  106.29    5.10
   1  -3   8  105.59    4.90
  -1   3  -8  105.29    5.60
   1   3   8  112.39    5.90
  -2  -3  -8   72.99    4.80
  -2  -3  -8   67.99    3.70
   2  -3   8   66.49    4.90
   2  -3   8   75.59    4.40
  -2   3  -8   64.99    5.40
   2   3   8   73.99    5.40
  -2   3  -8   71.19    4.90
   3  -3   8    0.90    1.90
   3  -3   8    0.80    2.00
  -3  -3  -8    2.50    2.00
   3   3   8    1.60    2.10
  -3   3  -8   -1.40    2.00
  -3   3  -8    0.00    2.30
  -4  -3  -8   71.19    5.60
  -4  -3  -8   75.09    4.30
   4  -3   8   79.19    5.40
   4  -3   8   79.79    5.30
  -4   3  -8   73.89    6.10
   4   3   8   86.99    6.00
  -4   3  -8   78.49    5.20
   5  -3   8   74.99    5.70
   5  -3   8   78.59    5.70
  -5  -3  -8   80.39    6.30
  -5  -3  -8   68.19    4.30
   5   3   8   70.69    6.20
  -5   3  -8   70.89    6.20
  -5   3  -8   65.79    5.10
  -6  -3  -8   83.09    6.90
  -6  -3  -8   84.99    5.00
   6  -3   8   87.59    6.10
   6   3   8   79.39    6.50
  -6   3  -8   75.69    5.30
   7  -3   8    0.70    2.90
  -7  -3  -8    1.40    3.20
  -7  -3  -8    1.50    2.80
   7   3   8    0.40    3.00
  -7   3  -8   -1.10    2.70
  -7   3  -8    0.00    3.50
   8  -4  -8    3.60    3.60
  -8  -4   8   -4.10    3.10
  -8   4   8   -3.10    3.80
   8   4  -8    8.50    3.70
  -7  -4   8   -4.60    3.00
   7  -4  -8    0.50    3.20
   7   4  -8    3.40    3.20
  -7   4   8   -3.40    3.00
  -6  -4   8   31.20    5.20
  -6  -4   8   49.99    4.10
   6  -4  -8   47.90    5.90
   6   4  -8   37.80    6.10
  -6   4   8   40.30    6.80
   5  -4  -8   82.29    5.90
  -5  -4   8   64.29    4.40
  -5  -4   8   73.49    6.10
   5   4  -8   78.89    6.40
  -5   4   8   72.89    6.90
  -4  -4   8   35.30    4.80
  -4  -4   8   35.40    5.10
   4  -4  -8   34.50    4.50
  -4   4   8   47.10    6.00
   4   4  -8   25.80    5.20
   3  -4  -8   18.70    4.10
   3  -4  -8   13.30    2.50
  -3  -4   8   13.30    4.20
  -3  -4   8   19.00    3.10
  -3   4   8   19.80    5.10
   3   4  -8   17.90    4.50
  -2  -4   8  101.39    6.20
   2  -4  -8  100.39    4.30
   2  -4  -8  104.79    5.40
  -2  -4   8   93.59    4.40
   2   4  -8   93.59    5.80
  -2   4   8  103.59    6.50
  -1  -4   8   62.69    3.70
   1  -4  -8   70.59    4.00
   1  -4  -8   63.09    4.50
  -1  -4   8   63.19    5.30
   1   4  -8   64.09    5.00
  -1   4   8   57.09    5.40
   0  -4  -8   92.89    4.80
   0  -4   8   95.69    4.50
   0  -4   8   97.39    6.20
   0  -4  -8   92.79    4.80
   0   4   8  100.09    6.10
   0   4  -8   95.39    5.70
  -1  -4  -8    0.80    1.70
   1  -4   8   -0.20    1.60
   1  -4   8    3.70    2.30
  -1  -4  -8    3.40    2.00
  -1   4  -8    0.10    2.20
   2  -4   8  121.19    5.50
  -2  -4  -8  129.09    6.00
   2  -4   8  125.79    6.70
  -2  -4  -8  123.69    4.90
  -2   4  -8  117.09    6.30
   2   4   8  121.99    6.80
  -3  -4  -8  134.29    5.00
  -3  -4  -8  136.59    6.60
   3  -4   8  131.89    7.00
   3  -4   8  133.49    6.00
  -3  -4  -8  133.19    5.00
  -3   4  -8  130.09    7.50
   3   4   8  133.69    7.20
  -3   4  -8  144.49    6.60
  -4  -4  -8  108.99    6.70
   4  -4   8   93.59    5.80
  -4  -4  -8  111.59    4.60
   4  -4   8   98.79    6.40
  -4   4  -8  111.59    7.10
  -4   4  -8  116.29    6.10
   4   4   8  109.39    6.70
   5  -4   8   16.40    4.80
  -5  -4  -8    6.40    2.20
   5  -4   8    6.80    2.50
  -5   4  -8    8.10    3.20
  -5   4  -8    2.50    2.60
   6  -4   8    9.80    2.90
  -6  -4  -8   10.80    2.70
  -6  -4  -8   10.20    3.60
  -6   4  -8   27.80    6.40
  -6   4  -8   20.50    5.50
  -6   4  -8    6.90    3.00
   6   4   8    8.80    3.20
   7  -5  -8   17.10    3.90
  -7  -5   8    8.90    4.20
  -7   5   8   28.70    7.50
   7   5  -8   14.70    3.90
  -6  -5   8    1.40    3.00
   6  -5  -8    3.50    3.00
   6   5  -8    5.40    3.40
  -6   5   8    6.80    3.50
   5  -5  -8   11.30    3.10
   5   5  -8    6.40    3.20
  -5   5   8   19.30    6.80
   4  -5  -8   61.89    5.70
  -4  -5   8   61.39    5.90
  -4   5   8   60.29    7.10
   4   5  -8   64.59    6.30
  -3  -5   8   64.19    6.10
   3  -5  -8   59.89    5.30
  -3   5   8   63.79    6.90
   3   5  -8   74.29    6.00
   2  -5  -8   26.30    3.40
  -2  -5   8   38.40    5.30
   2  -5  -8   34.10    4.60
  -2   5   8   40.60    5.60
   2   5  -8   44.50    5.30
   1  -5  -8   14.70    3.50
  -1  -5   8    8.50    2.90
   1  -5  -8   12.30    3.90
   1   5  -8   10.00    2.90
  -1   5   8    9.00    2.60
   0  -5   8   68.79    3.80
   0  -5  -8   76.29    4.70
   0  -5   8   70.09    5.90
   0  -5  -8   72.09    4.70
   0   5   8   74.09    5.90
   0   5  -8   82.39    5.90
  -1  -5  -8  120.69    6.10
   1  -5   8  121.99    7.10
   1  -5   8  121.19    5.20
  -1  -5  -8  121.99    5.40
  -1   5  -8  122.19    6.60
   1   5   8  133.69    6.80
  -2  -5  -8    9.10    2.60
   2  -5   8    8.50    1.90
   2  -5   8    8.20    3.20
  -2  -5  -8    9.40    1.80
  -2  -5  -8   10.30    3.30
   2   5   8    6.50    2.80
  -2   5  -8   14.90    4.60
  -3  -5  -8   14.90    4.80
   3  -5   8   21.60    4.80
  -3  -5  -8   16.10    2.80
   3  -5   8   20.80    3.60
  -3   5  -8   11.50    3.50
   3   5   8   12.20    3.10
  -3   5  -8   12.10    3.00
  -4  -5  -8   24.30    5.40
   4  -5   8   17.80    4.30
   4  -5   8   29.40    5.70
  -4  -5  -8   24.60    3.10
  -4   5  -8   26.70    5.40
   4   5   8   34.60    5.50
  -4   5  -8   26.60    6.00
   5  -5   8   37.80    5.40
   5  -5   8   45.40    5.30
  -5  -5  -8   47.90    6.50
  -5  -5  -8   35.60    3.90
   5   5   8   34.70    6.20
  -5   5  -8   44.70    6.60
  -5   5  -8   40.00    5.90
   6  -6  -8   -3.30    3.10
  -6  -6   8   -3.10    3.10
  -6   6   8    6.20    4.10
   6   6  -8    3.90    3.40
   5  -6  -8   13.30    3.50
  -5  -6   8    5.60    3.30
   5   6  -8   18.80    6.30
  -5   6   8   13.50    4.30
   4  -6  -8   -0.60    4.90
  -4   6   8    3.50    3.60
   3  -6  -8   -2.00    2.50
  -3  -6   8   -1.00    2.80
  -3   6   8   -2.40    2.80
   3   6  -8   -0.40    2.70
   2  -6  -8   20.50    4.60
  -2  -6   8   21.30    5.60
  -2   6   8   15.50    3.60
   2   6  -8   24.50    5.00
  -1  -6   8  143.29    8.00
   1  -6  -8  112.09    5.90
   1  -6  -8  133.99    6.30
  -1   6   8  121.99    7.30
   1   6  -8  131.19    7.30
   0  -6  -8    7.20    2.40
   0  -6  -8    8.20    2.60
   0  -6   8    5.20    3.30
   0   6  -8   16.10    4.90
   0   6   8    4.00    2.80
  -1  -6  -8   19.20    4.70
  -1  -6  -8   23.80    4.20
   1  -6   8    8.30    3.60
   1   6   8   21.60    5.60
  -1   6  -8   15.60    3.30
  -2  -6  -8   34.60    5.30
   2  -6   8   26.50    6.40
  -2  -6  -8   24.80    4.20
  -2   6  -8   28.90    5.60
   2   6   8   36.20    5.60
   3  -6   8   72.29    6.80
  -3  -6  -8   80.19    6.30
  -3   6  -8   80.59    6.70
   3   6   8   78.99    6.70
   4  -6   8   23.50    5.60
  -4  -6  -8   19.40    6.10
  -4   6  -8    9.30    3.80
  -4   6  -8   18.00    4.00
   4   6   8   18.40    5.80
  -4  -7   8    6.60    3.40
   4  -7  -8    9.50    3.40
   4   7  -8    6.30    3.60
  -4   7   8   10.70    3.90
   3  -7  -8   82.79    6.60
  -3  -7   8   86.59    7.50
   3   7  -8   78.79    7.00
  -2  -7   8    3.00    3.20
   2  -7  -8   -1.60    3.40
   2   7  -8   -3.80    3.00
  -2   7   8   -1.00    2.90
  -1  -7   8    3.30    3.20
   1  -7  -8   14.70    5.00
  -1   7   8    6.30    3.20
   1   7  -8    8.20    3.30
   0  -7  -8    7.50    2.80
   0  -7  -8   10.90    3.10
   0  -7   8   12.50    3.80
   0   7   8    6.30    3.20
   0   7  -8   16.50    5.50
  -1  -7  -8   59.49    5.90
  -1  -7  -8   61.29    5.40
   1  -7   8   53.59    7.00
  -1   7  -8   57.29    6.50
   1   7   8   60.29    6.50
   2  -7   8    2.20    3.30
  -2  -7  -8    1.00    2.80
  -2  -7  -8    0.50    2.80
  -2   7  -8    0.90    3.20
   2   7   8   -1.20    3.10
  -9   0   9    3.60    3.20
   9   0  -9   11.70    4.30
   8   0  -9   -0.10    3.80
  -8   0   9   -1.20    2.70
   7   0  -9  134.19    8.00
  -7   0   9  143.79    7.80
  -6   0   9    4.00    2.30
   6   0  -9   -0.80    3.00
   5   0  -9    1.30    2.60
  -5   0   9    4.80    2.40
  -5   0   9    3.20    2.40
   4   0  -9   -2.10    2.30
  -4   0   9   -1.00    2.00
  -4   0   9   -1.40    1.70
   3   0  -9  953.20   24.00
  -3   0   9  886.91   22.50
  -3   0   9  920.11   24.00
  -2   0   9   -2.30    1.90
   2   0  -9   -1.80    1.80
   2   0  -9   -1.20    2.10
  -2   0   9    2.40    1.70
  -1   0   9   -0.40    2.00
   1   0  -9    4.60    2.00
  -1   0   9    3.00    1.80
   1   0  -9    2.30    2.20
   0   0   9    0.60    1.70
   0   0   9    3.00    1.80
   0   0  -9   -0.20    2.20
   0   0  -9    0.40    1.80
   1   0   9  325.47   10.00
  -1   0  -9  322.97   10.30
   1   0   9  319.37   10.60
  -1   0  -9  314.87    9.90
   2   0   9    1.30    2.10
  -2   0  -9    1.00    1.90
  -2   0  -9   -0.70    2.10
   3   0   9   60.99    5.20
  -3   0  -9   48.50    5.10
  -4   0  -9   12.80    4.10
  -4   0  -9   -0.90    2.50
   4   0   9   -1.60    2.40
  -5   0  -9  318.47   11.30
   5   0   9  336.07   11.70
  -6   0  -9   -0.10    2.90
  -6   0  -9    1.80    2.60
   6   0   9    1.20    2.90
  -7   0  -9   14.50    4.00
   8  -1  -9   -0.60    3.60
  -8  -1   9    1.30    2.70
   8   1  -9   -0.70    4.20
  -8   1   9   -0.20    2.90
  -7  -1   9    6.00    2.80
   7  -1  -9    8.60    3.60
  -7  -1   9    2.80    2.30
   7   1  -9    3.60    3.40
  -7   1   9    4.20    3.00
  -6  -1   9   -3.40    2.00
  -6  -1   9    0.20    2.20
   6  -1  -9    4.00    2.80
   6   1  -9    2.50    3.00
  -6   1   9    1.90    2.80
  -5  -1   9  229.68    8.60
   5  -1  -9  199.68    6.80
  -5  -1   9  220.78    7.70
   5  -1  -9  213.08    8.80
  -5   1   9  195.68    6.80
  -5   1   9  214.28    9.00
   5   1  -9  203.28    9.20
  -4  -1   9    1.90    1.90
  -4  -1   9   -1.80    1.90
   4  -1  -9    2.80    1.70
   4  -1  -9   -2.70    2.30
  -4   1   9    1.30    2.30
   4   1  -9    0.30    2.40
  -4   1   9   -0.30    1.70
   3  -1  -9   -3.60    2.20
  -3  -1   9   -0.10    1.90
  -3  -1   9   -0.10    1.90
  -3   1   9    0.90    2.20
   3   1  -9   -1.30    2.50
  -3   1   9   -1.00    2.10
  -2  -1   9   -0.80    1.90
   2  -1  -9    2.20    1.80
  -2  -1   9    1.70    1.70
   2  -1  -9    1.60    2.20
   2   1  -9   -0.30    2.40
  -2   1   9   -0.90    1.70
  -2   1   9    0.50    2.10
   1  -1  -9  455.05   13.30
  -1  -1   9  465.85   13.30
   1  -1  -9  472.55   12.80
  -1  -1   9  443.76   13.40
   1   1  -9  472.05   13.40
   1   1  -9  483.25   13.90
  -1   1   9  483.15   14.10
  -1   1   9  463.35   12.70
   0  -1   9   -0.20    1.80
   0  -1  -9    1.20    2.00
   0  -1  -9    2.40    1.80
   0  -1   9    0.80    1.80
   0   1  -9    1.80    2.20
   0   1  -9    2.20    2.20
   0   1   9   -1.00    1.90
  -1  -1  -9   24.60    3.80
   1  -1   9   17.00    3.90
  -1  -1  -9   22.20    4.00
   1  -1   9   27.90    4.10
   1   1   9   33.90    4.60
  -1   1  -9   19.60    4.20
  -1   1  -9   24.80    4.60
   2  -1   9    0.60    2.00
   2  -1   9   -2.10    2.00
  -2  -1  -9   -0.20    2.30
  -2  -1  -9    0.70    1.90
  -2   1  -9    1.20    2.30
   2   1   9    2.10    2.20
  -2   1  -9   -0.70    2.30
   3  -1   9  300.67   10.10
  -3  -1  -9  295.37   10.00
  -3  -1  -9  305.27    8.90
  -3   1  -9  291.77   10.30
   3   1   9  301.57   10.50
  -3   1  -9  297.97    9.80
   4  -1   9   22.20    4.60
  -4  -1  -9   16.60    4.90
  -4   1  -9    9.60    2.90
   4   1   9   16.30    4.80
  -4   1  -9   18.90    4.40
   5  -1   9   95.29    6.60
  -5  -1  -9   86.89    5.00
  -5  -1  -9   96.29    6.90
  -5   1  -9  103.49    6.70
   5   1   9   96.49    6.70
  -6  -1  -9   -0.50    2.90
  -6  -1  -9    1.90    2.50
   6  -1   9    3.20    2.80
  -6   1  -9    3.40    2.70
   6   1   9    2.50    2.60
  -6   1  -9    0.70    2.80
  -8  -2   9    0.30    2.50
  -8  -2   9   -4.60    2.80
   8  -2  -9    1.80    3.60
   8   2  -9    4.10    3.30
  -8   2   9    2.80    3.10
  -7  -2   9  146.29    7.00
  -7  -2   9  132.19    6.80
   7  -2  -9  123.49    8.90
   7   2  -9  150.68    8.50
  -7   2   9  137.49    9.30
  -6  -2   9    5.80    2.10
   6  -2  -9    2.10    3.00
  -6  -2   9    3.10    2.40
  -6   2   9   18.40    5.60
   6   2  -9    8.50    3.10
   5  -2  -9    1.00    2.90
  -5  -2   9    3.70    2.00
  -5  -2   9    1.80    2.10
   5   2  -9    0.20    2.90
  -5   2   9   -1.70    2.50
   4  -2  -9    9.60    2.80
  -4  -2   9   13.00    3.50
  -4  -2   9    6.60    2.30
  -4   2   9    6.80    3.00
   4   2  -9   10.20    3.00
   3  -2  -9  283.27    9.90
   3  -2  -9  277.67    8.30
  -3  -2   9  284.37    9.50
  -3  -2   9  309.97   10.00
  -3   2   9  286.87   10.90
   3   2  -9  298.67   10.50
  -2  -2   9   30.60    3.90
  -2  -2   9   29.80    4.30
   2  -2  -9   38.30    3.50
   2  -2  -9   36.60    4.20
  -2   2   9   36.00    4.90
   2   2  -9   44.00    5.10
   1  -2  -9   14.00    3.50
  -1  -2   9   19.40    4.10
  -1  -2   9   27.40    3.70
   1  -2  -9   17.60    3.60
   1   2  -9   15.30    4.30
  -1   2   9   20.10    4.20
   0  -2   9    3.90    2.10
   0  -2  -9    5.70    1.90
   0  -2  -9    6.00    2.00
   0  -2   9   12.40    3.40
   0   2  -9    5.00    2.50
   0   2   9    5.10    2.30
  -1  -2  -9  417.66   12.10
   1  -2   9  421.46   12.30
   1  -2   9  414.26   12.50
  -1  -2  -9  409.66   11.50
  -1   2  -9  421.26   13.00
   1   2   9  420.26   12.90
  -1   2  -9  413.66   12.70
   2  -2   9    0.20    2.10
  -2  -2  -9    1.60    1.90
   2  -2   9    3.60    2.30
  -2  -2  -9    2.80    2.20
  -2   2  -9    4.10    2.70
   2   2   9    4.70    2.40
  -2   2  -9    6.40    2.50
  -3  -2  -9   11.00    3.30
  -3  -2  -9   18.30    4.80
   3  -2   9   20.10    4.20
   3  -2   9   20.00    4.30
  -3   2  -9   11.20    2.90
   3   2   9   21.80    5.10
  -3   2  -9   22.70    4.40
   4  -2   9   -1.90    2.10
  -4  -2  -9   -0.20    2.50
   4  -2   9    3.50    2.50
   4   2   9   -1.20    2.50
  -4   2  -9    0.30    2.60
  -4   2  -9    1.20    2.40
   5  -2   9  150.18    7.70
  -5  -2  -9  131.79   11.90
  -5  -2  -9  138.59    6.10
  -5   2  -9  159.38    9.20
  -5   2  -9  127.99   11.50
  -6  -2  -9   29.50    6.00
  -6  -2  -9   27.00    4.40
   6  -2   9   30.40    5.60
  -6   2  -9   37.80    6.50
  -6   2  -9   20.80    4.50
   6   2   9   17.90    6.00
  -8  -3   9    3.40    2.90
  -8  -3   9    3.60    2.50
   8  -3  -9    0.60    3.30
   8   3  -9   -1.90    3.40
  -8   3   9    2.60    3.70
  -7  -3   9   -0.10    2.80
  -7  -3   9    3.10    2.10
   7  -3  -9    0.50    3.40
  -7   3   9    0.80    3.20
   7   3  -9    0.60    4.90
   6  -3  -9    1.20    2.90
  -6  -3   9    2.10    2.60
  -6  -3   9    5.30    1.90
  -6   3   9    3.80    3.30
   6   3  -9    6.20    3.20
  -5  -3   9  104.49    6.30
  -5  -3   9  100.29    5.30
   5  -3  -9  111.29    7.00
  -5   3   9  100.69    7.80
   5   3  -9  110.19    7.40
  -4  -3   9   30.70    5.00
  -4  -3   9   24.40    3.70
   4  -3  -9   31.70    4.90
  -4   3   9   33.10    5.90
   4   3  -9   25.00    5.40
  -3  -3   9   -2.80    2.20
   3  -3  -9    2.90    1.50
   3  -3  -9   -0.30    2.30
  -3  -3   9   -0.50    1.70
  -3   3   9   -0.10    2.40
   3   3  -9   -4.00    2.30
  -2  -3   9   47.20    5.10
  -2  -3   9   52.79    4.00
   2  -3  -9   52.39    4.70
   2   3  -9   40.10    5.10
  -2   3   9   43.00    5.40
   1  -3  -9  155.68    6.50
  -1  -3   9  154.08    6.20
   1  -3  -9  154.68    6.10
  -1  -3   9  158.68    7.40
  -1   3   9  156.58    7.70
   1   3  -9  152.58    7.40
   0  -3  -9   27.20    4.00
   0  -3  -9   35.40    3.70
   0  -3   9   32.10    4.80
   0  -3   9   32.40    3.90
   0   3  -9   27.90    4.70
   0   3   9   23.80    4.60
   1  -3   9   40.00    4.90
   1  -3   9   35.00    4.00
  -1  -3  -9   39.10    4.50
  -1  -3  -9   36.50    3.70
   1   3   9   47.00    5.30
  -1   3  -9   41.20    4.90
   2  -3   9   11.50    3.70
   2  -3   9   20.10    4.50
  -2  -3  -9   13.20    3.20
  -2  -3  -9    6.50    2.40
  -2   3  -9    7.40    2.60
  -2   3  -9    2.60    2.70
   2   3   9    7.60    2.80
  -3  -3  -9  143.79    7.00
   3  -3   9  145.49    7.50
   3  -3   9  150.78    6.90
  -3  -3  -9  142.89    5.40
  -3   3  -9  136.49    7.80
  -3   3  -9  152.68    7.00
   3   3   9  141.99    7.60
  -4  -3  -9   56.39    5.80
   4  -3   9   69.69    6.20
   4  -3   9   60.99    5.50
  -4  -3  -9   67.59    4.30
   4   3   9   73.59    6.30
  -4   3  -9   66.29    5.50
  -4   3  -9   66.69    6.10
  -5  -3  -9   26.10    3.80
   5  -3   9   17.30    5.10
  -5  -3  -9   24.20    5.80
   5   3   9   27.60    5.80
  -5   3  -9   28.90    5.10
  -5   3  -9   30.60    6.40
   6  -3   9   -5.20    2.60
  -6  -3  -9    2.90    3.40
  -6  -3  -9    3.00    2.60
   6   3   9    1.20    3.10
  -6   3  -9   -2.90    2.80
  -6   3  -9   -1.00    3.40
   7  -4  -9   48.10    7.20
  -7  -4   9   68.69    6.50
  -7   4   9   63.89    8.00
   7   4  -9   62.29    7.30
  -6  -4   9   24.10    5.60
   6  -4  -9   29.70    6.00
  -6   4   9   22.30    6.50
  -5  -4   9   -4.10    2.60
   5  -4  -9   -2.90    2.50
   5   4  -9    2.70    2.90
  -5   4   9   -2.00    3.10
   4  -4  -9   75.69    6.10
  -4  -4   9   77.99    6.10
   4   4  -9   64.39    6.60
  -4   4   9   76.89    7.70
   3  -4  -9  104.59    6.00
  -3  -4   9   90.69    6.40
  -3   4   9   98.49    7.30
   3   4  -9   95.09    6.70
   2  -4  -9   81.59    5.40
  -2  -4   9   82.69    6.20
  -2  -4   9   70.59    4.50
  -2   4   9   71.49    6.40
   2   4  -9   79.49    6.30
   1  -4  -9    1.70    2.00
  -1  -4   9    4.30    2.80
   1  -4  -9    6.40    2.30
   1   4  -9    5.00    2.90
  -1   4   9    4.80    2.60
   0  -4  -9   39.00    4.30
   0  -4   9   41.00    5.60
   0  -4   9   41.00    3.70
   0  -4  -9   39.20    4.30
   0   4  -9   35.50    5.10
   0   4   9   42.80    5.40
   1  -4   9  178.68    8.50
  -1  -4  -9  192.88    7.70
   1  -4   9  195.88    7.00
  -1  -4  -9  191.18    6.90
  -1   4  -9  191.68    8.30
   1   4   9  196.38    8.80
  -2  -4  -9   74.39    4.40
   2  -4   9   77.79    4.90
   2  -4   9   89.29    6.50
  -2  -4  -9   83.29    5.70
  -2   4  -9   80.59    7.00
   2   4   9   77.49    6.80
  -2   4  -9   80.49    6.10
   3  -4   9   11.30    4.00
   3  -4   9    6.00    3.10
  -3  -4  -9    7.80    2.10
  -3  -4  -9   16.10    4.70
   3   4   9    5.60    3.00
  -3   4  -9    6.40    2.90
  -3   4  -9    8.00    3.30
   4  -4   9   27.60    6.70
  -4  -4  -9   26.70    6.20
  -4  -4  -9   27.90    3.50
   4  -4   9   32.10    5.00
  -4   4  -9   29.90    5.50
  -4   4  -9   27.50    8.40
   5  -4   9   55.79    5.40
   5  -4   9   64.69    6.40
  -5  -4  -9   48.10    4.20
  -5  -4  -9   45.40    6.60
   5   4   9   42.70    6.50
  -5   4  -9   37.80    5.90
  -5   4  -9   41.50    6.80
  -6  -5   9   32.40    6.10
   6  -5  -9   27.30    6.80
   6   5  -9   50.09    7.00
  -6   5   9   33.70    7.60
  -5  -5   9   32.50    5.90
   5  -5  -9   31.50    5.90
   5   5  -9   39.30    6.60
  -5   5   9   42.90    7.30
  -4  -5   9   44.50    6.00
   4  -5  -9   39.20    6.10
  -4   5   9   52.49    7.50
   4   5  -9   42.90    7.00
   3  -5  -9   -2.80    2.60
  -3  -5   9    1.30    2.80
   3   5  -9    3.50    2.90
  -3   5   9    6.10    3.30
   2  -5  -9   66.19    4.90
   2  -5  -9   51.59    5.70
  -2  -5   9   62.09    6.50
  -2   5   9   63.99    6.70
   2   5  -9   61.99    6.30
   1  -5  -9   69.69    5.50
  -1  -5   9   73.79    6.50
   1  -5  -9   68.29    4.90
   1   5  -9   70.49    6.30
  -1   5   9   72.59    6.70
   0  -5  -9   82.99    5.30
   0  -5  -9   82.29    5.40
   0  -5   9   78.99    6.80
   0   5   9   66.29    6.40
   0   5  -9   70.39    6.20
  -1  -5  -9    8.00    2.70
   1  -5   9   16.70    3.40
  -1  -5  -9    8.90    2.40
   1  -5   9    8.00    3.40
   1   5   9    6.70    3.00
  -1   5  -9    6.90    3.10
   2  -5   9   16.90    3.80
  -2  -5  -9   21.20    3.00
   2  -5   9   26.70    6.50
  -2  -5  -9   26.30    3.90
  -2  -5  -9   25.80    5.10
   2   5   9   21.40    5.90
  -2   5  -9   16.60    5.40
  -3  -5  -9   44.70    5.90
   3  -5   9   61.49    6.50
   3  -5   9   59.29    4.60
  -3  -5  -9   47.40    3.60
  -3   5  -9   51.99    6.20
  -3   5  -9   36.20    7.20
  -4  -5  -9   70.49    4.40
  -4  -5  -9   79.89    7.30
   4  -5   9   81.59    7.10
   4  -5   9   88.69    5.80
  -4   5  -9   69.09    7.30
  -4   5  -9   77.59    6.90
   4   5   9   80.99    7.10
   5  -6  -9   -2.00    3.10
  -5  -6   9   -4.50    3.00
  -5   6   9    3.60    4.00
   5   6  -9    4.20    3.70
   4  -6  -9   36.30    5.80
  -4  -6   9   36.70    6.40
   4   6  -9   33.90    7.10
  -4   6   9   37.70    7.60
  -3  -6   9   39.10    6.30
  -3   6   9   36.30    8.30
   3   6  -9   41.40    6.40
  -2  -6   9   63.99    6.60
   2  -6  -9   61.89    5.90
  -2   6   9   71.09    7.60
   2   6  -9   75.99    6.90
  -1  -6   9   -5.50    2.70
   1  -6  -9   -2.80    2.50
   1  -6  -9    3.30    2.50
   1   6  -9    1.40    3.10
  -1   6   9    0.90    3.00
   0  -6  -9   70.99    5.40
   0  -6   9   53.59    6.80
   0  -6  -9   60.49    5.50
   0   6  -9   46.70    7.50
   0   6   9   38.00    6.30
  -1  -6  -9   70.29    5.90
   1  -6   9   48.00    7.10
  -1  -6  -9   60.19    5.10
   1   6   9   69.99    8.50
  -1   6  -9   56.19    7.30
  -2  -6  -9   92.99    6.50
  -2  -6  -9   89.09    7.00
   2  -6   9   77.69    7.10
   2   6   9   94.59    8.50
  -2   6  -9   78.99    7.40
  -3  -6  -9    3.50    3.10
   3  -6   9    3.80    3.40
  -3   6  -9    3.10    4.10
   3   6   9    5.50    3.20
  -3   6  -9    7.30    3.40
  -2  -7   9    3.60    3.60
   2  -7  -9    7.80    3.30
  -2   7   9    0.20    3.30
   2   7  -9    5.20    3.80
   1  -7  -9    7.70    5.60
  -1  -7   9    6.20    3.80
   1   7  -9    4.90    3.60
  -1   7   9    7.40    3.60
   0  -7  -9   82.79    6.50
   0  -7   9   78.59    8.00
   0  -7  -9   95.59    9.70
   0   7  -9   96.49    8.10
   0   7   9  100.69    7.40
   8   0 -10   56.89    7.50
  -8   0  10   46.40    6.70
   7   0 -10    2.30    3.30
  -7   0  10   -4.10    2.60
  -6   0  10   42.50    5.70
  -6   0  10   33.50    4.70
   6   0 -10   38.80    6.50
   5   0 -10    1.30    2.90
  -5   0  10    0.60    2.30
  -5   0  10   -1.70    2.00
   4   0 -10  118.09    7.20
  -4   0  10  112.49    6.60
  -4   0  10  107.09    5.60
   4   0 -10  109.39    5.60
   3   0 -10   -2.80    2.00
   3   0 -10   -0.10    2.80
  -3   0  10   -1.60    2.10
  -3   0  10    0.50    1.90
  -2   0  10    2.60    2.40
   2   0 -10   -0.40    2.30
  -2   0  10   -1.10    1.80
   2   0 -10   -0.90    2.00
   1   0 -10    1.30    2.20
   1   0 -10   -1.30    2.50
  -1   0  10   -1.80    2.20
   0   0 -10  196.78    8.10
   0   0  10  200.68    7.80
   0   0 -10  192.88    7.90
   0   0  10  196.38    8.30
   1   0  10    3.00    2.40
  -1   0 -10   -2.30    2.20
  -1   0 -10    1.70    2.40
   1   0  10    2.20    2.00
  -2   0 -10    0.70    2.50
   2   0  10    2.40    2.60
  -2   0 -10    0.10    2.30
   3   0  10    0.70    2.50
  -3   0 -10    1.50    2.80
  -3   0 -10    1.20    2.30
   4   0  10   89.69    7.00
  -4   0 -10   96.99    7.00
  -5   0 -10   -2.60    2.90
   5   0  10   -0.70    3.00
  -6   0 -10   -4.80    3.00
  -6   0 -10    0.30    3.30
   6   0  10    5.60    3.20
   8  -1 -10   -2.80    4.00
  -8   1  10    3.90    3.40
   8   1 -10   -0.90    3.60
  -7  -1  10    3.10    2.60
  -7  -1  10    0.80    3.00
   7  -1 -10   -1.50    3.60
   7   1 -10   -2.40    3.30
  -6  -1  10   79.99    6.00
   6  -1 -10   78.79    7.00
  -6  -1  10   87.49    5.40
   6   1 -10   89.69    7.50
  -6   1  10   86.49    7.30
  -5  -1  10   -1.00    2.10
   5  -1 -10    1.80    2.90
   5  -1 -10    2.00    3.30
  -5  -1  10    2.40    2.30
  -5   1  10    3.80    2.80
  -5   1  10    0.60    2.50
   5   1 -10   -3.10    2.80
  -4  -1  10    2.50    2.20
   4  -1 -10    2.60    1.90
  -4  -1  10   -1.80    2.10
   4  -1 -10    3.30    2.90
  -4   1  10    0.50    2.70
   4   1 -10    5.60    3.00
  -4   1  10    2.10    1.80
   3  -1 -10    9.30    3.00
   3  -1 -10   20.20    3.80
  -3  -1  10    9.40    2.50
  -3  -1  10   10.60    2.50
  -3   1  10   18.80    3.60
  -3   1  10   14.80    5.00
   3   1 -10   10.10    3.10
  -2  -1  10  227.68    9.00
   2  -1 -10  243.08    9.10
   2  -1 -10  232.28    8.10
  -2  -1  10  228.28    8.50
   2   1 -10  251.07    9.70
  -2   1  10  224.98    7.90
  -2   1  10  242.18    9.60
   1  -1 -10    1.70    2.10
  -1  -1  10   -1.50    2.00
   1  -1 -10   -0.90    2.30
   1   1 -10   -4.40    2.20
   1   1 -10    2.10    2.60
  -1   1  10   -1.00    2.30
   0  -1  10   12.40    4.20
   0  -1 -10   11.30    2.60
   0  -1  10   20.90    4.50
   0  -1 -10   13.10    4.30
   0   1  10   24.40    4.70
   0   1 -10   12.20    2.80
   0   1 -10   12.70    3.10
  -1  -1 -10   18.90    4.20
  -1  -1 -10   22.80    4.60
   1  -1  10   19.80    4.40
   1  -1  10   19.50    4.60
  -1   1 -10   25.10    5.00
  -1   1 -10   23.70    5.00
   1   1  10   28.30    5.30
  -2  -1 -10  213.18    8.90
   2  -1  10  223.98    9.00
  -2  -1 -10  198.68    7.60
   2  -1  10  227.48    8.80
   2   1  10  221.48    9.50
  -2   1 -10  207.68    8.40
  -2   1 -10  219.28    9.10
   3  -1  10    0.80    2.40
  -3  -1 -10    0.10    2.10
  -3  -1 -10    4.10    2.60
  -3   1 -10   -1.60    2.60
   3   1  10   -2.10    2.70
  -3   1 -10    0.30    2.50
  -4  -1 -10    1.40    2.90
   4  -1  10    5.10    2.90
  -4   1 -10    1.10    2.90
   4   1  10    2.60    2.90
  -4   1 -10    1.20    3.50
  -5  -1 -10    0.70    3.20
   5  -1  10    2.40    2.70
  -5  -1 -10   -2.20    2.60
  -5   1 -10    2.30    3.40
   5   1  10    2.00    3.10
  -7  -2  10    2.40    2.40
   7  -2 -10   -2.10    3.50
   7   2 -10   -5.70    3.40
  -7   2  10    2.50    3.10
  -6  -2  10   24.50    4.50
  -6  -2  10   18.00    4.70
  -6   2  10   23.90    6.60
   6   2 -10   28.50    7.40
   5  -2 -10   21.50    5.90
  -5  -2  10   21.70    4.70
  -5  -2  10   16.10    4.00
  -5   2  10   20.10    6.10
   5   2 -10   22.40    5.70
   4  -2 -10   90.69    4.60
   4  -2 -10  103.19    7.20
  -4  -2  10  105.09    5.90
  -4  -2  10  108.69    6.20
  -4   2  10  111.19    7.70
   4   2 -10  106.99    7.60
   3  -2 -10    4.90    2.70
  -3  -2  10    1.50    2.40
  -3  -2  10    1.90    1.90
   3  -2 -10    2.90    1.90
  -3   2  10   -0.10    2.90
   3   2 -10    2.00    2.90
   2  -2 -10   18.40    3.80
   2  -2 -10   22.60    4.50
  -2  -2  10   21.40    4.70
  -2  -2  10   11.90    2.50
   2   2 -10   26.20    5.60
  -2   2  10   13.30    3.20
   1  -2 -10   25.80    4.40
   1  -2 -10   18.70    4.00
  -1  -2  10   17.20    4.50
  -1  -2  10   16.60    4.10
   1   2 -10   15.70    3.40
  -1   2  10   20.20    4.90
   0  -2 -10  145.39    6.60
   0  -2  10  146.69    7.30
   0  -2  10  149.88    7.10
   0  -2 -10  148.59    6.60
   0   2  10  146.89    7.60
   0   2 -10  148.79    7.80
   0   2 -10  144.19    7.60
   1  -2  10    1.10    2.30
   1  -2  10    0.40    2.50
  -1  -2 -10    1.00    2.10
  -1  -2 -10    2.70    2.30
  -1   2 -10   -1.80    2.70
  -1   2 -10    2.30    2.70
   1   2  10    4.00    2.70
  -2  -2 -10    6.20    2.20
   2  -2  10    7.50    2.80
  -2  -2 -10    7.20    2.70
   2  -2  10    5.30    2.40
   2   2  10    7.60    3.10
  -2   2 -10    4.30    2.80
  -2   2 -10    6.10    3.00
  -3  -2 -10   26.80    4.30
   3  -2  10   19.40    5.30
   3  -2  10   22.00    5.00
  -3  -2 -10   23.60    5.20
   3   2  10   23.80    5.80
  -3   2 -10   22.80    5.40
  -3   2 -10   32.00    5.30
   4  -2  10   70.79    6.40
   4   2  10   59.59    7.20
  -4   2 -10   71.49    7.30
  -4   2 -10   77.49    6.40
  -5  -2 -10   -0.60    3.20
  -5  -2 -10   -0.40    2.60
   5  -2  10    3.60    2.80
   5   2  10   -0.40    3.10
  -5   2 -10   -0.80    3.30
   7  -3 -10    8.50    4.00
  -7  -3  10   14.10    3.50
  -7  -3  10   20.20    4.30
   7   3 -10   31.10    7.00
  -7   3  10   12.70    4.10
  -6  -3  10   64.49    6.30
   6  -3 -10   58.19    7.20
  -6  -3  10   71.49    5.00
  -6   3  10   68.79    7.90
   6   3 -10   53.29    7.00
   5  -3 -10   -1.30    2.90
  -5  -3  10   -1.00    2.60
  -5  -3  10   -2.60    1.90
  -5   3  10    2.40    3.40
   5   3 -10    1.20    3.40
  -4  -3  10   16.50    3.70
  -4  -3  10   25.60    5.10
   4  -3 -10   25.70    5.60
   4   3 -10   24.10    5.90
  -4   3  10   21.90    6.30
  -3  -3  10   10.20    2.30
  -3  -3  10   20.30    5.10
   3  -3 -10   18.10    5.20
   3   3 -10   21.60    5.70
  -3   3  10   12.40    3.60
   2  -3 -10  127.99    6.80
  -2  -3  10  119.99    6.00
   2  -3 -10  114.49    5.60
  -2  -3  10  123.29    7.10
   2   3 -10  123.09    7.60
  -2   3  10  120.59    7.80
  -1  -3  10   21.80    4.10
   1  -3 -10   17.50    4.40
   1  -3 -10   25.20    4.20
  -1  -3  10   27.60    5.30
  -1   3  10   17.10    5.10
   1   3 -10   18.00    5.40
   0  -3 -10    7.70    2.40
   0  -3  10    7.40    2.90
   0  -3  10    8.30    2.40
   0  -3 -10    7.10    2.50
   0   3 -10    5.70    3.10
   0   3  10    8.00    3.10
   1  -3  10   61.49    6.10
   1  -3  10   69.29    5.10
  -1  -3 -10   72.29    4.80
  -1  -3 -10   72.29    5.60
  -1   3 -10   75.59    6.30
  -1   3 -10   66.79    6.60
   1   3  10   79.39    6.80
  -2  -3 -10  124.89    5.60
   2  -3  10  129.59    7.60
   2  -3  10  126.09    6.60
  -2  -3 -10  129.89    6.90
  -2   3 -10  120.99    7.60
  -2   3 -10  122.09    7.40
   2   3  10  136.99    8.00
  -3  -3 -10    4.40    2.70
   3  -3  10    2.00    2.50
   3   3  10   25.30    9.10
  -3   3 -10    5.40    3.10
   4  -3  10   18.10    5.60
   4  -3  10   14.20    5.10
  -4  -3 -10    2.10    2.50
  -4  -3 -10    5.60    3.20
  -4   3 -10    9.60    3.40
   4   3  10    3.50    3.10
  -4   3 -10    5.20    3.20
  -5  -3 -10    0.80    3.20
  -5  -3 -10   16.90    4.10
   5  -3  10    3.90    3.00
   5   3  10    3.90    3.50
  -5   3 -10    4.50    3.80
   6  -4 -10   10.70    3.90
  -6  -4  10   11.20    3.30
   6   4 -10   16.00    4.20
  -6   4  10    9.90    3.90
  -5  -4  10   10.60    3.10
   5  -4 -10   26.50    6.00
   5   4 -10   11.70    4.00
  -5   4  10   28.70    7.50
   4  -4 -10   44.70    6.00
  -4  -4  10   40.10    6.20
   4   4 -10   39.70    9.50
  -4   4  10   34.40    8.10
   3  -4 -10   34.30    5.80
  -3  -4  10   19.80    5.50
   3   4 -10   19.40    5.90
  -3   4  10   20.60    4.30
   2  -4 -10   27.10    5.20
  -2  -4  10   33.10    5.70
  -2  -4  10   33.70    4.10
   2  -4 -10   22.80    4.10
  -2   4  10   29.00    6.00
   2   4 -10   30.50    5.90
  -1  -4  10   34.50    4.40
   1  -4 -10   52.19    4.70
  -1  -4  10   44.50    6.10
   1  -4 -10   48.00    5.30
  -1   4  10   47.00    6.20
   1   4 -10   49.20    6.60
   0  -4 -10   58.39    5.20
   0  -4  10   47.20    6.00
   0  -4  10   40.70    4.10
   0  -4 -10   44.00    4.80
   0   4 -10   54.19    6.30
   0   4  10   48.10    6.20
  -1  -4 -10    5.30    2.60
   1  -4  10    6.30    3.00
  -1  -4 -10    1.40    2.40
   1  -4  10   11.50    3.90
   1   4  10   10.80    3.30
  -1   4 -10    7.30    3.30
   2  -4  10    0.50    2.20
  -2  -4 -10    2.30    2.80
  -2   4 -10    0.60    3.10
  -2   4 -10   -2.30    5.20
   2   4  10    2.50    4.60
  -3  -4 -10    8.10    3.10
   3  -4  10   -0.10    2.90
   3  -4  10   18.90    4.70
  -3  -4 -10    5.20    2.30
  -3   4 -10    5.20    3.30
   3   4  10   23.50    6.70
  -3   4 -10    9.60    3.40
  -4  -4 -10   57.99    4.40
  -4  -4 -10   65.89    6.90
   4  -4  10   71.29    6.70
   4  -4  10   68.79    5.90
  -4   4 -10   60.29    6.50
  -4   4 -10   63.39    7.70
   4   4  10   79.49    7.80
   5  -5 -10    5.70    3.80
  -5  -5  10   10.10    3.70
   5   5 -10   10.80    3.90
  -5   5  10    6.70    4.10
   4  -5 -10    8.80    3.40
  -4  -5  10    7.70    3.40
   4   5 -10    9.60    3.80
  -4   5  10    7.60    3.70
  -3  -5  10   17.90    5.30
   3  -5 -10   32.10    6.70
  -3   5  10   26.40    6.90
   3   5 -10   30.20    6.50
   2  -5 -10   39.70    5.90
  -2  -5  10   41.40   10.20
   2   5 -10   42.30    6.50
  -2   5  10   40.60   10.90
   1  -5 -10   19.00    5.20
   1  -5 -10   23.50    4.70
  -1  -5  10   35.60   10.80
   0  -5  10    6.00    3.30
   0  -5 -10   -2.70    2.50
   0  -5 -10    3.30    2.50
   0   5 -10   -0.50    3.30
  -1  -5 -10   30.00    5.30
  -1  -5 -10   26.60    4.40
   1  -5  10   20.80    6.10
  -1   5 -10   38.30    6.30
   1   5  10   32.70    6.90
   2  -5  10   43.80    6.70
  -2  -5 -10   40.00    6.00
  -2  -5 -10   37.40    3.50
  -2   5 -10   45.80    7.90
  -2   5 -10   38.80    6.30
   2   5  10   60.89    7.50
  -3  -5 -10   29.60    3.60
   3  -5  10   26.00    6.70
   3  -5  10   25.10    6.20
  -3  -5 -10   21.20    6.20
  -3   5 -10   26.90    7.70
   3   5  10   30.00    7.10
  -3   5 -10   31.30    7.50
  -3  -6  10    1.20    3.50
   3  -6 -10    0.70    3.20
  -3   6  10    2.90    3.70
   3   6 -10    2.90    3.60
  -2  -6  10   -2.20    3.10
   2  -6 -10   -1.30    3.00
   2   6 -10    7.80    3.80
  -2   6  10    2.00    3.40
  -1  -6  10   12.90    3.90
   1  -6 -10    9.00    3.20
  -1   6  10   11.60    4.00
   1   6 -10   16.50    4.20
   0  -6 -10    7.90    2.90
   0  -6  10    2.80    3.60
   0  -6 -10   22.90    5.10
   0   6 -10   12.90    3.90
   1  -6  10   23.00    7.10
  -1  -6 -10   30.00    5.50
  -1  -6 -10   37.00    5.80
   1   6  10   43.20    7.60
  -1   6 -10   25.80    6.90
  -7   0  11   42.70    6.50
   7   0 -11   38.40    7.60
   6   0 -11   -1.10    3.30
  -6   0  11    1.90    2.70
  -5   0  11    7.80    3.10
   5   0 -11   12.80    4.70
   5   0 -11   12.90    4.30
  -5   0  11   19.00    4.50
   4   0 -11   -2.60    2.20
   4   0 -11    0.60    2.90
  -4   0  11    3.80    2.30
  -4   0  11   -2.80    2.50
   3   0 -11   51.39    6.10
  -3   0  11   35.40    4.60
  -3   0  11   32.40    5.30
   3   0 -11   42.90    4.80
   2   0 -11   -0.60    2.40
   2   0 -11    1.60    3.00
  -2   0  11   -3.60    2.20
  -2   0  11   -3.60    2.30
   1   0 -11   75.09    5.80
   1   0 -11   63.59    6.30
  -1   0  11   73.79    6.10
  -1   0  11   75.19    5.50
   0   0 -11    1.20    2.60
   0   0  11    3.40    2.50
   0   0 -11    0.90    2.60
   0   0  11    2.40    2.90
  -1   0 -11   92.49    6.40
  -1   0 -11  103.99    6.90
   1   0  11  105.19    7.50
  -2   0 -11   -2.10    2.70
  -2   0 -11   -1.40    2.70
   2   0  11    0.90    2.90
   3   0  11   23.10    7.40
  -3   0 -11   37.00    5.10
  -4   0 -11    3.20    3.50
   4   0  11    1.50    3.50
   7  -1 -11   23.20    7.30
  -7   1  11   19.30    6.00
  -6  -1  11    1.70    2.80
   6  -1 -11    5.90    3.30
  -6  -1  11    2.20    2.60
  -6   1  11    6.80    4.00
   6   1 -11    2.90    3.50
  -5  -1  11   70.99    5.90
  -5  -1  11   79.19    6.10
  -5   1  11   61.69    7.30
   4  -1 -11    1.30    3.20
  -4  -1  11   -2.10    2.40
  -4  -1  11    3.10    2.50
   4  -1 -11    1.10    2.00
  -4   1  11    0.40    3.00
   4   1 -11   -4.30    2.90
  -4   1  11    1.80    2.10
  -3  -1  11    5.60    2.60
   3  -1 -11    0.50    3.10
   3  -1 -11    6.50    2.40
  -3  -1  11    7.40    2.60
  -3   1  11    6.30    2.20
   3   1 -11    4.90    3.30
  -3   1  11    4.10    2.80
   2  -1 -11    0.70    2.10
  -2  -1  11   -1.70    2.20
   2  -1 -11    1.10    2.90
  -2  -1  11   -4.30    2.10
  -2   1  11    0.90    2.90
   2   1 -11    1.60    2.60
   2   1 -11   -4.50    2.70
   1  -1 -11   77.99    6.30
  -1  -1  11   74.79    6.10
  -1  -1  11   86.19    6.20
   1  -1 -11   76.79    5.60
   1   1 -11   80.79    6.30
  -1   1  11   79.09    6.60
   1   1 -11   81.79    6.90
   0  -1  11    4.60    3.10
   0  -1 -11    7.60    2.90
   0  -1  11    8.10    2.90
   0  -1 -11    7.00    2.90
   0   1 -11    7.70    3.10
   0   1  11    9.70    3.30
   0   1 -11    3.10    3.10
   1  -1  11   51.39    5.80
   1  -1  11   55.39    6.10
  -1  -1 -11   56.79    5.80
  -1  -1 -11   45.70    5.30
  -1   1 -11   59.39    6.20
  -1   1 -11   45.00    6.40
   1   1  11   44.60    6.70
  -2  -1 -11   -1.00    2.10
  -2  -1 -11    1.40    3.00
   2  -1  11    0.50    2.80
  -2   1 -11    1.30    3.00
  -2   1 -11   -0.30    3.10
   2   1  11    1.90    3.10
   3  -1  11   82.09    6.60
  -3   1 -11   82.79    7.60
  -3   1 -11   58.89    6.20
   3   1  11   68.49    7.80
   4  -1  11    5.70    3.10
  -4  -1 -11    5.30    3.40
   4   1  11    6.00    3.50
  -4   1 -11    5.60    3.70
   7  -2 -11   16.70    4.50
  -7  -2  11   16.00    3.60
  -6  -2  11    9.10    2.90
  -6  -2  11    8.40    2.90
   6  -2 -11    5.70    4.00
   6   2 -11    6.00    3.90
  -6   2  11   11.90    3.80
  -5  -2  11   15.40    4.50
  -5  -2  11   18.10    5.30
   5  -2 -11   10.10    3.80
   5   2 -11   23.00    6.30
  -5   2  11   13.60    5.20
   4  -2 -11    3.80    3.40
  -4  -2  11   -0.50    2.20
  -4  -2  11    1.40    2.70
  -4   2  11   -2.60    3.00
   4   2 -11   -4.00    3.10
   3  -2 -11   54.49    4.70
  -3  -2  11   60.09    5.90
  -3  -2  11   51.79    5.00
   3  -2 -11   62.39    6.40
   3   2 -11   63.69    7.00
  -3   2  11   50.89    6.60
   2  -2 -11    6.70    2.40
   2  -2 -11   20.40    5.40
  -2  -2  11    8.50    3.10
   2   2 -11   10.60    3.50
  -2   2  11    7.90    3.30
  -1  -2  11   41.70    5.40
   1  -2 -11   31.30    5.30
   1  -2 -11   38.10    4.80
  -1  -2  11   29.30    5.60
   1   2 -11   31.10    5.80
  -1   2  11   35.80    6.20
   1   2 -11   37.00    6.30
   0  -2  11    4.20    2.60
   0  -2 -11    2.70    2.30
   0  -2 -11    3.00    2.70
   0  -2  11    1.70    2.70
   0   2  11    3.40    3.10
   0   2 -11    3.40    3.40
   0   2 -11    3.40    3.10
  -1  -2 -11   38.00    5.10
  -1  -2 -11   43.90    5.30
   1  -2  11   35.50    6.00
   1  -2  11   29.20    5.70
   1   2  11   49.99    7.10
  -1   2 -11   47.50    6.30
  -1   2 -11   45.30    6.80
   2  -2  11   32.60   10.30
   2  -2  11   21.50    5.50
  -2  -2 -11   30.20    5.30
  -2  -2 -11   23.80    4.60
  -2   2 -11   28.10    6.30
  -2   2 -11   11.50    6.40
   3  -2  11   93.59    7.20
   3  -2  11   69.59    6.80
  -3  -2 -11   67.99   10.50
   3   2  11   71.49    8.40
  -3   2 -11   83.79    7.10
  -3   2 -11   86.79    7.80
   4  -2  11   -2.20    3.00
  -4  -2 -11   -0.40    3.30
   4   2  11   -5.60    3.40
  -4   2 -11    5.50    3.60
   6  -3 -11    1.20    3.90
  -6  -3  11    2.90    2.60
  -6  -3  11   -0.20    3.00
   6   3 -11    3.40    3.60
  -6   3  11    0.70    3.80
   5  -3 -11   29.30    6.60
  -5  -3  11   38.30    5.90
  -5  -3  11   23.70    4.30
   5   3 -11   26.60    7.10
  -5   3  11   28.00    7.30
  -4  -3  11    8.50    2.50
  -4  -3  11   23.90    5.60
   4   3 -11   20.90    6.80
  -4   3  11   11.80    3.50
  -3  -3  11   37.40    4.60
  -3  -3  11   23.90    6.00
   3  -3 -11   33.50    6.10
  -3   3  11   20.50    6.00
   3   3 -11   31.80    7.50
   2  -3 -11    1.90    3.00
   2  -3 -11    2.70    2.20
  -2  -3  11    3.10    3.10
   2   3 -11   -1.10    3.40
  -2   3  11    5.90    3.20
  -1  -3  11   63.69    6.70
   1  -3 -11   66.19    6.30
   1  -3 -11   70.99    5.50
  -1  -3  11   76.49    5.90
  -1   3  11   65.69    7.10
   1   3 -11   67.99    7.00
   0  -3 -11   22.90    4.90
   0  -3 -11   28.50    5.00
   0  -3  11   28.70    6.30
   0  -3  11   18.00    5.10
   0   3  11   31.80    5.80
   0   3 -11   27.00    6.50
   0   3 -11   30.40    6.40
  -1  -3 -11   13.50    4.50
  -1  -3 -11   22.00    5.20
   1  -3  11   17.20    4.80
   1   3  11   34.50    9.70
  -1   3 -11   27.40    6.30
   2  -3  11    2.00    2.70
  -2  -3 -11    0.90    2.60
   2  -3  11    0.90    2.90
  -2  -3 -11   -2.10    2.50
   2   3  11    0.70    3.60
  -2   3 -11    1.10    3.40
  -2   3 -11    1.10    3.50
   3  -3  11   30.80    5.50
  -3  -3 -11   22.80    5.90
   3  -3  11   26.80    6.30
  -3   3 -11   30.30    6.80
   3   3  11   35.50    7.50
  -3   3 -11   23.70    6.70
  -5  -4  11    5.70    3.70
   5  -4 -11    3.20    3.80
  -5   4  11    5.70    4.10
   5   4 -11   10.60    4.00
   4  -4 -11    4.10    3.40
   4   4 -11    0.90    3.50
  -4   4  11   -4.20    3.70
  -3  -4  11   21.10    6.30
   3   4 -11   27.80    6.50
  -3   4  11   26.10    6.70
   2  -4 -11   13.70    3.40
   2   4 -11   21.00    6.40
  -2   4  11   11.60    3.80
   1  -4 -11   27.50    4.70
  -1  -4  11   19.90    4.50
  -1  -4  11   18.50    4.90
   1  -4 -11   35.90    5.90
  -1   4  11   28.80    6.80
   0  -4  11    1.00    3.10
   0  -4 -11    3.70    2.80
   0  -4  11   -1.20    2.10
   0  -4 -11   -1.50    2.50
   0   4 -11    2.40    3.60
   1  -4  11   20.10    6.20
  -1  -4 -11   35.60    5.50
  -1  -4 -11   22.30    5.20
  -1   4 -11   22.20    6.80
  -1   4 -11   29.00    6.60
   2  -4  11   35.30    6.60
  -2  -4 -11   37.80    6.40
   2  -4  11   37.10    5.40
  -2   4 -11   39.60    7.10
   2   4  11   47.30    7.90
  -2   4 -11   30.00    7.20
   3  -4  11   44.90    7.30
  -3  -4 -11   35.00    4.40
   3  -4  11   37.80    5.60
  -3  -4 -11   33.80    6.50
  -3   4 -11   31.20    7.70
  -3   4 -11   32.80    7.10
   3   4  11   41.30    8.00
  -3  -5  11    3.80    3.50
   3  -5 -11    4.30    3.80
   3   5 -11    6.70    4.30
  -3   5  11   11.10    4.10
  -2  -5  11   -0.10    3.40
   2  -5 -11    1.60    5.90
  -2   5  11   -3.20    3.50
   2   5 -11    8.10    4.00
  -1  -5  11   23.60    6.80
   1  -5 -11   15.20    3.60
  -1   5  11   28.10    7.00
   1   5 -11   27.90    7.10
   0  -5 -11   27.00    5.30
   0  -5  11   20.90    6.70
   0  -5 -11   21.60    5.60
   0   5 -11   30.60    7.10
   0   5  11   45.90    7.70
   1  -5  11    0.80    3.70
  -1  -5 -11    4.00    2.90
  -1  -5 -11   -0.40    2.80
  -1   5 -11    1.10    3.60
   1   5  11   24.70    7.80
  -6   0  12    3.70    3.10
   6   0 -12   -5.10    3.60
   5   0 -12    4.10    3.70
  -5   0  12   -3.20    3.10
   4   0 -12  159.38    7.70
   4   0 -12  167.18    9.50
  -4   0  12  169.78    8.90
  -4   0  12  163.68    7.60
   3   0 -12   -5.30    3.10
  -3   0  12   -5.20    2.40
   3   0 -12    0.40    2.60
  -3   0  12   -1.10    2.80
  -2   0  12    2.90    2.60
   2   0 -12    4.10    3.40
   2   0 -12    2.30    2.80
  -2   0  12   -0.20    2.70
   1   0 -12    3.10    3.20
  -1   0  12    3.00    2.90
   1   0 -12    2.90    2.90
  -1   0  12    6.80    3.10
   0   0  12   94.79    7.80
   0   0 -12   94.69    7.10
   0   0 -12  102.69    7.20
  -1   0 -12   -3.50    3.00
   1   0  12    2.60    3.90
  -1   0 -12   -1.60    2.90
  -2   0 -12   10.10    3.70
   2   0  12    8.40    4.00
  -2   0 -12   18.10    5.70
  -3   0 -12    1.60    3.90
   3   0  12   -3.90    3.50
   6  -1 -12   53.69    8.10
   6   1 -12   38.90    7.60
  -6   1  12   28.50    6.90
  -5  -1  12   -4.00    2.70
   5  -1 -12   -2.60    3.70
  -5  -1  12   -1.40    2.60
  -5   1  12    0.90    3.10
   5   1 -12   -0.40    3.60
  -4  -1  12   -0.50    2.50
   4  -1 -12    2.90    3.50
  -4  -1  12    1.40    2.90
   4  -1 -12    1.40    2.90
   4   1 -12   -3.00    3.30
  -4   1  12   -3.20    3.90
   4   1 -12   -3.50    2.50
  -3  -1  12    3.30    2.80
   3  -1 -12    5.80    2.60
  -3  -1  12   -4.60    2.50
   3  -1 -12   -1.90    3.60
   3   1 -12    0.10    2.70
  -3   1  12    4.90    3.50
   2  -1 -12  103.29    6.50
  -2  -1  12   96.09    7.00
   2  -1 -12   98.49    7.80
  -2  -1  12  106.09    7.10
   2   1 -12  105.89    7.10
  -2   1  12   95.09    7.80
   2   1 -12  103.19    8.10
   1  -1 -12    2.40    3.20
  -1  -1  12   -0.70    3.00
   1  -1 -12    1.70    2.80
  -1  -1  12    1.20    3.10
   1   1 -12    6.00    3.50
   1   1 -12    4.70    3.10
  -1   1  12    6.00    3.30
   0  -1  12   20.40    6.20
   0  -1 -12    0.90    3.10
   0  -1  12    7.50    3.20
   0  -1 -12    4.50    3.00
   0   1 -12    9.30    3.30
   0   1  12    5.20    5.50
   0   1 -12    7.20    3.50
  -1  -1 -12    1.20    2.90
   1  -1  12    2.30    3.10
  -1  -1 -12    0.10    3.00
   1   1  12    4.40    3.70
  -1   1 -12    3.40    6.40
  -1   1 -12    1.60    3.20
   2  -1  12   84.69   12.20
  -2  -1 -12   70.39    6.20
  -2  -1 -12   82.79    7.30
  -2   1 -12   80.49    8.00
   2   1  12   85.19    8.30
  -2   1 -12   85.59    7.20
  -3  -1 -12    1.90    3.50
   3  -1  12    4.80    3.50
  -3   1 -12    1.00    3.70
   3   1  12    3.10    3.60
  -3   1 -12   -0.70    4.70
   5  -2 -12    0.50    3.80
  -5  -2  12    3.40    3.20
  -5  -2  12    1.00    2.60
   5   2 -12    4.50    4.00
  -5   2  12   -2.60    3.40
  -4  -2  12   62.59    5.90
  -4  -2  12   58.69    7.00
   4  -2 -12   59.79    7.60
   4   2 -12   73.49    7.60
  -4   2  12   67.39    7.50
  -3  -2  12    8.50    3.30
   3  -2 -12    2.80    2.40
  -3  -2  12   -0.30    2.60
   3   2 -12    4.10    3.70
  -3   2  12    3.60    3.40
   2  -2 -12    2.50    3.30
  -2  -2  12    4.10    2.90
  -2  -2  12    4.30    3.20
   2  -2 -12    1.10    2.40
   2   2 -12    1.60    2.90
  -2   2  12   -0.30    3.50
   1  -2 -12    5.50    3.50
  -1  -2  12    2.70    3.00
  -1  -2  12    4.30    3.20
   1  -2 -12    4.80    2.60
  -1   2  12   -2.80    3.20
   1   2 -12    0.60    3.60
   1   2 -12   -1.40    3.00
   0  -2 -12  100.89    6.60
   0  -2 -12  103.29    7.40
   0  -2  12   94.69    7.50
   0   2 -12  112.89    8.60
   0   2  12  112.69    9.30
  -1  -2 -12    0.20    2.80
  -1  -2 -12    0.00    2.90
   1  -2  12    0.50    2.70
  -1   2 -12    3.40    3.60
  -1   2 -12    0.70    3.90
   1   2  12   -5.10    3.80
  -2  -2 -12    4.20    3.40
   2  -2  12    3.10    3.00
  -2   2 -12    4.50    3.90
   2   2  12    4.80    4.00
  -2   2 -12    5.10    3.80
   4  -3 -12    0.00    3.70
   4   3 -12    5.20    3.80
  -4   3  12    1.90    3.80
   3  -3 -12    6.80    4.00
  -3   3  12   12.80    3.80
   3   3 -12   12.70    4.70
   2  -3 -12   37.10    5.10
   2  -3 -12   26.90    6.40
  -2  -3  12   33.60    5.80
  -2  -3  12   22.40    5.80
   2   3 -12   41.20    7.50
  -2   3  12   35.90    7.40
   1  -3 -12    5.60    2.90
  -1  -3  12    5.30    3.30
  -1  -3  12    0.90    2.90
   1  -3 -12    7.30    3.30
   1   3 -12    2.40    3.80
   1   3 -12    9.20    3.90
  -1   3  12    1.80    3.70
   0  -3  12    6.00    3.00
   0  -3 -12    7.00    3.20
   0  -3 -12    2.10    2.90
   0  -3  12   21.10    5.90
   0   3  12   11.30    4.30
   0   3 -12    3.40    4.00
   1  -3  12   -3.10    3.20
  -1  -3 -12    1.90    2.90
  -1  -3 -12   -0.10    3.10
   1  -3  12    2.70    2.80
  -1   3 -12    1.60    3.80
   1   3  12   -0.40    3.80
  -1   3 -12   -0.80    3.60
   2  -3  12   42.50    6.30
  -2  -3 -12   37.10    6.50
   2  -3  12   38.40    6.90
  -2   3 -12   53.29    8.00
  -2   3 -12   41.60    7.80
   2   3  12   38.50    8.30
   3  -4 -12   23.90    7.30
  -3  -4  12    8.60    3.90
  -3   4  12   22.70    7.10
   3   4 -12    8.20    4.40
   2  -4 -12   -0.60    3.70
  -2  -4  12    5.00    3.60
   2   4 -12    5.50    4.00
  -2   4  12    4.40    3.90
   1  -4 -12    9.80    3.60
  -1  -4  12    6.40    3.60
   1  -4 -12    7.40    3.00
  -1   4  12    3.60    4.10
   1   4 -12    6.70    4.10
   0  -4  12   59.49    7.80
   0  -4 -12   43.60    6.00
   0  -4 -12   54.59    6.70
   0   4  12   77.99    9.10
   0   4 -12   56.89    7.90
   0   4 -12   49.00    8.50
   4   0 -13    0.40    3.80
   4   0 -13   -0.80    2.80
  -4   0  13   -1.90    2.90
  -4   0  13    4.90    3.40
  -3   0  13   -0.60    2.90
   3   0 -13   -2.10    3.60
   3   0 -13    4.90    3.00
   2   0 -13   -1.20    2.80
   2   0 -13   -4.50    3.60
  -2   0  13    2.10    3.10
  -2   0  13    1.80    3.10
  -1   0  13   43.90    7.40
   1   0 -13   50.09    6.40
   0   0 -13   -2.20    3.40
   0   0  13    0.00    3.70
   0   0 -13   -1.20    3.50
  -1   0 -13   -1.70    3.40
   1   0  13    1.60    4.00
   3  -1 -13   51.19    7.60
   3  -1 -13   30.60    5.90
  -3  -1  13   49.90    6.80
   3   1 -13   55.49    6.40
  -3   1  13   41.80    7.10
   3   1 -13   41.00    7.40
  -2  -1  13   -2.90    3.20
   2  -1 -13   -4.00    2.80
   2  -1 -13    2.40    3.70
   2   1 -13   -2.60    3.50
   2   1 -13    3.40    3.30
   1  -1 -13    0.20    4.20
  -1  -1  13    1.40    3.50
   1  -1 -13   -1.30    3.00
  -1   1  13   -1.30    3.30
   1   1 -13   -2.70    3.50
   1   1 -13   -0.10    3.50
   0  -1  13    9.60    3.90
   0  -1  13   18.40    6.20
   0  -1 -13    5.10    3.60
   0   1  13   27.90    8.50
   0   1 -13   -4.30    5.70
   0   1 -13    2.50    3.60
  -2  -2  13    5.20    3.20
   2  -2 -13    5.40    3.80
  -2  -2  13    4.70    3.50
   2   2 -13    0.20    3.50
   2   2 -13    5.80    3.90
  -2   2  13   -0.80    3.40
  -1  -2  13   32.70    6.70
   1  -2 -13   25.00    5.80
  -1  -2  13   19.70    6.40
   1   2 -13   18.40    4.80
   1   2 -13   25.80    7.10
   0  -2  13   -5.00    3.30
   0  -2 -13   -5.70    3.50
   0   2 -13   -4.20    3.50
   0   0   0    0.00    0.00
_computing_structure_solution     'SHELXT 2018/2 (Sheldrick, 2018)'
;
_shelx_hkl_checksum              50275
_shelx_res_file
;
TITL SIR92 run in space group P 21/n
    shelx.res
    created by SHELXL-2018/3 at 16:14:53 on 23-Jun-2022
CELL  0.71073   8.7252   7.7772  10.7406   90.000   97.969   90.000
ZERR     4.00   0.0004   0.0004   0.0005    0.000    0.001    0.000
LATT   1
SYMM  1/2 - X, 1/2 + Y, 1/2 - Z
SFAC  C    H    N    O    BR
UNIT  16 32 12 4 4
MERG   2
FMAP   2
PLAN    5
SIZE     0.050   0.250   0.250
ACTA
BOND   $H
CONF
L.S.  10
WGHT    0.021200    0.322000
EXTI    0.015845
FVAR       0.52314
BR1   5    0.131987    0.722990    0.044988    11.00000    0.03312    0.03972 =
         0.05203    0.00022   -0.00112    0.00201
N3    3    0.481987    0.145194    0.159462    11.00000    0.02942    0.02841 =
         0.04645    0.00039    0.00038    0.00230
N1    3    0.369600    0.396552    0.125053    11.00000    0.04217    0.03050 =
         0.05527    0.00518    0.00148    0.00758
O5    4    0.573644    0.580517    0.179976    11.00000    0.06974    0.03764 =
         0.12634   -0.00578    0.00969   -0.01351
N2    3    0.217596    0.148982    0.082930    11.00000    0.03315    0.04113 =
         0.07177   -0.00030   -0.01166    0.00296
AFIX  93
H2B   2    0.211603    0.038614    0.081112    11.00000   -1.20000
H2A   2    0.136571    0.210092    0.059521    11.00000   -1.20000
AFIX   0
C2    1    0.350239    0.224066    0.121384    11.00000    0.03474    0.03522 =
         0.03550    0.00087    0.00248    0.00533
C4    1    0.601739    0.271141    0.200319    11.00000    0.02910    0.04135 =
         0.05278   -0.00279    0.00541   -0.00168
AFIX  23
H4A   2    0.689357    0.258356    0.154495    11.00000   -1.20000
H4B   2    0.637259    0.261043    0.289679    11.00000   -1.20000
AFIX   0
C3    1    0.504911   -0.037336    0.182315    11.00000    0.04162    0.03222 =
         0.06700    0.00143   -0.00208    0.00746
AFIX 137
H3B   2    0.522699   -0.058188    0.271244    11.00000   -1.50000
H3C   2    0.592789   -0.075710    0.145111    11.00000   -1.50000
H3A   2    0.414424   -0.098978    0.145721    11.00000   -1.50000
AFIX   0
C5    1    0.520645    0.438638    0.170127    11.00000    0.04729    0.03697 =
         0.05679   -0.00194    0.01108   -0.00434
H1    2    0.305660    0.472277    0.101084    11.00000    0.04393
HKLF 4
REM  SIR92 run in space group P 21/n
REM wR2 = 0.0494, GooF = S = 1.063, Restrained GooF = 1.063 for all data
REM R1 = 0.0215 for 1258 Fo > 4sig(Fo) and 0.0289 for all 1473 data
REM 88 parameters refined using 0 restraints
END
WGHT      0.0198      0.3271
REM Highest difference peak  0.243,  deepest hole -0.304,  1-sigma level  0.071
Q1    1   0.1277  0.7536 -0.0420  11.00000  0.05    0.24
Q2    1   0.5403  0.5609  0.2524  11.00000  0.05    0.21
Q3    1  -0.0022  0.2556  0.1274  11.00000  0.05    0.21
Q4    1   0.0857  0.6969  0.1613  11.00000  0.05    0.20
Q5    1   0.0807  0.8070  0.0112  11.00000  0.05    0.20
;
_shelx_res_checksum              76643
loop_
_space_group_symop_operation_xyz
'x, y, z'
'-x+1/2, y+1/2, -z+1/2'
'-x, -y, -z'
'x-1/2, -y-1/2, z-1/2'
loop_
_atom_site_type_symbol
_atom_site_label
_atom_site_fract_x
_atom_site_fract_y
_atom_site_fract_z
_atom_site_U_iso_or_equiv
_atom_site_adp_type
_atom_site_calc_flag
_atom_site_occupancy
_atom_site_disorder_assembly
_atom_site_disorder_group
Br Br1 0.13199(2) 0.72299(3) 0.04499(2) 0.04228(11) Uani d 1 . .
N N3 0.48199(19) 0.1452(2) 0.15946(17) 0.0352(4) Uani d 1 . .
N N1 0.3696(2) 0.3966(3) 0.1251(2) 0.0431(5) Uani d 1 . .
O O5 0.5736(2) 0.5805(2) 0.1800(2) 0.0783(7) Uani d 1 . .
N N2 0.2176(2) 0.1490(3) 0.0829(2) 0.0505(5) Uani d 1 . .
H H2B 0.211603 0.038614 0.081112 0.061 Uiso calc 1 . .
H H2A 0.136571 0.210092 0.059521 0.061 Uiso calc 1 . .
C C2 0.3502(3) 0.2241(3) 0.1214(2) 0.0354(5) Uani d 1 . .
C C4 0.6017(2) 0.2711(3) 0.2003(2) 0.0411(5) Uani d 1 . .
H H4A 0.689357 0.258356 0.154495 0.049 Uiso calc 1 . .
H H4B 0.637259 0.261043 0.289679 0.049 Uiso calc 1 . .
C C3 0.5049(3) -0.0373(3) 0.1823(3) 0.0479(6) Uani d 1 . .
H H3B 0.522699 -0.058188 0.271244 0.072 Uiso calc 1 . .
H H3C 0.592789 -0.075710 0.145111 0.072 Uiso calc 1 . .
H H3A 0.414424 -0.098978 0.145721 0.072 Uiso calc 1 . .
C C5 0.5206(3) 0.4386(3) 0.1701(2) 0.0467(6) Uani d 1 . .
H H1 0.306(3) 0.472(3) 0.101(2) 0.044(7) Uiso d 1 . .
loop_
_atom_site_aniso_label
_atom_site_aniso_U_11
_atom_site_aniso_U_22
_atom_site_aniso_U_33
_atom_site_aniso_U_12
_atom_site_aniso_U_13
_atom_site_aniso_U_23
Br1 0.03312(14) 0.03972(16) 0.05203(17) 0.00201(9) -0.00112(9) 0.00022(10)
N3 0.0294(9) 0.0284(9) 0.0464(11) 0.0023(7) 0.0004(8) 0.0004(8)
N1 0.0422(11) 0.0305(11) 0.0553(13) 0.0076(8) 0.0015(9) 0.0052(9)
O5 0.0697(13) 0.0376(11) 0.126(2) -0.0135(9) 0.0097(13) -0.0058(11)
N2 0.0332(10) 0.0411(11) 0.0718(14) 0.0030(8) -0.0117(10) -0.0003(10)
C2 0.0347(11) 0.0352(11) 0.0355(11) 0.0053(9) 0.0025(9) 0.0009(9)
C4 0.0291(11) 0.0413(13) 0.0528(14) -0.0017(9) 0.0054(10) -0.0028(10)
C3 0.0416(12) 0.0322(13) 0.0670(17) 0.0075(9) -0.0021(11) 0.0014(11)
C5 0.0473(13) 0.0370(14) 0.0568(16) -0.0043(10) 0.0111(11) -0.0019(11)
loop_
_atom_type_symbol
_atom_type_description
_atom_type_scat_dispersion_real
_atom_type_scat_dispersion_imag
_atom_type_scat_source
C C 0.0033 0.0016 'International Tables Vol C Tables 4.2.6.8 and 6.1.1.4'
H H 0.0000 0.0000 'International Tables Vol C Tables 4.2.6.8 and 6.1.1.4'
N N 0.0061 0.0033 'International Tables Vol C Tables 4.2.6.8 and 6.1.1.4'
O O 0.0106 0.0060 'International Tables Vol C Tables 4.2.6.8 and 6.1.1.4'
Br Br -0.2901 2.4595 'International Tables Vol C Tables 4.2.6.8 and 6.1.1.4'
loop_
_geom_angle_atom_site_label_1
_geom_angle_atom_site_label_2
_geom_angle_atom_site_label_3
_geom_angle_site_symmetry_1
_geom_angle_site_symmetry_3
_geom_angle
_geom_angle_publ_flag
C2 N3 C3 . . 127.06(19) ?
C2 N3 C4 . . 109.85(18) ?
C3 N3 C4 . . 122.12(17) ?
C2 N1 C5 . . 110.81(19) ?
C2 N1 H1 . . 128.4(18) ?
C5 N1 H1 . . 120.7(18) ?
C2 N2 H2B . . 120.0 ?
C2 N2 H2A . . 120.0 ?
H2B N2 H2A . . 120.0 ?
N2 C2 N3 . . 125.8(2) ?
N2 C2 N1 . . 123.5(2) ?
N3 C2 N1 . . 110.67(19) ?
N3 C4 C5 . . 102.86(17) ?
N3 C4 H4A . . 111.2 ?
C5 C4 H4A . . 111.2 ?
N3 C4 H4B . . 111.2 ?
C5 C4 H4B . . 111.2 ?
H4A C4 H4B . . 109.1 ?
N3 C3 H3B . . 109.5 ?
N3 C3 H3C . . 109.5 ?
H3B C3 H3C . . 109.5 ?
N3 C3 H3A . . 109.5 ?
H3B C3 H3A . . 109.5 ?
H3C C3 H3A . . 109.5 ?
O5 C5 N1 . . 126.1(2) ?
O5 C5 C4 . . 128.2(2) ?
N1 C5 C4 . . 105.64(19) ?
loop_
_geom_bond_atom_site_label_1
_geom_bond_atom_site_label_2
_geom_bond_site_symmetry_2
_geom_bond_distance
_geom_bond_publ_flag
N3 C2 . 1.317(3) ?
N3 C3 . 1.450(3) ?
N3 C4 . 1.455(3) ?
N1 C2 . 1.352(3) ?
N1 C5 . 1.379(3) ?
N1 H1 . 0.83(2) ?
O5 C5 . 1.195(3) ?
N2 C2 . 1.311(3) ?
N2 H2B . 0.8600 ?
N2 H2A . 0.8600 ?
C4 C5 . 1.496(3) ?
C4 H4A . 0.9700 ?
C4 H4B . 0.9700 ?
C3 H3B . 0.9600 ?
C3 H3C . 0.9600 ?
C3 H3A . 0.9600 ?
loop_
_geom_hbond_atom_site_label_D
_geom_hbond_atom_site_label_H
_geom_hbond_atom_site_label_A
_geom_hbond_site_symmetry_A
_geom_hbond_distance_DH
_geom_hbond_distance_HA
_geom_hbond_distance_DA
_geom_hbond_angle_DHA
N1 H1 Br1 . 0.82 2.50 3.315(2) 173.4(19)
N2 H2B Br1 1_545 0.86 2.57 3.408(2) 167
N2 H2A Br1 3_565 0.86 2.51 3.3197(19) 158
C3 H3A Br1 1_545 0.96 2.90 3.861(3) 177
C4 H4A Br1 3_665 0.97 2.82 3.747(2) 160
loop_
_geom_torsion_atom_site_label_1
_geom_torsion_atom_site_label_2
_geom_torsion_atom_site_label_3
_geom_torsion_atom_site_label_4
_geom_torsion_site_symmetry_1
_geom_torsion_site_symmetry_2
_geom_torsion_site_symmetry_3
_geom_torsion_site_symmetry_4
_geom_torsion
_geom_torsion_publ_flag
C3 N3 C2 N2 . . . . -8.5(4) ?
C4 N3 C2 N2 . . . . -177.3(2) ?
C3 N3 C2 N1 . . . . 172.5(2) ?
C4 N3 C2 N1 . . . . 3.7(3) ?
C5 N1 C2 N2 . . . . 179.6(2) ?
C5 N1 C2 N3 . . . . -1.3(3) ?
C2 N3 C4 C5 . . . . -4.3(2) ?
C3 N3 C4 C5 . . . . -173.8(2) ?
C2 N1 C5 O5 . . . . 177.3(3) ?
C2 N1 C5 C4 . . . . -1.5(3) ?
N3 C4 C5 O5 . . . . -175.4(3) ?
N3 C4 C5 N1 . . . . 3.4(3) ?

_cod_database_fobs_code 2022647
