#------------------------------------------------------------------------------
#$Date: 2022-01-07 00:38:09 +0200 (Fri, 07 Jan 2022) $
#$Revision: 271882 $
#$URL: file:///home/coder/svn-repositories/cod/cif/2/02/25/2022507.cif $
#------------------------------------------------------------------------------
#
# This file is available in the Crystallography Open Database (COD),
# http://www.crystallography.net/. The original data for this entry
# were provided by IUCr Journals, http://journals.iucr.org/.
#
# The file may be used within the scientific community so long as
# proper attribution is given to the journal article from which the
# data were obtained.
#
data_2022507
loop_
_publ_author_name
'O\'smia\/lowski, Borys'
'Dziuk, B\/la\.zej'
'Ejsmont, Krzysztof'
'Checi\'nska, Lilianna'
'Dobrza\'nska, Liliana'
_publ_section_title
;
 Effect of conjugated system extension on structural features and
 electron-density distribution in charge--transfer difluoroborates
;
_journal_coeditor_code           WV3007
_journal_issue                   12
_journal_name_full               'Acta Crystallographica Section C'
_journal_page_first              807
_journal_page_last               813
_journal_paper_doi               10.1107/S2053229621012249
_journal_volume                  77
_journal_year                    2021
_chemical_formula_iupac          'C8 H10 B F2 N3 O'
_chemical_formula_moiety         'C8 H10 B F2 N3 O'
_chemical_formula_sum            'C8 H10 B F2 N3 O'
_chemical_formula_weight         213.00
_chemical_name_systematic
3-(Dimethylamino)-1,1-difluoro-1<i>H</i>-pyrido[1,2-<i>c</i>][1,3,5,2]-oxadiazaborinin-9-ium-1-uide
_space_group_crystal_system      triclinic
_space_group_IT_number           2
_space_group_name_Hall           '-P 1'
_space_group_name_H-M_alt        'P -1'
_atom_sites_solution_hydrogens   geom
_audit_creation_method           SHELXL-2014/7
_cell_angle_alpha                79.847(6)
_cell_angle_beta                 66.782(7)
_cell_angle_gamma                64.907(7)
_cell_formula_units_Z            2
_cell_length_a                   7.7181(5)
_cell_length_b                   8.2139(6)
_cell_length_c                   8.7684(6)
_cell_measurement_reflns_used    28335
_cell_measurement_temperature    100.0(2)
_cell_measurement_theta_max      30.496
_cell_measurement_theta_min      2.528
_cell_volume                     462.62(7)
_computing_cell_refinement
;
CrysAlis PRO (Oxford Diffraction, 2014)
;
_computing_data_collection
;
CrysAlis PRO (Oxford Diffraction, 2014)
;
_computing_data_reduction
;
CrysAlis PRO (Oxford Diffraction, 2014)
;
_computing_molecular_graphics
;
SHELXTL (Sheldrick, 2008),
Mercury (Macrae <i>et al.</i>, 2020) and
<i>POV-Ray</i> (Persistence of Vision, 2004)
;
_computing_publication_material
;
SHELXL2014 (Sheldrick, 2015)
;
_computing_structure_refinement
;
SHELXL2014 (Sheldrick, 2015)
;
_computing_structure_solution
;
SHELXS2014 (Sheldrick, 2008)
;
_diffrn_ambient_temperature      100.0(2)
_diffrn_measured_fraction_theta_full 0.998
_diffrn_measured_fraction_theta_max 0.999
_diffrn_measurement_device_type
'Oxford Diffraction SuperNova Dual Source diffractometer with an Eos detector'
_diffrn_measurement_method       \w
_diffrn_radiation_type           MoK\a
_diffrn_radiation_wavelength     0.71073
_diffrn_reflns_av_R_equivalents  0.0441
_diffrn_reflns_av_unetI/netI     0.0189
_diffrn_reflns_limit_h_max       11
_diffrn_reflns_limit_h_min       -11
_diffrn_reflns_limit_k_max       11
_diffrn_reflns_limit_k_min       -11
_diffrn_reflns_limit_l_max       12
_diffrn_reflns_limit_l_min       -12
_diffrn_reflns_number            28335
_diffrn_reflns_theta_full        26.500
_diffrn_reflns_theta_max         30.496
_diffrn_reflns_theta_min         2.528
_diffrn_source                   'SuperNova(Mo) X-ray Source'
_diffrn_standards_decay_%        0
_diffrn_standards_interval_count 0
_diffrn_standards_number         0
_exptl_absorpt_coefficient_mu    0.129
_exptl_absorpt_correction_T_max  0.982
_exptl_absorpt_correction_T_min  0.924
_exptl_absorpt_correction_type   multi-scan
_exptl_absorpt_process_details
;
(CrysAlis PRO; Oxford Diffraction, 2014)
;
_exptl_crystal_colour            colorless
_exptl_crystal_density_diffrn    1.529
_exptl_crystal_density_method    'not measured'
_exptl_crystal_description       block
_exptl_crystal_F_000             220
_exptl_crystal_size_max          0.370
_exptl_crystal_size_mid          0.350
_exptl_crystal_size_min          0.240
_refine_diff_density_max         0.453
_refine_diff_density_min         -0.244
_refine_ls_extinction_method     none
_refine_ls_goodness_of_fit_ref   1.072
_refine_ls_hydrogen_treatment    constr
_refine_ls_matrix_type           full
_refine_ls_number_parameters     138
_refine_ls_number_reflns         2810
_refine_ls_number_restraints     0
_refine_ls_restrained_S_all      1.072
_refine_ls_R_factor_all          0.0498
_refine_ls_R_factor_gt           0.0433
_refine_ls_shift/su_max          0.000
_refine_ls_shift/su_mean         0.000
_refine_ls_structure_factor_coef Fsqd
_refine_ls_weighting_details
'w=1/[\s^2^(Fo^2^)+(0.0740P)^2^+0.1110P] where P=(Fo^2^+2Fc^2^)/3'
_refine_ls_weighting_scheme      calc
_refine_ls_wR_factor_gt          0.1214
_refine_ls_wR_factor_ref         0.1291
_reflns_number_gt                2418
_reflns_number_total             2810
_reflns_threshold_expression     'I > 2\s(I)'
_cod_data_source_file            wv3007sup1.cif
_cod_data_source_block           1
_cod_original_cell_volume        462.62(6)
_cod_database_code               2022507
_shelx_space_group_comment
;
The symmetry employed for this shelxl refinement is uniquely defined
by the following loop, which should always be used as a source of
symmetry information in preference to the above space-group names.
They are only intended as comments.
;
_shelx_estimated_absorpt_t_min   0.954
_shelx_estimated_absorpt_t_max   0.970
_shelx_hkl_file
;
   0   0  -1 15733.3 287.762   8
   0   0   1 15315.4 299.485   4
   0   0  -1 15565.5 279.901   5
   0   0   1 15282.2 292.623  11
   0   0   1 15690.0 310.100   7
   0   0  -1 16232.7 292.842  20
   0   0   1 15345.2 290.480   1
   0   0  -2 36948.0 711.348  21
   0   0   2 39210.4 754.626   4
   0   0   2 41174.8 746.034   1
   0   0  -2 38625.5 716.329  19
   0   0   2 41274.2 771.481   9
   0   0   2 37751.2 772.942   7
   0   0   2 36893.5 689.282  14
   0   0   2 37902.2 694.616  15
   0   0  -2 37289.1 718.814  17
   0   0  -2 39541.4 738.849  20
   0   0  -2 39257.7 683.430   2
   0   0   2 39165.9 720.710  12
   0   0  -2 38114.6 715.244   5
   0   0  -2 38383.8 717.355  18
   0   0   2 38363.8 741.160  11
   0   0  -2 38409.2 715.429  23
   0   0  -2 39067.6 730.645   8
   0   0  -3 3397.44 147.105   5
   0   0  -3 3583.39 145.263  19
   0   0   3 3451.20 152.293  12
   0   0  -3 3662.43 161.685   8
   0   0  -3 3395.13 158.628  20
   0   0  -3 3592.09 146.875  18
   0   0   3 3412.85 128.462  14
   0   0   3 3249.95 176.634   7
   0   0   3 3483.39 131.315  15
   0   0   3 3660.50 172.878   1
   0   0  -3 3470.31 125.811   2
   0   0  -3 3371.21 142.110  21
   0   0  -3 3505.86 148.901  17
   0   0  -3 3518.64 145.888  23
   0   0   3 3560.97 166.518  11
   0   0   3 3614.24 173.239   4
   0   0  -4 2678.91 156.955   8
   0   0   4 2486.19 173.864   7
   0   0   4 2745.22 128.896  14
   0   0  -4 2552.43 141.062  17
   0   0   4 2706.56 151.309  12
   0   0   4 2540.47 160.258  11
   0   0  -4 2726.86 141.575  23
   0   0  -4 2852.87 144.092  19
   0   0   4 2547.50 127.263  15
   0   0  -4 2696.40 120.964   2
   0   0  -4 2727.84 147.049   5
   0   0  -4 2595.14 139.339  18
   0   0   4 2621.85 168.874   4
   0   0  -4 2930.50 163.494  20
   0   0  -4 2609.91 143.342  21
   0   0   4 2622.94 169.020   1
   0   0   5 305.774 74.8298   1
   0   0  -5 281.675 55.2396  21
   0   0  -5 400.577 69.5190  20
   0   0  -5 321.293 65.2536   8
   0   0  -5 284.542 50.4644  18
   0   0  -5 365.585 59.5915   5
   0   0   5 347.937 63.2419  12
   0   0   5 356.838 68.3936  11
   0   0   5 376.964 53.8152  14
   0   0  -5 339.443 60.3314  17
   0   0   5 316.824 73.2880   7
   0   0   5 354.691 73.6639   4
   0   0   5 233.331 48.3992  15
   0   0  -5 404.959 60.3559  19
   0   0  -5 225.475 48.0400  23
   0   0   6 1637.29 145.864  12
   0   0   6 1557.72 173.635   1
   0   0   6 1855.15 182.872   7
   0   0  -6 1530.43 134.207   5
   0   0   6 1404.97 115.182  14
   0   0  -6 1712.11 156.340   8
   0   0  -6 1535.83 133.898  17
   0   0  -6 1463.63 143.046  20
   0   0  -6 1438.89 128.987  21
   0   0  -6 1804.05 136.724  19
   0   0  -6 1583.13 131.566  23
   0   0   6 1739.09 170.168   4
   0   0  -6 1669.35 131.931  18
   0   0   6 1710.05 128.933  15
   0   0  -7 18433.0 627.112  20
   0   0   7 22865.8 753.240   7
   0   0   7 22264.4 722.200   4
   0   0  -7 21642.3 682.477   8
   0   0   7 20133.4 626.632  12
   0   0  -7 20053.4 623.560   5
   0   0   7 22695.8 791.953   1
   0   0   8 260.349 81.4575   4
   0   0   8 324.328 70.7641  12
   0   0  -8 427.744 97.0530   8
   0   0  -8 255.710 73.8334  20
   0   0   8 201.787 80.8305   1
   0   0   8 438.024 106.716   7
   0   0   9 654.951 132.274   4
   0   0   9 406.531 110.669   7
   0   0  -9 670.673 136.286   8
   0   0 -10 599.280 143.143   8
   0   0  10 711.727 145.387   7
   0   0  10 759.225 158.971   4
   0   0  11 116.126 84.3430   7
   0   0 -11-69.2458 56.3404   8
   0  -1  11 5671.79 459.801   7
   0   1 -11 5967.80 465.642   8
   0  -1  10 508.422 133.564   7
   0   1 -10 713.761 148.123   8
   0   1  -9 794.647 155.703   8
   0  -1   9 829.737 152.340   4
   0  -1   9 845.782 151.680   7
   0  -1   8 85.5106 61.7048   4
   0  -1   8 133.845 99.2111   1
   0   1  -8 170.881 75.1549   8
   0   1  -8 276.447 81.8288   5
   0   1  -8 104.537 60.2132  20
   0  -1   8 111.036 57.4359   7
   0   1  -7 94.8676 46.7902   5
   0  -1   7 98.9343 67.9048   4
   0   1  -7-27.0656 42.9400  18
   0  -1   7 57.2438 34.2786  15
   0  -1   7-32.1887 73.2476   1
   0   1  -7 34.8828 35.0084  23
   0  -1   7 59.9410 33.8989   7
   0  -1   7 13.1248 21.1261  14
   0   1  -7 4.44167 25.7482  19
   0   1  -7 0.94204 32.1803  17
   0   1  -7 0.25688 29.2312  21
   0   1  -7-26.2841 43.5818  20
   0   1  -7 98.6448 43.5771   8
   0   1  -6 509.899 83.9596  21
   0  -1   6 582.589 81.0675  15
   0   1  -6 495.355 85.1373  23
   0   1  -6 593.660 93.7647   5
   0   1  -6 572.773 87.9111  19
   0   1  -6 585.133 89.9440  18
   0  -1   6 643.134 83.9003  14
   0  -1   6 481.184 86.4908   7
   0   1  -6 525.416 94.8474  20
   0   1  -6 395.956 78.3576  17
   0  -1   6 558.332 102.351   4
   0  -1   6 492.621 78.0507  12
   0   1  -6 688.408 106.039   8
   0  -1   6 657.302 130.761   1
   0   1  -5 2034.63 157.042   5
   0   1  -5 2010.01 155.596  23
   0   1  -5 2152.83 160.163  19
   0   1  -5 1992.62 160.361   8
   0  -1   5 2291.25 186.948   4
   0  -1   5 1966.00 134.615  12
   0   1  -5 1862.47 156.671  17
   0   1  -5 2137.81 161.423  18
   0  -1   5 2174.10 214.677   1
   0   1  -5 2089.52 175.296  20
   0  -1   5 1923.64 167.116   7
   0  -1   5 1999.70 133.593  14
   0   1  -5 1958.74 159.317  13
   0  -1   4 105964. 1975.08  12
   0  -1   4 111680. 2115.30   4
   0   1  -4 108647. 2090.19  13
   0   1  -4 113128. 2083.43  18
   0  -1   4 113283. 2077.34   7
   0   1  -4 111637. 2070.78  23
   0   1  -4 111282. 2054.27   5
   0   1  -4 109778. 2097.36  20
   0   1  -4 111509. 2051.94   8
   0  -1   4 115746. 1995.54  14
   0   1  -4 110452. 2093.72  17
   0   1  -4 111000. 2068.03  19
   0  -1   4 119395. 2254.40   1
   0   1  -3 22338.0 566.320  13
   0  -1   3 22967.6 506.338  14
   0   1  -3 22129.6 527.802   8
   0   1  -3 21745.2 568.527  17
   0  -1   3 21095.5 532.697   7
   0  -1   3 21796.2 475.200  12
   0  -1   3 22065.3 590.311  16
   0  -1   3 22180.3 569.491   4
   0   1  -3 22161.6 554.460  19
   0  -1   3 22822.3 645.915   1
   0   1  -3 22007.2 531.556   2
   0   1  -3 21558.8 553.940  23
   0   1  -3 22210.8 540.581   5
   0   1  -3 22200.0 559.923  18
   0   1  -3 22460.1 569.680  20
   0  -1   2 2115.25 84.9471  12
   0   1  -2 2511.62 141.914  17
   0   1  -2 2335.00 147.504  15
   0  -1   2 2298.22 112.078   7
   0  -1   2 2237.28 132.572  16
   0  -1   2 2302.10 124.011  21
   0   1  -2 2348.57 125.542   2
   0   1  -2 2228.29 134.194  13
   0   1  -2 2312.49 113.436   8
   0  -1   2 2217.78 102.332   9
   0   1  -2 2365.52 133.211  19
   0   1  -2 2376.44 134.770  18
   0  -1   2 2506.24 136.371   4
   0   1  -2 2222.53 131.763  20
   0   1  -2 2225.82 118.751   5
   0  -1   2 2650.46 175.164   1
   0   1  -1 588.318 59.4807  18
   0   1  -1 591.879 51.1438   5
   0   1  -1 529.167 57.5808  13
   0   1  -1 604.525 65.6578  15
   0   1  -1 587.608 54.7101  20
   0  -1   1 687.050 67.2440   3
   0  -1   1 694.069 56.8606  16
   0   1  -1 600.731 61.2270  17
   0  -1   1 597.669 37.6058   7
   0   1  -1 600.858 57.9955  19
   0  -1   1 608.578 81.9361   1
   0  -1   1 602.354 53.8129  21
   0   1   0 28931.5 578.532  18
   0   1   0 29145.4 544.945  20
   0   1   0 29688.3 599.069  14
   0  -1   0 29423.2 569.298   3
   0  -1   0 28744.5 566.449  16
   0   1   0 28810.9 540.623   5
   0   1   0 29252.6 580.423  17
   0   1   0 29396.6 579.116  13
   0  -1   0 27792.1 557.136  21
   0  -1   0 28156.9 548.113  10
   0  -1   0 28242.3 559.674  23
   0   1   0 29174.9 591.322  15
   0  -1  -1 35462.0 647.288  21
   0   1   1 34900.7 667.402  14
   0   1   1 33781.1 660.604   7
   0   1   1 33663.8 631.557   1
   0   1   1 34903.9 655.973  17
   0  -1  -1 35618.3 648.181  23
   0  -1  -1 34629.3 648.187  22
   0   1   1 34490.3 630.075  12
   0  -1  -1 32340.7 590.656   8
   0   1   1 35018.6 625.372  11
   0   1   1 34617.6 652.977  13
   0   1   1 35071.9 662.964  15
   0  -1  -1 34121.2 657.544  10
   0  -1  -1 34281.1 682.962   3
   0  -1  -1 35051.0 643.497  19
   0   1   2 9886.45 246.565   1
   0  -1  -2 10610.7 259.795  22
   0   1   2 10405.4 271.415  12
   0   1   2 10291.0 257.906  11
   0   1   2 10204.3 304.831   7
   0  -1  -2 10650.2 257.953  21
   0  -1  -2 10579.7 246.040   8
   0   1   2 10146.3 260.731  15
   0  -1  -2 10454.3 294.281  10
   0  -1  -2 9498.67 229.841   2
   0  -1  -2 11070.7 258.491  19
   0  -1  -2 11024.4 261.159  23
   0   1   2 10274.2 263.570  14
   0   1   2 10083.0 254.392  13
   0   1   2 10172.2 269.048   4
   0   1   3 206.743 34.2602   1
   0   1   3 130.144 42.0166   7
   0  -1  -3 140.172 28.7023  23
   0   1   3 169.136 32.0590  14
   0  -1  -3 172.334 32.2504  22
   0  -1  -3 184.657 37.9316   8
   0  -1  -3 179.365 32.2503  21
   0   1   3 121.553 26.5320  13
   0   1   3 126.553 30.0921  11
   0   1   3 153.820 37.9289   4
   0  -1  -3 132.401 24.7725  20
   0   1   3 125.878 31.4740  12
   0  -1  -3 123.366 23.0015   5
   0  -1  -3 125.364 17.2607   2
   0  -1  -3 170.799 31.0205  19
   0  -1  -3 152.041 31.1026  18
   0   1   3 177.384 32.7544  15
   0   1   4 85.9082 29.6423   1
   0   1   4 109.483 32.7771  12
   0  -1  -4 134.840 39.3823   8
   0  -1  -4 80.7072 27.1437  22
   0   1   4 122.754 40.7135   4
   0   1   4 98.5056 29.4098  14
   0  -1  -4 104.419 30.1956  21
   0   1   4 62.2762 28.8820  11
   0   1   4 90.2770 27.9257  15
   0   1   4 65.8083 23.1347  13
   0  -1  -4 105.670 29.8171  19
   0  -1  -4 95.5257 27.9446  18
   0   1   4 84.2180 38.5799   7
   0  -1  -4 109.057 16.5329   2
   0  -1  -4 80.5982 25.5532  23
   0  -1  -4 87.8194 27.4970  20
   0  -1  -4 92.9717 27.5333   5
   0  -1  -5 1168.25 102.986  18
   0  -1  -5 1215.10 102.941  23
   0   1   5 1324.17 104.870  15
   0   1   5 1233.75 98.7054  13
   0  -1  -5 1162.88 99.0563  22
   0  -1  -5 1293.94 105.721  21
   0   1   5 1317.69 103.854  14
   0  -1  -5 1073.48 95.7328  20
   0   1   5 1184.72 120.040   4
   0   1   5 1206.83 138.507   7
   0   1   5 1274.51 122.175  11
   0  -1  -5 1224.11 100.273  19
   0  -1  -5 1214.04 95.8072   5
   0   1   5 1151.73 118.356   1
   0  -1  -5 1312.85 120.274   8
   0   1   5 1309.53 125.950  12
   0  -1  -5 962.589 55.5749   2
   0  -1  -6 74.5669 40.1878   8
   0   1   6 63.4195 31.8917  15
   0  -1  -6 57.8680 29.2133  23
   0   1   6 37.5391 31.9323  11
   0  -1  -6 52.4408 26.2264   5
   0   1   6 104.892 45.1425   1
   0  -1  -6 50.6497 29.5907  22
   0   1   6 58.9426 37.6973   4
   0  -1  -6 90.6824 37.2346  20
   0   1   6 178.094 67.0793   7
   0  -1  -6 81.5913 33.5965  18
   0   1   6 102.555 34.3672  13
   0   1   6 34.8737 24.6133  14
   0  -1  -6 79.4338 33.2723  19
   0  -1  -6 76.0715 32.9646  21
   0   1   6 38.7215 30.3659  12
   0  -1  -7 7574.12 314.158   5
   0  -1  -7 8113.07 381.363   8
   0   1   7 8605.98 406.173  11
   0   1   7 8332.13 412.183   1
   0  -1  -7 6763.73 311.071  20
   0   1   7 8657.36 383.410  12
   0   1   7 8115.75 393.453   4
   0   1   7 8256.31 434.787   7
   0   1   8 32325.6 1016.31   7
   0   1   8 33470.1 961.387   4
   0   1   8 30680.9 888.765  12
   0   1   8 33984.5 977.460  11
   0   1   8 32504.0 1016.03   1
   0   1   9 5717.54 352.280  12
   0   1   9 5001.36 384.429   7
   0   1   9 5683.54 379.304   4
   0  -1  -9 4833.94 347.027   8
   0   1  10 4723.40 370.792   4
   0  -1 -10 4794.35 419.794  10
   0   1  10 3912.95 359.022   7
   0   1  11 582.050 151.449   7
   0  -1 -11 458.589 148.401  10
   0  -1 -11 402.124 122.630   8
   0  -2  11 172.122 111.058   4
   0   2 -11-43.0791 71.4941   8
   0  -2  11 115.698 76.4514   7
   0  -2  10 518.575 148.942   4
   0   2 -10 297.229 95.9675   8
   0  -2  10 263.723 96.8738   7
   0   2  -9 20.9764 50.3807   8
   0   2  -9 186.488 82.3841  20
   0  -2   9 249.252 113.751   4
   0   2  -9 55.3861 52.0964   5
   0  -2   9 86.9686 64.8341   7
   0   2  -8-34.2513 61.4180   5
   0  -2   8-54.5915 46.4163   7
   0  -2   8 172.584 104.986   1
   0   2  -8 35.6714 45.1946   8
   0   2  -8-2.89089 50.7150  20
   0  -2   8 12.1974 52.7336   4
   0   2  -7 743.794 131.397  20
   0   2  -7 724.095 118.916  23
   0   2  -7 648.732 114.432  19
   0   2  -7 665.790 119.166  17
   0  -2   7 462.610 149.799   1
   0   2  -7 627.675 111.560  18
   0  -2   7 1012.01 159.886   4
   0   2  -7 932.546 137.765   5
   0   2  -7 918.736 139.054   8
   0  -2   7 721.302 102.989  14
   0  -2   7 886.362 127.925   7
   0   2  -6 912.735 137.836  20
   0  -2   6 817.312 113.699   7
   0   2  -6 1062.86 137.918  19
   0   2  -6 923.402 125.787   8
   0   2  -6 1061.89 139.827   5
   0   2  -6 779.683 123.093  18
   0   2  -6 928.526 132.670  13
   0  -2   6 1002.49 114.194  14
   0  -2   6 911.471 180.249   1
   0  -2   6 953.572 143.217   4
   0   2  -6 867.583 125.987  23
   0   2  -6 947.114 136.499  17
   0   2  -5 11275.9 479.478  17
   0   2  -5 11668.8 451.889   5
   0   2  -5 11195.9 464.518  18
   0  -2   5 11339.8 414.579   7
   0   2  -5 12172.9 436.390   8
   0  -2   5 12454.2 491.408   4
   0  -2   5 11851.3 605.374   1
   0   2  -5 11747.6 467.950  19
   0   2  -5 11244.0 471.449  20
   0   2  -5 11347.1 479.314  13
   0  -2   5 11221.7 489.066  16
   0  -2   5 12098.6 403.642  14
   0   2  -5 11977.6 474.194  23
   0  -2   4 34534.4 1059.40   1
   0  -2   4 35317.4 789.545  14
   0   2  -4 33795.1 869.926  19
   0   2  -4 33479.5 875.566  18
   0   2  -4 33526.4 838.204   5
   0  -2   4 33390.9 776.346   7
   0   2  -4 32842.8 880.241  13
   0   2  -4 32927.9 887.431  17
   0   2  -4 33513.2 874.236  23
   0  -2   4 35349.0 898.940  16
   0  -2   4 33937.7 873.203   4
   0   2  -4 33172.5 872.284  20
   0   2  -4 32770.0 801.513   8
   0   2  -3 182326. 3192.21   5
   0  -2   3 182609. 3237.87   4
   0  -2   3 182126. 3502.31   1
   0   2  -3 184747. 3287.48  17
   0   2  -3 175790. 3231.89  20
   0  -2   3 188987. 3208.42  21
   0   2  -3 176940. 3270.40  13
   0  -2   3 195024. 3263.70  16
   0  -2   3 177303. 3088.82   7
   0   2  -3 172558. 3126.07   8
   0   2  -3 177184. 3318.98  15
   0   2  -3 183913. 3256.72  19
   0   2  -3 181686. 3265.79  18
   0   2  -2 470.545 70.2336  20
   0   2  -2 532.494 55.7390   8
   0  -2   2 582.574 87.3016   3
   0   2  -2 562.666 71.4736   5
   0  -2   2 514.787 49.1701   7
   0  -2   2 557.663 75.1121  21
   0   2  -2 537.702 80.5079  18
   0   2  -2 513.058 79.9735  17
   0   2  -2 653.350 87.6038  19
   0  -2   2 633.651 122.954   1
   0  -2   2 567.986 77.2756  16
   0  -2   2 453.365 37.9733   9
   0   2  -2 627.668 94.5316  15
   0   2  -2 669.932 90.4565  13
   0   2  -1 15852.5 443.916  20
   0   2  -1 16446.1 503.521  15
   0  -2   1 16777.5 439.168  16
   0  -2   1 15842.5 440.583  21
   0   2  -1 16150.3 426.769   5
   0   2  -1 16873.8 487.559  13
   0   2  -1 15830.2 480.536  17
   0  -2   1 17883.7 484.690   3
   0   2  -1 16387.3 481.492  18
   0  -2   0 44594.5 926.289  21
   0   2   0 45014.4 789.922  12
   0  -2   0 46001.6 941.926  16
   0  -2   0 44766.5 907.721  10
   0  -2   0 46775.5 948.433   3
   0   2   0 44837.4 900.045  20
   0   2   0 46894.6 980.823  17
   0   2   0 48004.3 1004.81  15
   0   2   0 47829.7 980.853  13
   0   2   0 47065.4 892.968   5
   0  -2   0 44120.5 927.027  23
   0   2   0 46788.6 976.201  18
   0   2   0 47892.7 1016.64  14
   0  -2  -1 7430.05 275.013   3
   0   2   1 7363.26 231.370   1
   0   2   1 7733.10 298.249  14
   0  -2  -1 7332.73 255.641  22
   0  -2  -1 7212.10 249.878  10
   0   2   1 7416.03 271.928  17
   0   2   1 7495.74 204.787  12
   0   2   1 7469.43 274.479  18
   0  -2  -1 7257.87 252.552  23
   0   2   1 7697.25 288.106  15
   0  -2  -1 7416.56 252.226  21
   0   2   1 7095.94 212.361   5
   0   2   1 6654.57 223.915   7
   0   2   1 7355.95 270.201  13
   0   2   1 7315.57 224.649  11
   0   2   2 42008.5 885.680  15
   0   2   2 38845.2 861.450   7
   0  -2  -2 40479.7 853.064  22
   0   2   2 41319.8 814.828  12
   0  -2  -2 41337.3 847.779  23
   0   2   2 40637.7 868.187  17
   0   2   2 41121.2 863.471  13
   0  -2  -2 39922.0 740.736   8
   0  -2  -2 41206.4 867.912  10
   0   2   2 41577.7 897.071  14
   0  -2  -2 42252.1 918.610   3
   0  -2  -2 41455.6 842.220  19
   0   2   2 41949.9 821.150   1
   0  -2  -2 42056.6 849.872  21
   0   2   2 41669.3 806.817  11
   0  -2  -3 3252.53 161.846  19
   0   2   3 3301.97 175.906  15
   0   2   3 3357.13 195.011   7
   0   2   3 3403.18 170.052  13
   0  -2  -3 3296.22 190.831  10
   0  -2  -3 2952.79 147.100   2
   0   2   3 3279.23 154.248  11
   0   2   3 3137.20 177.154  14
   0   2   3 3252.45 165.018  12
   0   2   3 3196.33 167.660  17
   0  -2  -3 3360.11 139.874   8
   0  -2  -3 3233.61 164.236  22
   0  -2  -3 3328.81 165.708  23
   0  -2  -3 3298.80 163.947  21
   0   2   3 3318.98 154.008   1
   0  -2  -4 48741.3 987.849  21
   0  -2  -4 49072.7 990.923  23
   0  -2  -4 50331.5 962.001   8
   0   2   4 49707.1 1024.14  12
   0   2   4 48120.7 990.687  17
   0  -2  -4 51116.5 994.096  22
   0  -2  -4 48722.6 982.876  19
   0   2   4 50782.9 1105.10   7
   0  -2  -4 49214.2 1079.06  10
   0   2   4 50704.2 999.609  11
   0   2   4 46481.0 1001.65  15
   0   2   4 47085.1 1005.32   4
   0   2   4 45741.7 950.502   1
   0   2   4 47187.5 1014.66  14
   0   2   4 46167.3 982.133  13
   0   2   5 2974.83 195.927  12
   0   2   5 2656.13 163.767  13
   0   2   5 2491.85 166.312  15
   0   2   5 2864.64 183.365  11
   0  -2  -5 2600.65 128.683   5
   0  -2  -5 2912.22 168.552  22
   0   2   5 2771.21 174.051  14
   0  -2  -5 2486.34 200.083  10
   0  -2  -5 2792.37 170.358   8
   0  -2  -5 2944.68 169.428  23
   0   2   5 2593.14 178.155   4
   0   2   5 2582.28 163.907  17
   0  -2  -5 2896.53 173.158  21
   0   2   5 2751.45 165.840   1
   0  -2  -5 2899.01 165.677  19
   0   2   5 2681.74 215.067   7
   0   2   6 11495.1 391.589  13
   0  -2  -6 13009.4 410.943  21
   0   2   6 11701.4 444.546   4
   0  -2  -6 11610.5 343.293   5
   0  -2  -6 13008.0 402.411  19
   0   2   6 11655.5 406.114  15
   0   2   6 12043.7 449.131  11
   0   2   6 12603.9 516.990   7
   0  -2  -6 12601.8 513.846  10
   0  -2  -6 12551.3 431.454   8
   0  -2  -6 13482.7 415.793  23
   0   2   6 10856.8 393.641  17
   0   2   6 12152.9 415.070  14
   0  -2  -6 13270.7 412.398  22
   0   2   6 12555.9 438.689   1
   0   2   6 12488.5 467.753  12
   0   2   7 67.6750 51.2806   7
   0  -2  -7 70.2428 55.4524  10
   0   2   7 46.6728 41.2859   1
   0  -2  -7 88.0602 45.1986   8
   0   2   7 75.0860 44.1939  12
   0   2   7 44.2974 52.2117   4
   0   2   7 51.8718 38.4520  11
   0  -2  -8 3120.21 292.016  10
   0  -2  -8 2579.00 226.641   8
   0   2   8 3195.74 266.077   1
   0   2   8 3214.52 264.854  11
   0   2   8 2986.54 252.890  12
   0   2   8 3297.04 263.341   4
   0   2   8 2786.91 274.218   7
   0  -2  -9 17317.5 761.674  10
   0   2   9 15834.7 668.197  11
   0   2   9 14183.0 683.905   7
   0   2   9 16054.2 643.180   4
   0   2   9 14822.3 623.647  12
   0   2  10 676.649 164.929   7
   0  -2 -10 716.432 145.892   8
   0  -2 -10 990.396 187.084  10
   0  -2 -11 99.2960 84.5650  10
   0   2  11 44.7168 59.6314   7
   0  -3  11 340.759 110.467   7
   0   3 -11 433.035 134.959   8
   0  -3  11 292.538 108.340   4
   0   3 -10 123.018 89.0491   8
   0   3 -10 109.334 60.1513  20
   0  -3  10 193.082 81.6766   7
   0  -3   9 235.857 81.1924   7
   0   3  -9 65.5030 59.6753   5
   0  -3   9 173.063 85.8009   4
   0   3  -9 225.889 93.8009  20
   0   3  -9 153.044 68.3182   8
   0   3  -8 10423.4 525.050   8
   0   3  -8 11044.6 568.832   5
   0  -3   8 9515.79 473.344   7
   0  -3   8 8815.50 696.617   1
   0   3  -8 9335.03 546.163  20
   0   3  -7 1329.54 190.255  20
   0   3  -7 1464.47 177.421   8
   0  -3   7 1804.72 220.386   4
   0  -3   7 1576.82 282.831   1
   0   3  -7 1224.61 178.420  17
   0   3  -7 1198.65 170.747  23
   0   3  -7 1095.93 164.830  18
   0   3  -7 1136.40 172.638  13
   0  -3   7 1395.98 152.577  14
   0   3  -7 1178.23 168.600  19
   0  -3   7 1638.44 172.818   7
   0   3  -7 1437.20 187.286   5
   0  -3   6 5290.35 291.768  14
   0   3  -6 5041.94 330.926   5
   0  -3   6 5403.68 359.311   4
   0  -3   6 4333.32 435.773   1
   0   3  -6 4639.52 333.137  18
   0   3  -6 4909.94 352.847  17
   0  -3   6 4727.49 276.823   7
   0   3  -6 5227.64 347.955  19
   0   3  -6 5020.19 303.149   8
   0   3  -6 4676.09 342.136  13
   0   3  -6 5194.29 348.579  23
   0  -3   6 4642.21 347.339  16
   0   3  -6 4902.23 346.460  20
   0   3  -5 1003.45 154.515  17
   0  -3   5 1270.01 122.305   7
   0   3  -5 1414.77 174.369  18
   0   3  -5 1276.99 152.174   5
   0   3  -5 1359.22 168.508  23
   0  -3   5 1328.20 137.971  14
   0  -3   5 1276.43 161.343   4
   0   3  -5 1219.97 160.686  19
   0  -3   5 1202.41 224.074   1
   0   3  -5 1263.67 137.649   8
   0  -3   5 1061.47 159.389  16
   0   3  -5 1065.62 148.384  20
   0   3  -5 1383.90 173.277  13
   0   3  -4 6473.52 331.165   5
   0   3  -4 6630.89 377.904  17
   0   3  -4 6381.92 366.253  13
   0   3  -4 6015.18 285.518   8
   0  -3   4 5680.39 453.323   1
   0  -3   4 6471.53 347.079   4
   0   3  -4 6169.54 349.874  19
   0   3  -4 5835.04 336.136  20
   0  -3   4 7071.81 363.935  16
   0   3  -4 5545.16 365.172  15
   0  -3   4 6221.36 327.861  21
   0   3  -4 5776.13 345.537  18
   0  -3   4 6423.57 257.053   7
   0  -3   3 24951.0 705.575  21
   0   3  -3 25419.6 703.399   5
   0   3  -3 24967.6 775.396  17
   0  -3   3 26207.3 733.298  16
   0   3  -3 24523.1 749.996  19
   0  -3   3 26179.9 792.413   3
   0   3  -3 25030.1 616.142   8
   0   3  -3 24272.8 726.586  20
   0   3  -3 24663.2 768.031  13
   0  -3   3 25294.2 726.291   4
   0  -3   3 23884.5 547.928   7
   0   3  -3 24270.4 804.422  15
   0  -3   3 22499.9 914.612   1
   0   3  -3 23554.2 752.229  18
   0   3  -2 7120.01 356.886  13
   0   3  -2 6979.22 351.625  18
   0   3  -2 7254.73 245.295   8
   0  -3   2 7432.51 319.559  16
   0  -3   2 6443.74 197.535   7
   0   3  -2 6977.95 321.561  20
   0   3  -2 7509.83 315.617   5
   0   3  -2 7065.64 356.593  17
   0   3  -2 7346.37 352.739  19
   0  -3   2 7064.66 317.129  21
   0   3  -2 6820.94 370.551  15
   0  -3   2 8093.58 370.881   3
   0   3  -1 179.513 58.2774  18
   0   3  -1 101.016 32.5695   5
   0  -3   1 193.645 51.2320  16
   0  -3   1 164.038 56.2371   3
   0   3  -1 103.891 39.2694  20
   0   3  -1 159.637 54.5797  13
   0   3  -1 201.456 67.1459  17
   0  -3   1 145.335 48.3015  21
   0  -3   1 101.797 42.8994  23
   0   3  -1 196.505 66.3089  15
   0   3  -1 204.557 67.5647  14
   0  -3   1 169.145 46.1376  10
   0   3   0 5366.16 240.551  20
   0   3   0 5580.42 295.625  17
   0  -3   0 5623.01 250.588  10
   0  -3   0 5885.23 275.997  16
   0   3   0 5655.12 295.146  18
   0   3   0 5775.75 240.931   5
   0  -3   0 5791.98 275.561   3
   0  -3   0 5643.45 264.067  21
   0   3   0 5976.15 324.208  14
   0   3   0 5538.82 306.492  15
   0   3   0 5674.84 156.928  12
   0  -3   0 5571.98 265.745  23
   0   3   0 5599.97 294.807  13
   0   3   1 1081.56 124.525  17
   0  -3  -1 1032.61 106.501  21
   0  -3  -1 1036.75 102.756  10
   0   3   1 935.955 84.2082   7
   0  -3  -1 1006.33 106.387  23
   0   3   1 1137.93 95.8439  11
   0   3   1 1054.89 89.5709  20
   0   3   1 1095.98 93.4857   5
   0   3   1 1101.62 132.503  14
   0  -3  -1 1026.35 118.479  16
   0  -3  -1 1092.19 109.579  22
   0  -3  -1 1042.33 114.366   3
   0   3   1 1005.82 71.9452  12
   0   3   1 1145.10 133.179  15
   0   3   1 1037.51 119.037  18
   0   3   1 947.169 114.735  13
   0   3   2 17781.6 476.795   7
   0   3   2 18607.5 439.779  12
   0  -3  -2 19269.7 569.525   3
   0  -3  -2 19056.7 517.178  10
   0   3   2 18468.7 547.380  18
   0   3   2 18384.2 566.606  15
   0   3   2 19988.4 464.819  11
   0  -3  -2 18210.9 511.668  23
   0   3   2 18392.4 541.470  13
   0  -3  -2 18321.6 506.434  21
   0   3   2 17308.5 416.246   5
   0   3   2 18097.8 581.810  14
   0   3   2 17721.3 468.886   1
   0   3   2 16792.6 405.481  20
   0   3   2 18702.4 550.250  17
   0  -3  -2 18427.8 511.494  22
   0  -3  -3 711.485 91.0940  23
   0  -3  -3 657.064 107.148   3
   0  -3  -3 629.987 90.4115   2
   0   3   3 591.147 98.2550  14
   0  -3  -3 724.174 59.8840   8
   0   3   3 624.387 79.4090   1
   0   3   3 591.400 93.0854  15
   0   3   3 631.319 89.9792  13
   0   3   3 747.236 79.8115  11
   0  -3  -3 662.598 86.8382  21
   0  -3  -3 955.152 112.518  10
   0   3   3 646.012 92.6398  17
   0   3   3 641.511 90.8599   7
   0   3   3 687.378 81.5402  12
   0  -3  -3 705.752 91.2212  22
   0  -3  -4 34282.8 846.581   2
   0   3   4 37762.2 968.022  14
   0   3   4 37724.0 930.875  17
   0   3   4 39173.9 868.646   1
   0   3   4 39516.3 974.980   7
   0  -3  -4 40740.8 921.523  23
   0  -3  -4 41319.4 914.753  19
   0   3   4 38008.2 925.413  13
   0  -3  -4 40441.7 976.789  10
   0  -3  -4 41705.9 1068.42   3
   0   3   4 38791.5 956.469  15
   0  -3  -4 41396.0 923.582  21
   0   3   4 39025.3 866.056  11
   0   3   4 40919.7 911.341  12
   0  -3  -4 41294.8 925.525  22
   0  -3  -4 38040.0 800.300   8
   0  -3  -5 2954.67 230.672  10
   0   3   5 2743.04 195.339  17
   0   3   5 2738.09 191.443  13
   0   3   5 2598.87 198.568  15
   0  -3  -5 2270.21 131.924   2
   0  -3  -5 2785.65 189.656  23
   0   3   5 2704.71 172.321   1
   0  -3  -5 2903.40 193.599  21
   0   3   5 2981.96 234.037   7
   0  -3  -5 2731.68 185.153  19
   0   3   5 2900.30 188.991  11
   0   3   5 2438.30 198.450  14
   0   3   5 3104.82 207.018  12
   0  -3  -5 2751.37 163.117   8
   0  -3  -5 3052.26 198.553  22
   0  -3  -6 612.631 94.4323  22
   0   3   6 435.305 85.0370  17
   0  -3  -6 543.904 84.2836  23
   0   3   6 438.294 79.4360  13
   0  -3  -6 382.231 95.9269  10
   0   3   6 541.450 90.4986  11
   0  -3  -6 499.341 81.6696  21
   0   3   6 478.737 89.9153  15
   0  -3  -6 422.893 73.9622  19
   0   3   6 586.981 98.5272  12
   0   3   6 438.237 97.2686   7
   0   3   6 422.076 76.1244   1
   0   3   6 422.721 90.7569  14
   0  -3  -6 388.824 76.8833   8
   0  -3  -7 7839.47 366.226   8
   0   3   7 9482.13 486.981   7
   0   3   7 8878.01 421.365  12
   0  -3  -7 9597.72 490.334  10
   0   3   7 8062.89 377.085   1
   0   3   7 9056.02 425.146  11
   0   3   8 2603.47 237.839  11
   0   3   8 2397.35 221.828   1
   0  -3  -8 2732.40 275.391  10
   0  -3  -8 2166.61 200.489   8
   0   3   8 2417.57 229.013  12
   0   3   8 2391.40 256.840   7
   0   3   9 31.5500 51.1069   7
   0   3   9 30.4511 51.8094  11
   0  -3  -9-99.8798 73.9945  10
   0   3   9-16.2731 55.1047  12
   0   3  10 3214.65 310.316  11
   0  -3 -10 3339.96 350.335  10
   0  -3 -11 652.557 173.194  10
   0   3  11 753.189 175.407   7
   0   4 -10 378.738 133.988   5
   0   4 -10 268.844 82.5220   8
   0   4 -10 272.934 130.195  20
   0  -4  10 580.442 160.960   4
   0  -4   9 35.3297 100.103   1
   0  -4   9-6.14856 91.5927   4
   0  -4   9 43.4817 35.0999   7
   0   4  -9-211.177 95.5614   8
   0   4  -9-122.282 80.8477  20
   0   4  -9-12.5862 85.1223   5
   0  -4   8 2118.14 268.651   4
   0   4  -8 1892.90 246.690   5
   0  -4   8 1822.21 349.761   1
   0   4  -8 1867.15 225.650   8
   0  -4   8 1607.64 181.004   7
   0   4  -8 1688.47 240.806  20
   0   4  -7 161.840 75.4444  23
   0  -4   7 118.293 71.4571   4
   0   4  -7 330.325 109.739  20
   0  -4   7 49.9230 95.0703   1
   0   4  -7 110.629 82.6843  19
   0   4  -7 16.7925 46.2340  13
   0  -4   7 89.9233 45.7806  14
   0   4  -7 182.631 82.9991   8
   0   4  -7 78.7797 50.5538  18
   0   4  -7 289.901 97.3359   5
   0   4  -7 142.180 85.1098  17
   0  -4   7 34.6914 45.2663   7
   0  -4   6 955.380 246.710   1
   0   4  -6 1436.85 202.189  18
   0   4  -6 1216.04 193.961  17
   0   4  -6 1468.49 169.719   8
   0   4  -6 1460.55 202.075  19
   0   4  -6 1226.16 194.331  13
   0   4  -6 1500.65 194.290   5
   0  -4   6 1432.63 162.848  14
   0  -4   6 1468.14 197.455   4
   0   4  -6 1226.48 183.925  20
   0  -4   6 1126.87 186.143  16
   0  -4   6 1119.94 129.204   7
   0   4  -6 1316.77 194.289  23
   0   4  -5 2834.17 210.946   8
   0   4  -5 2578.91 257.044  19
   0  -4   5 2863.90 365.925   1
   0   4  -5 2684.00 275.373  17
   0   4  -5 2703.91 272.137  13
   0   4  -5 2272.76 247.334  18
   0  -4   5 2543.76 232.883  21
   0   4  -5 2794.37 251.053   5
   0  -4   5 2519.12 174.002   7
   0  -4   5 2647.27 257.743  16
   0   4  -5 2898.76 265.425  20
   0   4  -5 2550.48 280.749  15
   0  -4   5 2959.22 262.345   4
   0   4  -4-24.3132 53.3743  15
   0   4  -4-23.5169 28.0033   8
   0   4  -4 63.7723 69.0679  17
   0   4  -4 7.88932 44.3869  13
   0  -4   4-3.50090 34.7398  21
   0   4  -4 45.3444 52.1437  18
   0  -4   4 20.6060 55.3303   3
   0   4  -4-22.7660 47.3391   5
   0   4  -4-100.373 61.6744  19
   0  -4   4-26.3704 24.5097   7
   0  -4   4 78.9967 43.8457  16
   0  -4   4-20.6514 50.9084   4
   0   4  -4 59.8636 56.5343  20
   0   4  -3 7333.72 298.885   8
   0  -4   3 7252.28 378.928  21
   0  -4   3 8987.65 461.637   3
   0   4  -3 7605.81 426.471  19
   0   4  -3 7124.66 419.220  18
   0  -4   3 8340.50 401.227  16
   0   4  -3 7384.31 428.728  13
   0   4  -3 7999.91 404.249  20
   0   4  -3 7519.73 434.888  17
   0   4  -3 8022.15 388.881   5
   0   4  -3 6807.32 441.956  15
   0   4  -2 118.329 55.6501   5
   0   4  -2 205.865 74.1896  13
   0   4  -2 98.7960 56.7288  18
   0   4  -2 83.8530 41.3242  20
   0   4  -2 153.987 34.1242   8
   0  -4   2 158.955 66.1337   3
   0   4  -2 73.6783 57.8115  17
   0   4  -2 140.745 74.9592  15
   0  -4   2 145.926 52.5751  16
   0  -4   2 93.1702 57.7044  21
   0   4  -2 92.0470 58.1780  19
   0  -4   1 736.244 118.508   3
   0  -4   1 636.349 105.244  23
   0   4  -1 499.860 31.6847  12
   0   4  -1 690.409 63.4514   8
   0   4  -1 663.624 121.814  17
   0  -4   1 678.540 106.302  21
   0   4  -1 761.845 105.834   5
   0   4  -1 815.963 111.045  20
   0   4  -1 703.318 123.337  13
   0  -4   1 729.517 109.007  16
   0   4  -1 648.807 130.109  15
   0   4  -1 710.800 120.995  18
   0  -4   1 764.973 103.384  10
   0  -4   0 4330.83 274.914   3
   0   4   0 4443.84 245.225  20
   0   4   0 4138.98 288.527  18
   0   4   0 4865.04 316.852  17
   0   4   0 4339.33 147.163  12
   0  -4   0 4158.14 256.433  21
   0   4   0 4494.50 300.446  13
   0  -4   0 4333.47 264.235  23
   0   4   0 4283.13 307.871  15
   0   4   0 4368.70 318.160  14
   0  -4   0 4590.49 279.835  16
   0  -4   0 4434.91 251.128  10
   0   4   0 4587.99 248.253   5
   0   4   1 1974.34 146.056  20
   0   4   1 1654.92 115.029   7
   0   4   1 1870.86 108.825  12
   0   4   1 1904.58 190.648  18
   0   4   1 1796.22 198.031  15
   0   4   1 1695.28 196.195  14
   0   4   1 1937.07 197.313  13
   0   4   1 1725.62 143.231   5
   0  -4  -1 1725.01 152.475  10
   0  -4  -1 1647.46 160.094  23
   0  -4  -1 1829.25 180.133  16
   0   4   1 1930.20 192.151  17
   0  -4  -1 1816.34 171.803   3
   0  -4  -1 1760.14 162.898  21
   0  -4  -2 3156.63 250.643  16
   0  -4  -2 3104.80 218.948  22
   0   4   2 3301.33 178.119   5
   0   4   2 3168.34 171.340  20
   0   4   2 3148.69 241.840  13
   0  -4  -2 3170.40 219.919  21
   0   4   2 3433.56 273.599  14
   0   4   2 3306.75 201.980   1
   0   4   2 3664.71 175.391  12
   0  -4  -2 3305.99 245.781   3
   0   4   2 3732.33 197.702  11
   0   4   2 3313.79 261.567  15
   0  -4  -2 3347.34 220.158  10
   0   4   2 3173.09 242.252  18
   0   4   2 3289.68 186.115   7
   0  -4  -2 3148.25 219.801  23
   0   4   2 3287.00 248.708  17
   0  -4  -3 8114.89 388.507   2
   0   4   3 9334.33 424.121  17
   0   4   3 8130.01 268.813  20
   0  -4  -3 10044.9 456.709   3
   0  -4  -3 9745.67 401.268  10
   0   4   3 9554.82 426.449  18
   0   4   3 9732.11 360.355   1
   0   4   3 9860.45 343.024  11
   0   4   3 9326.95 448.577  14
   0  -4  -3 9523.90 394.714  23
   0  -4  -3 9503.07 388.106  21
   0   4   3 9128.99 413.844  13
   0   4   3 9140.55 435.941  15
   0  -4  -3 9207.61 388.707  22
   0   4   3 9417.53 362.278   7
   0   4   3 9960.80 337.060  12
   0  -4  -4 209.023 36.3196   8
   0   4   4 232.437 34.0374  20
   0  -4  -4 324.297 83.5434  10
   0   4   4 329.910 79.8055  13
   0   4   4 254.478 58.1677  11
   0   4   4 351.887 77.8050   7
   0  -4  -4 329.862 76.5806  22
   0  -4  -4 397.471 102.435   3
   0   4   4 240.826 71.2662  18
   0   4   4 376.494 71.7692   1
   0   4   4 320.116 75.3879  17
   0  -4  -4 357.195 75.3714  21
   0   4   4 152.150 65.2648  15
   0  -4  -4 348.583 74.0053  23
   0  -4  -4 221.312 67.4486   2
   0   4   4 285.338 86.1068  14
   0   4   4 339.757 69.1688  12
   0   4   5 72.7353 40.6417  13
   0   4   5 66.8258 49.1269  14
   0  -4  -5 37.2659 42.8729  10
   0  -4  -5 135.295 40.5781   8
   0  -4  -5 3.78190 52.1191   3
   0   4   5 111.606 60.8576  15
   0   4   5 29.3423 39.4236  18
   0   4   5 55.4316 46.1446  12
   0   4   5 75.7757 43.9327   7
   0   4   5 10.5155 26.9646  11
   0   4   5 72.1156 37.2151   1
   0  -4  -5 61.7593 38.9299  23
   0   4   5 134.498 55.2819  17
   0  -4  -5 79.6349 39.3292  22
   0  -4  -5 55.4992 37.8022  21
   0  -4  -5 80.7268 42.5101   2
   0  -4  -6 4036.94 299.251  10
   0  -4  -6 3672.01 247.341  22
   0   4   6 3715.73 248.675  11
   0  -4  -6 3561.13 246.512  23
   0   4   6 3585.26 271.553  15
   0   4   6 3388.83 223.631   1
   0   4   6 3506.87 254.301  13
   0  -4  -6 4079.82 347.252   3
   0  -4  -6 3446.97 239.838  21
   0   4   6 3939.38 294.200   7
   0   4   6 3414.80 252.335  17
   0   4   6 2981.05 259.316  14
   0   4   6 3793.91 257.480  12
   0  -4  -7 2680.99 303.536   3
   0  -4  -7 2839.27 264.486  10
   0   4   7 2167.96 190.006   1
   0   4   7 2390.10 216.274  11
   0   4   7 2542.67 254.824   7
   0   4   7 2504.79 230.954  12
   0   4   8-39.1267 56.5888  12
   0   4   8 11.6199 38.6479  11
   0   4   8 19.4003 65.1346   7
   0  -4  -8 1.37467 75.4142   3
   0  -4  -8-63.9751 68.6089  10
   0   4   9 1370.20 191.529  11
   0   4   9 1174.04 179.615  12
   0  -4  -9 1349.30 248.617   3
   0   4   9 827.044 166.193   7
   0  -4  -9 1214.74 210.124  10
   0   4  10-33.1908 65.4818   7
   0   4  10 242.886 94.3444  11
   0  -4 -10 136.871 90.2386  10
   0  -4 -10 106.703 78.8688   3
   0  -5  10 4383.93 451.493   4
   0   5 -10 3911.63 416.091   5
   0   5 -10 3466.21 400.837  20
   0   5 -10 3450.72 363.682   8
   0  -5   9 2111.63 296.559   4
   0   5  -9 1732.70 274.274  20
   0   5  -9 1336.35 211.956   8
   0   5  -9 1576.69 257.277   5
   0  -5   8 577.449 156.114   4
   0   5  -8 571.469 135.315   5
   0  -5   8 530.533 116.277  14
   0   5  -8 539.467 129.259   8
   0   5  -8 707.251 168.144  20
   0   5  -7 53.5880 72.6527  18
   0   5  -7 91.9690 64.1669   5
   0   5  -7 215.973 99.4121  20
   0   5  -7 88.9531 73.6003  17
   0  -5   7 148.965 69.1160  14
   0   5  -7 66.4266 51.2097  19
   0   5  -7 10.2866 49.8026  23
   0  -5   7 146.622 88.5374   4
   0   5  -7-13.9414 53.5123  13
   0   5  -7 166.592 74.9356   8
   0   5  -6 1529.00 224.551  23
   0   5  -6 1144.34 200.213  13
   0   5  -6 1375.41 210.405  20
   0   5  -6 1614.52 242.600  17
   0  -5   6 1164.85 159.331  14
   0   5  -6 1325.49 199.114   5
   0   5  -6 1338.43 168.682   8
   0   5  -6 1663.11 241.744  18
   0   5  -6 1488.27 224.306  19
   0  -5   6 1465.28 208.303   4
   0  -5   5 4297.34 332.045  21
   0  -5   5 3604.44 209.494   7
   0   5  -5 5013.23 410.062  13
   0   5  -5 4445.73 412.774  15
   0   5  -5 4712.16 365.549  20
   0  -5   5 5221.81 378.637   4
   0   5  -5 4811.58 292.104   8
   0   5  -5 4567.64 349.832   5
   0   5  -5 4584.53 378.031  19
   0  -5   5 4577.58 359.167  16
   0   5  -5 4923.33 400.261  18
   0   5  -5 4666.03 399.243  17
   0  -5   4 128.553 53.6385   4
   0   5  -4 14.5385 36.7609   8
   0   5  -4 138.527 76.5320  20
   0  -5   4 62.9866 52.8691  16
   0   5  -4 10.5261 48.6997   5
   0   5  -4 105.277 65.8549  19
   0   5  -4 32.5450 66.9552  15
   0  -5   4 33.1210 49.7410  21
   0  -5   4-19.3444 63.2201   3
   0   5  -4 41.5752 59.8343  17
   0   5  -4 21.0697 65.7280  18
   0   5  -4-10.2636 50.3098  13
   0   5  -3 4774.20 379.013  13
   0   5  -3 5049.25 334.916   5
   0   5  -3 4766.35 242.534   8
   0   5  -3 4485.43 363.336  18
   0   5  -3 5030.55 389.508  17
   0   5  -3 4421.83 322.501  20
   0  -5   3 5393.28 383.110   3
   0  -5   3 4685.86 330.162  16
   0  -5   3 4273.19 314.438  21
   0   5  -3 4527.45 392.754  15
   0   5  -3 4271.18 347.082  19
   0  -5   2 14538.8 581.457  16
   0   5  -2 14268.9 641.947  19
   0   5  -2 13955.8 652.731  17
   0   5  -2 14643.9 569.821   5
   0  -5   2 13753.0 571.243  21
   0   5  -2 14000.3 421.348   8
   0   5  -2 13387.5 636.475  18
   0   5  -2 13718.5 679.707  15
   0  -5   2 16260.3 659.846   3
   0   5  -2 14302.6 576.427  20
   0   5  -2 13768.5 645.209  13
   0  -5   1 1271.90 159.592  16
   0  -5   1 972.556 134.566  10
   0   5  -1 1085.94 174.111  17
   0  -5   1 1095.50 163.689   3
   0   5  -1 993.586 181.755  15
   0  -5   1 951.757 141.840  21
   0   5  -1 1148.69 147.145   5
   0   5  -1 1109.85 173.717  13
   0   5  -1 1074.36 139.244  20
   0   5  -1 908.873 161.400  18
   0   5  -1 1063.94 87.6937   8
   0  -5   0 1172.90 156.335  23
   0  -5   0 1247.60 161.090  16
   0   5   0 1071.69 185.402  15
   0  -5   0 1226.94 156.641  21
   0  -5   0 1284.87 150.757  10
   0   5   0 1372.15 81.8788  12
   0   5   0 1373.91 189.719  17
   0   5   0 1001.52 186.734  14
   0   5   0 1070.28 76.9076   7
   0   5   0 1315.49 180.817  18
   0   5   0 1262.46 76.1411   8
   0  -5   0 1335.04 173.989   3
   0   5   0 1258.54 142.083  20
   0   5   0 1173.00 175.934  13
   0   5   0 1065.46 139.764   5
   0   5   1 7061.80 323.770  20
   0  -5  -1 6742.20 367.927  21
   0   5   1 6239.83 423.428  15
   0  -5  -1 7314.65 407.959  16
   0   5   1 7815.88 339.821   5
   0   5   1 6995.67 419.509  18
   0   5   1 7066.57 424.191  13
   0   5   1 7086.65 452.570  14
   0   5   1 6674.00 237.808  12
   0  -5  -1 6870.35 374.207  23
   0   5   1 7364.89 255.751   7
   0   5   1 5744.77 146.286   8
   0  -5  -1 7265.88 359.974  10
   0  -5  -1 6896.81 389.009   3
   0   5   1 6428.51 407.767  17
   0  -5  -2 52874.9 1248.57  10
   0   5   2 58334.2 1188.87  11
   0   5   2 52997.1 1199.95   1
   0   5   2 50916.6 1349.64  13
   0   5   2 54747.7 1105.97   7
   0   5   2 50731.0 1396.82  15
   0  -5  -2 50487.9 1270.43  23
   0  -5  -2 52080.6 1369.22  16
   0   5   2 50167.9 1345.09  18
   0  -5  -2 54326.7 1348.64   3
   0   5   2 52205.9 1068.43  12
   0   5   2 49728.7 1354.42  17
   0  -5  -2 50494.7 1258.07  21
   0   5   2 46763.2 1115.78   5
   0   5   2 49448.2 1115.51  20
   0   5   2 48925.7 1397.17  14
   0  -5  -3 6196.94 392.709   3
   0   5   3 5785.47 376.029  17
   0  -5  -3 5767.78 336.689  21
   0   5   3 6614.27 301.214  11
   0   5   3 5808.51 374.498  18
   0  -5  -3 5834.62 391.157  16
   0   5   3 6053.80 378.514  13
   0   5   3 5442.49 397.259  14
   0  -5  -3 6025.59 348.391  23
   0   5   3 6308.07 301.079   7
   0   5   3 6169.26 315.044   1
   0   5   3 5594.83 384.047  15
   0  -5  -3 6191.74 347.404  10
   0  -5  -3 4973.82 341.721   2
   0   5   3 5371.89 238.149  20
   0   5   3 6095.58 274.850  12
   0   5   4 5072.31 380.087  14
   0   5   4 5094.11 296.285   7
   0   5   4 4962.27 341.308  13
   0   5   4 4851.07 343.007  18
   0   5   4 5661.07 306.566   1
   0   5   4 5604.62 285.391  12
   0   5   4 4756.83 355.376  15
   0  -5  -4 5535.21 330.387  21
   0   5   4 6095.56 293.673  11
   0   5   4 4854.70 343.110  17
   0  -5  -4 5079.89 320.274  23
   0  -5  -4 5198.94 323.362  22
   0  -5  -4 5693.77 341.827  10
   0  -5  -4 5796.09 396.856   3
   0  -5  -4 4157.04 302.435   2
   0   5   5 581.551 101.553  12
   0   5   5 502.581 109.827  18
   0  -5  -5 448.621 106.300  10
   0   5   5 380.448 99.6097  17
   0   5   5 590.698 108.959   7
   0   5   5 498.316 91.1921  11
   0   5   5 624.801 105.336   1
   0   5   5 558.605 120.996  15
   0  -5  -5 261.155 71.2757   2
   0  -5  -5 406.493 90.4338  23
   0  -5  -5 419.438 119.092   3
   0   5   5 455.147 109.445  13
   0   5   5 435.711 115.843  14
   0  -5  -5 431.735 97.2889  22
   0  -5  -5 553.045 107.153  21
   0   5   6 2157.17 224.282  18
   0   5   6 2251.50 207.513  12
   0   5   6 1882.22 232.850  14
   0   5   6 2576.23 213.025  11
   0   5   6 1859.17 220.156  15
   0  -5  -6 2712.20 259.773  10
   0   5   6 2317.68 229.968   7
   0   5   6 2368.23 232.675  17
   0   5   6 2011.98 189.164   1
   0  -5  -6 2438.89 283.649   3
   0   5   6 2190.88 226.381  13
   0  -5  -7 869.524 159.126  10
   0  -5  -7 780.145 165.942   3
   0   5   7 719.966 138.072   7
   0   5   7 893.829 136.549  11
   0   5   7 781.999 135.800  12
   0   5   7 488.967 93.1015   1
   0   5   8 15.2114 41.3998  11
   0   5   8 131.400 76.9931   7
   0  -5  -8-4.89746 64.6960  10
   0  -5  -8 87.4248 77.1616   3
   0   5   8-44.9371 58.0782  12
   0  -5  -9 1012.45 226.760   3
   0   5   9 860.715 161.728  11
   0  -5  -9 1098.64 196.331  10
   0   5   9 678.936 145.890  12
   0   5   9 457.762 131.123   7
   0   5  10 425.418 128.479   7
   0   5  10 359.568 111.478  11
   0  -5 -10 535.888 186.975   3
   0  -5 -10 352.705 126.042  10
   0  -6   9 5340.36 496.778   4
   0   6  -9 4179.68 447.156  20
   0   6  -9 3824.13 369.669   8
   0   6  -9 4578.36 460.585   5
   0   6  -8 1060.88 204.591   5
   0   6  -8 1057.98 219.071  20
   0  -6   8 1458.17 253.725   4
   0   6  -8 1254.22 198.551   8
   0  -6   8 999.145 167.762  14
   0   6  -7 128.259 88.8137  18
   0   6  -7 10.1194 64.0687   5
   0  -6   7 111.088 54.6664  14
   0  -6   7 239.210 104.900   4
   0   6  -7 121.331 82.8378  23
   0   6  -7 124.664 65.2918   8
   0   6  -7 113.637 62.6973  19
   0   6  -7 60.9055 76.1217  13
   0   6  -7 66.7990 70.5430  17
   0   6  -7 80.4069 69.7600  20
   0   6  -6 243.281 117.773  13
   0   6  -6 267.164 99.0483  18
   0  -6   6 314.486 112.456   4
   0   6  -6 184.415 84.3881  20
   0   6  -6 119.872 80.7592  17
   0   6  -6 108.450 82.3070  19
   0   6  -6 265.608 88.5065   8
   0   6  -6 140.229 81.5381   5
   0   6  -5 296.515 105.938  20
   0   6  -5 358.629 129.719  13
   0   6  -5 105.994 67.4664  17
   0   6  -5 277.841 115.948  18
   0   6  -5 260.493 127.052  15
   0  -6   5 158.696 86.8048   4
   0  -6   5 185.539 86.7705  16
   0   6  -5 229.295 106.203  19
   0   6  -5 102.338 69.5326   5
   0   6  -5 333.939 93.7369   8
   0  -6   5 224.411 89.5958  21
   0   6  -4 1413.20 227.290  18
   0   6  -4 1383.90 205.148   5
   0   6  -4 2060.28 275.026  13
   0   6  -4 1721.29 256.434  17
   0   6  -4 1722.27 225.338  20
   0   6  -4 1727.60 243.129  19
   0  -6   4 1866.22 237.214   4
   0  -6   4 1727.36 237.635   3
   0  -6   4 1480.24 208.642  21
   0   6  -4 1624.05 264.430  15
   0  -6   4 1774.96 231.606  16
   0   6  -4 1718.15 163.400   8
   0  -6   3 17006.4 765.977   3
   0   6  -3 14012.8 711.815  19
   0   6  -3 13664.5 760.423  15
   0   6  -3 14434.7 744.615  17
   0   6  -3 13733.3 637.390  20
   0   6  -3 13541.8 624.121   5
   0  -6   3 13635.9 630.502  21
   0   6  -3 13837.6 466.281   8
   0   6  -3 14296.2 733.370  18
   0  -6   3 13529.5 634.243  16
   0   6  -3 13788.6 726.174  13
   0   6  -2 3124.47 276.142  20
   0   6  -2 3198.66 331.923  13
   0  -6   2 3368.78 292.784  16
   0   6  -2 3119.88 351.653  15
   0  -6   2 4025.30 341.147   3
   0   6  -2 3558.87 192.691   8
   0   6  -2 3282.70 336.546  17
   0   6  -2 3352.96 286.110   5
   0   6  -2 3508.15 344.031  18
   0  -6   2 3207.26 288.009  21
   0   6  -2 3322.88 326.948  19
   0  -6   1 3752.50 317.598   3
   0  -6   1 3351.53 273.676  10
   0   6  -1 3147.97 265.348   5
   0   6  -1 3405.34 334.811  13
   0  -6   1 3387.07 293.107  16
   0   6  -1 3066.31 161.376   8
   0   6  -1 3477.28 341.524  17
   0   6  -1 3172.33 339.679  15
   0   6  -1 3241.89 268.163  20
   0   6  -1 3077.05 310.936  19
   0  -6   1 3291.42 286.863  21
   0   6  -1 3343.91 330.760  18
   0   6   0 4010.74 389.063  14
   0  -6   0 4037.49 313.602  21
   0  -6   0 4012.14 323.832  16
   0   6   0 4133.62 364.853  18
   0   6   0 4391.30 297.151   5
   0   6   0 3965.20 281.822  20
   0  -6   0 4203.94 339.999   3
   0   6   0 4291.69 370.699  17
   0   6   0 4156.62 363.801  13
   0   6   0 3642.17 361.049  15
   0  -6   0 4231.94 302.540  10
   0  -6   0 4597.18 339.176  23
   0  -6  -1 1138.39 175.104   3
   0   6   1 1120.66 143.217  11
   0  -6  -1 873.477 142.604  21
   0   6   1 1005.12 200.624  14
   0   6   1 909.989 179.798  15
   0   6   1 980.315 176.767  18
   0  -6  -1 1117.22 175.742  16
   0  -6  -1 941.749 148.982  23
   0   6   1 937.528 132.784   5
   0   6   1 1095.34 96.6016  12
   0   6   1 952.497 126.404  20
   0   6   1 1031.67 185.644  17
   0   6   1 1092.81 181.862  13
   0  -6  -1 1133.37 155.490  10
   0   6   2 9.32310 28.8114  11
   0   6   2 33.4909 60.3178  17
   0   6   2 92.0223 80.9993  15
   0  -6  -2 72.0423 45.3805  16
   0   6   2 49.8623 33.6900   1
   0   6   2-35.3162 34.0587  20
   0   6   2 39.0941 28.2748   7
   0  -6  -2-28.6289 52.2963   3
   0   6   2 143.256 79.2566  18
   0   6   2 9.91414 27.2894  12
   0  -6  -2-7.97945 36.7424  23
   0   6   2 41.6318 35.6203   5
   0  -6  -2 52.9345 49.3159  10
   0   6   2 31.4475 72.9060  14
   0  -6  -2-56.0279 49.7121  21
   0   6   2-12.6096 46.0662  13
   0   6   3 11938.3 659.314  14
   0  -6  -3 12929.8 575.834  21
   0   6   3 13216.2 455.234  12
   0   6   3 12435.5 657.865  15
   0  -6  -3 13422.4 666.951  16
   0  -6  -3 13307.9 570.527  10
   0   6   3 12286.6 618.811  13
   0  -6  -3 13130.9 587.347  23
   0  -6  -3 14564.7 666.067   3
   0   6   3 15170.3 524.192  11
   0  -6  -3 10706.6 575.287   2
   0   6   3 13443.5 535.148   1
   0   6   3 12824.9 461.030   7
   0   6   3 11850.8 616.544  18
   0   6   3 12169.2 621.134  17
   0   6   4-37.1378 64.8826  17
   0   6   4 42.3334 53.5926  18
   0   6   4 5.15861 33.6467  12
   0  -6  -4-4.40233 41.8779  10
   0   6   4-31.2826 40.6739   1
   0  -6  -4-46.3530 45.7287  21
   0   6   4-16.4872 74.1223  14
   0  -6  -4 55.7415 65.2228  16
   0  -6  -4 15.5073 43.6484   2
   0   6   4 31.7152 34.5190  11
   0  -6  -4-96.9455 57.2267  23
   0   6   4-30.1671 38.6423   7
   0  -6  -4-33.5646 81.7466   3
   0   6   4-37.6172 50.8083  15
   0   6   4 26.7474 47.2466  13
   0   6   5 297.336 72.5443  12
   0  -6  -5 350.069 97.2225  10
   0   6   5 283.464 89.5324  17
   0   6   5 325.231 82.0422  11
   0  -6  -5 313.862 125.263   3
   0  -6  -5 598.145 154.663  16
   0   6   5 341.296 88.4184   1
   0   6   5 233.670 99.8820  14
   0  -6  -5 393.186 103.102  21
   0  -6  -5 390.186 105.573  23
   0   6   5 395.107 87.6827   7
   0   6   5 429.374 122.116  15
   0   6   5 347.488 105.956  18
   0   6   5 344.487 96.5226  13
   0   6   6 2809.46 246.087  12
   0  -6  -6 2841.27 283.242  10
   0   6   6 2427.58 241.205   7
   0  -6  -6 2882.28 329.424   3
   0   6   6 2922.13 240.981  11
   0  -6  -6 2924.85 339.428  16
   0   6   6 2793.47 238.665   1
   0  -6  -7 747.792 187.982  16
   0  -6  -7 867.032 191.371   3
   0   6   7 734.102 124.288   1
   0   6   7 967.494 146.749  11
   0  -6  -7 806.353 158.186  10
   0   6   7 889.850 153.506  12
   0   6   7 618.214 134.278   7
   0   6   8 54.0553 52.7138   7
   0  -6  -8 91.3307 90.0611  16
   0  -6  -8 133.100 115.544   3
   0   6   8 16.8752 37.9448  11
   0  -6  -8 48.2032 65.7252  10
   0   6   8 3.97327 42.3269  12
   0  -6  -9 156.722 105.488   3
   0   6   9 201.985 86.9088  11
   0  -6  -9 294.231 133.699  16
   0  -6  -9 58.5899 61.9799  10
   0   6   9 185.299 90.0038   7
   0  -7   8 367.676 101.485  14
   0   7  -8 262.595 93.0454   8
   0  -7   8 866.252 206.930   4
   0   7  -8 345.841 137.552  20
   0   7  -8 740.990 196.192   5
   0   7  -8 421.607 159.939  13
   0   7  -8 467.895 163.664  23
   0  -7   7 451.176 153.605   4
   0   7  -7 408.170 146.636  18
   0   7  -7 551.568 184.788  13
   0  -7   7 383.904 108.133  14
   0   7  -7 302.938 133.755  19
   0   7  -7 561.641 114.933   8
   0   7  -7 619.346 181.098  23
   0   7  -7 402.835 140.982   5
   0   7  -7 462.798 147.411  20
   0   7  -7 710.313 204.114  17
   0   7  -6 368.730 139.325  18
   0   7  -6 339.664 125.686  17
   0  -7   6 826.527 183.619   4
   0  -7   6 316.392 109.481  21
   0   7  -6 550.536 168.502  13
   0   7  -6 475.335 145.354  19
   0   7  -6 441.142 174.143  15
   0   7  -6 306.826 90.0359   8
   0   7  -6 466.328 149.096  20
   0   7  -6 514.847 151.957   5
   0   7  -5 5517.60 511.368  17
   0  -7   5 5941.93 466.919   4
   0   7  -5 6015.19 526.017  13
   0   7  -5 5334.19 443.456  20
   0  -7   5 5038.30 417.315  21
   0   7  -5 5572.56 495.358  19
   0   7  -5 5382.67 496.480  18
   0  -7   5 5551.10 485.992   3
   0   7  -5 4779.09 320.378   8
   0   7  -5 4946.68 509.534  15
   0   7  -5 5445.19 447.223   5
   0  -7   4 285.270 106.429  16
   0   7  -4 433.179 145.579  19
   0   7  -4 343.868 131.534  17
   0   7  -4 145.790 103.772  13
   0   7  -4 265.176 75.0142   8
   0   7  -4 223.529 98.3010  20
   0  -7   4 188.453 86.6916  21
   0  -7   4 312.554 118.796   4
   0   7  -4 200.305 135.622  15
   0   7  -4 135.450 106.087  18
   0   7  -4 264.499 97.5356   5
   0  -7   4 176.244 91.4353   3
   0  -7   3 166.411 71.7337  21
   0   7  -3 98.8120 73.3459  17
   0   7  -3 268.041 116.460  19
   0   7  -3 172.338 110.482  15
   0   7  -3 360.282 116.018   5
   0  -7   3 242.087 101.575  16
   0   7  -3 392.830 108.635  20
   0   7  -3 316.459 133.047  13
   0  -7   3 341.013 115.148   3
   0   7  -3 202.555 57.0507   8
   0   7  -3 205.341 91.1476  18
   0   7  -2 5114.45 448.178  19
   0   7  -2 5344.86 391.354  20
   0   7  -2 5018.45 482.619  15
   0   7  -2 5295.53 467.264  13
   0  -7   2 6575.52 478.808   3
   0   7  -2 5688.49 401.901   5
   0  -7   2 5478.83 412.667  16
   0  -7   2 5138.24 398.392  21
   0   7  -2 5330.16 473.930  17
   0   7  -2 4902.43 449.827  18
   0   7  -1 51776.5 1414.95  20
   0   7  -1 53488.5 1649.75  13
   0  -7   1 56999.4 1468.22  10
   0   7  -1 52167.1 1606.83  19
   0   7  -1 51288.4 1697.67  15
   0  -7   1 52760.9 1512.99  16
   0   7  -1 52040.4 1635.96  18
   0  -7   1 51174.1 1468.62  21
   0   7  -1 52388.1 1650.95  17
   0   7  -1 52707.5 1424.48   5
   0  -7   0 1504.79 218.774   3
   0   7   0 1656.65 250.696  13
   0   7   0 1417.30 234.752  17
   0   7   0 1304.97 250.098  15
   0  -7   0 1536.74 196.029  10
   0   7   0 1441.39 236.505  18
   0   7   0 1690.66 204.216   5
   0   7   0 1201.61 167.260  20
   0  -7   0 1519.91 219.125  16
   0  -7   0 1271.29 195.571  21
   0   7   1 296.502 81.2131  20
   0   7   1 418.060 130.659  13
   0   7   1 240.658 105.289  14
   0   7   1 591.233 154.121  18
   0  -7  -1 559.039 129.451  10
   0   7   1 414.748 102.856   1
   0   7   1 521.793 147.331  17
   0   7   1 522.173 107.218   5
   0   7   1 517.994 159.170  15
   0  -7  -1 461.598 119.439  23
   0  -7  -1 526.203 128.694  21
   0   7   1 585.985 116.247  11
   0  -7  -1 579.894 139.028   3
   0  -7  -1 423.332 120.405  16
   0   7   2 112.835 46.8568   5
   0   7   2 117.042 81.9700  15
   0  -7  -2 278.614 95.6037  16
   0   7   2 147.452 107.449  14
   0   7   2 80.7997 49.7231  11
   0   7   2 56.6268 39.8094  20
   0  -7  -2 88.9072 63.6988  23
   0  -7  -2 170.952 66.0138  10
   0   7   2 188.522 66.5808   1
   0   7   2 113.464 75.3328  13
   0   7   2 251.124 109.016  17
   0   7   2 164.565 93.4839  18
   0  -7  -2 335.807 104.299   3
   0  -7  -2 192.285 82.8198  21
   0   7   2 144.155 44.3188  12
   0  -7  -3 38.6983 48.1609  21
   0  -7  -3 24.6889 46.1516  23
   0   7   3 27.4484 70.1578  15
   0  -7  -3-10.4997 56.5086   2
   0   7   3 29.1614 79.9808  14
   0   7   3 28.9822 28.1839  12
   0   7   3 11.3055 65.7091  17
   0  -7  -3-23.1671 46.8790  10
   0   7   3 67.3512 43.2008  11
   0   7   3-22.1932 59.3785  18
   0  -7  -3 35.6304 53.0838  16
   0   7   3 12.6173 38.7604   1
   0   7   3 36.8174 59.4537  13
   0   7   4 780.854 127.684  11
   0  -7  -4 919.845 184.758   3
   0  -7  -4 874.301 154.680  10
   0   7   4 658.011 148.421  18
   0  -7  -4 821.540 191.816  16
   0  -7  -4 645.636 139.494  23
   0   7   4 630.340 124.075   1
   0   7   4 709.934 153.068  13
   0  -7  -4 780.715 148.897  21
   0   7   4 490.550 138.927  14
   0   7   4 830.689 119.332  12
   0   7   4 779.245 180.022  15
   0   7   4 653.621 155.637  17
   0  -7  -4 604.770 140.403   2
   0   7   5 2152.07 223.607   1
   0   7   5 1913.90 275.564  14
   0   7   5 2413.05 217.091  12
   0  -7  -5 2680.36 278.332  10
   0  -7  -5 2347.07 259.016  23
   0   7   5 1926.72 261.510  18
   0   7   5 1952.11 264.378  17
   0   7   5 2675.68 234.315  11
   0  -7  -5 2414.15 307.317   3
   0   7   5 2047.46 285.396  15
   0  -7  -5 2211.36 249.624  21
   0  -7  -5 2123.71 298.528  16
   0   7   5 1993.20 264.051  13
   0  -7  -6 5172.04 468.217   3
   0   7   6 5019.54 337.364  12
   0  -7  -6 4793.71 465.877  16
   0  -7  -6 5027.03 400.876  10
   0   7   6 5020.30 346.886   1
   0   7   6 5295.28 345.291  11
   0  -7  -7 503.279 167.205   3
   0  -7  -7 648.423 185.802  16
   0   7   7 306.907 89.1359   1
   0   7   7 384.563 104.215  12
   0   7   7 549.584 117.335  11
   0  -7  -7 238.893 95.8267  10
   0  -7  -8 1210.59 255.983  16
   0   7   8 1311.24 196.170  12
   0  -7  -8 1494.69 237.569  10
   0   7   8 1279.61 188.983  11
   0  -7  -8 1273.11 260.611   3
   0   8  -7 610.257 201.452  18
   0   8  -7 1226.13 272.630  17
   0   8  -7 867.379 214.887  20
   0   8  -7 619.549 198.993  13
   0   8  -7 449.682 144.033   5
   0  -8   7 786.523 204.793   4
   0  -8   7 481.386 131.272  14
   0   8  -7 482.035 177.282  19
   0   8  -7 656.137 195.579  23
   0  -8   6 1973.31 300.152   4
   0   8  -6 2053.33 343.050  17
   0   8  -6 1548.26 309.960  15
   0  -8   6 1491.49 244.454  21
   0   8  -6 1500.17 286.973  18
   0   8  -6 1648.10 287.719  19
   0   8  -6 1913.15 304.473   5
   0   8  -6 1509.85 266.237  20
   0   8  -6 1874.59 321.032  13
   0   8  -5 1842.49 322.226  13
   0   8  -5 1931.78 283.476   5
   0  -8   5 2129.70 321.348   3
   0   8  -5 1905.65 323.213  18
   0   8  -5 1636.15 268.182  20
   0   8  -5 1990.50 336.840  17
   0  -8   5 1955.25 275.238  21
   0   8  -5 1875.47 339.401  15
   0  -8   5 2143.78 299.249   4
   0   8  -5 1909.89 314.601  19
   0   8  -4 1703.67 290.363  19
   0  -8   4 2411.77 310.097   4
   0  -8   4 2335.31 331.791   3
   0   8  -4 1480.44 281.638  13
   0   8  -4 2150.48 355.799  15
   0   8  -4 2007.70 321.959  18
   0   8  -4 2139.27 288.601   5
   0  -8   4 2004.06 276.436  21
   0  -8   4 1651.46 259.123  16
   0   8  -4 2453.00 306.933  20
   0   8  -4 1834.43 310.028  17
   0   8  -3 195.009 111.585  19
   0   8  -3 215.915 113.409  13
   0   8  -3 273.317 110.159   5
   0   8  -3 270.643 113.172  20
   0   8  -3 123.435 96.0288  15
   0   8  -3 187.289 120.571  17
   0  -8   3 175.734 82.4149  16
   0  -8   3 121.288 62.2541  21
   0  -8   3 297.099 127.546   3
   0   8  -3 109.229 70.6763  18
   0  -8   2 34.4304 58.0694  21
   0   8  -2-92.9666 90.7080  17
   0   8  -2 85.5439 105.796  19
   0   8  -2 60.5195 77.1425   5
   0  -8   2-23.3392 71.4355   3
   0   8  -2 63.8781 54.0871  20
   0   8  -2 7.33070 63.6325  18
   0   8  -2 143.846 112.775  13
   0   8  -2 98.3004 113.479  15
   0  -8   2-28.7877 54.5915  16
   0  -8   1 18005.5 851.769   3
   0   8  -1 15485.8 712.571   5
   0  -8   1 15481.9 786.512  16
   0   8  -1 15432.9 869.488  13
   0   8  -1 14587.5 830.149  19
   0   8  -1 15884.8 885.016  18
   0  -8   1 14460.0 737.680  21
   0   8  -1 15962.6 890.415  17
   0   8  -1 15031.4 699.931  20
   0   8  -1 14906.5 907.963  15
   0  -8   0 14.0071 83.5045   3
   0  -8   0-3.99496 63.4188  16
   0   8   0 300.782 126.833  13
   0   8   0 47.5367 77.5566  17
   0   8   0 201.923 69.2191   5
   0   8   0 140.295 113.437  15
   0   8   0 141.095 84.0731  18
   0  -8   0 105.074 69.3008  21
   0   8   0 142.937 87.1796  19
   0  -8   0 158.128 79.6802  10
   0   8   0-0.48117 59.2707  20
   0  -8  -1 1.68498 55.0812  16
   0   8   1 72.9947 68.5799  13
   0   8   1 94.9510 100.544  15
   0   8   1-2.30849 41.7783   5
   0   8   1 58.6133 62.8239   1
   0   8   1 71.4579 65.0068  19
   0  -8  -1 62.7792 69.5662  10
   0   8   1 111.816 115.810  17
   0   8   1-16.1733 64.2935  18
   0   8   1 30.2142 40.4789  20
   0   8   1-1.22516 38.8956  11
   0  -8  -1-6.62199 59.9613   3
   0  -8  -1 162.968 84.3394  21
   0   8   2 408.289 131.348  18
   0   8   2 488.469 147.629  17
   0   8   2 432.373 106.575   1
   0  -8  -2 503.524 154.479  16
   0   8   2 471.121 148.618  13
   0   8   2 714.194 137.367  11
   0  -8  -2 663.963 145.901  10
   0  -8  -2 606.287 152.198   3
   0   8   2 386.396 157.106  15
   0  -8  -2 514.457 133.324  21
   0  -8  -3 90.1431 73.8081  21
   0   8   3-3.18175 51.6526   1
   0   8   3 77.7516 56.6904  13
   0  -8  -3 100.166 82.0045   3
   0  -8  -3 115.769 85.8643  16
   0  -8  -3 156.644 88.7447  23
   0   8   3 107.759 88.2929  15
   0   8   3 101.407 85.4021  18
   0   8   3 97.3484 97.6847  14
   0  -8  -3-50.1180 65.1590   2
   0  -8  -3 161.627 77.3984  10
   0   8   3 152.958 101.327  17
   0   8   3 8.43958 38.7376  11
   0   8   4-39.9759 63.5294  18
   0  -8  -4 12.2347 48.1927  23
   0  -8  -4-0.17260 48.9006   2
   0   8   4-53.2213 56.6955  11
   0  -8  -4-208.445 107.858  16
   0   8   4-18.3414 59.6399  17
   0   8   4 14.1723 50.3977   1
   0   8   4-58.3011 77.3956  15
   0  -8  -4 21.1745 51.5038  10
   0   8   4 58.5987 68.7576  13
   0   8   4 52.2844 86.5468  14
   0  -8  -4 91.5681 76.4669   3
   0  -8  -4-63.6343 57.4532  21
   0  -8  -5 215.611 97.6754  23
   0  -8  -5 149.977 100.716   3
   0   8   5 332.411 94.9764  11
   0   8   5 197.611 102.202  14
   0   8   5 154.375 71.1249   1
   0  -8  -5 470.145 128.758  10
   0  -8  -5 267.930 98.0005  21
   0   8   5 316.194 132.719  15
   0   8   5 349.171 134.733  13
   0   8   5 425.151 101.633  12
   0   8   5 325.678 122.967  18
   0  -8  -5 244.694 107.505  16
   0   8   5 190.101 94.6764  17
   0   8   6 3870.81 304.783  12
   0  -8  -6 4268.25 447.759   3
   0   8   6 3371.57 307.428   1
   0   8   6 4517.19 337.221  11
   0  -8  -6 3832.29 371.445  10
   0  -8  -6 3768.47 434.970  16
   0  -8  -7 3712.05 450.643  16
   0  -8  -7 3658.87 433.648   3
   0   8   7 4173.99 340.225  11
   0  -8  -7 4135.80 402.848  10
   0   9  -6 221.456 125.923  20
   0   9  -6 75.5918 93.3377  18
   0   9  -6 293.052 165.245  13
   0  -9   6 374.117 147.260   4
   0   9  -6 247.823 146.622  19
   0   9  -6 345.254 163.529  17
   0   9  -6 341.493 154.539   5
   0  -9   5 1756.48 278.283  21
   0   9  -5 1671.84 333.634  17
   0   9  -5 1534.31 311.132  13
   0   9  -5 1716.16 289.531   5
   0  -9   5 2118.21 309.926   4
   0   9  -5 1848.31 358.048  15
   0   9  -5 1889.41 306.746  20
   0  -9   5 2066.22 340.480   3
   0   9  -5 1739.18 322.024  19
   0   9  -5 1485.45 304.305  18
   0   9  -4 977.901 210.138   5
   0  -9   4 1013.45 208.854   4
   0   9  -4 851.645 208.491  20
   0   9  -4 899.192 247.400  18
   0   9  -4 1075.43 256.767  13
   0   9  -4 560.671 187.454  19
   0   9  -4 1215.53 284.297  15
   0  -9   4 988.888 239.070   3
   0   9  -4 1055.86 257.378  17
   0  -9   4 973.990 199.256  21
   0   9  -3-17.6352 61.4656  20
   0  -9   3 102.283 94.5893   3
   0   9  -3-42.4997 106.095  13
   0   9  -3 119.403 98.4871  15
   0  -9   3 43.4339 65.2670  16
   0   9  -3 142.884 88.3010   5
   0   9  -3-64.9477 92.6477  17
   0  -9   3 6.85446 54.8300  21
   0   9  -3 112.485 76.0126  18
   0   9  -3-190.048 118.930  19
   0   9  -2 1258.96 288.781  15
   0   9  -2 1621.45 306.652  13
   0  -9   2 1212.35 242.153   3
   0  -9   2 879.893 192.396  21
   0   9  -2 1139.68 253.798  19
   0   9  -2 1187.87 265.068  17
   0   9  -2 1117.08 203.916   5
   0   9  -2 1495.40 289.973  18
   0  -9   2 1036.75 211.331  16
   0   9  -2 1106.20 205.468  20
   0  -9   1 419.583 132.524  21
   0  -9   1 558.642 161.660  16
   0  -9   1 559.452 163.088   3
   0   9  -1 654.416 150.172   5
   0   9  -1 568.489 175.992  19
   0   9  -1 627.605 189.175  18
   0   9  -1 713.494 161.422  20
   0   9  -1 509.346 185.600  17
   0   9  -1 464.514 158.628  13
   0   9  -1 464.939 187.920  15
   0   9   0 125.070 77.9635   5
   0  -9   0 37.7089 60.5121  10
   0  -9   0 160.699 82.3747  21
   0   9   0 57.1520 49.6315  11
   0  -9   0-49.5414 95.3501   3
   0   9   0 2.39355 83.2204  18
   0   9   0-0.15221 47.7514   1
   0   9   0-31.2460 86.3834  19
   0   9   0 22.1048 78.2828  15
   0  -9   0 2.37386 55.6999  16
   0   9   0 14.7388 46.7101  20
   0   9   0 198.303 122.155  17
   0   9   0 39.8523 86.9865  13
   0   9   1 2351.67 360.642  13
   0   9   1 2430.15 348.161  19
   0   9   1 2679.03 369.634  18
   0  -9  -1 2762.81 352.968   3
   0   9   1 2602.57 397.352  15
   0   9   1 2127.15 336.406  17
   0  -9  -1 2867.23 358.763  16
   0   9   1 2531.43 271.499   5
   0   9   1 2747.17 302.734   1
   0   9   1 3341.45 311.914  11
   0  -9  -1 2339.71 298.060  21
   0  -9  -1 2858.17 318.270  10
   0   9   2 355.898 137.388  19
   0  -9  -2 247.073 116.675   3
   0  -9  -2 88.6478 54.7353  21
   0   9   2 268.547 83.0150  11
   0  -9  -2 239.928 108.067  10
   0   9   2 270.385 139.447  13
   0  -9  -2 350.670 148.876   2
   0   9   2 243.454 118.740  18
   0   9   2 317.027 114.653   1
   0  -9  -2 415.389 141.681  16
   0   9   2 260.154 118.189  17
   0   9   2 139.987 109.817  15
   0   9   3 952.799 207.450  19
   0   9   3 826.925 203.185  18
   0  -9  -3 1166.63 206.736  10
   0  -9  -3 1087.35 203.619  21
   0   9   3 1133.59 172.608  11
   0  -9  -3 891.422 220.533   2
   0   9   3 1023.25 241.611  15
   0   9   3 1186.12 201.819   1
   0   9   3 1214.66 251.189  13
   0   9   3 948.460 226.749  17
   0  -9  -3 1337.66 248.870   3
   0  -9  -3 666.763 184.344  16
   0  -9  -4-5.71867 86.3063   3
   0  -9  -4 131.466 85.1805  16
   0   9   4 174.078 128.385  15
   0  -9  -4-2.67477 44.5082  10
   0   9   4 142.335 119.521  13
   0   9   4-48.6661 77.3276  17
   0  -9  -4 30.5884 61.4862  21
   0   9   4 30.7206 54.9788   1
   0   9   4-61.5259 53.6419  11
   0   9   4 7.84375 65.3556  18
   0  -9  -5 513.908 134.916  10
   0   9   5 381.511 106.203  11
   0  -9  -5 389.209 151.094  16
   0  -9  -5 541.929 167.149   3
   0   9   5 297.117 106.245   1
   0  -9  -6 11.1360 58.8745  10
   0  -9  -6 6.87667 82.7896   3
   0  -9  -6 139.146 101.871  16
   0   9   6 97.1854 78.9162   1
   0   9   6-50.5029 53.2202  11
   0  10  -3 826.844 242.946  15
   0  10  -3 658.116 220.529  17
   0 -10   3 704.624 184.811  21
   0  10  -3 758.989 224.283  18
   0  10  -3 961.102 258.894  13
   0 -10   3 1127.26 255.676   3
   0  10  -3 718.013 184.966  20
   0  10  -3 997.112 242.023  19
   0  10  -3 781.203 198.866   5
   0  10  -2 202.361 109.131   5
   0  10  -2 244.829 126.992  18
   0  10  -2 170.501 149.944  13
   0  10  -2 164.962 160.083  15
   0 -10   2 187.098 124.924  21
   0  10  -2-110.422 111.799  19
   0  10  -2 125.074 96.4526  20
   0 -10   2-64.2543 83.6932   3
   0  10  -2 327.583 163.017  17
   0 -10   2-34.7339 71.0623  16
   0  10  -1 211.248 125.393  19
   0  10  -1 104.655 76.3931   5
   0  10  -1 259.852 157.206  13
   0  10  -1-20.6097 80.0518  18
   0 -10   1 364.385 128.813   3
   0  10  -1 55.3776 92.0624  15
   0  10  -1 65.8296 77.8323   1
   0  10  -1 13.5280 109.206  17
   0 -10   1 61.3964 71.3161  21
   0 -10   1 174.747 92.2607  16
   0  10   0 1523.74 314.831  17
   0  10   0 1716.77 361.117  15
   0  10   0 1960.56 347.539  19
   0  10   0 2111.76 366.363  13
   0 -10   0 2249.47 343.433   3
   0  10   0 2045.60 275.743  11
   0 -10   0 1866.46 293.686  21
   0  10   0 1759.86 333.672  18
   0  10   0 1894.23 274.922   1
   0  10   0 2025.08 266.282   5
   0 -10   0 1876.32 311.225  16
   0 -10  -1 220.509 113.234  10
   0  10   1 563.464 196.903  17
   0  10   1 144.396 85.8074   1
   0  10   1 285.957 145.237  15
   0  10   1 119.044 102.391  18
   0 -10  -1 15.3550 77.9284   3
   0 -10  -1 46.7389 79.0964  16
   0  10   1 220.851 121.955  19
   0 -10  -1 110.121 85.3660  21
   0  10   1 293.719 111.463  11
   0  10   1 249.214 135.392  13
   0 -10  -1 132.837 109.428   2
   0  10   2 194.126 115.788  15
   0  10   2 412.480 172.298  17
   0 -10  -2 204.856 107.860  16
   0 -10  -2 236.851 106.655  21
   0 -10  -2 285.429 153.520   2
   0  10   2 439.330 168.485  19
   0  10   2 196.939 103.402  18
   0  10   2 595.199 202.157  13
   0  10   2 383.729 129.275   1
   0 -10  -2 412.443 158.754   3
   0 -10  -2 230.394 106.217  10
   0  10   2 470.071 129.393  11
   0  10   3 2359.93 382.442  18
   0  10   3 3711.39 334.965  11
   0 -10  -3 2686.04 343.001  21
   0  10   3 2626.66 396.743  17
   0 -10  -3 2060.01 342.941   2
   0  10   3 2720.79 392.082  19
   0  10   3 2834.08 431.310  15
   0 -10  -3 2729.96 337.229  10
   0 -10  -3 3460.55 423.299   3
   0  10   3 2827.05 405.509  13
   0 -10  -3 2236.35 350.632  16
   0  10   3 2622.22 312.457   1
   0 -10  -4-97.6023 92.9561  16
   0 -10  -4 81.0281 74.0903  21
   0 -10  -4 37.6269 76.3276   3
   0 -10  -4-83.6928 99.3842  10
   0  10   4 13.0394 51.0121   1
   0  10   4-25.7620 71.4766  19
   0  10   4 97.0038 103.118  17
   0  10   4-58.7858 93.6707  15
   0  10   4 45.8908 63.7068  11
   0  10   4 40.0933 106.645  18
   0  10   4-16.4234 71.2184  13
  -1  10   1 336.519 166.326  18
   1 -10  -1 239.678 131.321  16
  -1  10   1 145.581 132.991  17
  -1  10   1 125.008 111.788  13
   1 -10  -1 115.587 83.7977  10
   1 -10  -1 70.9817 97.8317   3
  -1  10   1 165.840 102.552   1
  -1  10   1 227.767 161.165  15
  -1  10   1 67.9460 91.1649  19
  -1  10   1 194.141 89.9154  11
   1 -10  -1-13.8665 60.2686  21
  -1  10   0-6.00086 49.4083  11
  -1  10   0 126.176 109.921  18
  -1  10   0-6.24186 59.7006   1
   1 -10   0 123.362 95.9657  21
  -1  10   0 161.004 119.620  17
   1 -10   0-32.8890 85.2188   3
  -1  10   0-40.7759 87.2462  19
  -1  10   0 95.0414 113.295  15
  -1  10   0 200.877 154.479  13
   1 -10   0 3.39078 64.3265  16
   1 -10   1 1233.01 272.352  16
  -1  10  -1 921.151 257.140  13
  -1  10  -1 1143.83 215.342  11
  -1  10  -1 658.675 220.385  19
  -1  10  -1 1151.91 282.743  17
  -1  10  -1 1282.87 297.306  18
  -1  10  -1 683.939 241.332  15
  -1  10  -1 967.145 206.178   5
   1 -10   1 882.779 215.678  21
   1 -10   1 1249.10 274.181   3
   1 -10   2 565.489 177.026  21
  -1  10  -2 562.534 158.477   5
  -1  10  -2 598.940 217.646  17
   1 -10   2 595.268 193.533  16
  -1  10  -2 532.014 197.968  13
  -1  10  -2 413.985 175.852  18
  -1  10  -2 681.242 225.363  19
  -1  10  -2 430.061 214.503  15
   1 -10   2 615.117 189.342   3
   1  -9  -4 142.607 109.451  16
  -1   9   4 35.6395 59.5633   1
   1  -9  -4 64.5493 72.5295  10
  -1   9   4-12.9619 43.4467  11
  -1   9   3 103.078 106.854  19
  -1   9   3-79.2464 83.9252  18
   1  -9  -3-110.513 99.1827  16
   1  -9  -3-106.091 96.3523   3
  -1   9   3 189.103 115.521  17
   1  -9  -3-140.298 89.1593  21
  -1   9   3 44.3758 92.3495  15
  -1   9   3 13.0575 62.3809   1
  -1   9   3 41.7572 72.8586  13
  -1   9   3 40.6856 49.4136  11
   1  -9  -3-53.6260 62.2166  10
   1  -9  -2 112.359 94.9787  16
  -1   9   2 195.326 77.1671  11
   1  -9  -2 126.207 81.5183  10
  -1   9   2 203.458 120.957  18
   1  -9  -2 303.477 123.655   3
   1  -9  -2-51.9730 75.6737  21
  -1   9   2 226.823 112.023  17
  -1   9   2 68.6145 76.7430  19
  -1   9   2 304.088 140.822  15
  -1   9   2 329.278 141.170  13
  -1   9   2 255.127 104.766   1
  -1   9   1 667.291 215.500  15
  -1   9   1 797.445 213.963  18
  -1   9   1 640.482 157.704   1
  -1   9   1 624.338 193.943  19
  -1   9   1 734.793 215.871  13
  -1   9   1 823.435 162.651  11
   1  -9  -1 703.194 186.116  16
   1  -9  -1 803.946 213.806   3
   1  -9  -1 819.229 176.893  10
   1  -9  -1 684.001 178.707  21
  -1   9   1 631.151 197.202  17
   1  -9   0 6298.99 567.644  16
  -1   9   0 7102.57 634.762  13
  -1   9   0 8298.98 531.028  11
  -1   9   0 7090.29 634.017  18
  -1   9   0 5384.42 543.591  19
   1  -9   0 6079.11 511.406  21
  -1   9   0 6547.19 470.350   5
  -1   9   0 6862.99 499.939   1
   1  -9   0 7156.59 513.317  10
  -1   9   0 6731.37 624.368  17
   1  -9   0 6862.46 587.773   3
  -1   9   0 6090.06 626.721  15
  -1   9  -1 399.844 116.218   5
  -1   9  -1 684.846 196.071  19
  -1   9  -1 612.139 201.579  18
  -1   9  -1 619.717 197.742  17
  -1   9  -1 1124.43 195.706  11
   1  -9   1 626.900 168.673   3
   1  -9   1 737.223 180.223  21
  -1   9  -1 571.551 207.813  15
   1  -9   1 694.286 197.408  16
  -1   9  -1 734.859 215.695  13
  -1   9  -2 1745.85 346.056  15
  -1   9  -2 1346.63 230.946   5
  -1   9  -2 1168.42 264.658  19
  -1   9  -2 1611.67 313.607  13
  -1   9  -2 1199.62 269.796  17
   1  -9   2 1579.14 262.511  21
   1  -9   2 1382.93 266.242  16
  -1   9  -2 1605.61 247.285  20
   1  -9   2 1640.28 286.333   3
  -1   9  -2 1961.49 341.294  18
  -1   9  -3 514.284 176.516  19
  -1   9  -3 335.621 151.930  18
   1  -9   3 479.679 159.111  16
  -1   9  -3 849.370 237.726  17
   1  -9   3 536.598 158.111  21
  -1   9  -3 441.029 180.997  15
  -1   9  -3 476.636 179.875  13
   1  -9   3 621.521 197.753   3
  -1   9  -3 436.441 136.505  20
  -1   9  -3 459.351 138.181   5
  -1   9  -4 521.542 208.546  15
   1  -9   4 779.795 219.016  16
  -1   9  -4 610.187 173.290  20
  -1   9  -4 874.251 233.720  13
  -1   9  -4 397.008 180.560  17
  -1   9  -4 670.486 215.509  18
  -1   9  -4 615.709 178.363   5
   1  -9   4 590.075 176.461  21
  -1   9  -4 728.578 218.767  19
   1  -9   4 946.530 241.171   3
  -1   9  -5 3789.15 502.694  13
   1  -9   5 4344.39 464.922   4
   1  -9   5 2981.86 380.153  21
  -1   9  -5 3313.35 463.395  18
  -1   9  -5 3824.87 427.187   5
  -1   9  -5 3295.18 399.022  20
  -1   9  -5 3799.88 490.187  19
  -1   9  -5 3238.78 493.495  15
  -1   9  -5 3766.51 505.016  17
   1  -9   5 3580.18 455.589   3
   1  -8  -6 5584.28 556.120  16
   1  -8  -6 5516.31 460.068  10
   1  -8  -6 6133.53 571.564   3
  -1   8   6 5918.95 418.663  11
  -1   8   5 129.193 70.0900  11
   1  -8  -5 87.5529 83.1003   3
  -1   8   5 175.059 76.4779   1
   1  -8  -5 97.6638 85.5291  16
   1  -8  -5 165.385 85.0719  10
  -1   8   4 319.230 124.023  13
   1  -8  -4 474.227 158.555  16
  -1   8   4 137.344 83.9979  18
  -1   8   4 244.635 101.427  19
   1  -8  -4 342.737 144.310   3
  -1   8   4 374.302 147.041  17
   1  -8  -4 350.064 117.328  10
  -1   8   4 451.405 116.132  11
  -1   8   4 380.692 112.381   1
  -1   8   3 706.478 181.316  13
   1  -8  -3 1122.70 195.755  10
   1  -8  -3 943.249 206.403   3
   1  -8  -3 765.921 188.957   2
  -1   8   3 773.028 189.710  17
  -1   8   3 703.475 146.853   1
  -1   8   3 604.075 171.279  19
  -1   8   3 574.737 178.240  15
  -1   8   3 889.728 150.642  11
  -1   8   3 702.742 176.051  18
   1  -8  -3 710.364 159.886  21
   1  -8  -3 710.554 185.157  16
   1  -8  -2 347.211 130.121   3
  -1   8   2 250.179 111.083  18
  -1   8   2 296.634 131.515  17
   1  -8  -2 321.278 111.799  16
  -1   8   2 287.741 91.2421  11
   1  -8  -2 251.824 100.880  21
  -1   8   2 281.824 119.988  19
  -1   8   2 454.846 161.935  15
  -1   8   2 346.804 137.037  13
  -1   8   2 304.050 96.8202   1
   1  -8  -2 347.312 112.705  10
   1  -8  -1 176.342 87.7763  21
  -1   8   1 228.703 121.606  13
  -1   8   1 209.262 79.4445   5
  -1   8   1 215.570 127.183  18
  -1   8   1 205.126 123.209  15
   1  -8  -1 86.4097 69.6687   3
  -1   8   1 179.627 133.544  17
  -1   8   1 148.499 84.3206   1
  -1   8   1 109.538 90.8160  19
   1  -8  -1 94.0969 69.3319  10
   1  -8  -1 221.033 120.289  16
  -1   8   1 181.343 84.6699  11
   1  -8   0 8387.64 522.563  10
  -1   8   0 8760.08 688.878  15
  -1   8   0 9804.82 535.963  11
   1  -8   0 7642.97 535.093  21
  -1   8   0 8752.92 656.338  13
  -1   8   0 7961.44 612.749  19
   1  -8   0 8103.01 595.490  16
  -1   8   0 8498.46 658.429  17
   1  -8   0 8963.61 624.616   3
  -1   8   0 7881.14 627.263  18
  -1   8   0 8144.17 492.317   5
  -1   8  -1 8963.42 715.504  15
  -1   8  -1 8262.50 647.316  18
   1  -8   1 9819.43 653.332   3
  -1   8  -1 9191.68 682.071  13
  -1   8  -1 8985.26 680.225  17
  -1   8  -1 8710.47 526.342   5
   1  -8   1 7979.98 555.168  21
   1  -8   1 7386.08 570.349  16
  -1   8  -1 8212.75 501.417  20
  -1   8  -1 8502.01 641.802  19
  -1   8  -2 38.0522 74.8904  17
   1  -8   2 240.197 108.698  16
   1  -8   2 199.996 126.493   3
  -1   8  -2 185.657 104.428  19
  -1   8  -2 114.980 100.337  18
   1  -8   2-26.1533 54.8424  21
  -1   8  -2-39.7697 66.1921   5
  -1   8  -2 76.1418 94.0321  15
  -1   8  -2 77.0922 62.4545  20
  -1   8  -2 33.3108 66.2422  13
  -1   8  -3 228.619 118.981  15
   1  -8   3 62.0247 98.5684  16
  -1   8  -3 14.3002 78.2731  17
  -1   8  -3 23.4054 48.5219   5
  -1   8  -3-21.5185 67.9077  13
  -1   8  -3 57.5213 95.5404  18
   1  -8   3 47.7334 73.0330  21
   1  -8   3 101.791 95.8194   3
  -1   8  -3 127.942 76.6629  20
  -1   8  -3-19.9736 64.1675  19
  -1   8  -4 2301.98 302.129   5
  -1   8  -4 2164.26 371.474  15
  -1   8  -4 2243.11 351.828  13
   1  -8   4 2900.00 384.111   3
  -1   8  -4 2133.35 293.937  20
   1  -8   4 1863.68 278.570  21
   1  -8   4 2186.11 322.415  16
  -1   8  -4 2474.20 360.769  19
  -1   8  -4 2130.98 341.293  18
  -1   8  -4 2492.08 374.597  17
   1  -8   5 120.739 93.3826  16
  -1   8  -5 220.791 118.420  20
  -1   8  -5 420.502 162.869   5
   1  -8   5 29.2140 69.1721   4
   1  -8   5 62.0704 68.6043  21
  -1   8  -5 1.46087 87.0446  15
  -1   8  -5 32.8084 82.4183  18
  -1   8  -5 134.730 114.065  13
  -1   8  -5-45.3923 79.4550  19
   1  -8   5 205.310 98.6761   3
  -1   8  -5 171.953 83.0124  17
  -1   8  -6 101.547 89.4522  13
   1  -8   6 253.097 101.940   4
  -1   8  -6 52.8882 77.7380  20
   1  -8   6-160.274 108.652   3
  -1   8  -6 35.7183 87.0348  17
  -1   8  -6 175.604 116.370  19
  -1   8  -6-38.4424 77.3041  23
  -1   8  -6 3.98484 69.9932  18
  -1   8  -6 50.5530 97.8356   5
   1  -8   6-3.23318 67.8945  14
  -1   8  -7-172.768 124.583  23
  -1   8  -7 188.101 130.815  17
  -1   8  -7 20.2760 122.354  13
  -1   8  -7-81.9691 107.715  20
  -1   8  -7 91.6038 108.170   5
  -1   8  -7-10.5175 114.629  18
   1  -8   7-31.3607 60.6786  14
  -1   8  -7 176.381 124.368  19
   1  -8   7 122.651 115.864   4
   1  -7  -7 88.2624 76.1215  16
   1  -7  -7 90.4805 130.400   3
  -1   7   7 214.632 84.4593  11
   1  -7  -7 203.424 92.0717  10
   1  -7  -6 58.1561 67.0077   3
   1  -7  -6 111.488 74.5201  10
  -1   7   6-84.2581 59.5352  11
  -1   7   5 489.680 109.828   1
  -1   7   5 252.047 81.7973  11
   1  -7  -5 324.642 129.909  16
   1  -7  -5 469.103 160.326   3
   1  -7  -5 268.909 98.2008  10
   1  -7  -4 1133.45 184.666  10
  -1   7   4 953.305 153.692   1
   1  -7  -4 883.555 161.818  21
  -1   7   4 1040.30 196.992  18
  -1   7   4 868.504 182.411  17
  -1   7   4 918.804 199.538  15
  -1   7   4 947.370 191.911  19
   1  -7  -4 1025.90 211.009  16
   1  -7  -4 772.112 181.726   3
  -1   7   4 1216.89 169.176  11
  -1   7   4 887.581 178.041  13
  -1   7   3 25.7678 55.2875  18
  -1   7   3 61.8814 51.1079  11
   1  -7  -3 38.0230 41.4166  21
  -1   7   3-13.4493 54.4131   1
  -1   7   3 41.0281 56.7282  17
  -1   7   3 41.9406 81.8094  13
   1  -7  -3 154.193 82.8031  10
  -1   7   3 102.193 84.0714  19
   1  -7  -3 50.1947 73.0348   3
  -1   7   3 87.4535 100.943  15
   1  -7  -3 102.610 68.0325  16
   1  -7  -2 5226.80 397.154  21
  -1   7   2 4772.53 426.494  19
  -1   7   2 4617.56 425.682  13
  -1   7   2 4538.49 446.045  15
  -1   7   2 4572.92 427.461  17
   1  -7  -2 5746.50 466.886   3
   1  -7  -2 4885.26 432.587  16
   1  -7  -2 5822.68 397.092  10
  -1   7   2 5473.88 367.933   1
  -1   7   2 6456.46 383.142  11
  -1   7   2 4827.85 437.082  18
  -1   7   1 1196.49 171.892  11
   1  -7  -1 1172.51 175.522  10
  -1   7   1 1147.34 218.577  18
  -1   7   1 1006.29 208.306  17
  -1   7   1 1253.21 226.768  13
   1  -7  -1 1194.33 214.851  16
  -1   7   1 1124.34 206.403  19
  -1   7   1 893.118 145.722   5
  -1   7   1 1119.33 229.917  15
   1  -7  -1 1191.90 212.066   3
   1  -7  -1 997.003 177.695  21
  -1   7   0 103.651 94.0466  13
   1  -7   0-6.16028 70.7680   3
  -1   7   0 87.9531 65.0041  20
   1  -7   0 28.2338 56.6361  10
   1  -7   0 77.9083 70.7073  16
  -1   7   0 51.6443 60.8456   5
   1  -7   0-5.09334 51.9345  21
  -1   7   0 77.3185 73.1221  19
  -1   7   0 64.5890 58.2290  18
  -1   7   0-0.55826 60.2905  17
  -1   7   0 110.343 65.0732  11
  -1   7   0 125.000 106.868  15
  -1   7  -1 273.376 115.865  19
   1  -7   1 190.908 106.601  16
  -1   7  -1 109.239 83.3979  17
  -1   7  -1 291.741 117.483  18
   1  -7   1 208.743 81.4460  10
   1  -7   1 314.978 113.255   3
  -1   7  -1 183.243 75.0351   5
  -1   7  -1 262.031 111.888  13
  -1   7  -1 285.648 88.7963  20
   1  -7   1 137.294 71.4710  21
  -1   7  -1 178.804 114.371  15
   1  -7   2 26313.7 1054.65  16
  -1   7  -2 25754.3 941.010  20
  -1   7  -2 27285.5 1161.76  18
  -1   7  -2 27905.9 1233.89  15
  -1   7  -2 28449.7 1185.64  13
   1  -7   2 26212.0 1004.55  21
  -1   7  -2 27628.7 1178.67  17
  -1   7  -2 27727.8 986.529   5
   1  -7   2 30366.0 1148.76   3
  -1   7  -2 27572.3 1141.73  19
  -1   7  -3 182.141 100.823  19
   1  -7   3 40.3986 71.7739  16
   1  -7   3 35.0969 83.8550   3
  -1   7  -3 91.7935 69.7660  20
   1  -7   3 99.8852 74.8380  21
  -1   7  -3 115.431 89.3221  18
  -1   7  -3 91.2477 83.4559  13
  -1   7  -3 52.5442 103.926  15
  -1   7  -3 134.834 88.0543   5
  -1   7  -3 183.427 107.342  17
  -1   7  -4 889.111 219.417  17
  -1   7  -4 1043.15 222.674  18
  -1   7  -4 1072.30 230.489  13
   1  -7   4 993.653 190.269  21
   1  -7   4 992.890 203.273  16
  -1   7  -4 1000.81 184.761  20
  -1   7  -4 805.023 192.949  19
  -1   7  -4 1121.43 203.588   5
  -1   7  -4 1326.61 269.522  15
   1  -7   4 1307.53 239.998   3
  -1   7  -5 1571.39 270.072  19
   1  -7   5 1915.97 300.639   3
  -1   7  -5 1308.78 274.641  15
   1  -7   5 1453.69 255.406  16
  -1   7  -5 1790.90 293.987  18
  -1   7  -5 1708.11 300.205  17
  -1   7  -5 1754.55 256.666   5
  -1   7  -5 1693.82 287.375  13
  -1   7  -5 1802.51 260.750  20
   1  -7   5 1477.58 230.472  21
   1  -7   6-10.6235 46.0957  14
  -1   7  -6 7.60322 56.4656  19
  -1   7  -6 156.434 105.513  18
  -1   7  -6 108.630 81.6405  13
  -1   7  -6-46.7443 68.7996  23
  -1   7  -6 26.7416 85.5517   5
  -1   7  -6 146.391 102.301  17
  -1   7  -6 30.2016 47.4500   8
  -1   7  -6 127.473 94.3269  20
   1  -7   6-18.6634 85.3697   4
  -1   7  -7 180.681 76.9524  20
  -1   7  -7 262.527 130.910   5
   1  -7   7 102.227 68.2491  14
  -1   7  -7 107.233 99.1846  18
  -1   7  -7 374.859 160.254  13
  -1   7  -7 137.725 60.8040   8
  -1   7  -7 214.293 119.737  19
  -1   7  -7 199.817 110.475  23
  -1   7  -7 305.503 141.638  17
   1  -7   7 333.312 145.238   4
  -1   7  -8-72.3229 78.8503  18
  -1   7  -8 78.5386 73.9489  17
  -1   7  -8 144.369 102.315  19
  -1   7  -8 221.220 125.058   5
  -1   7  -8 4.75834 57.6332  23
  -1   7  -8-17.7436 72.3842  13
   1  -7   8 24.8846 75.3594  14
  -1   7  -8 281.384 103.532   8
   1  -7   8 306.446 134.682   4
  -1   7  -8 112.860 97.9329  20
   1  -6  -8 2116.70 332.172   3
  -1   6   8 1263.97 209.829   7
   1  -6  -8 1814.77 304.469  16
  -1   6   8 2026.82 246.510  11
   1  -6  -8 1860.42 261.514  10
  -1   6   7 143.096 86.4045   7
   1  -6  -7 0.42247 72.4712   3
   1  -6  -7-54.2045 75.7186  16
  -1   6   7-24.5813 41.4842  11
   1  -6  -7 138.126 82.5104  10
   1  -6  -6 970.741 165.804  10
  -1   6   6 569.601 120.966   7
  -1   6   6 1018.08 156.267  11
   1  -6  -6 978.006 214.668   3
   1  -6  -6 905.598 201.963  16
   1  -6  -5 327.158 103.641  16
   1  -6  -5 296.135 118.491   3
  -1   6   5 171.127 74.6889   1
   1  -6  -5 462.772 114.115  10
  -1   6   5 390.506 95.5160  11
   1  -6  -4 52.7615 46.1666  23
  -1   6   4 63.2370 80.3059  15
   1  -6  -4-51.5323 44.3528  10
   1  -6  -4 72.2858 61.8115   2
   1  -6  -4 54.0534 58.9761  21
  -1   6   4-66.1730 73.4221  17
  -1   6   4 17.1291 66.7599  14
  -1   6   4 7.56806 35.0164  11
   1  -6  -4 8.54767 53.5559  16
  -1   6   4 34.9514 60.4512  18
  -1   6   4 42.9794 52.3736  13
  -1   6   4 3.40936 34.0116   1
   1  -6  -4 10.7182 80.8888   3
  -1   6   3 1952.48 198.229   1
   1  -6  -3 2403.56 281.214   3
   1  -6  -3 2007.29 218.397  21
   1  -6  -3 1988.17 262.208  16
  -1   6   3 2373.23 211.354  11
  -1   6   3 1470.57 228.312  15
   1  -6  -3 2110.19 224.223  10
  -1   6   3 1592.41 225.087  13
  -1   6   3 1477.25 219.723  18
  -1   6   3 1783.61 240.894  17
  -1   6   2 16605.0 806.333  15
  -1   6   2 16775.8 778.580  17
   1  -6  -2 18193.7 688.938  10
   1  -6  -2 16969.3 697.394  21
  -1   6   2 16481.9 762.884  13
  -1   6   2 20212.8 668.570  11
  -1   6   2 17953.1 647.250   1
  -1   6   2 15552.2 754.952  18
   1  -6  -2 18407.7 792.530   3
   1  -6  -2 18181.9 804.744  16
   1  -6  -1 778.524 130.492  10
  -1   6   1 776.903 129.268  11
  -1   6   1 682.875 149.445  19
  -1   6   1 692.979 155.735  13
  -1   6   1 707.694 154.948  17
   1  -6  -1 683.644 149.891   3
  -1   6   1 508.918 91.7176  20
  -1   6   1 781.637 167.236  18
   1  -6  -1 773.227 152.611  16
   1  -6  -1 644.376 128.133  21
  -1   6   1 630.014 112.032   5
  -1   6   1 677.777 168.085  15
  -1   6   0 670.539 114.405  20
   1  -6   0 799.777 160.444  16
   1  -6   0 649.040 133.774  21
  -1   6   0 535.657 139.644  17
  -1   6   0 645.446 161.551  18
   1  -6   0 793.297 138.149  10
  -1   6   0 773.311 128.792   5
  -1   6   0 965.723 199.176  15
   1  -6   0 799.730 162.306   3
  -1   6   0 661.687 149.398  13
  -1   6   0 624.184 149.727  19
  -1   6  -1 5641.06 443.474  19
   1  -6   1 5495.06 387.361  21
   1  -6   1 6586.59 456.442   3
  -1   6  -1 5492.93 475.710  15
  -1   6  -1 6066.88 468.460  17
  -1   6  -1 5504.14 446.323  13
   1  -6   1 6311.11 439.526  16
   1  -6   1 6188.43 378.872  10
  -1   6  -1 5399.29 443.246  18
  -1   6  -1 5591.49 368.366   5
  -1   6  -1 5406.34 346.294  20
  -1   6  -2 2934.18 351.263  15
   1  -6   2 2177.43 246.433  21
  -1   6  -2 2455.11 307.879  17
  -1   6  -2 2588.86 250.888  20
   1  -6   2 2476.78 277.031  16
  -1   6  -2 2680.21 308.706  19
  -1   6  -2 2388.69 296.325  18
  -1   6  -2 2633.12 259.685   5
  -1   6  -2 2479.98 304.315  13
   1  -6   2 3145.04 315.375   3
   1  -6   3 8198.61 497.955  21
  -1   6  -3 8691.63 507.661   5
  -1   6  -3 8676.48 590.316  13
  -1   6  -3 8464.05 488.086  20
  -1   6  -3 9435.50 607.748  18
  -1   6  -3 8853.39 576.695  19
  -1   6  -3 9613.20 647.346  15
   1  -6   3 8880.46 545.530  16
  -1   6  -3 8165.46 337.251   8
   1  -6   3 10648.8 614.575   3
  -1   6  -3 8726.07 592.083  17
  -1   6  -4 151.000 101.378  18
  -1   6  -4 178.376 97.4567  13
  -1   6  -4 285.121 107.471   5
  -1   6  -4 295.632 126.993  17
   1  -6   4 170.987 80.8469  21
   1  -6   4 174.878 93.8676   3
   1  -6   4 166.562 82.0727  16
  -1   6  -4 172.188 87.2675  20
  -1   6  -4-22.3003 76.0455  15
  -1   6  -4 198.863 89.0701  19
  -1   6  -4 221.161 63.2169   8
   1  -6   5 37.1821 71.3324   3
  -1   6  -5-30.0407 58.7367  17
  -1   6  -5-25.7999 60.9649  13
   1  -6   5 21.1061 57.1473  16
  -1   6  -5-35.9960 64.6390  15
  -1   6  -5-6.54434 81.5143  19
  -1   6  -5 7.67581 48.6841  20
   1  -6   5 8.60732 53.8134  21
  -1   6  -5-74.6933 66.2341   8
  -1   6  -5 55.5444 74.8419   5
  -1   6  -5-11.0835 69.9993  18
   1  -6   6 1677.90 265.887  16
  -1   6  -6 1837.20 257.533   5
   1  -6   6 2029.12 272.538   4
  -1   6  -6 1935.09 291.662  18
  -1   6  -6 1889.76 267.175  20
   1  -6   6 1652.31 210.354  14
  -1   6  -6 1813.74 282.802  23
  -1   6  -6 1734.18 199.641   8
  -1   6  -6 1722.69 280.109  17
  -1   6  -6 1903.61 282.383  19
  -1   6  -6 1673.68 278.334  13
   1  -6   7 62.5890 49.9954  14
  -1   6  -7 190.164 107.677  18
  -1   6  -7 113.819 86.6725  13
  -1   6  -7 61.1021 70.5581  23
  -1   6  -7 93.7686 66.7528  20
   1  -6   7 224.870 106.988   4
  -1   6  -7 147.435 96.8552   5
  -1   6  -7 60.0460 56.2310   8
  -1   6  -7 174.476 75.5506  19
  -1   6  -7 125.728 94.6323  17
   1  -6   8 1698.44 225.481  14
  -1   6  -8 1651.28 229.525   8
  -1   6  -8 1901.98 293.037  20
  -1   6  -8 2105.85 320.742  13
   1  -6   8 2376.91 315.062   4
  -1   6  -8 1910.43 300.800  23
  -1   6  -8 1630.95 278.039  18
  -1   6  -8 2052.53 302.544   5
  -1   6  -8 2076.50 326.278  17
  -1   6  -8 2440.93 337.577  19
   1  -6   9 6210.82 456.393  14
  -1   6  -9 5988.47 465.519   8
   1  -6   9 7801.37 604.075   4
  -1   6  -9 6983.32 577.863   5
  -1   6  -9 6363.20 562.538  20
   1  -5  -9 363.662 165.787   3
  -1   5   9 430.912 119.917  11
   1  -5  -9 415.052 138.223  10
  -1   5   9 389.733 127.008   7
  -1   5   8-107.605 63.3018  11
   1  -5  -8 73.3076 78.5199  16
   1  -5  -8-59.4269 59.6715  10
  -1   5   8 68.0402 73.8266   7
   1  -5  -8-46.9672 61.1238   3
  -1   5   7 2628.18 265.507   7
  -1   5   7 2907.69 265.862  11
   1  -5  -7 3013.08 294.020  10
   1  -5  -7 2718.46 343.189   3
   1  -5  -7 2583.02 325.435  16
  -1   5   6 219.784 70.6746   1
  -1   5   6 271.561 79.0214  11
  -1   5   6 98.1616 54.8725   7
   1  -5  -6 219.994 98.8772  16
   1  -5  -6 218.235 90.7198   3
   1  -5  -6 186.409 76.5524  10
  -1   5   5 2201.98 202.705  11
   1  -5  -5 2145.00 274.240   3
  -1   5   5 2085.44 197.501  12
  -1   5   5 1774.86 171.030   1
   1  -5  -5 2269.34 276.072  16
  -1   5   5 1726.44 183.749   7
   1  -5  -5 2373.20 235.657  10
   1  -5  -4 1437.80 184.753   2
   1  -5  -4 1925.05 249.779  16
  -1   5   4 1594.33 197.146  17
  -1   5   4 1613.10 217.018  14
  -1   5   4 1704.91 166.845   1
   1  -5  -4 1573.30 178.321  23
   1  -5  -4 2017.05 207.923  10
  -1   5   4 1702.26 166.685  12
  -1   5   4 1670.80 165.938   7
  -1   5   4 1632.69 211.175  15
   1  -5  -4 1767.74 187.357  21
   1  -5  -4 2025.25 254.579   3
  -1   5   4 1952.44 217.819  13
  -1   5   4 1936.67 178.142  11
  -1   5   4 1780.89 206.824  18
  -1   5   3 502.715 125.726  14
  -1   5   3 746.510 111.154  11
  -1   5   3 459.604 79.6625   7
  -1   5   3 648.600 104.800   1
  -1   5   3 507.102 83.8920  12
   1  -5  -3 570.218 136.266  16
   1  -5  -3 582.697 109.794  23
  -1   5   3 464.180 109.457  17
  -1   5   3 604.775 126.362  18
   1  -5  -3 651.729 114.077  10
   1  -5  -3 570.712 107.387  21
   1  -5  -3 633.964 141.141   3
  -1   5   3 462.663 125.305  15
  -1   5   3 484.912 114.412  13
  -1   5   2 3870.14 197.696   7
   1  -5  -2 3188.83 261.812  23
  -1   5   2 3124.86 176.946  20
   1  -5  -2 3950.17 330.102  16
   1  -5  -2 3174.08 256.855  21
  -1   5   2 3472.04 238.733   1
  -1   5   2 4312.29 259.524  11
  -1   5   2 2768.97 291.804  14
   1  -5  -2 3385.12 253.887  10
  -1   5   2 3196.98 291.881  18
  -1   5   2 3340.68 299.659  17
   1  -5  -2 3644.58 309.436   3
  -1   5   2 3278.02 291.896  13
  -1   5   2 3345.24 311.853  15
  -1   5   1 874.709 168.950  15
   1  -5  -1 1459.53 195.269   3
  -1   5   1 1032.90 131.446   5
  -1   5   1 1050.93 126.823  11
  -1   5   1 1037.35 172.286  13
   1  -5  -1 914.497 129.294  10
  -1   5   1 982.210 111.552  20
  -1   5   1 1126.50 176.668  18
   1  -5  -1 990.398 142.402  21
  -1   5   1 751.618 150.837  17
   1  -5  -1 820.822 148.498  16
  -1   5   1 996.582 77.6794   7
  -1   5   0 3999.06 352.965  15
   1  -5   0 4492.16 335.858   3
  -1   5   0 4076.24 268.220   5
  -1   5   0 3453.13 303.159  19
  -1   5   0 3875.54 245.539  20
   1  -5   0 3609.12 275.243  21
   1  -5   0 4147.28 278.992  10
  -1   5   0 3495.78 316.221  17
   1  -5   0 4173.33 323.958  16
  -1   5   0 3465.66 309.662  18
  -1   5   0 3770.71 324.154  13
   1  -5   1 8545.36 472.863  16
   1  -5   1 9598.02 512.719   3
  -1   5  -1 9444.67 436.802   5
  -1   5  -1 7582.85 242.683   8
  -1   5  -1 8470.82 537.969  15
   1  -5   1 8440.53 441.935  21
   1  -5   1 8531.48 413.110  10
  -1   5  -1 8683.68 516.058  18
  -1   5  -1 8308.35 504.650  13
  -1   5  -1 8315.02 505.195  17
  -1   5  -1 8303.31 396.478  20
  -1   5  -1 8679.11 500.406  19
   1  -5   2 15.3218 41.1750  21
   1  -5   2-29.9603 61.8724  16
  -1   5  -2 57.5115 52.8452   5
   1  -5   2-52.8562 75.9946   3
  -1   5  -2 4.10293 58.4836  19
  -1   5  -2-24.7733 53.6950  17
  -1   5  -2 26.1890 53.1446  13
  -1   5  -2-27.1663 52.3339  20
  -1   5  -2-16.0762 58.0377  15
  -1   5  -2-6.69738 51.0999  18
  -1   5  -2-36.2680 26.9950   8
  -1   5  -3-10.7018 35.5772   8
  -1   5  -3 0.61224 43.7334  20
  -1   5  -3 7.43456 65.3575  13
   1  -5   3 61.8556 69.5461  16
  -1   5  -3 66.9994 75.0674  18
  -1   5  -3-28.8247 70.1365  15
  -1   5  -3 77.2063 61.8011  17
   1  -5   3 13.1454 46.0282  21
   1  -5   3 80.6297 79.4958   3
  -1   5  -3 42.8992 55.5461  19
  -1   5  -3 26.8260 55.7291   5
  -1   5  -4 4295.70 403.263  15
  -1   5  -4 4385.23 393.652  17
  -1   5  -4 4467.18 381.104  19
   1  -5   4 4420.54 367.016  16
   1  -5   4 5451.68 424.296   3
  -1   5  -4 4366.23 385.223  18
  -1   5  -4 4133.00 330.306  20
   1  -5   4 4030.08 327.901  21
  -1   5  -4 4341.41 336.224   5
  -1   5  -4 4319.38 249.217   8
  -1   5  -4 3972.13 372.351  13
  -1   5  -5 3015.04 334.667  17
   1  -5   5 3474.91 352.990   3
  -1   5  -5 2743.54 334.944  15
  -1   5  -5 2798.04 286.988   5
  -1   5  -5 2889.19 291.978  20
  -1   5  -5 2699.88 217.946   8
  -1   5  -5 2713.15 303.834  19
   1  -5   5 2751.95 275.169  21
  -1   5  -5 2915.77 321.799  18
   1  -5   5 3039.53 326.071  16
  -1   5  -5 2882.24 325.240  13
  -1   5  -6 1723.43 192.604   8
  -1   5  -6 2284.56 272.519  20
  -1   5  -6 2137.95 280.613  23
   1  -5   6 2212.14 228.559  14
   1  -5   6 2458.56 306.755  16
   1  -5   6 2333.35 274.945   4
  -1   5  -6 2034.07 251.691   5
  -1   5  -6 2256.48 289.745  18
  -1   5  -6 1896.27 272.954  13
  -1   5  -6 2135.82 288.501  17
  -1   5  -6 2114.81 272.615  19
  -1   5  -7 344.943 119.311  19
  -1   5  -7 601.266 155.201  23
  -1   5  -7 359.934 121.965  20
   1  -5   7 364.807 196.545   1
  -1   5  -7 345.371 122.546  18
  -1   5  -7 346.343 130.814  17
   1  -5   7 455.047 111.875  14
  -1   5  -7 377.831 123.420   5
  -1   5  -7 492.256 141.918  13
  -1   5  -7 442.254 102.738   8
   1  -5   7 503.972 138.146   4
  -1   5  -8 538.651 128.146   8
   1  -5   8 780.308 145.420  14
   1  -5   8 406.814 196.646   1
   1  -5   8 644.742 163.243   4
  -1   5  -8 740.191 180.798  18
  -1   5  -8 699.278 173.633  23
  -1   5  -8 922.172 209.344  17
  -1   5  -8 732.786 174.120  19
  -1   5  -8 739.241 173.247  20
  -1   5  -8 856.542 200.576  13
  -1   5  -8 838.152 183.008   5
  -1   5  -9 510.134 162.081   5
   1  -5   9 591.717 167.214   4
  -1   5  -9 732.840 195.007  20
  -1   5  -9 450.064 122.297   8
  -1   5 -10 1715.28 280.767   5
  -1   5 -10 1597.04 246.325   8
   1  -5  10 2439.47 332.684   4
  -1   5 -10 1524.64 272.589  20
  -1   4   9 258.697 110.879   7
   1  -4  -9 256.311 127.921   3
   1  -4  -9 248.241 103.560  10
  -1   4   9 151.751 75.1779  11
  -1   4   8 1638.59 219.254   7
  -1   4   8 1977.10 229.787  11
   1  -4  -8 1579.04 223.842  10
   1  -4  -8 1505.66 238.272  16
   1  -4  -8 1600.89 271.593   3
   1  -4  -7 386.444 104.245  10
  -1   4   7 394.788 108.531   7
   1  -4  -7 178.355 91.2036  16
   1  -4  -7 303.633 126.619   3
  -1   4   7 211.372 85.2716  11
  -1   4   6 2506.23 219.027  11
  -1   4   6 2073.71 200.931  12
  -1   4   6 1644.83 152.408   1
   1  -4  -6 2474.16 278.777  16
   1  -4  -6 2012.31 262.822   3
  -1   4   6 2148.84 219.347   7
   1  -4  -6 2390.75 237.062  10
  -1   4   5 1767.32 191.729  14
  -1   4   5 2061.46 185.783  12
   1  -4  -5 2101.94 249.329   3
  -1   4   5 1488.40 172.803  15
  -1   4   5 1603.94 170.279  13
  -1   4   5 1825.05 186.321   7
  -1   4   5 1626.52 174.060  17
  -1   4   5 2194.43 190.020  11
  -1   4   5 1723.88 175.519  18
   1  -4  -5 1801.86 233.743  16
   1  -4  -5 2140.53 211.825  10
  -1   4   5 1878.96 156.982   1
   1  -4  -4 21.8755 33.1206   2
  -1   4   4-5.24475 38.7708  18
  -1   4   4 3.44202 23.7420  11
  -1   4   4-17.1807 42.0930  15
  -1   4   4-8.64809 48.6572  14
  -1   4   4 0.62050 29.9821  12
   1  -4  -4 83.2240 58.3071  16
  -1   4   4-34.3129 45.3425  17
   1  -4  -4-0.58075 67.5108   3
   1  -4  -4 23.1513 33.0031  21
   1  -4  -4-56.2104 51.3026  10
  -1   4   4-10.2901 36.1828  13
   1  -4  -4 31.2670 30.9473  23
  -1   4   4 17.5182 30.8033   7
  -1   4   4-0.84735 22.1420   1
   1  -4  -3 424.646 84.5137  23
  -1   4   3 452.879 77.1235  11
  -1   4   3 472.727 80.6106   1
  -1   4   3 388.838 74.1876   7
  -1   4   3 295.990 79.4911  18
  -1   4   3 327.609 63.2785  12
   1  -4  -3 237.285 82.9986  16
   1  -4  -3 343.974 96.6478   3
  -1   4   3 256.935 88.7675  14
  -1   4   3 311.129 83.8185  13
   1  -4  -3 388.735 75.9891  21
  -1   4   3 330.949 93.9710  17
  -1   4   3 317.780 98.3180  15
   1  -4  -3 268.839 72.5102  10
  -1   4   2 327.365 99.0157  14
  -1   4   2 322.139 56.4618  12
  -1   4   2 184.384 71.9813  17
  -1   4   2 267.815 83.6785  18
   1  -4  -2 320.381 86.8439  16
  -1   4   2 285.909 52.9583   7
  -1   4   2 321.290 46.1774  20
  -1   4   2 225.994 82.0978  15
  -1   4   2 341.413 70.1317   1
   1  -4  -2 273.615 92.0009   3
  -1   4   2 274.871 63.0523  11
   1  -4  -2 308.510 74.1342  10
   1  -4  -2 368.828 78.8905  21
   1  -4  -2 252.377 69.6413  23
  -1   4   2 269.559 80.6639  13
  -1   4   1 420.142 50.9322   7
   1  -4  -1 468.249 92.3251  23
  -1   4   1 538.654 106.795  13
  -1   4   1 500.442 68.3449  20
   1  -4  -1 442.819 88.2272  21
  -1   4   1 417.323 110.592  14
  -1   4   1 364.539 71.4897   5
  -1   4   1 360.417 101.897  18
   1  -4  -1 621.289 119.648   3
  -1   4   1 438.089 109.382  17
   1  -4  -1 365.004 76.2423  10
   1  -4  -1 373.197 96.8721  16
  -1   4   1 466.931 82.0303  11
  -1   4   1 314.413 102.986  15
  -1   4   0 22098.9 731.792  17
  -1   4   0 21335.8 716.182  13
  -1   4   0 21348.4 758.460  15
  -1   4   0 21533.4 553.295  20
  -1   4   0 21756.4 724.740  18
   1  -4   0 22230.4 700.733  16
   1  -4   0 21851.7 646.032  21
  -1   4   0 25001.7 629.954   5
   1  -4   0 23361.9 713.514   3
  -1   4   0 21860.9 710.344  19
   1  -4   0 22406.9 614.488  10
  -1   4  -1 7075.94 340.095   5
  -1   4  -1 6577.01 390.220  19
  -1   4  -1 6000.23 385.771  17
  -1   4  -1 5863.39 303.114  20
  -1   4  -1 6479.61 396.125  18
  -1   4  -1 6636.12 421.188  15
   1  -4   1 6401.22 347.861  21
   1  -4   1 6588.82 326.808  10
  -1   4  -1 6355.85 201.814   8
   1  -4   1 6089.53 361.503  16
  -1   4  -1 6635.76 398.438  13
   1  -4   1 6397.38 374.182   3
   1  -4   2 30649.7 906.220  21
  -1   4  -2 31891.5 697.472   8
  -1   4  -2 31942.2 1010.63  18
  -1   4  -2 32418.5 891.278   5
  -1   4  -2 31575.6 1016.38  17
  -1   4  -2 32246.2 1011.76  13
   1  -4   2 35828.8 1015.49   3
  -1   4  -2 32001.5 991.693  19
  -1   4  -2 30996.2 1052.55  15
  -1   4  -2 31114.3 873.783  20
   1  -4   2 32020.0 951.232  16
  -1   4  -3 3320.43 261.485   5
  -1   4  -3 3152.86 291.268  13
  -1   4  -3 3216.56 284.566  19
  -1   4  -3 3317.39 300.183  17
  -1   4  -3 3336.92 185.293   8
   1  -4   3 3839.75 312.838   3
   1  -4   3 2984.30 265.447  16
   1  -4   3 3050.95 253.334  21
  -1   4  -3 3390.06 315.639  15
  -1   4  -3 3283.63 254.545  20
  -1   4  -3 3116.76 286.286  18
  -1   4  -4 5831.12 409.154  13
   1  -4   4 4499.19 181.662   7
  -1   4  -4 5599.38 396.612  18
   1  -4   4 5975.35 400.810  16
  -1   4  -4 5936.66 366.076  20
  -1   4  -4 6142.74 286.640   8
  -1   4  -4 5340.07 412.393  15
  -1   4  -4 5707.32 412.497  17
   1  -4   4 4831.66 486.830   1
   1  -4   4 6221.17 419.458   3
  -1   4  -4 5924.87 399.052  19
  -1   4  -4 6075.74 367.371   5
   1  -4   4 5434.61 352.294  21
  -1   4  -5 4702.62 383.779  17
  -1   4  -5 4405.91 368.197  13
  -1   4  -5 4293.43 355.314  18
  -1   4  -5 5192.43 384.638  19
  -1   4  -5 4604.22 345.660  20
   1  -4   5 4571.33 379.766  16
   1  -4   5 3868.84 448.918   1
  -1   4  -5 4970.20 350.224   5
   1  -4   5 5232.51 362.290   4
  -1   4  -5 4952.16 280.520   8
   1  -4   5 3516.14 189.226   7
   1  -4   5 4862.04 386.723   3
   1  -4   6 6908.16 437.313   4
  -1   4  -6 7159.62 476.313  23
  -1   4  -6 6700.48 479.085  17
   1  -4   6 5591.40 277.727   7
  -1   4  -6 6815.67 461.692  19
   1  -4   6 6844.28 383.427  14
   1  -4   6 6889.12 489.542  16
  -1   4  -6 6946.67 372.073   8
  -1   4  -6 6178.25 457.464  13
   1  -4   6 5753.84 573.570   1
  -1   4  -6 6917.30 471.507  18
  -1   4  -6 7143.09 442.294   5
  -1   4  -6 6881.86 447.584  20
   1  -4   7 5707.74 311.269   7
   1  -4   7 7496.85 416.382  14
  -1   4  -7 6889.30 474.003  20
  -1   4  -7 8023.14 536.098  13
  -1   4  -7 7646.10 506.965  19
  -1   4  -7 7538.92 526.785  17
  -1   4  -7 7697.69 509.928  23
  -1   4  -7 7616.94 482.199   5
  -1   4  -7 7524.72 510.641  18
   1  -4   7 6315.92 630.713   1
  -1   4  -7 6928.15 405.106   8
   1  -4   7 7155.43 526.856  16
   1  -4   7 8511.67 505.525   4
  -1   4  -8 2656.75 297.463   5
  -1   4  -8 2924.50 318.600  19
  -1   4  -8 2495.19 308.931  17
  -1   4  -8 2872.09 315.181  23
  -1   4  -8 2391.69 303.358  13
   1  -4   8 2014.92 372.020   1
  -1   4  -8 2554.51 303.808  18
   1  -4   8 2567.73 249.206  14
   1  -4   8 2986.92 311.506   4
  -1   4  -8 2584.85 302.318  20
  -1   4  -8 2485.02 255.530   8
  -1   4  -9 63.3434 55.4434   8
   1  -4   9-73.6810 83.8339   4
   1  -4   9-26.3403 112.756   1
  -1   4  -9 62.9860 57.7167  20
  -1   4  -9 137.187 87.8554   5
  -1   4 -10 452.450 146.455  20
   1  -4  10 303.724 188.631   1
  -1   4 -10 267.480 105.406   5
   1  -4  10 327.825 129.264   4
  -1   4 -10 469.205 144.273   8
  -1   3  10 7531.19 509.951  11
   1  -3 -10 7442.59 630.483   3
  -1   3  10 5944.08 477.812   7
   1  -3  -9 2763.21 353.181   3
   1  -3  -9 3061.63 324.801  10
  -1   3   9 2539.88 288.491   7
  -1   3   9 3298.29 308.961  11
   1  -3  -8 1062.85 181.133  10
   1  -3  -8 1160.85 213.546   3
  -1   3   8 1170.45 170.571  11
  -1   3   8 925.482 170.053   7
   1  -3  -7 29.9764 58.6281  10
  -1   3   7 15.3900 61.2422   7
  -1   3   7-1.89440 32.8383  11
   1  -3  -7-28.5815 78.9408   3
  -1   3   6 6.53416 39.5013   7
   1  -3  -6 184.235 78.1314  10
   1  -3  -6 69.1464 35.6615   8
  -1   3   6 58.1965 45.8419  11
  -1   3   6 117.504 57.3633  12
   1  -3  -6 116.168 90.6016   3
  -1   3   6 112.435 36.8235   1
  -1   3   5 19923.1 610.983  12
   1  -3  -5 18852.6 532.723  23
   1  -3  -5 18647.1 526.447  21
  -1   3   5 15987.9 555.471  14
  -1   3   5 18313.2 514.485   1
  -1   3   5 20369.7 609.255  11
  -1   3   5 19733.1 653.602   7
   1  -3  -5 16897.2 477.457   8
  -1   3   5 16312.0 528.484  13
  -1   3   5 16502.1 534.852  18
  -1   3   5 15743.7 543.282  15
   1  -3  -5 20661.8 774.627   3
  -1   3   5 16637.2 538.558  17
   1  -3  -5 20477.0 662.185  10
  -1   3   4 540.743 96.6549   7
  -1   3   4 548.168 89.3747  13
  -1   3   4 653.097 101.287  15
  -1   3   4 545.499 84.1781  12
  -1   3   4 512.621 71.5735   1
  -1   3   4 492.980 76.6894  11
   1  -3  -4 534.524 79.1620  23
   1  -3  -4 430.123 54.6776   8
   1  -3  -4 600.088 108.380  10
  -1   3   4 453.318 81.1147  17
  -1   3   4 484.236 82.8101  18
   1  -3  -4 462.895 71.8140   2
   1  -3  -4 618.865 128.431   3
   1  -3  -4 499.123 74.0371  21
   1  -3  -4 656.744 126.950  16
  -1   3   4 570.753 100.003  14
  -1   3   3 3507.91 196.822  12
   1  -3  -3 3248.27 212.571  10
   1  -3  -3 3393.96 264.084   3
   1  -3  -3 3372.50 258.336  16
  -1   3   3 2960.47 215.763  15
  -1   3   3 2885.48 205.289  17
  -1   3   3 3505.70 196.788  11
  -1   3   3 3099.41 210.333  13
  -1   3   3 3471.09 207.667   7
  -1   3   3 3129.91 212.509  18
   1  -3  -3 2725.42 113.816   8
  -1   3   3 3299.52 181.787   1
   1  -3  -3 3119.91 194.039  23
  -1   3   3 3062.52 226.064  14
   1  -3  -3 3119.08 190.527  21
  -1   3   2 35800.6 766.020   7
   1  -3  -2 33936.6 812.204  21
  -1   3   2 34769.4 767.010   1
   1  -3  -2 35649.3 829.222  10
  -1   3   2 33310.3 867.668  18
  -1   3   2 34041.6 868.746  13
  -1   3   2 39194.1 807.921  11
   1  -3  -2 34029.7 934.557  16
  -1   3   2 33156.7 905.516  14
  -1   3   2 35002.1 759.424  12
  -1   3   2 33876.4 897.163  15
   1  -3  -2 34761.8 824.333  23
   1  -3  -2 35277.7 935.740   3
  -1   3   2 33410.1 870.842  17
  -1   3   1 4390.59 266.566  18
   1  -3  -1 4498.62 272.850   3
   1  -3  -1 4866.49 247.729  21
  -1   3   1 4360.97 265.130  13
   1  -3  -1 4703.47 233.679  10
  -1   3   1 4265.12 277.892  15
  -1   3   1 4943.70 229.397  11
  -1   3   1 4612.22 185.115  12
  -1   3   1 4586.23 175.776   7
  -1   3   1 4495.58 182.232  20
  -1   3   1 5069.15 308.521  14
   1  -3  -1 4617.21 283.890  16
  -1   3   1 4572.76 273.059  17
   1  -3  -1 4795.35 250.989  23
  -1   3   1 4170.68 210.053   5
   1  -3   0 6860.18 304.495  21
  -1   3   0 6547.34 252.047  20
  -1   3   0 7387.45 290.199   5
  -1   3   0 5577.76 143.916   7
  -1   3   0 6739.96 343.370  17
  -1   3   0 7027.55 346.872  13
   1  -3   0 6849.48 333.609  16
  -1   3   0 6778.64 359.726  15
  -1   3   0 6783.26 344.307  18
  -1   3   0 6444.06 328.592  19
   1  -3   0 6899.46 331.216   3
   1  -3   0 6488.43 275.256  10
   1  -3   1 34984.5 895.687  21
  -1   3  -1 36879.2 698.295   8
   1  -3   1 37136.3 866.408  10
  -1   3  -1 35056.5 956.194  19
  -1   3  -1 36005.2 976.572  18
  -1   3  -1 37553.6 887.816   5
  -1   3  -1 36259.3 976.155  13
  -1   3  -1 35467.0 974.549  17
  -1   3  -1 35512.7 1011.94  15
   1  -3   1 38394.6 972.767   3
   1  -3   1 36241.4 940.390  16
  -1   3  -1 35195.7 845.300  20
  -1   3  -2 17689.2 553.852   5
  -1   3  -2 16318.1 602.897  19
  -1   3  -2 16928.6 630.551  17
  -1   3  -2 16810.3 659.108  15
  -1   3  -2 16577.4 420.886   8
  -1   3  -2 17080.1 627.584  13
   1  -3   2 18337.6 628.013   3
  -1   3  -2 17204.5 544.540  20
  -1   3  -2 16680.1 617.733  18
   1  -3   2 17182.3 596.942  16
   1  -3   2 16661.3 562.743  21
   1  -3   3 9009.12 256.037   6
  -1   3  -3 9379.62 454.987  19
   1  -3   3 9146.92 247.913   7
   1  -3   3 11183.9 503.887   3
  -1   3  -3 9891.46 502.176  15
   1  -3   3 9380.67 597.868   1
  -1   3  -3 10187.9 484.487  17
  -1   3  -3 9572.82 441.713   2
  -1   3  -3 9762.11 417.073   5
  -1   3  -3 9563.64 466.692  13
   1  -3   3 10062.8 463.954  16
  -1   3  -3 10267.4 479.760  18
   1  -3   3 10077.5 430.768  21
  -1   3  -3 10271.4 430.170  20
  -1   3  -3 10128.9 333.875   8
  -1   3  -4 6587.28 361.797  20
  -1   3  -4 6818.44 399.445  19
   1  -3   4 7348.35 428.886   3
  -1   3  -4 7344.74 411.760  18
   1  -3   4 6703.10 363.221  21
  -1   3  -4 7119.62 304.691   8
   1  -3   4 7217.26 417.142  16
  -1   3  -4 6540.67 427.045  15
  -1   3  -4 6542.73 403.283  17
  -1   3  -4 6296.88 391.976  13
   1  -3   4 6543.71 237.435   7
   1  -3   4 5943.50 492.703   1
  -1   3  -4 6685.66 354.830   5
  -1   3  -5 126.933 77.5312  17
  -1   3  -5 149.095 77.9346  23
  -1   3  -5 170.049 76.5761  19
  -1   3  -5 56.3424 43.2630   5
   1  -3   5 73.9363 48.9829  16
   1  -3   5 118.250 42.4031   7
  -1   3  -5 128.026 62.8475  20
   1  -3   5 143.201 96.2441   1
  -1   3  -5 20.0999 39.6013   8
  -1   3  -5 144.159 62.1893  18
  -1   3  -5 136.036 66.2030  13
   1  -3   5 108.477 54.2412  14
   1  -3   5 65.5659 47.7967   4
  -1   3  -6 49.9985 57.6040  23
   1  -3   6 0.78392 28.9609  14
   1  -3   6 8.74227 26.7250   7
  -1   3  -6 52.9931 51.9567   5
  -1   3  -6 8.16524 48.9642  20
  -1   3  -6 32.7225 40.3237  19
  -1   3  -6-19.1983 52.8412   8
   1  -3   6 13.3867 58.1420  16
  -1   3  -6-0.48938 37.9369  13
  -1   3  -6-7.72988 49.0817  18
   1  -3   6 41.6530 64.7996   4
   1  -3   6-3.62443 64.9329   1
  -1   3  -6 4.18973 46.9431  17
   1  -3   7 3461.79 297.180   4
  -1   3  -7 2878.40 293.155  13
  -1   3  -7 3006.09 290.401  23
  -1   3  -7 2743.51 290.357  17
   1  -3   7 2291.50 347.625   1
   1  -3   7 2579.82 303.248  16
  -1   3  -7 2776.40 278.573  19
  -1   3  -7 2019.24 239.681  20
  -1   3  -7 2978.59 291.197  18
   1  -3   7 3172.32 248.943  14
  -1   3  -7 2587.17 234.954   8
   1  -3   7 2452.90 206.737   7
  -1   3  -7 2900.03 272.882   5
  -1   3  -8 4349.01 362.376  18
  -1   3  -8 4098.04 363.801  13
   1  -3   8 3160.90 251.526   7
  -1   3  -8 3608.62 328.341  23
  -1   3  -8 3775.52 329.655   5
  -1   3  -8 3457.17 330.165  20
  -1   3  -8 3770.83 308.207   8
   1  -3   8 4059.47 486.237   1
   1  -3   8 3873.65 291.300  14
  -1   3  -8 3478.39 339.454  17
  -1   3  -8 3946.40 344.840  19
   1  -3   8 4478.81 365.704   4
  -1   3  -9 36.3968 62.6049   8
   1  -3   9 106.285 111.037   1
   1  -3   9 43.3067 53.0139   7
  -1   3  -9-3.08556 65.3878  20
   1  -3   9 147.278 92.9650   4
  -1   3  -9 68.5799 68.7902   5
   1  -3  10 412.982 110.657   7
   1  -3  10 454.303 212.216   1
  -1   3 -10 729.434 176.662  20
  -1   3 -10 602.610 146.250   8
   1  -3  10 652.634 160.126   4
  -1   3 -10 602.513 145.920   5
  -1   3 -11 1110.89 214.589   8
   1  -3  11 1206.20 225.782   4
  -1   3 -11 880.732 194.160  20
   1  -2 -10 6684.98 507.779  10
  -1   2  10 5853.59 441.426  11
   1  -2  -9 7406.97 491.737  10
  -1   2   9 6689.97 437.860   4
  -1   2   9 5931.62 437.444   7
  -1   2   9 6716.08 441.274  11
   1  -2  -8 196.221 65.6189   8
  -1   2   8 252.557 84.3360  11
  -1   2   8 224.536 93.5327   7
  -1   2   8 231.224 86.4775   4
   1  -2  -8 271.168 90.0308  10
  -1   2   7 216.744 71.2252  11
   1  -2  -7 389.363 100.053  10
  -1   2   7 325.052 87.7098   4
  -1   2   7 414.470 103.745   7
   1  -2  -7 321.473 72.4373   8
  -1   2   6 607.506 85.4686   1
   1  -2  -6 623.869 80.6964   5
  -1   2   6 628.670 102.023  12
   1  -2  -6 552.541 86.0729   8
   1  -2  -6 827.143 128.664  10
  -1   2   6 745.744 117.445   4
  -1   2   6 639.088 116.785   7
  -1   2   6 657.811 108.160  11
   1  -2  -5 5655.00 221.170  23
  -1   2   5 5675.46 234.839  18
   1  -2  -5 6098.52 255.783   8
  -1   2   5 6255.01 333.485   7
  -1   2   5 5964.02 310.041   4
   1  -2  -5 5757.89 220.090  21
  -1   2   5 5085.24 236.866  14
  -1   2   5 5882.53 242.841   1
  -1   2   5 6131.24 302.036  11
   1  -2  -5 6437.92 331.753  10
  -1   2   5 5200.64 224.170  13
  -1   2   5 5094.23 223.502  17
   1  -2  -5 6020.22 226.201  22
  -1   2   5 5128.72 232.886  15
  -1   2   5 5963.13 304.980  12
  -1   2   4 11223.1 390.929  12
  -1   2   4 9954.94 311.574   1
  -1   2   4 9824.21 324.600  13
   1  -2  -4 11195.6 414.858  10
   1  -2  -4 11200.0 322.649   8
  -1   2   4 10318.0 395.252   4
   1  -2  -4 10494.7 316.181  22
   1  -2  -4 10575.2 317.394  23
  -1   2   4 10792.2 414.504   7
  -1   2   4 9919.62 327.083  17
  -1   2   4 9877.87 338.089  15
  -1   2   4 10874.5 377.189  11
   1  -2  -4 11079.5 319.059  21
  -1   2   4 9976.00 327.819  18
  -1   2   4 9947.26 345.957  14
   1  -2  -3 19542.2 629.737   3
   1  -2  -3 20116.1 436.678   8
  -1   2   3 17360.3 569.465   9
   1  -2  -3 19533.6 484.849  21
  -1   2   3 19981.7 558.532   7
  -1   2   3 18976.4 509.193  17
  -1   2   3 21124.3 538.251  12
   1  -2  -3 19070.3 485.399  23
  -1   2   3 21536.7 531.381  11
  -1   2   3 18428.4 518.936  15
  -1   2   3 18620.2 504.078  13
  -1   2   3 19299.2 467.250   1
   1  -2  -3 20763.3 565.051  10
  -1   2   3 18762.0 505.164  18
  -1   2   3 18162.7 524.038  14
  -1   2   2 5668.89 253.267  15
  -1   2   2 5675.16 223.600  12
  -1   2   2 5671.22 245.139  17
   1  -2  -2 5547.01 152.146   8
   1  -2  -2 5427.72 280.852  16
   1  -2  -2 5923.92 295.789   3
  -1   2   2 5604.57 259.676  14
  -1   2   2 5933.26 247.811  18
  -1   2   2 5304.37 247.712   9
   1  -2  -2 5495.54 219.086  21
   1  -2  -2 5932.51 243.940  10
  -1   2   2 5841.24 226.827  11
  -1   2   2 5652.95 242.310  13
   1  -2  -2 5682.21 225.060  23
  -1   2   2 5505.95 203.088   1
  -1   2   2 5606.91 229.312   7
  -1   2   1 58227.8 1119.66   7
  -1   2   1 62422.7 1291.10  14
  -1   2   1 65263.8 1184.05  11
  -1   2   1 60638.0 1245.65  18
   1  -2  -1 60403.8 1290.98  16
  -1   2   1 61923.0 1080.72  20
  -1   2   1 61828.1 1277.48  15
  -1   2   1 60353.0 1127.79  12
   1  -2  -1 60636.4 1201.89  23
   1  -2  -1 61782.2 1188.54  10
  -1   2   1 60638.5 1246.53  17
  -1   2   1 59559.3 1182.65   9
   1  -2  -1 62748.2 1291.73   3
   1  -2  -1 61791.2 1198.96  21
  -1   2   1 61048.5 1242.46  13
  -1   2   0 61541.7 1211.53   2
   1  -2   0 63292.2 1188.28  21
  -1   2   0 64853.3 1259.41  17
   1  -2   0 64142.3 1147.80  10
  -1   2   0 59637.0 1001.91   7
   1  -2   0 62927.4 1248.50  16
  -1   2   0 64022.1 1252.33  13
  -1   2   0 64509.2 1171.21   5
  -1   2   0 62594.0 1239.47  19
  -1   2   0 64437.1 1112.65  20
  -1   2   0 65777.6 1084.51   9
  -1   2   0 65810.0 1293.02  15
  -1   2   0 64373.1 1256.84  18
   1  -2   0 64115.6 1243.46   3
   1  -2   1 18742.5 541.495   3
  -1   2  -1 17902.7 370.647   8
  -1   2  -1 15760.7 326.240   9
  -1   2  -1 17305.6 537.837  13
  -1   2  -1 16802.2 523.503  19
  -1   2  -1 17005.4 536.639  17
  -1   2  -1 17300.6 564.843  15
   1  -2   1 17184.2 523.404  16
  -1   2  -1 15794.0 496.854   2
  -1   2  -1 16992.5 457.450  20
   1  -2   1 15395.5 639.038   1
  -1   2  -1 18668.1 487.230   5
   1  -2   1 17987.6 463.887  10
  -1   2  -1 16610.9 528.889  18
   1  -2   1 16864.4 488.781  21
   1  -2   2 10173.5 375.799  21
  -1   2  -2 10575.4 368.209  20
  -1   2  -2 10189.2 414.999  13
  -1   2  -2 10831.5 445.916  15
  -1   2  -2 10150.9 404.555  19
  -1   2  -2 10134.7 407.953  18
   1  -2   2 10550.0 411.002  16
  -1   2  -2 10340.0 420.784  17
   1  -2   2 11519.3 434.745   3
  -1   2  -2 10659.1 293.854   8
  -1   2  -2 9859.74 383.097   2
  -1   2  -2 10551.9 366.245   5
   1  -2   2 8989.24 486.407   1
   1  -2   2 9931.98 228.494   7
   1  -2   3 88534.7 1561.12   7
  -1   2  -3 93176.0 1829.66  19
  -1   2  -3 93069.4 1863.87  17
   1  -2   3 91003.4 2052.37   1
  -1   2  -3 92135.9 1853.21  13
  -1   2  -3 93866.0 1749.48   5
   1  -2   3 85364.7 1468.47  12
   1  -2   3 101269. 1904.18  16
  -1   2  -3 94386.1 1847.13  18
  -1   2  -3 89111.7 1894.74  15
   1  -2   3 96010.5 1778.48  21
  -1   2  -3 95164.8 1639.89   8
  -1   2  -3 94292.7 1780.61  20
   1  -2   3 98251.1 1902.02   3
  -1   2  -3 89368.1 1776.72   2
  -1   2  -4 33889.3 893.823   2
   1  -2   4 36856.7 1003.58  16
   1  -2   4 33970.5 879.107   4
   1  -2   4 34209.3 831.359  14
   1  -2   4 34570.0 1104.75   1
   1  -2   4 33131.3 744.471   7
  -1   2  -4 33141.2 928.290  23
  -1   2  -4 34114.4 930.945  19
  -1   2  -4 33709.4 937.307  18
  -1   2  -4 34281.2 953.669  17
   1  -2   4 30937.8 643.100  12
  -1   2  -4 34239.5 799.569   8
  -1   2  -4 35440.6 909.699  20
  -1   2  -4 35058.0 871.258   5
  -1   2  -4 33457.9 944.671  13
   1  -2   5 8328.35 329.194   7
  -1   2  -5 8244.14 423.317  18
   1  -2   5 8879.03 404.254   4
  -1   2  -5 9175.77 437.747  23
   1  -2   5 8773.70 530.905   1
  -1   2  -5 9361.16 371.591   8
  -1   2  -5 8202.75 382.231   5
  -1   2  -5 8829.08 444.959  17
   1  -2   5 7655.69 254.431  12
   1  -2   5 8930.56 365.722  14
  -1   2  -5 8793.78 415.862  20
   1  -2   5 9097.40 485.683  16
  -1   2  -5 8327.85 417.362  19
  -1   2  -5 8534.93 436.183  13
  -1   2  -5 8764.82 405.542   2
  -1   2  -6 7186.60 355.647   8
  -1   2  -6 7305.67 410.607  18
  -1   2  -6 7146.38 416.661  17
  -1   2  -6 6981.65 372.981   5
   1  -2   6 6711.92 489.384   1
  -1   2  -6 7232.64 414.591  13
   1  -2   6 6570.63 464.360  16
  -1   2  -6 7384.41 406.019  19
   1  -2   6 7906.54 356.265  14
  -1   2  -6 7294.02 398.653  20
   1  -2   6 6795.73 325.583   7
  -1   2  -6 7860.34 398.312   2
  -1   2  -6 7337.78 404.611  23
   1  -2   6 6394.48 256.584  12
   1  -2   6 7621.70 392.360   4
   1  -2   7 89.2597 42.9987   7
  -1   2  -7 28.7170 38.4525  19
  -1   2  -7 96.8453 70.1733  13
   1  -2   7 56.2346 68.8139   1
   1  -2   7 156.655 59.8235  14
  -1   2  -7 6.93261 50.0163   5
  -1   2  -7 76.6589 52.4159  18
  -1   2  -7-53.8292 48.0012  17
   1  -2   7 123.855 57.8564   4
  -1   2  -7 30.1756 52.0089   8
   1  -2   7 138.927 48.8680  12
  -1   2  -7 82.3830 60.5480  23
  -1   2  -7 208.265 82.5471  20
   1  -2   8 4120.83 295.383   7
  -1   2  -8 4710.79 341.659  23
  -1   2  -8 4268.88 317.773   8
  -1   2  -8 4452.19 350.283  17
   1  -2   8 5310.46 321.982  15
   1  -2   8 5491.27 382.092   4
  -1   2  -8 4839.97 353.040  18
   1  -2   8 4755.12 300.696  14
  -1   2  -8 4213.06 340.127  20
   1  -2   8 4726.82 474.499   1
  -1   2  -8 4947.88 352.887  19
  -1   2  -8 4393.30 330.570  21
  -1   2  -8 4620.87 338.882   5
  -1   2  -9 55.4094 63.8293   5
  -1   2  -9-54.1009 47.9961  20
   1  -2   9-69.0689 95.5905   1
  -1   2  -9 28.6743 51.7501   8
   1  -2   9 55.8743 63.7008   4
   1  -2   9-32.2494 50.6286   7
   1  -2  10 1376.30 200.704   7
   1  -2  10 1886.45 252.970   4
  -1   2 -10 1420.53 219.953  20
   1  -2  10 1323.40 291.016   1
  -1   2 -10 1353.12 212.613   8
  -1   2 -11 715.819 165.465   8
   1  -2  11 594.397 139.601   7
   1  -2  11 1066.02 210.795   4
   1  -1 -10 110.561 77.3931   8
  -1   1  10 64.9364 61.7398   4
   1  -1 -10 112.806 79.6824  10
  -1   1  10 47.2713 56.4160   7
   1  -1  -9 276.464 104.660  10
  -1   1   9 204.870 87.7783   7
  -1   1   9 310.252 94.1499   4
   1  -1  -9 134.869 68.8524   8
  -1   1   8 22831.3 805.438  11
   1  -1  -8 24418.2 871.338  10
  -1   1   8 23332.6 810.991   4
  -1   1   7 1236.06 165.791   4
  -1   1   7 1310.14 176.640   7
  -1   1   7 1249.08 163.913  11
   1  -1  -7 1192.62 142.835   8
   1  -1  -6 13063.1 438.527   5
  -1   1   6 14237.7 537.385   4
   1  -1  -6 13260.0 468.083   8
  -1   1   6 13600.8 515.979  11
  -1   1   6 12959.5 463.666   1
  -1   1   6 14249.5 564.514   7
   1  -1  -5 2996.70 144.481  20
  -1   1   5 3247.62 149.435  14
  -1   1   5 3304.88 146.851  15
   1  -1  -5 3964.31 148.283  22
   1  -1  -5 3805.50 143.437  19
  -1   1   5 3935.83 257.717   7
  -1   1   5 4155.98 239.534  11
   1  -1  -5 4017.05 211.679   8
  -1   1   5 3203.38 141.813  17
   1  -1  -5 3832.57 144.595  21
   1  -1  -5 3735.22 192.560   5
  -1   1   5 3594.69 222.507  12
  -1   1   5 4197.87 253.625   4
  -1   1   5 3220.39 140.166  13
  -1   1   5 4052.33 201.118   1
   1  -1  -5 3733.41 143.924  23
  -1   1   4 481.423 76.4539  12
   1  -1  -4 304.768 36.7782  23
  -1   1   4 353.014 69.7067   7
   1  -1  -4 255.415 32.9651  20
   1  -1  -4 339.314 38.7134  22
  -1   1   4 372.038 73.9832   4
  -1   1   4 218.928 64.3622   9
  -1   1   4 316.251 41.4943  14
   1  -1  -4 343.418 56.5071   8
  -1   1   4 278.871 56.8760  11
   1  -1  -4 348.292 38.0803  19
  -1   1   4 336.953 40.0990  13
  -1   1   4 271.496 37.0713  17
   1  -1  -4 350.204 39.0978  21
  -1   1   4 369.789 49.2049   1
  -1   1   4 279.496 39.0055  15
  -1   1   3 9174.45 243.457   1
   1  -1  -3 9733.68 233.969  22
   1  -1  -3 9742.66 327.159  10
  -1   1   3 8841.33 238.034  13
  -1   1   3 9676.26 319.468  12
   1  -1  -3 9318.20 230.521  21
   1  -1  -3 9483.79 273.463   8
   1  -1  -3 9520.46 234.237  23
  -1   1   3 9100.69 242.692  17
  -1   1   3 9306.44 329.184   4
  -1   1   3 8809.49 349.294   9
  -1   1   3 9022.87 246.007  15
  -1   1   3 9756.99 246.366  18
  -1   1   3 9969.47 347.489   7
  -1   1   3 10037.0 313.612  11
  -1   1   3 8974.08 250.902  14
   1  -1  -2 72605.7 1245.74  21
  -1   1   2 72056.4 1266.42  18
  -1   1   2 71884.5 1321.84  12
  -1   1   2 71625.9 1358.98   4
  -1   1   2 71185.7 1242.48   1
   1  -1  -2 72152.9 1248.13  23
   1  -1  -2 69331.4 1323.37  10
  -1   1   2 71737.1 1308.74  11
  -1   1   2 70380.1 1277.90  15
  -1   1   2 70643.0 1265.94  17
  -1   1   2 70346.5 1284.45  14
  -1   1   2 71244.6 1348.33   7
  -1   1   2 70073.6 1263.63  13
  -1   1   2 72181.1 1388.29   9
  -1   1   1 920688. 14972.9  15
   1  -1  -1 916057. 14922.7  21
  -1   1   1 946135. 14943.9  11
  -1   1   1 916218. 14957.9  17
  -1   1   1 916282. 14953.6  18
  -1   1   1 999999. 14996.1   9
   1  -1  -1 969588. 14945.8  10
   1  -1  -1 960122. 15052.3   3
   1  -1  -1 911810. 15033.5  16
  -1   1   1 912755. 14954.5  13
  -1   1   1 882261. 14937.4   2
  -1   1   1 899785. 14936.4   7
  -1   1   0 78793.1 1395.95  11
  -1   1   0 76980.6 1429.52   2
  -1   1   0 81173.7 1444.94  19
   1  -1   0 78952.8 1412.90  21
  -1   1   0 80996.1 1458.82  17
   1  -1   0 78346.2 1372.98  10
  -1   1   0 73163.6 1318.85   7
  -1   1   0 81032.0 1364.27   9
   1  -1   0 78780.1 1460.34   3
  -1   1   0 92925.3 1434.27   5
   1  -1   0 78138.3 1469.25  16
  -1   1   0 86859.6 1370.57  20
  -1   1   0 83307.5 1460.69  13
  -1   1   0 83349.0 1482.08  15
  -1   1   0 72991.4 1304.39   8
  -1   1   0 81985.2 1454.82  18
  -1   1  -1 39276.1 837.889  17
  -1   1  -1 37786.9 815.843  19
  -1   1  -1 36237.0 661.246   9
   1  -1   1 37451.5 920.157   1
  -1   1  -1 39312.3 856.515  15
  -1   1  -1 39393.5 779.251   5
  -1   1  -1 38781.7 832.855  13
  -1   1  -1 40249.8 703.690   8
   1  -1   1 37116.6 783.428  21
  -1   1  -1 38273.2 826.453  18
  -1   1  -1 35794.4 788.185   2
  -1   1  -1 39522.5 767.552  20
   1  -1   1 39041.3 842.258  16
   1  -1   1 38351.0 826.875   3
  -1   1  -2 8051.75 307.572  18
   1  -1   2 8302.99 328.311   3
   1  -1   2 7757.27 259.104  14
  -1   1  -2 7961.12 302.370  19
  -1   1  -2 8113.45 281.409  20
  -1   1  -2 8117.77 316.911  17
  -1   1  -2 8005.18 273.102   5
   1  -1   2 8626.09 337.851  16
   1  -1   2 7890.67 213.839   6
   1  -1   2 7718.88 223.765   7
  -1   1  -2 7800.99 283.893   2
  -1   1  -2 8027.74 305.726  23
  -1   1  -2 7654.33 235.713   8
  -1   1  -2 7956.12 310.943  13
   1  -1   2 8473.48 367.984   1
  -1   1  -3 12749.8 421.766  19
   1  -1   3 12195.3 478.725   1
  -1   1  -3 11850.7 385.939   2
   1  -1   3 13283.2 474.631  16
   1  -1   3 10316.2 263.559   6
   1  -1   3 11871.1 342.889   7
  -1   1  -3 13040.1 443.699  17
  -1   1  -3 12597.8 400.160  20
  -1   1  -3 12310.1 420.780  23
  -1   1  -3 12491.5 352.641   8
  -1   1  -3 12816.4 437.557  13
   1  -1   3 12347.6 363.227  14
   1  -1   3 11452.4 280.723  12
  -1   1  -3 11683.3 369.195   5
  -1   1  -3 12903.0 428.668  18
  -1   1  -4 10733.1 413.623  18
  -1   1  -4 10592.8 382.406   2
   1  -1   4 10029.0 352.190   7
  -1   1  -4 10221.3 366.766   5
   1  -1   4 10011.9 285.450  12
  -1   1  -4 10479.4 395.317  20
   1  -1   4 10512.6 470.878  16
  -1   1  -4 10868.5 411.532  19
   1  -1   4 10692.3 474.255   1
   1  -1   4 10790.9 358.320  14
  -1   1  -4 10376.2 354.441   8
  -1   1  -4 11167.0 432.994  17
  -1   1  -4 11236.2 431.016  13
   1  -1   4 10393.1 379.448   4
  -1   1  -4 10587.0 412.643  23
  -1   1  -5 5.42649 33.5473  20
   1  -1   5 3.90252 30.0769   7
  -1   1  -5 55.5918 33.2979   5
   1  -1   5 70.1580 39.2236  14
  -1   1  -5 18.3909 26.8206  13
  -1   1  -5 24.0055 25.9323   2
  -1   1  -5 68.3631 44.9130  19
   1  -1   5 41.8397 23.0365  12
   1  -1   5 43.0729 51.5885   1
   1  -1   5-1.84156 27.2021   4
  -1   1  -5 5.00851 26.5749  17
  -1   1  -5 27.1176 29.2819  18
  -1   1  -5-2.16651 34.0548   8
  -1   1  -5 2.41219 29.0183  23
   1  -1   5-8.43161 40.3478  16
   1  -1   6 15728.3 493.890  14
  -1   1  -6 15126.2 545.594  23
   1  -1   6 13682.1 427.967  12
   1  -1   6 15071.6 670.382   1
  -1   1  -6 14240.4 540.792  19
  -1   1  -6 14489.6 519.628   8
  -1   1  -6 14435.9 562.460  17
   1  -1   6 14422.1 536.641   4
  -1   1  -6 14688.6 517.581   2
  -1   1  -6 13851.3 501.633   5
   1  -1   6 14696.9 521.641   7
  -1   1  -6 14754.3 552.965  18
  -1   1  -6 13389.8 532.605  20
   1  -1   7 2498.49 175.429  12
  -1   1  -7 2997.46 226.818   2
  -1   1  -7 3062.27 240.667  21
   1  -1   7 2451.96 281.181   1
  -1   1  -7 2549.04 222.496  18
   1  -1   7 2980.15 213.680  15
  -1   1  -7 2895.03 234.675  23
  -1   1  -7 2741.10 238.076  17
  -1   1  -7 2768.19 242.071  20
   1  -1   7 2946.79 243.562   4
   1  -1   7 2597.24 220.466   7
  -1   1  -7 2604.61 215.567   5
  -1   1  -7 2925.54 231.771   8
   1  -1   7 2969.62 208.746  14
  -1   1  -7 2843.31 232.225  19
   1  -1   8 3183.70 350.472   1
  -1   1  -8 3261.72 258.658  19
   1  -1   8 3425.77 237.845  14
  -1   1  -8 3216.76 268.465   8
   1  -1   8 3496.10 285.282   4
  -1   1  -8 3431.65 265.429  21
  -1   1  -8 3435.99 268.289  18
  -1   1  -8 3354.54 269.643  17
   1  -1   8 3553.60 247.314  15
  -1   1  -8 3064.55 251.776  23
   1  -1   8 3118.68 215.797  12
  -1   1  -8 2858.80 242.442   5
   1  -1   8 3300.24 269.711   7
  -1   1  -8 2780.45 258.309  20
   1  -1   9 129.761 71.5818   7
  -1   1  -9-13.5442 43.5452  20
   1  -1   9-36.4131 83.7360   1
   1  -1   9-21.9601 48.7279   4
  -1   1  -9-7.62352 59.7779   8
   1  -1   9-6.16013 43.0500  12
  -1   1 -10-44.8319 50.4759  20
  -1   1 -10 56.4321 85.0892   8
   1  -1  10-106.336 75.7073   4
   1  -1  10 68.0011 43.6181   7
  -1   1 -11 329.301 123.799   8
   1  -1  11 221.679 88.7294   7
  -1   0  11 216.743 94.9120   7
   1   0 -11 47.5820 63.1185   8
  -1   0  10 1052.14 193.351   7
  -1   0  10 1482.17 226.732   4
   1   0  -9 2003.49 229.968   8
  -1   0   9 2699.53 280.296   4
  -1   0   9 2260.24 263.102   7
  -1   0   8 2675.39 265.655   4
  -1   0   8 2751.62 270.005   7
   1   0  -8 2259.55 220.894   8
  -1   0   7 324.215 102.131   7
  -1   0   7 259.298 82.2068   4
   1   0  -7 378.166 90.9982   8
  -1   0   7 300.659 82.9093  11
   1   0  -7 274.976 72.4107   5
  -1   0   6 6882.67 361.935   4
  -1   0   6 6909.97 353.724  11
   1   0  -6 6165.57 289.084  20
   1   0  -6 6562.07 309.948   5
   1   0  -6 6754.51 326.541   8
  -1   0   6 6841.01 351.739   1
  -1   0   6 7374.43 381.910   7
   1   0  -5 31955.9 741.770  20
  -1   0   5 29884.0 618.613  15
  -1   0   5 27532.6 601.238  13
  -1   0   5 35660.6 838.879   1
   1   0  -5 30684.6 620.410  22
   1   0  -5 28851.9 616.475  21
   1   0  -5 30044.0 614.297  23
  -1   0   5 29464.1 848.782   9
   1   0  -5 29899.1 611.285  19
  -1   0   5 37765.2 868.588  11
   1   0  -5 28766.5 609.149  18
  -1   0   5 31099.7 617.988  14
   1   0  -5 37049.2 813.497   8
   1   0  -5 37263.0 793.693   5
  -1   0   5 38275.9 910.879   7
  -1   0   5 36482.6 882.851   4
  -1   0   4 152.433 23.5124  14
   1   0  -4 153.164 23.3756  22
  -1   0   4 157.379 47.7895   7
   1   0  -4 162.796 24.0338  23
  -1   0   4 193.704 54.9968   9
   1   0  -4 157.306 23.1754  19
   1   0  -4 194.032 42.8818   5
   1   0  -4 129.031 22.4044  21
  -1   0   4 217.714 47.0923   1
  -1   0   4 130.936 20.5249  13
  -1   0   4 145.467 22.9758  15
   1   0  -4 177.533 45.9869   8
   1   0  -4 144.320 22.5400  18
  -1   0   4 138.845 42.3925  11
   1   0  -4 221.335 43.3644  20
  -1   0   4 147.780 50.2836   4
  -1   0   3 20800.6 405.574   1
  -1   0   3 19781.9 503.814   9
   1   0  -3 18503.4 400.667  20
  -1   0   3 19389.8 498.607   7
  -1   0   3 20573.8 462.977  11
  -1   0   3 20305.1 493.424   4
   1   0  -3 18876.1 425.754   8
  -1   0   2 26745.0 495.689   1
  -1   0   2 25151.9 563.219  11
  -1   0   2 26489.1 601.063   7
   1   0  -2 25145.9 526.913  20
  -1   0   2 26841.2 603.406   4
  -1   0   1 67463.5 1190.51   4
  -1   0   1 63758.6 1140.43  11
  -1   0   1 63616.3 1087.49   2
  -1   0   1 63623.2 1165.40   7
   1   0  -1 66016.2 1151.86  16
  -1   0   0 18960.6 357.518  11
   1   0   0 18434.0 354.783  14
   1   0   0 17838.6 381.943   3
  -1   0   0 19078.1 382.599  13
  -1   0   0 20452.0 369.425   2
  -1   0   0 19571.8 392.593   4
  -1   0   0 18171.9 379.822  18
  -1   0   0 18756.3 383.473  17
   1   0   0 18730.3 411.834  16
  -1   0   0 18384.7 379.064  23
  -1   0   0 18446.3 378.264  19
  -1   0   0 19110.7 375.330   9
   1   0   1 166008. 2884.86   3
   1   0   1 168254. 2841.71  14
   1   0   1 182762. 2873.05   6
  -1   0  -1 189698. 2871.38  20
   1   0   1 167782. 2883.43   1
  -1   0  -1 176829. 2883.86  19
  -1   0  -1 176844. 2884.00  23
  -1   0  -1 186671. 2848.71   8
   1   0   1 172003. 2946.67  16
  -1   0  -1 176742. 2844.72   2
  -1   0  -1 177692. 2889.12  18
  -1   0  -1 174391. 2892.59  13
  -1   0  -1 190807. 2854.08   5
  -1   0  -1 176979. 2897.00  17
   1   0   2 111814. 2051.62   1
   1   0   2 108791. 2036.13   7
  -1   0  -2 118568. 2063.01  13
   1   0   2 115412. 2150.04  16
  -1   0  -2 118198. 2062.31  17
  -1   0  -2 119358. 1987.83   2
  -1   0  -2 123457. 2031.34  20
  -1   0  -2 117990. 2050.85  18
  -1   0  -2 117032. 1983.81   5
   1   0   2 110260. 1979.29   6
  -1   0  -2 117890. 2045.51  23
  -1   0  -2 116986. 1995.37   8
   1   0   2 113361. 1991.89  14
  -1   0  -2 119323. 2045.41  19
  -1   0  -3 63458.5 1214.57  19
   1   0   3 60592.5 1127.70  12
  -1   0  -3 63008.4 1219.84  18
  -1   0  -3 62941.5 1150.91   2
   1   0   3 61563.1 1335.66  16
   1   0   3 61736.3 1243.79   1
  -1   0  -3 61830.7 1176.64   8
  -1   0  -3 65465.2 1212.00  20
   1   0   3 61129.6 1232.62   7
   1   0   3 63309.9 1159.24  14
  -1   0  -3 61291.9 1224.48  17
  -1   0  -3 60241.0 1148.66   5
   1   0   3 59142.6 1154.96   4
  -1   0  -3 65659.1 1218.52  23
   1   0   3 58972.4 1138.69   6
  -1   0  -4 1440.04 124.540  23
   1   0   4 1385.62 107.265  14
  -1   0  -4 1368.51 113.911   8
  -1   0  -4 1405.73 124.873  21
   1   0   4 1263.61 135.301   1
  -1   0  -4 1354.35 121.766  19
  -1   0  -4 1441.84 105.954   2
  -1   0  -4 1387.32 125.419  18
   1   0   4 1277.50 105.534  15
   1   0   4 1292.58 108.612   4
  -1   0  -4 1367.64 105.254   5
   1   0   4 1333.91 97.1730  12
  -1   0  -4 1279.03 114.540  20
  -1   0  -4 1316.05 124.529  17
   1   0   4 1424.60 129.137   7
   1   0   5 6623.92 293.507   4
  -1   0  -5 7405.12 316.706  18
  -1   0  -5 6904.85 303.703  21
  -1   0  -5 7329.82 313.426  19
   1   0   5 6874.88 271.179  14
  -1   0  -5 7015.15 303.496   8
  -1   0  -5 6977.68 304.971  23
  -1   0  -5 6618.27 269.867   5
   1   0   5 7318.94 358.431   1
  -1   0  -5 7401.76 282.904   2
  -1   0  -5 6575.41 302.917  20
   1   0   5 6667.19 262.791  12
   1   0   5 7224.78 284.888  15
  -1   0  -5 7354.94 319.709  17
   1   0   5 6721.07 321.726   7
   1   0   6 190.173 51.1380  15
   1   0   6 236.827 57.1374  14
   1   0   6 154.046 60.7060   1
  -1   0  -6 167.072 43.9172   2
  -1   0  -6 167.152 47.9042   5
  -1   0  -6 191.904 58.6021  21
   1   0   6 275.259 58.3195  12
  -1   0  -6 209.729 59.0229  23
   1   0   6 171.024 59.8195   4
  -1   0  -6 197.076 59.6975  17
  -1   0  -6 128.379 57.4480  20
  -1   0  -6 255.805 64.5109  18
   1   0   6 157.822 62.2678   7
  -1   0  -6 163.475 53.0421  19
  -1   0  -6 115.897 54.1566   8
   1   0   7 18291.3 725.965   1
   1   0   7 16916.8 540.264  12
   1   0   7 17372.0 607.678   4
  -1   0  -7 17228.5 586.058  23
   1   0   7 17407.1 643.101   7
  -1   0  -7 17933.4 615.980   8
  -1   0  -7 17136.2 579.134  21
  -1   0  -7 18183.4 551.924   2
  -1   0  -7 18084.0 605.626  18
  -1   0  -7 18001.4 598.982  19
   1   0   7 18338.9 560.757  15
  -1   0  -7 17694.3 607.467  17
   1   0   7 17970.3 550.772  14
  -1   0  -7 15886.3 539.695   5
  -1   0  -7 15501.0 584.786  20
   1   0   8 12114.6 558.592   7
  -1   0  -8 13088.4 509.297  19
  -1   0  -8 11384.3 471.882   5
   1   0   8 14588.1 509.957  15
  -1   0  -8 13473.5 514.960  23
   1   0   8 14222.3 693.894   1
  -1   0  -8 12966.6 550.092   8
   1   0   8 13467.2 560.096   4
  -1   0  -8 12800.6 523.590  17
   1   0   8 13256.1 490.936  12
   1   0   8 13321.1 490.051  14
  -1   0  -8 11550.4 519.307  20
  -1   0  -8 13790.5 533.983  21
  -1   0  -8 12832.2 517.589  18
   1   0   9 5313.10 451.045   1
   1   0   9 5300.30 315.151  12
   1   0   9 5316.69 358.306   4
  -1   0  -9 4374.26 335.152   8
  -1   0  -9 4349.44 323.119  20
   1   0   9 5315.50 377.559   7
   1   0  10 64.7706 55.4033   7
   1   0  10-2.67569 46.0364   4
  -1   0 -10-28.0202 70.8571   8
   1   0  10 73.9768 36.4457  12
  -1   0 -11 1674.72 244.429   8
   1   0  11 1609.47 243.147   7
  -1  -1  10 362.637 119.760   4
   1   1 -10 402.610 120.473   8
  -1  -1  10 258.745 95.2710   7
  -1  -1   9 2602.77 273.858   7
  -1  -1   9 2835.36 294.952   4
   1   1  -9 1919.82 227.367   8
   1   1  -8 1959.04 209.586   8
   1   1  -8 1826.21 193.691   5
  -1  -1   8 2488.59 248.745   7
  -1  -1   8 1995.12 235.653   4
   1   1  -7 17.0434 30.6615   5
  -1  -1   7 136.277 70.6852   1
  -1  -1   7 43.3854 55.0654   4
  -1  -1   7 108.272 54.1438   7
   1   1  -7 30.8763 40.4805  20
   1   1  -7 93.6896 57.5840   8
  -1  -1   6 11438.8 500.458   4
  -1  -1   6 10908.9 520.722   1
   1   1  -6 10663.0 431.591   5
  -1  -1   6 10757.7 467.926   7
   1   1  -6 10712.3 433.881   8
  -1  -1   5 18.6468 17.1050  14
   1   1  -5 21.6346 16.7210  19
  -1  -1   5 20.3560 37.7691   7
   1   1  -5 46.6819 39.9270   5
  -1  -1   5-6.72846 35.8985   1
   1   1  -5 27.4566 19.0897  23
   1   1  -5 17.1234 17.9355  21
   1   1  -5 24.5012 26.8013  20
  -1  -1   5-27.4174 24.7413   9
  -1  -1   5 20.0455 14.0742   2
  -1  -1   5 23.5546 18.3874  15
   1   1  -5-1.69585 38.4228   8
   1   1  -5 16.5249 16.4783  18
  -1  -1   5 122.874 66.6648   4
   1   1  -5 7.12451 16.4500  17
   1   1  -4 32531.1 702.873  18
  -1  -1   4 36655.8 885.251   1
   1   1  -4 31960.5 707.793  13
   1   1  -4 32910.5 698.773  19
   1   1  -4 32121.5 695.332  23
   1   1  -4 31386.3 706.499  17
   1   1  -4 35903.0 804.946   5
  -1  -1   4 32510.1 654.860  14
  -1  -1   4 35539.7 871.273   4
  -1  -1   4 37847.0 852.794   7
   1   1  -4 34961.0 787.409   8
   1   1  -4 33202.4 798.281  20
  -1  -1   4 30915.7 806.828   9
  -1  -1   3 10582.0 254.995  14
   1   1  -3 10005.6 282.136  19
   1   1  -3 9906.11 284.836  18
   1   1  -3 10460.7 339.671   5
  -1  -1   3 11670.8 390.852   1
   1   1  -3 9882.45 287.797  13
  -1  -1   3 10753.1 354.248   7
  -1  -1   3 9610.58 335.520   9
   1   1  -3 9525.08 287.833  17
  -1  -1   3 10213.8 341.974  11
  -1  -1   3 10612.3 372.839   4
   1   1  -3 10152.2 342.675  20
   1   1  -3 9437.88 280.699  23
  -1  -1   2 25949.2 507.170  21
   1   1  -2 24701.5 516.805  19
  -1  -1   2 25707.2 537.591   2
  -1  -1   2 24586.1 567.415  11
  -1  -1   2 26553.8 572.304   9
   1   1  -2 23768.6 579.689  20
   1   1  -2 24185.3 525.007  17
   1   1  -2 24529.0 520.224  18
   1   1  -2 24685.9 525.709  13
  -1  -1   2 26530.9 620.202   1
   1   1  -2 24639.1 538.329  15
  -1  -1   2 25513.4 605.673   4
  -1  -1   2 26241.3 577.510   7
   1   1  -2 25604.7 563.985   5
   1   1  -1 202.495 29.9327  13
   1   1  -1 222.493 30.3548  18
   1   1  -1 109.253 26.1140   5
  -1  -1   1 153.891 29.6628   2
  -1  -1   1 112.837 23.3251  11
   1   1  -1 146.352 30.1353  14
  -1  -1   1 119.911 26.9284   7
  -1  -1   1 134.120 24.8508   9
  -1  -1   1 309.975 30.6860  23
  -1  -1   1 141.306 34.5174   4
   1   1  -1 171.744 31.0029  15
  -1  -1   1 355.656 32.9006  21
   1   1  -1 183.879 29.6282  17
  -1  -1   1 321.214 31.7320  22
   1   1  -1 120.756 26.1158   6
  -1  -1   0 115145. 1949.00  22
   1   1   0 112169. 1912.63   1
   1   1   0 114799. 1950.38  13
  -1  -1   0 120710. 1983.76   2
   1   1   0 120406. 1956.96  17
   1   1   0 115458. 1960.78  15
  -1  -1   0 115311. 1947.71  23
  -1  -1   0 117425. 1937.89   9
  -1  -1   0 114872. 1941.99   4
   1   1   0 121338. 1991.13   6
  -1  -1   0 113543. 1928.74  10
   1   1   0 114497. 1963.74  14
  -1  -1   0 116921. 1944.97  19
  -1  -1   0 115616. 1948.44  21
   1   1   1 91698.1 1596.75   1
  -1  -1  -1 94084.5 1628.64  19
  -1  -1  -1 95377.5 1634.01  21
   1   1   1 94527.9 1631.47  15
  -1  -1  -1 95131.4 1636.34  22
  -1  -1  -1 97145.5 1631.55   2
  -1  -1  -1 100409. 1611.34   8
   1   1   1 94786.2 1627.28  13
  -1  -1  -1 95417.2 1628.73  18
   1   1   1 95107.3 1664.71   6
   1   1   1 93932.3 1632.78  14
  -1  -1  -1 95402.2 1631.09  23
  -1  -1  -1 91082.6 1606.61  10
   1   1   2 20396.2 429.964   1
  -1  -1  -2 19826.9 450.545  19
  -1  -1  -2 19889.0 418.400   2
   1   1   2 20400.0 482.148   6
  -1  -1  -2 20582.3 454.545  23
  -1  -1  -2 20338.2 456.482  21
  -1  -1  -2 20295.6 455.696  18
   1   1   2 19567.9 441.011  15
  -1  -1  -2 19729.0 427.810  20
   1   1   2 19822.1 447.350  13
  -1  -1  -2 19764.6 460.066  22
   1   1   2 19102.7 382.822  11
   1   1   2 18236.5 361.049   4
  -1  -1  -2 20928.7 444.843   8
   1   1   2 20440.5 446.975  14
  -1  -1  -3 114101. 1983.24  17
  -1  -1  -3 114117. 1969.56  23
   1   1   3 108476. 1949.92  14
  -1  -1  -3 113249. 1978.02  21
  -1  -1  -3 113253. 1970.02  18
   1   1   3 107406. 1950.04  12
  -1  -1  -3 108918. 1857.64   5
   1   1   3 104379. 1891.00   4
   1   1   3 108488. 1914.68  11
  -1  -1  -3 118966. 1969.62   8
  -1  -1  -3 108466. 1945.64  20
   1   1   3 113719. 1957.03   1
   1   1   3 111328. 2022.56   6
  -1  -1  -3 115654. 1971.03  19
  -1  -1  -3 113969. 1896.94   2
   1   1   3 110464. 1950.73  15
   1   1   3 109994. 2068.41   7
   1   1   4 9991.06 392.614   7
  -1  -1  -4 9404.95 343.701  21
  -1  -1  -4 10830.4 344.201  18
  -1  -1  -4 10627.0 330.833  20
  -1  -1  -4 11042.8 287.662   2
  -1  -1  -4 10252.6 339.339   8
  -1  -1  -4 10445.7 345.209  17
  -1  -1  -4 10324.9 337.313  23
   1   1   4 10438.7 323.813  14
   1   1   4 10084.5 318.310  11
   1   1   4 9862.52 321.695  15
   1   1   4 9775.89 304.112   4
   1   1   4 10189.1 324.891  12
   1   1   4 10819.4 353.631   1
  -1  -1  -4 10706.2 341.368  19
  -1  -1  -4 10093.2 268.500   5
  -1  -1  -5 175.467 44.6022  20
  -1  -1  -5 145.816 49.6485   8
  -1  -1  -5 146.949 29.6237   5
   1   1   5 125.174 44.3930  14
  -1  -1  -5 140.294 33.9806   2
  -1  -1  -5 136.541 43.6553  19
   1   1   5 133.825 45.4732   1
   1   1   5 112.705 31.9963  12
   1   1   5 154.356 42.4179  11
   1   1   5 166.925 59.2690   7
   1   1   5 191.128 48.1606  15
  -1  -1  -5 127.952 39.8141  23
   1   1   5 91.2605 35.7366   4
  -1  -1  -5 104.935 37.6555  18
  -1  -1  -5 117.047 41.3092  21
  -1  -1  -6 4407.92 247.397  19
   1   1   6 4661.64 236.676  15
   1   1   6 4361.03 236.661  12
   1   1   6 4662.19 238.544  14
  -1  -1  -6 4629.40 246.881  23
  -1  -1  -6 4465.51 258.229   8
   1   1   6 4276.30 244.012  11
   1   1   6 4712.10 297.305   7
  -1  -1  -6 4931.55 258.490  18
  -1  -1  -6 4549.85 250.804  21
  -1  -1  -6 4646.77 208.372   2
  -1  -1  -6 3725.06 227.072  20
   1   1   6 4598.04 276.673   1
  -1  -1  -6 4142.93 197.475   5
   1   1   6 4122.84 230.824   4
  -1  -1  -7 5075.60 275.531  23
  -1  -1  -7 5643.48 299.295  22
   1   1   7 5573.18 281.028  13
   1   1   7 5309.66 345.596   7
   1   1   7 4771.77 267.599  12
  -1  -1  -7 4544.22 230.592   5
  -1  -1  -7 5251.21 280.303  19
   1   1   7 4915.33 278.378   4
   1   1   7 5447.88 276.508  15
  -1  -1  -7 5041.70 274.973  18
  -1  -1  -7 4817.12 295.308   8
   1   1   7 5020.50 335.751   1
  -1  -1  -7 5501.60 289.905  21
  -1  -1  -7 4245.07 261.159  20
   1   1   7 5518.83 279.928  14
  -1  -1  -8 37124.7 1035.77  20
   1   1   8 43825.7 1085.97  12
   1   1   8 46522.7 1068.43  13
   1   1   8 43992.9 1113.09   4
   1   1   8 42969.6 1224.68   7
   1   1   8 48265.4 1298.72   1
  -1  -1  -8 41060.3 1126.17   8
   1   1   9-35.7137 49.9189   4
   1   1   9-35.3419 50.5943  12
  -1  -1  -9 120.278 57.5235   8
   1   1   9 11.9799 48.4348   7
  -1  -1 -10 1689.06 223.932   8
   1   1  10 1672.15 198.772  12
   1   1  10 1764.99 236.842   7
   1   1  11 223.049 104.399   7
  -1  -1 -11 206.748 90.4414   8
   1   2 -10 1177.35 205.671   8
  -1  -2  10 1114.43 195.185   7
  -1  -2   9 1826.78 253.666   4
  -1  -2   9 1640.61 215.269   7
   1   2  -9 1539.93 206.975   8
   1   2  -8 737.119 132.945   5
   1   2  -8 717.363 134.473  20
   1   2  -8 781.318 134.821   8
  -1  -2   8 705.630 137.593   7
  -1  -2   8 627.731 143.839   4
   1   2  -7 54.3746 54.5070   8
  -1  -2   7 25.9344 51.8454   4
   1   2  -7-49.0661 54.7883  20
  -1  -2   7-5.09869 45.7848   7
  -1  -2   7 8.78959 44.8670   1
   1   2  -7-14.5077 37.2938   5
   1   2  -6 1605.68 145.627  19
  -1  -2   6 1639.44 234.081   1
   1   2  -6 1714.82 171.168   8
   1   2  -6 1599.37 168.813   5
   1   2  -6 1473.27 148.584  13
  -1  -2   6 1464.42 121.259  14
   1   2  -6 1533.39 174.493  20
   1   2  -6 1573.46 153.061  17
  -1  -2   6 1846.46 184.351   7
   1   2  -6 1443.22 141.829  18
   1   2  -6 1588.02 146.529  23
  -1  -2   6 1538.55 190.416   4
  -1  -2   5 759.771 143.350   1
   1   2  -5 1006.92 119.354  13
   1   2  -5 912.943 125.553  20
   1   2  -5 943.846 112.860  23
   1   2  -5 914.113 109.704  19
  -1  -2   5 844.147 111.657   9
   1   2  -5 954.144 112.673  18
   1   2  -5 844.687 79.3983   6
  -1  -2   5 1100.80 127.647   7
  -1  -2   5 886.621 91.3348  14
   1   2  -5 1009.23 121.749  17
  -1  -2   5 1079.23 144.460   4
   1   2  -5 1031.31 120.522   8
   1   2  -5 1157.94 134.397   5
  -1  -2   4 41206.5 897.785   7
   1   2  -4 37558.4 937.462  20
   1   2  -4 37011.5 888.710  13
   1   2  -4 39109.2 916.612   5
   1   2  -4 33354.7 735.736   6
  -1  -2   4 40081.4 977.691   4
   1   2  -4 37231.3 881.508  18
  -1  -2   4 37263.1 1095.19   1
  -1  -2   4 33642.5 838.924   9
   1   2  -4 37446.8 872.838  19
   1   2  -4 37928.1 871.496   8
   1   2  -4 38086.1 900.181  17
   1   2  -3 23654.8 519.864   6
   1   2  -3 24313.3 639.372  17
  -1  -2   3 25474.8 606.838  21
   1   2  -3 25669.9 680.904  15
  -1  -2   3 26473.3 618.563   7
  -1  -2   3 22319.3 548.918  16
   1   2  -3 26358.2 651.652   5
   1   2  -3 25218.3 679.787  20
  -1  -2   3 23118.3 582.165   9
  -1  -2   3 25906.7 686.112   4
  -1  -2   3 24182.8 777.487   1
   1   2  -3 25280.3 645.243  13
   1   2  -3 24842.4 631.712  19
   1   2  -3 24892.8 640.543  18
   1   2  -2 4510.55 227.485  15
   1   2  -2 4553.54 215.478  18
   1   2  -2 4367.56 159.253   6
   1   2  -2 4499.49 216.984  17
   1   2  -2 4351.08 225.431  20
  -1  -2   2 4361.31 162.095  16
  -1  -2   2 4292.10 165.309   9
  -1  -2   2 4723.06 197.278  21
  -1  -2   2 4594.29 223.215   4
   1   2  -2 4827.28 221.035  13
  -1  -2   2 4421.05 182.093   7
   1   2  -2 4635.80 208.758   5
   1   2  -1 65034.4 1269.43  14
  -1  -2   1 62449.0 1187.47  21
  -1  -2   1 63178.0 1114.48  16
   1   2  -1 64719.7 1257.87  15
  -1  -2   1 64772.1 1219.09   4
  -1  -2   1 63522.3 1192.79  23
   1   2  -1 63203.9 1190.49   5
   1   2  -1 63805.3 1232.15  18
   1   2  -1 61015.2 1231.73  20
   1   2  -1 64089.4 1231.78  13
  -1  -2   1 60564.3 1097.87   9
  -1  -2   1 64764.0 1208.78   3
   1   2  -1 63648.5 1234.87  17
   1   2  -1 59623.5 1140.17   6
  -1  -2   0 97600.4 1680.34   3
  -1  -2   0 96083.8 1712.46  19
  -1  -2   0 100307. 1793.61   2
  -1  -2   0 94339.8 1720.92  23
   1   2   0 96515.7 1770.62  15
   1   2   0 96012.6 1709.08   6
   1   2   0 97810.2 1751.46  17
  -1  -2   0 92447.0 1699.56  10
   1   2   0 98555.1 1785.99  14
   1   2   0 98152.3 1747.64  13
   1   2   0 94434.6 1670.10   5
  -1  -2   0 93188.5 1716.33  21
  -1  -2   0 95414.7 1723.34  22
   1   2   1 26597.6 615.688   6
  -1  -2  -1 26393.9 577.471  10
  -1  -2  -1 27168.5 560.172   3
   1   2   1 27670.9 629.325  14
   1   2   1 26097.8 555.393   1
  -1  -2  -1 26338.2 584.801  19
  -1  -2  -1 24082.8 505.269   8
  -1  -2  -1 26691.2 593.025  21
   1   2   1 26166.2 504.695   5
  -1  -2  -1 26924.1 597.149  22
  -1  -2  -1 27174.0 631.061   2
   1   2   1 26935.5 603.821  13
  -1  -2  -1 26701.7 591.798  23
   1   2   1 27434.8 608.731  17
   1   2   1 27013.3 620.905  15
   1   2   2 21739.4 525.951  13
   1   2   2 21791.3 576.417   6
   1   2   2 21919.5 495.527   1
  -1  -2  -2 22148.6 520.952  19
  -1  -2  -2 22369.2 527.302  23
   1   2   2 21065.2 487.304  12
  -1  -2  -2 22357.8 528.554  10
   1   2   2 21972.5 543.535  14
  -1  -2  -2 21918.3 529.539  22
  -1  -2  -2 21867.0 523.764  21
  -1  -2  -2 23209.9 477.960   8
  -1  -2  -2 21728.1 531.386   2
   1   2   2 20337.0 428.636  11
   1   2   2 22399.0 540.558  15
   1   2   3 487.868 82.5902   7
   1   2   3 518.251 70.7819  14
   1   2   3 476.586 48.9455  11
  -1  -2  -3 594.801 71.7843  23
  -1  -2  -3 563.506 71.8124  21
  -1  -2  -3 541.723 68.9444  19
  -1  -2  -3 518.801 60.6463   2
   1   2   3 636.053 69.1563  12
  -1  -2  -3 582.983 70.8640  22
   1   2   3 634.700 73.2130  13
   1   2   3 612.241 65.5093   1
  -1  -2  -3 502.323 68.2358  18
  -1  -2  -3 682.254 70.1877   8
   1   2   3 493.122 71.3005  15
  -1  -2  -3 603.740 77.9505  10
  -1  -2  -4 2427.32 158.017  22
   1   2   4 2466.19 152.238  12
   1   2   4 2121.63 122.184   4
  -1  -2  -4 2352.09 154.231  19
  -1  -2  -4 2395.45 155.895  23
   1   2   4 2245.36 154.164  15
  -1  -2  -4 2234.52 170.889  10
   1   2   4 2121.76 157.325  14
  -1  -2  -4 2263.92 141.720   8
  -1  -2  -4 2332.79 152.776  18
   1   2   4 2219.92 138.621   1
   1   2   4 2186.02 179.990   7
  -1  -2  -4 2397.72 156.423  21
   1   2   4 2173.63 146.577  13
  -1  -2  -4 2134.21 117.042   2
   1   2   4 2033.21 123.283  11
   1   2   5-14.5442 24.7012  15
  -1  -2  -5 19.4110 23.2527  23
  -1  -2  -5 2.66829 18.3716  22
   1   2   5-14.5883 44.8356   7
   1   2   5-2.46574 25.1393   1
   1   2   5 14.6180 26.1159  12
  -1  -2  -5-1.99969 17.6369  19
  -1  -2  -5 6.61736 16.7360  18
   1   2   5 11.2450 21.4478  11
  -1  -2  -5-17.7173 40.1797  10
  -1  -2  -5-8.44242 10.6927   5
   1   2   5-18.1774 19.9590  13
   1   2   5 10.0079 21.1538  14
   1   2   5 21.1704 30.5236   4
  -1  -2  -5 21.4099 36.8675   8
  -1  -2  -5 2.39716 19.5165  20
  -1  -2  -5-3.56245 19.3183  21
  -1  -2  -5-7.59334 10.2599   2
   1   2   6 19859.7 572.033  13
   1   2   6 20641.3 694.981   7
  -1  -2  -6 21757.9 600.252  21
   1   2   6 19010.2 549.771   4
   1   2   6 20504.0 590.327  15
  -1  -2  -6 16682.7 425.273   5
  -1  -2  -6 21418.9 597.560  23
  -1  -2  -6 20516.1 597.173   8
   1   2   6 19737.6 592.028  12
   1   2   6 19342.8 573.779  11
  -1  -2  -6 21404.1 594.282  19
  -1  -2  -6 21258.2 603.834  22
  -1  -2  -6 20649.5 587.901  18
  -1  -2  -6 19780.9 667.028  10
   1   2   6 21238.7 616.623   1
   1   2   6 20376.7 589.990  14
  -1  -2  -6 20549.3 473.705   2
  -1  -2  -7 3.16134 23.7907  20
   1   2   7-5.85633 51.4200   7
   1   2   7 7.12405 28.8828  14
  -1  -2  -7 68.7643 35.4839  19
  -1  -2  -7 5.19034 21.1399  18
   1   2   7 15.6940 29.3927  11
  -1  -2  -7 20.7845 30.4888  23
   1   2   7-18.6948 31.2850  12
   1   2   7-2.03532 42.4360   1
  -1  -2  -7 1.54955 31.5682  21
  -1  -2  -7-36.9120 66.3373  10
  -1  -2  -7 14.5389 43.5142   8
  -1  -2  -7 7.32637 32.2559  22
   1   2   7 5.53202 33.5178  13
   1   2   7 33.6035 37.1191   4
   1   2   7 18.2772 29.0566  15
  -1  -2  -8 3601.33 309.044  10
   1   2   8 3290.10 300.848   7
   1   2   8 3260.05 246.956  12
   1   2   8 3214.06 235.808   4
  -1  -2  -8 3053.51 253.905   8
   1   2   8 3112.36 267.838   1
   1   2   8 3987.22 276.720  11
   1   2   9 3275.76 312.914   7
  -1  -2  -9 3695.57 336.666  10
   1   2   9 3243.93 261.174  12
  -1  -2  -9 2566.11 243.091   8
   1   2   9 3095.54 307.098   1
   1   2  10 3968.54 361.190   7
  -1  -2 -10 3719.75 323.623   8
   1   2  10 5026.92 350.348  12
  -1  -2 -10 5022.19 420.862  10
  -1  -2 -11 1759.46 242.414   8
   1   2  11 2055.84 241.122  12
   1   2  11 1563.50 246.742   7
  -1  -3  10-27.1177 47.0882   7
  -1  -3  10-8.17499 96.2156   4
   1   3 -10-109.546 87.0371   8
   1   3  -9 3707.74 341.001   5
  -1  -3   9 3002.98 289.685   7
   1   3  -9 3086.65 304.105   8
  -1  -3   9 3894.66 376.510   4
   1   3  -9 3202.70 322.645  20
  -1  -3   8 3090.57 267.751   7
  -1  -3   8 3114.54 316.910   4
   1   3  -8 2815.85 288.857  20
   1   3  -8 3000.14 276.571   8
   1   3  -8 2911.56 283.472   5
   1   3  -7 85.3744 55.1577   5
  -1  -3   7 81.9461 52.8902   7
   1   3  -7 63.1816 58.6915   8
  -1  -3   7 119.539 95.7561   1
  -1  -3   7 67.0835 65.5493   4
   1   3  -7 93.1810 52.7745  20
   1   3  -6 652.959 118.759  17
   1   3  -6 749.208 129.038   5
  -1  -3   6 632.741 95.1866  14
   1   3  -6 613.059 121.482  20
   1   3  -6 565.109 105.555  18
   1   3  -6 720.334 122.451  23
  -1  -3   6 722.855 178.036   1
   1   3  -6 836.248 125.474  19
  -1  -3   6 700.764 132.272   4
   1   3  -6 771.227 126.855  13
   1   3  -6 778.928 120.546   8
  -1  -3   6 720.880 112.394   7
  -1  -3   5 1364.31 128.985  14
  -1  -3   5 1136.32 125.329   7
  -1  -3   5 892.550 106.543   9
   1   3  -5 1170.92 149.929  13
   1   3  -5 1028.60 146.152  20
  -1  -3   5 1047.85 198.001   1
   1   3  -5 1040.53 140.220  23
   1   3  -5 1131.46 142.843   5
   1   3  -5 1161.15 151.373  17
  -1  -3   5 1286.65 167.044   4
   1   3  -5 1148.92 145.709  18
   1   3  -5 1316.65 139.502   8
   1   3  -5 1216.13 147.799  19
  -1  -3   4 1255.92 119.826   7
   1   3  -4 1304.20 142.649   5
   1   3  -4 1181.92 141.806  18
   1   3  -4 1431.40 162.402  20
   1   3  -4 1193.94 147.002  13
   1   3  -4 1418.09 133.158   8
   1   3  -4 1329.13 153.095  17
  -1  -3   4 1275.64 134.020  21
   1   3  -4 1234.04 141.773  19
  -1  -3   4 1137.33 107.230   9
  -1  -3   4 1260.62 156.165   4
  -1  -3   4 1238.79 125.645  16
  -1  -3   4 1075.18 195.641   1
   1   3  -4 1213.81 156.214  15
  -1  -3   3 18809.0 489.231   7
  -1  -3   3 19856.5 608.302   4
  -1  -3   3 18922.3 551.818  21
   1   3  -3 19708.4 620.861  20
   1   3  -3 18547.7 602.820  13
   1   3  -3 19209.3 572.031   5
  -1  -3   3 17727.9 449.440   9
   1   3  -3 18848.2 593.274  19
   1   3  -3 19047.8 612.887  17
   1   3  -3 18758.1 603.998  18
   1   3  -3 18615.6 632.934  15
  -1  -3   3 18557.1 513.244  16
  -1  -3   2 15940.7 500.826   4
   1   3  -2 15100.0 510.810  20
  -1  -3   2 15634.1 425.160  16
  -1  -3   2 15960.6 514.866   3
   1   3  -2 15397.1 474.243   5
  -1  -3   2 14510.2 388.983   7
   1   3  -2 14882.5 537.118  15
   1   3  -2 15144.9 515.136  13
   1   3  -2 15354.8 520.952  17
  -1  -3   2 15326.5 475.840  23
  -1  -3   2 15098.8 467.091  21
   1   3  -2 15260.0 515.873  18
  -1  -3   2 14121.8 343.045   9
   1   3  -2 14439.8 362.379   6
   1   3  -1 1144.00 91.1961   6
  -1  -3   1 1371.04 121.078  10
   1   3  -1 1119.41 102.627   5
  -1  -3   1 1192.53 112.254  21
  -1  -3   1 1208.55 66.7293   9
   1   3  -1 1287.55 131.007  17
   1   3  -1 1067.87 120.048  13
   1   3  -1 1145.60 118.688  20
  -1  -3   1 1367.99 124.330   3
  -1  -3   1 1268.44 100.721  16
   1   3  -1 1307.20 132.128  18
  -1  -3   1 1283.93 118.737  23
   1   3  -1 1232.82 140.262  14
   1   3  -1 1182.64 133.073  15
   1   3   0 5202.89 210.601   5
  -1  -3   0 5204.18 242.513  22
  -1  -3   0 5137.59 238.686  21
  -1  -3   0 5305.86 234.883   3
  -1  -3   0 4882.06 236.243  23
   1   3   0 5365.69 269.140  17
   1   3   0 5151.87 275.795  15
   1   3   0 5120.91 260.971  13
   1   3   0 5196.80 229.320   6
   1   3   0 5391.42 288.275  14
  -1  -3   0 5434.12 235.377  10
   1   3   0 5394.64 267.876  18
  -1  -3  -1 5871.20 254.145  19
  -1  -3  -1 5743.37 243.363  10
   1   3   1 5706.67 202.534   5
   1   3   1 5897.26 280.315  17
  -1  -3  -1 5832.24 258.150  21
  -1  -3  -1 5749.02 257.387  23
   1   3   1 5880.57 228.931   1
   1   3   1 6055.05 279.321  13
  -1  -3  -1 5676.03 288.135   2
  -1  -3  -1 5671.37 258.596  22
  -1  -3  -1 5635.78 240.198   3
   1   3   1 6062.18 270.600   6
   1   3   1 6130.28 300.647  14
   1   3   1 6080.41 292.401  15
  -1  -3  -2 433.463 68.6885  22
   1   3   2 362.788 46.8444  11
  -1  -3  -2 686.191 87.8875   3
  -1  -3  -2 449.157 71.0312  21
   1   3   2 480.154 47.7414   5
   1   3   2 500.006 60.2689  12
   1   3   2 497.996 66.4642   1
   1   3   2 398.104 68.1291  13
   1   3   2 459.203 73.7997  17
  -1  -3  -2 509.664 72.9176  19
  -1  -3  -2 539.808 76.9688  23
  -1  -3  -2 589.622 88.3575   2
  -1  -3  -2 360.467 42.2989   8
  -1  -3  -2 448.237 69.8624  10
   1   3   2 405.319 76.6872  15
   1   3   2 469.433 83.0855  14
   1   3   3 13060.4 469.888   7
   1   3   3 12741.1 456.952  14
  -1  -3  -3 14105.0 439.053  21
   1   3   3 13438.9 459.784  15
  -1  -3  -3 14025.1 441.016  22
   1   3   3 13587.2 450.242  17
  -1  -3  -3 12902.7 350.677   8
  -1  -3  -3 13086.7 449.897   3
   1   3   3 12893.5 346.888  11
   1   3   3 13275.3 392.527  12
  -1  -3  -3 13327.8 426.616  19
  -1  -3  -3 13610.3 447.414  10
   1   3   3 13089.6 438.866  13
  -1  -3  -3 13716.6 436.944  23
   1   3   3 13650.2 406.924   1
  -1  -3  -3 12512.8 430.788   2
   1   3   4 537.669 87.6523  15
   1   3   4 665.356 106.923   7
  -1  -3  -4 636.673 89.3198  23
   1   3   4 565.230 87.6386  13
   1   3   4 636.997 82.1058  12
  -1  -3  -4 499.008 95.0257  10
  -1  -3  -4 823.716 84.0576   8
  -1  -3  -4 579.287 85.0962  22
  -1  -3  -4 578.895 76.1663   2
   1   3   4 654.578 99.6186  14
   1   3   4 584.518 67.2844  11
   1   3   4 624.755 80.1052   1
  -1  -3  -4 541.801 81.7330  19
  -1  -3  -4 660.452 88.9374  21
   1   3   4 588.756 87.8682  17
   1   3   5 31866.6 773.609  12
  -1  -3  -5 31600.4 790.049  22
   1   3   5 31075.8 750.557   1
   1   3   5 28882.7 770.788  13
  -1  -3  -5 31352.1 786.363  21
  -1  -3  -5 25969.0 662.939   2
   1   3   5 30373.7 878.075   7
  -1  -3  -5 31465.3 789.500  23
   1   3   5 29343.9 795.151  15
   1   3   5 28806.2 776.056  17
   1   3   5 29216.8 710.630  11
  -1  -3  -5 30381.0 838.616  10
  -1  -3  -5 30604.2 723.721   8
  -1  -3  -5 32204.3 785.851  19
   1   3   5 29956.9 811.311  14
  -1  -3  -6 58.4548 28.8579   2
   1   3   6-50.0272 51.3093   7
  -1  -3  -6 30.2741 31.9142  22
  -1  -3  -6 10.7688 43.3778  10
   1   3   6-27.9859 38.2421  12
   1   3   6-4.89484 24.7806  13
   1   3   6 58.4451 41.8360  15
   1   3   6-3.54722 23.1608  11
  -1  -3  -6-11.0608 32.7253  23
  -1  -3  -6 36.2382 35.4389  21
  -1  -3  -6 1.78232 21.9689  19
   1   3   6 32.6586 41.4295  14
   1   3   6-17.9324 34.0932  17
  -1  -3  -6 54.8880 48.8635   8
   1   3   6 19.7417 28.8527   1
  -1  -3  -7 8971.59 390.655  19
   1   3   7 9180.39 396.254  11
  -1  -3  -7 9820.56 412.392  22
   1   3   7 8949.62 474.984   7
   1   3   7 8155.31 400.994  14
   1   3   7 8123.61 378.001  13
   1   3   7 8265.25 363.736   4
   1   3   7 8036.84 384.065  17
   1   3   7 8518.76 392.565  12
  -1  -3  -7 7783.58 367.179   8
  -1  -3  -7 9112.90 399.216  21
  -1  -3  -7 9143.44 399.552  23
   1   3   7 7902.62 390.173  15
   1   3   7 8852.58 401.684   1
  -1  -3  -7 8477.33 452.037  10
  -1  -3  -8 11.5731 40.8291   8
   1   3   8-6.86832 28.7954  11
   1   3   8-6.56984 39.4391  12
   1   3   8 29.4824 43.4805   4
   1   3   8 9.55005 46.9675   1
  -1  -3  -8 8.93918 55.5577  10
   1   3   8-5.26726 51.1157   7
   1   3   9 99.0231 61.2809   7
  -1  -3  -9 48.9268 65.2177  10
  -1  -3  -9 6.88464 52.0354   8
   1   3   9-26.1169 66.7880  12
   1   3   9 46.9283 54.2179   1
   1   3   9 133.726 56.5343  11
   1   3  10 3394.42 298.929  12
  -1  -3 -10 3340.68 349.314  10
   1   3  10 3337.49 339.197   7
  -1  -3 -10 2732.88 271.022   8
   1   3  11 72.2358 53.2199  12
  -1  -3 -11-50.8162 70.4702  10
   1   3  11-62.6385 82.1550   7
   1   4 -10 106.903 74.7429   5
  -1  -4  10 162.248 125.395   4
  -1  -4  10 51.6487 55.0000   7
   1   4 -10 56.6752 73.1964   8
  -1  -4   9 81.2997 66.4168   7
   1   4  -9 28.0889 55.4350   5
   1   4  -9 153.532 85.4818   8
   1   4  -9 18.4832 51.6625  20
  -1  -4   9-26.0983 71.0047   4
  -1  -4   8 405.074 132.632   4
   1   4  -8 332.978 107.957   5
   1   4  -8 361.154 120.806  20
  -1  -4   8 261.411 95.1005   7
   1   4  -8 251.974 85.2796   8
  -1  -4   7 584.571 137.156   4
  -1  -4   7 611.086 108.112   7
   1   4  -7 440.802 112.857  20
   1   4  -7 673.672 137.309   5
   1   4  -7 798.808 134.369   8
   1   4  -6 7228.40 434.856  23
   1   4  -6 7301.98 449.258  13
   1   4  -6 7091.67 425.851  19
   1   4  -6 7277.69 451.605  17
   1   4  -6 7441.35 392.841   8
   1   4  -6 7904.82 446.420   5
  -1  -4   6 6681.58 344.314  14
  -1  -4   6 7233.43 357.405   7
   1   4  -6 7549.51 446.799  18
  -1  -4   6 7981.73 471.160   4
   1   4  -6 7400.92 454.051  20
   1   4  -5 835.152 144.304  20
   1   4  -5 662.511 133.376  13
   1   4  -5 793.219 113.851   8
  -1  -4   5 692.246 115.623  21
  -1  -4   5 777.518 105.560   7
   1   4  -5 651.278 131.069  15
   1   4  -5 963.246 152.290  19
   1   4  -5 658.228 127.866  18
   1   4  -5 974.325 156.328  17
   1   4  -5 869.436 138.692   5
  -1  -4   5 811.916 144.703   4
  -1  -4   4 9689.76 428.499  21
   1   4  -4 9628.53 484.086  13
   1   4  -4 9843.47 516.378  15
  -1  -4   4 9560.36 414.076  16
  -1  -4   4 8550.50 304.896   9
   1   4  -4 9177.46 465.593  20
   1   4  -4 9749.59 385.355   8
   1   4  -4 9113.87 468.186  18
  -1  -4   4 9181.00 347.225   7
   1   4  -4 9824.67 490.064  17
  -1  -4   4 10086.4 472.454   4
   1   4  -4 9715.86 446.790   5
   1   4  -4 9275.50 461.473  19
   1   4  -3 508.438 107.389  13
   1   4  -3 521.677 106.244  19
   1   4  -3 817.678 118.593   5
  -1  -4   3 687.715 79.8093   7
   1   4  -3 577.657 113.554  18
  -1  -4   3 635.555 62.3813   9
  -1  -4   3 674.753 116.018   4
  -1  -4   3 555.524 100.613  21
   1   4  -3 589.411 117.421  17
  -1  -4   3 453.787 92.3422   3
   1   4  -3 523.223 119.612  15
   1   4  -3 581.878 112.317  20
  -1  -4   3 702.787 99.0137  16
  -1  -4   2 2302.60 100.386   9
   1   4  -2 2542.20 211.017  20
  -1  -4   2 2457.33 198.900  23
   1   4  -2 2388.92 216.631  13
  -1  -4   2 2459.84 195.157  21
  -1  -4   2 2561.46 203.958   4
   1   4  -2 2522.64 189.185   5
   1   4  -2 2166.15 210.844  17
  -1  -4   2 2214.42 167.216  16
   1   4  -2 2513.60 220.933  18
  -1  -4   2 2531.86 210.143   3
   1   4  -2 2106.25 220.345  15
   1   4  -2 2515.34 240.823  14
   1   4  -1 11787.9 492.600  13
  -1  -4   1 12303.6 444.179  10
  -1  -4   1 11490.1 440.965  21
   1   4  -1 11703.6 458.382  20
  -1  -4   1 11480.2 273.119   9
   1   4  -1 11349.6 485.338  18
  -1  -4   1 12334.8 463.756   3
   1   4  -1 11662.3 496.015  17
  -1  -4   1 11879.6 412.642  16
   1   4  -1 11763.5 520.146  15
  -1  -4   1 11895.2 453.498  23
   1   4  -1 11351.9 526.756  14
   1   4  -1 11710.9 414.216   5
  -1  -4   0 72109.1 1485.88  16
   1   4   0 73443.3 1431.64   5
  -1  -4   0 74072.5 1508.98   3
   1   4   0 70079.6 1494.11  20
   1   4   0 70519.5 1650.66  14
  -1  -4   0 70984.2 1505.89  21
   1   4   0 71120.7 1580.67  18
   1   4   0 71218.7 1588.71  17
   1   4   0 71246.7 1626.27  15
  -1  -4   0 72654.2 1486.78  10
  -1  -4   0 70956.8 1515.62  23
   1   4   0 71044.9 1580.12  13
  -1  -4   0 71488.3 1513.25  22
   1   4   1 65001.2 1518.83  14
  -1  -4  -1 67152.7 1378.60   3
  -1  -4  -1 64599.3 1355.86  10
  -1  -4  -1 63738.1 1394.39  22
  -1  -4  -1 65394.6 1386.80  21
   1   4   1 65547.8 1329.25   1
   1   4   1 65829.5 1278.98   5
   1   4   1 66535.6 1475.85  18
   1   4   1 60559.9 1208.86  12
   1   4   1 66807.2 1458.96  13
   1   4   1 65222.6 1462.72  17
   1   4   1 67883.9 1511.23  15
  -1  -4  -1 64375.6 1392.33  23
  -1  -4  -2 3536.55 253.404   2
   1   4   2 4050.62 185.512  12
  -1  -4  -2 3981.65 242.672   3
  -1  -4  -2 3788.93 237.443  22
   1   4   2 3504.55 172.011   5
  -1  -4  -2 3685.34 224.200  10
  -1  -4  -2 3605.41 228.935  21
   1   4   2 3770.17 275.004  14
   1   4   2 3639.63 247.688  13
  -1  -4  -2 3795.31 233.243  19
  -1  -4  -2 3507.34 230.252  23
   1   4   2 4053.51 188.300  11
   1   4   2 3893.03 258.919  17
   1   4   2 3738.99 266.249  15
   1   4   2 3823.05 211.236   1
  -1  -4  -3 17442.5 560.153  21
  -1  -4  -3 17577.9 568.071  23
   1   4   3 15619.1 560.772   7
   1   4   3 18261.3 524.939   1
   1   4   3 18174.8 486.963  12
  -1  -4  -3 17405.7 555.157  19
  -1  -4  -3 16172.5 393.743   8
  -1  -4  -3 17772.3 572.129  22
   1   4   3 18203.9 459.873  11
  -1  -4  -3 17141.4 553.071  10
   1   4   3 16766.4 603.589  15
   1   4   3 16970.3 577.065  13
   1   4   3 17064.5 618.516  14
   1   4   3 14910.2 382.346   5
  -1  -4  -3 15649.8 566.883   2
   1   4   3 16574.5 576.899  17
  -1  -4  -3 17722.9 586.817   3
   1   4   4 1170.27 150.314   7
   1   4   4 1340.86 164.848  14
   1   4   4 1384.55 149.829  13
   1   4   4 1427.89 157.690  17
  -1  -4  -4 1429.19 164.470   3
  -1  -4  -4 1536.03 112.395   8
  -1  -4  -4 1502.06 151.260  19
  -1  -4  -4 1416.56 148.586  21
  -1  -4  -4 1393.65 147.193  23
  -1  -4  -4 1390.02 146.732  22
  -1  -4  -4 1386.65 145.666   2
   1   4   4 1386.35 112.286  11
   1   4   4 1588.93 138.914   1
  -1  -4  -4 1779.54 171.611  10
   1   4   4 1395.54 160.187  15
   1   4   4 1646.49 137.324  12
   1   4   5 974.268 130.469  13
   1   4   5 854.771 136.667  14
   1   4   5 701.058 117.583  17
   1   4   5 829.122 127.443  15
  -1  -4  -5 741.191 113.981  22
  -1  -4  -5 861.207 119.642  19
  -1  -4  -5 852.407 118.535  23
  -1  -4  -5 766.123 122.846  10
  -1  -4  -5 778.921 101.157   2
   1   4   5 808.096 94.5601  11
  -1  -4  -5 1028.57 149.056   3
   1   4   5 804.244 100.487  12
   1   4   5 890.157 109.167   1
   1   4   5 851.644 133.913   7
  -1  -4  -5 1063.45 102.500   8
  -1  -4  -5 1058.06 130.390  21
  -1  -4  -6 15724.3 570.184  23
   1   4   6 15803.6 545.464  12
   1   4   6 14825.6 601.226  14
  -1  -4  -6 15902.1 567.511  21
   1   4   6 15169.4 569.346  13
   1   4   6 16065.5 515.855  11
  -1  -4  -6 15301.5 556.623  19
  -1  -4  -6 15982.1 573.447  22
   1   4   6 16835.7 543.341   1
  -1  -4  -6 16366.4 626.077  10
   1   4   6 14472.4 570.382  17
  -1  -4  -6 15233.0 484.410   8
   1   4   6 15039.1 592.770  15
   1   4   6 15968.3 630.496   7
  -1  -4  -7 21.1529 32.1903  23
   1   4   7-5.68195 59.9382   7
   1   4   7 43.5917 55.3434  14
   1   4   7-37.9214 37.2283   1
   1   4   7-8.75044 29.8983  17
  -1  -4  -7-30.9754 33.4057  22
  -1  -4  -7-42.6794 35.9338  19
   1   4   7-3.43352 37.3736  12
  -1  -4  -7 43.6158 65.2070  10
  -1  -4  -7-5.86431 32.9027   8
   1   4   7 39.6011 52.0328  15
  -1  -4  -7 0.49162 34.3244  21
   1   4   7 5.62768 28.7540  11
   1   4   7-11.6593 30.9965  13
   1   4   8 2973.58 248.302   1
   1   4   8 2714.67 276.690   7
   1   4   8 3323.83 256.265  11
  -1  -4  -8 3078.11 297.070  10
   1   4   8 2731.12 240.234  12
  -1  -4  -8 2638.31 217.754   8
   1   4   9 21.1332 53.4328  12
   1   4   9 133.339 80.1377   7
  -1  -4  -9 79.6139 66.9839  10
   1   4   9-5.70649 42.7522   1
   1   4   9 104.260 57.2837  11
   1   4  10 407.381 110.533  11
   1   4  10 629.886 136.433  12
  -1  -4 -10 360.652 111.699  10
   1   4  10 598.101 153.243   7
   1   4  11 72.5831 93.1068   7
  -1  -4 -11-58.9482 77.0650  10
   1   4  11 83.4126 65.6751  12
   1   5  -9 676.482 171.194  20
   1   5  -9 937.919 202.130   5
  -1  -5   9 525.214 164.190   4
   1   5  -9 697.243 162.774   8
  -1  -5   8 963.419 143.693   7
   1   5  -8 1213.06 210.669   5
   1   5  -8 1301.94 223.554  20
   1   5  -8 1087.73 175.931   8
  -1  -5   8 1207.54 221.340   4
  -1  -5   7 1088.52 191.259   4
  -1  -5   7 738.113 121.846   7
   1   5  -7 1001.66 178.163   5
   1   5  -7 1174.87 200.948  20
   1   5  -7 1029.46 164.592   8
   1   5  -6 8314.80 517.912  18
   1   5  -6 7998.36 488.081   5
  -1  -5   6 9405.75 539.921   4
   1   5  -6 8780.26 522.518  19
   1   5  -6 8339.93 516.058  20
   1   5  -6 8192.21 529.209  17
  -1  -5   6 6977.34 350.357   7
   1   5  -6 7660.46 418.196   8
   1   5  -6 8103.93 521.563  13
   1   5  -5 2423.34 213.716   8
  -1  -5   5 2429.84 237.192  21
  -1  -5   5 2698.80 265.572   4
   1   5  -5 2499.02 267.646  19
   1   5  -5 2764.89 265.959   5
   1   5  -5 2339.24 266.611  17
   1   5  -5 2654.14 272.165  20
  -1  -5   5 1997.97 170.136   7
   1   5  -5 2666.13 278.857  18
   1   5  -5 2583.65 297.190  15
   1   5  -5 2626.88 283.024  13
  -1  -5   4 13822.0 574.031  21
   1   5  -4 12794.0 612.046  19
   1   5  -4 13728.7 647.082  18
   1   5  -4 13333.3 646.495  17
  -1  -5   4 13050.4 542.718  16
   1   5  -4 12898.1 604.139  20
   1   5  -4 14392.0 597.058   5
  -1  -5   4 14854.4 621.568   4
   1   5  -4 12874.2 635.740  13
   1   5  -4 13598.7 494.434   8
   1   5  -4 13656.6 685.759  15
  -1  -5   3 17258.7 646.250  21
   1   5  -3 17115.9 702.641  19
   1   5  -3 17462.1 727.651  13
  -1  -5   3 17826.1 615.623  16
   1   5  -3 17570.0 543.304   8
   1   5  -3 17363.1 686.019  20
   1   5  -3 17267.4 722.055  18
   1   5  -3 17615.5 735.176  17
   1   5  -3 17834.8 649.873   5
  -1  -5   3 19388.3 693.638   4
   1   5  -3 16366.6 760.139  15
  -1  -5   3 19250.6 722.554   3
   1   5  -2 225.163 72.5854   5
  -1  -5   2 141.908 63.6306  21
  -1  -5   2 140.372 23.1250   9
   1   5  -2 196.044 69.9192  20
  -1  -5   2 143.873 68.2830   3
   1   5  -2 156.104 92.2105  15
  -1  -5   2 101.623 42.6846  16
   1   5  -2 119.967 59.0664  17
   1   5  -2 135.739 72.1878  13
   1   5  -2 232.590 85.8620  18
  -1  -5   1 917.639 133.761  23
   1   5  -1 708.751 135.274  13
   1   5  -1 774.160 112.146   5
  -1  -5   1 709.042 55.3897   9
  -1  -5   1 809.197 127.724  21
  -1  -5   1 806.116 122.477  10
   1   5  -1 825.333 145.801  17
  -1  -5   1 871.155 132.357   3
   1   5  -1 749.598 121.861  20
   1   5  -1 755.668 141.162  18
  -1  -5   1 813.505 114.461  16
   1   5  -1 625.747 134.623  15
   1   5  -1 747.495 153.484  14
   1   5   0 14740.2 628.723  17
  -1  -5   0 15620.6 555.289  10
  -1  -5   0 16026.0 580.289   3
  -1  -5   0 14634.3 559.297  21
   1   5   0 15397.0 518.948   5
   1   5   0 14414.0 617.325  18
   1   5   0 15453.9 557.574  20
   1   5   0 14592.5 668.005  14
  -1  -5   0 14878.1 568.847  23
   1   5   0 15340.4 625.621  13
   1   5   0 14826.1 658.410  15
   1   5   0 15102.8 368.351  12
  -1  -5   0 14969.4 553.425  16
  -1  -5  -1 290.734 78.9479   3
  -1  -5  -1 307.067 83.3835  16
   1   5   1 223.646 73.4418  17
  -1  -5  -1 335.979 79.1576  10
   1   5   1 203.478 81.1926  18
   1   5   1 321.032 72.8151   1
  -1  -5  -1 253.778 68.2512  23
  -1  -5  -1 172.474 49.7032  22
   1   5   1 106.553 69.8532  13
   1   5   1 234.353 62.4115  20
   1   5   1 307.473 47.4894  12
   1   5   1 279.973 87.3679  15
   1   5   1 219.702 61.3515   5
  -1  -5  -1 256.725 70.5193  21
   1   5   1 264.965 99.7995  14
   1   5   2 28879.3 914.838  17
   1   5   2 28895.8 966.944  14
   1   5   2 29357.9 793.316   7
  -1  -5  -2 30280.0 863.694   3
  -1  -5  -2 30583.1 843.581  10
   1   5   2 28301.8 938.568  15
  -1  -5  -2 29190.2 859.457  22
   1   5   2 32534.2 753.782  11
   1   5   2 30321.5 693.922  12
   1   5   2 29901.8 725.823   5
   1   5   2 28588.9 905.293  13
   1   5   2 29498.3 919.985  18
  -1  -5  -2 27219.2 898.888   2
   1   5   2 28686.5 768.818  20
  -1  -5  -2 29577.2 857.090  21
   1   5   2 30751.7 799.527   1
  -1  -5  -2 27946.3 851.391  23
   1   5   3 18716.2 616.564   7
   1   5   3 19013.3 720.560  15
   1   5   3 19887.3 538.590  12
   1   5   3 18356.9 690.740  18
  -1  -5  -3 17962.5 641.445  22
  -1  -5  -3 18493.1 640.481  21
   1   5   3 17513.5 678.075  17
   1   5   3 20378.7 542.808  11
  -1  -5  -3 17736.2 637.688  23
   1   5   3 17056.4 472.241   5
  -1  -5  -3 19865.1 648.371  10
  -1  -5  -3 16246.2 654.236   2
   1   5   3 18232.9 723.690  14
   1   5   3 17960.7 674.255  13
   1   5   3 20753.1 613.740   1
  -1  -5  -3 19078.5 674.229   3
  -1  -5  -4 10800.8 480.464  22
   1   5   4 10581.3 541.264  14
   1   5   4 11412.3 441.322   1
  -1  -5  -4 11942.9 496.666  21
   1   5   4 10117.2 495.686  17
  -1  -5  -4 10837.7 484.396  23
   1   5   4 12090.0 397.193  11
  -1  -5  -4 11846.5 498.578  10
  -1  -5  -4 9522.21 465.693   2
   1   5   4 12242.4 420.111  12
  -1  -5  -4 10153.4 299.089   8
   1   5   4 10965.7 529.619  15
   1   5   4 11317.0 478.936   7
   1   5   4 10952.2 504.520  13
  -1  -5  -4 11208.1 523.336   3
  -1  -5  -5 289.992 80.6087  22
  -1  -5  -5 342.681 87.3768  23
   1   5   5 264.069 94.1123  14
   1   5   5 321.890 76.7990   1
   1   5   5 383.004 83.9506  12
   1   5   5 251.923 80.8998  13
  -1  -5  -5 445.280 93.5222  19
  -1  -5  -5 319.480 99.9818   3
   1   5   5 281.453 96.5162  15
   1   5   5 347.911 65.8739  11
   1   5   5 190.738 68.6794  17
  -1  -5  -5 520.777 107.486  10
  -1  -5  -5 368.968 86.0947  21
  -1  -5  -5 345.840 55.3691   8
   1   5   5 265.975 80.2142   7
  -1  -5  -5 378.926 84.6917   2
  -1  -5  -6-4.44860 34.4327  22
   1   5   6-20.5530 45.1665  12
   1   5   6-3.48621 53.9147   7
  -1  -5  -6 73.4497 48.5304  21
   1   5   6 76.3769 59.9829  14
   1   5   6 73.5493 56.8404  13
   1   5   6 32.8853 52.1728  17
  -1  -5  -6 36.9428 42.1969  19
   1   5   6-28.8572 30.5289  11
  -1  -5  -6 38.1490 45.8466  10
   1   5   6 0.37237 34.1164   1
  -1  -5  -6-13.7357 51.9966   3
  -1  -5  -6 3.82989 32.6478  23
   1   5   6 107.426 68.3603  15
   1   5   7 5155.15 373.273   7
  -1  -5  -7 4873.71 327.849  19
   1   5   7 4414.67 343.788  15
  -1  -5  -7 4968.12 402.706   3
   1   5   7 5139.68 302.319  11
   1   5   7 4998.26 319.132  12
   1   5   7 4503.20 334.441  17
   1   5   7 4108.69 342.383  14
  -1  -5  -7 5072.96 374.782  10
  -1  -5  -7 4867.99 329.355  21
   1   5   7 5070.87 307.358   1
  -1  -5  -7 4839.95 332.602  23
   1   5   7 4381.43 324.668  13
  -1  -5  -7 5152.71 341.010  22
   1   5   8 46.6098 45.9714   1
   1   5   8 247.089 99.9925   7
  -1  -5  -8 82.0096 78.5154  10
   1   5   8 205.398 79.9508  12
   1   5   8 138.434 58.9922  11
   1   5   9 1356.28 214.173   7
  -1  -5  -9 1906.88 291.107   3
   1   5   9 1864.03 226.200  12
  -1  -5  -9 1948.82 263.647  10
   1   5   9 1662.62 204.931   1
   1   5   9 1937.84 218.925  11
   1   5  10 49.2240 66.0573  12
   1   5  10-48.6544 52.9408  11
   1   5  10 91.0894 86.2306   7
  -1  -5 -10 298.538 131.081   3
  -1  -5 -10 118.367 100.133  10
  -1  -6   9 2954.24 373.022   4
   1   6  -9 2864.85 362.307   5
   1   6  -9 3006.02 371.021  20
   1   6  -9 2739.11 312.831   8
  -1  -6   8 62.3578 91.0879   4
   1   6  -8 7.05466 75.4666  20
   1   6  -8-32.8647 79.0542   5
   1   6  -8 67.9519 68.1815   8
  -1  -6   7 1760.67 206.594  14
   1   6  -7 1959.62 279.967  20
  -1  -6   7 2173.31 287.389   4
   1   6  -7 2043.51 274.030   5
   1   6  -7 1759.27 218.157   8
  -1  -6   6 218.260 82.1577  21
   1   6  -6 215.329 88.6763  20
   1   6  -6 440.568 127.806  19
   1   6  -6 295.149 129.234  13
   1   6  -6 289.160 131.675  15
   1   6  -6 288.875 113.161  17
   1   6  -6 575.853 151.471  18
  -1  -6   6 237.781 100.134   4
   1   6  -6 193.182 85.2148   5
   1   6  -6 447.979 108.820   8
   1   6  -5 385.799 116.378   5
   1   6  -5 484.722 148.176  15
   1   6  -5 563.839 140.083  17
   1   6  -5 479.437 129.791  19
   1   6  -5 593.677 141.983  20
   1   6  -5 554.476 149.715  13
  -1  -6   5 474.294 110.427  21
   1   6  -5 386.931 121.880  18
  -1  -6   5 637.193 149.296   4
   1   6  -5 511.150 108.648   8
   1   6  -4 1043.14 207.125  15
   1   6  -4 889.529 182.377  17
  -1  -6   4 1149.14 171.987  21
   1   6  -4 940.864 157.946   5
   1   6  -4 1177.13 211.351  18
  -1  -6   4 906.399 168.631   3
   1   6  -4 1016.49 174.661  20
   1   6  -4 988.266 185.509  19
   1   6  -4 1133.58 201.948  13
   1   6  -4 942.213 127.468   8
  -1  -6   4 1027.13 158.753  16
  -1  -6   4 1253.90 190.344   4
   1   6  -3 19765.4 859.633  17
  -1  -6   3 19321.7 746.060  21
  -1  -6   3 22892.7 849.350   3
   1   6  -3 20513.4 799.428  20
   1   6  -3 20333.1 837.312  19
  -1  -6   3 22266.8 806.689   4
   1   6  -3 19900.2 903.470  15
   1   6  -3 20745.5 869.355  18
   1   6  -3 19749.8 853.474  13
  -1  -6   3 19475.6 722.985  16
   1   6  -3 21427.2 777.394   5
   1   6  -3 18764.9 598.825   8
   1   6  -2 60586.5 1482.93   5
   1   6  -2 59239.7 1651.64  17
  -1  -6   2 60095.3 1459.54  16
   1   6  -2 58270.3 1634.54  18
   1   6  -2 59897.3 1616.29  19
   1   6  -2 60646.0 1546.62  20
  -1  -6   2 58975.2 1505.57  21
   1   6  -2 58436.7 1700.57  15
   1   6  -2 59235.5 1643.17  13
   1   6  -1-1.22113 64.1115  14
  -1  -6   1 53.8208 52.4065  23
   1   6  -1 64.9180 75.0215  13
   1   6  -1 39.1447 44.1745  20
  -1  -6   1 73.2317 62.6955   3
   1   6  -1 17.5839 84.3399  18
   1   6  -1 2.98896 47.7203   5
  -1  -6   1 32.4824 43.2312  10
   1   6  -1 131.402 87.1832  17
  -1  -6   1 44.2802 59.4327  16
   1   6  -1 29.3358 72.4615  15
  -1  -6   1 24.2932 39.7333  21
  -1  -6   0 4837.22 335.205  23
  -1  -6   0 4826.00 337.560   3
   1   6   0 4484.30 292.191   5
   1   6   0 4495.94 368.380  17
   1   6   0 4499.98 383.662  15
   1   6   0 4323.06 356.591  13
  -1  -6   0 4851.79 331.823  21
  -1  -6   0 5073.42 324.944  10
   1   6   0 4516.76 310.743  20
   1   6   0 4416.33 359.184  18
   1   6   0 4730.47 178.486  12
  -1  -6   0 4927.55 331.471  16
   1   6   0 4381.39 391.887  14
   1   6   1 2026.61 256.765  14
  -1  -6  -1 1875.15 204.246  21
   1   6   1 2116.46 246.706  17
  -1  -6  -1 2110.00 219.497  23
   1   6   1 2132.07 199.488  20
  -1  -6  -1 1977.54 198.413  10
  -1  -6  -1 2216.99 225.241  16
   1   6   1 2237.73 203.042   1
   1   6   1 2015.05 241.021  18
   1   6   1 2269.97 134.820  12
  -1  -6  -1 2038.80 216.216   3
   1   6   1 1941.63 235.799  13
   1   6   1 2081.53 253.867  15
   1   6   1 1964.44 181.465   5
   1   6   2 27249.1 751.665   7
  -1  -6  -2 28136.1 886.226   3
   1   6   2 28956.7 816.381   1
   1   6   2 25850.5 933.847  17
   1   6   2 26455.1 943.745  18
   1   6   2 27128.5 784.125  20
   1   6   2 27824.3 664.065  12
  -1  -6  -2 25139.3 846.189  21
   1   6   2 25192.2 978.452  14
   1   6   2 26687.3 937.473  13
  -1  -6  -2 26131.0 867.930  22
   1   6   2 26167.2 971.276  15
   1   6   2 25554.3 723.237   5
  -1  -6  -2 26470.2 908.127  16
  -1  -6  -2 26713.1 840.090  10
  -1  -6  -2 26254.4 870.531  23
   1   6   2 29897.9 771.780  11
  -1  -6  -2 22878.6 896.996   2
   1   6   3 306.134 59.9016   5
   1   6   3 290.867 78.0926   1
   1   6   3 194.405 83.2748  14
  -1  -6  -3 312.899 84.9650  21
  -1  -6  -3 130.966 77.7047   2
   1   6   3 235.163 61.1373  11
   1   6   3 367.273 110.149  18
   1   6   3 223.600 57.6119  20
  -1  -6  -3 294.792 89.1427  10
  -1  -6  -3 619.518 131.256   3
   1   6   3 328.039 66.0359  12
  -1  -6  -3 283.495 82.7409  22
   1   6   3 290.079 91.0407  13
   1   6   3 224.893 71.6293   7
   1   6   3 390.601 108.586  17
  -1  -6  -3 244.772 77.9795  23
   1   6   3 233.230 102.003  15
   1   6   4 69.7928 56.5000  15
   1   6   4 134.132 68.0258  13
   1   6   4 178.182 77.6790  18
   1   6   4 174.216 68.6484   7
  -1  -6  -4 128.943 65.0174  22
  -1  -6  -4 202.163 97.4263   3
   1   6   4 126.183 58.7636   1
  -1  -6  -4 156.666 63.8352  21
   1   6   4 260.413 65.3289  12
  -1  -6  -4 41.8064 42.4688   2
  -1  -6  -4 246.174 82.8718  10
   1   6   4 277.232 65.4954  11
  -1  -6  -4 154.820 66.4198  23
   1   6   4 152.685 78.1042  17
   1   6   4 155.637 46.3188  20
   1   6   4 135.049 77.3480  14
   1   6   5 14808.6 524.791  12
   1   6   5 12271.8 655.923  14
   1   6   5 12730.7 624.238  18
   1   6   5 12180.7 604.064  13
   1   6   5 15220.8 566.520   1
  -1  -6  -5 14734.7 622.912  10
  -1  -6  -5 10885.2 546.303   2
  -1  -6  -5 13843.2 596.313  21
   1   6   5 14346.2 496.403  11
  -1  -6  -5 13204.5 590.482  22
   1   6   5 12052.2 634.096  15
  -1  -6  -5 13371.3 596.763  23
   1   6   5 15402.9 601.402   7
  -1  -6  -5 14676.6 678.987   3
   1   6   5 12912.3 626.897  17
   1   6   6 2850.33 305.368  14
   1   6   6 2959.16 302.392  15
   1   6   6 3724.97 272.574   1
   1   6   6 3478.90 239.996  11
  -1  -6  -6 3127.49 280.370  23
   1   6   6 3584.97 260.850  12
  -1  -6  -6 3276.76 280.235  21
  -1  -6  -6 3848.71 318.678  10
   1   6   6 2945.39 285.674  13
   1   6   6 3313.27 282.013   7
   1   6   6 3078.43 295.895  17
  -1  -6  -6 3749.15 349.559   3
   1   6   6 2752.03 281.344  18
  -1  -6  -6 3121.41 279.158  22
   1   6   7 63.7547 52.8733   1
   1   6   7 62.8137 58.5684  12
   1   6   7 80.6513 58.7124   7
  -1  -6  -7 116.589 68.3912  10
   1   6   7 229.546 73.8612  11
  -1  -6  -7 139.905 90.1790   3
   1   6   8 241.429 81.7268  12
  -1  -6  -8 135.413 92.1065   3
  -1  -6  -8 312.152 112.622  10
   1   6   8 120.249 51.8785   1
   1   6   8 98.0822 48.8381  11
   1   6   8 174.902 79.2269   7
   1   6   9 3174.67 283.646  11
  -1  -6  -9 3362.43 391.202   3
  -1  -6  -9 3366.57 353.157  10
   1   6   9 2503.60 297.895   7
   1   6   9 3171.76 300.192  12
   1   6  10 908.726 194.937   7
  -1  -6 -10 945.069 244.253   3
   1   6  10 1186.90 197.959  12
  -1  -6 -10 1208.16 219.983  10
   1   6  10 1100.79 183.067  11
  -1  -7   8-183.016 109.350   4
   1   7  -8 224.042 117.142  20
   1   7  -8 102.612 89.5939   5
   1   7  -8-79.8228 71.4782   8
   1   7  -7 1548.86 262.775   5
   1   7  -7 1420.00 254.936  23
   1   7  -7 1759.02 298.988  17
  -1  -7   7 2172.85 305.372   4
   1   7  -7 1507.24 268.863  18
  -1  -7   7 1413.13 200.989  14
   1   7  -7 1902.66 295.546  19
   1   7  -7 1771.38 279.517  20
   1   7  -7 1708.35 223.840   8
   1   7  -7 1304.37 250.206  13
   1   7  -6 5470.06 500.622  13
   1   7  -6 4217.75 326.596   8
   1   7  -6 5085.00 468.894  19
   1   7  -6 4593.83 434.237  20
   1   7  -6 4941.49 436.830   5
  -1  -7   6 4117.18 372.954  21
  -1  -7   6 5880.62 468.373   4
   1   7  -6 5084.46 477.257  18
   1   7  -6 5282.89 523.752  15
   1   7  -6 4502.65 457.708  17
   1   7  -5 91.2704 81.7981  15
   1   7  -5 123.393 89.4862  13
  -1  -7   5-43.5859 74.8882  21
   1   7  -5 67.5139 80.6590  20
   1   7  -5 5.60092 61.3933  19
   1   7  -5 6.88885 53.7262   5
   1   7  -5 89.4920 80.0890  17
   1   7  -5 127.330 100.773  18
  -1  -7   5 41.8506 60.3324   4
   1   7  -5 32.0237 35.9362   8
   1   7  -4 350.169 126.198  13
   1   7  -4 182.646 80.0803   5
  -1  -7   4 183.959 83.1316  21
   1   7  -4 49.9798 56.4080   8
   1   7  -4 69.9131 63.9369  19
   1   7  -4 62.4965 61.1749  18
  -1  -7   4 146.338 82.7833   3
  -1  -7   4 145.058 91.9528   4
   1   7  -4 194.980 108.201  17
   1   7  -4 106.696 75.1807  20
   1   7  -4 257.811 138.325  15
  -1  -7   3 487.401 118.434  21
   1   7  -3 478.220 140.297  17
  -1  -7   3 709.700 154.886   3
  -1  -7   3 586.860 139.452   4
   1   7  -3 527.175 124.853   5
   1   7  -3 711.684 165.945  13
   1   7  -3 428.616 130.598  19
   1   7  -3 572.989 135.478  20
   1   7  -3 530.572 155.943  18
   1   7  -3 465.505 86.1485   8
  -1  -7   3 541.692 126.295  16
   1   7  -3 415.787 148.952  15
   1   7  -2 40057.5 1354.84  13
   1   7  -2 37977.1 1296.92  19
   1   7  -2 38680.1 1210.16  20
  -1  -7   2 38286.6 1189.33  21
   1   7  -2 37058.9 917.759   8
   1   7  -2 39871.8 1183.22   5
   1   7  -2 38682.2 1348.45  17
  -1  -7   2 37732.4 1152.29  16
   1   7  -2 38000.0 1323.95  18
   1   7  -2 38785.2 1398.15  15
  -1  -7   1 706.503 151.796  23
   1   7  -1 776.925 168.715  17
   1   7  -1 715.781 133.712   5
   1   7  -1 506.297 132.888  18
  -1  -7   1 550.684 126.588  21
  -1  -7   1 737.630 140.913  16
   1   7  -1 575.533 76.4974   8
   1   7  -1 691.310 167.232  15
  -1  -7   1 636.404 135.319   3
   1   7  -1 499.092 117.962  20
   1   7  -1 639.897 160.894  13
  -1  -7   1 676.467 133.870  10
   1   7  -1 591.420 172.002  14
   1   7   0 6708.63 534.765  14
  -1  -7   0 7719.50 471.083   3
  -1  -7   0 7378.95 432.925  10
  -1  -7   0 6937.19 444.812  23
   1   7   0 6783.87 500.830  18
   1   7   0 6869.91 414.919  20
   1   7   0 6850.91 500.810  13
   1   7   0 6388.24 488.510  17
   1   7   0 6823.50 398.284   5
  -1  -7   0 6760.53 429.297  16
   1   7   0 6223.98 509.467  15
  -1  -7   0 7084.30 444.768  21
   1   7   1 4241.38 416.941  14
  -1  -7  -1 4508.50 350.481   3
   1   7   1 3895.47 282.776   5
  -1  -7  -1 4222.55 340.108  23
  -1  -7  -1 4170.71 346.613  16
   1   7   1 3964.25 375.434  18
   1   7   1 4076.00 302.316   1
   1   7   1 4324.43 393.956  13
   1   7   1 4300.71 310.590  20
   1   7   1 4086.47 381.774  17
  -1  -7  -1 4322.41 326.569  10
   1   7   1 4134.16 403.346  15
  -1  -7  -1 4141.21 335.369  21
  -1  -7  -2 1518.51 202.685  21
  -1  -7  -2 1677.20 215.077  23
  -1  -7  -2 1566.58 231.127   2
   1   7   2 1769.28 180.201   5
   1   7   2 1838.92 205.036   1
   1   7   2 1583.97 178.709  20
   1   7   2 1410.75 221.317  13
   1   7   2 2132.76 195.165  11
   1   7   2 1906.43 144.092  12
  -1  -7  -2 1817.30 209.458  10
  -1  -7  -2 1887.42 234.062   3
   1   7   2 1841.11 247.957  18
   1   7   2 1982.20 261.880  17
   1   7   2 1530.87 253.414  14
  -1  -7  -2 1870.20 237.881  16
   1   7   2 1924.17 273.224  15
  -1  -7  -3 2121.20 248.696   3
   1   7   3 1649.13 258.961  14
  -1  -7  -3 1841.10 248.534   2
  -1  -7  -3 1984.65 230.806  21
   1   7   3 1730.44 244.967  18
   1   7   3 1938.64 209.370   1
  -1  -7  -3 2261.29 237.671  10
   1   7   3 1564.28 155.430   5
   1   7   3 1949.53 158.523  12
   1   7   3 1786.67 261.852  15
   1   7   3 1684.55 241.336  13
   1   7   3 1736.00 176.630  20
   1   7   3 1672.89 238.474  17
  -1  -7  -3 1948.87 229.500  23
   1   7   3 2342.08 196.370  11
  -1  -7  -3 2184.84 264.668  16
   1   7   4 295.515 102.720  17
   1   7   4 326.937 81.9961   7
   1   7   4 250.967 120.568  15
  -1  -7  -4 383.089 126.855   3
   1   7   4 180.316 83.7924  18
   1   7   4 411.420 84.2360  11
   1   7   4 131.942 53.8328   1
  -1  -7  -4 121.046 73.4215   2
  -1  -7  -4 325.623 118.222  16
  -1  -7  -4 364.939 102.969  10
   1   7   4 161.558 95.9266  14
  -1  -7  -4 289.440 90.1802  23
   1   7   4 233.262 65.5064  12
   1   7   4 156.363 75.3418  13
  -1  -7  -4 260.359 83.8256  21
   1   7   5 1118.66 161.700   1
   1   7   5 1083.61 189.322  17
   1   7   5 990.906 149.160   7
   1   7   5 852.557 170.418  13
   1   7   5 1033.21 200.533  14
  -1  -7  -5 1017.36 169.087  21
  -1  -7  -5 1211.47 186.914  10
  -1  -7  -5 1179.54 210.026  16
   1   7   5 925.063 184.121  18
   1   7   5 1048.43 133.134  11
  -1  -7  -5 653.102 140.348   2
  -1  -7  -5 1247.59 207.468   3
   1   7   5 1136.03 145.137  12
  -1  -7  -5 1121.67 181.404  23
   1   7   5 815.544 169.746  15
  -1  -7  -5 909.694 162.051  22
  -1  -7  -6 2943.95 296.385  10
   1   7   6 2864.33 243.888  12
  -1  -7  -6 2415.21 263.886  22
   1   7   6 2247.59 279.364  18
   1   7   6 2503.33 251.069   7
   1   7   6 2348.97 287.604  17
  -1  -7  -6 2419.44 265.641  23
  -1  -7  -6 2152.19 246.289  21
   1   7   6 2470.41 213.896  11
   1   7   6 2645.07 248.166   1
  -1  -7  -6 2814.40 321.725   3
   1   7   6 2408.90 285.689  13
   1   7   6 2277.22 290.442  15
   1   7   6 2217.23 297.744  14
   1   7   7 27.1078 63.1992   7
   1   7   7-97.3890 51.9139  11
  -1  -7  -7 45.8959 84.6976   3
   1   7   7-115.453 68.4162  12
  -1  -7  -7-61.3151 66.6935  10
   1   7   7 42.4997 40.4532   1
   1   7   8 2242.27 243.908  12
   1   7   8 1845.01 239.896   7
   1   7   8 2005.91 228.574   1
  -1  -7  -8 2008.28 310.631   3
  -1  -7  -8 1858.64 259.080  10
   1   7   8 2267.13 233.193  11
  -1  -7  -9 2.98487 57.1197   3
  -1  -7  -9 36.2110 64.1064  10
   1   7   9 54.1957 54.1690   7
   1   7   9-187.688 80.3672  11
   1   7   9-1.99759 50.7369  12
  -1  -7  -9 116.980 100.024  16
   1   8  -7 2216.92 340.840  18
   1   8  -7 1942.52 309.345  19
   1   8  -7 1384.55 206.209   8
   1   8  -7 1926.81 306.233   5
   1   8  -7 1800.00 319.393  17
   1   8  -7 1473.30 290.622  13
   1   8  -7 1587.57 288.636  23
   1   8  -7 1785.56 301.365  20
  -1  -8   7 1714.84 286.042   4
  -1  -8   7 1191.10 196.767  14
   1   8  -6 396.302 175.901  17
   1   8  -6 67.8292 89.0402  19
  -1  -8   6 269.772 100.818  21
   1   8  -6 158.063 99.7291  20
   1   8  -6 298.573 105.052   8
   1   8  -6 99.5067 86.7798   5
   1   8  -6 282.835 136.469  13
  -1  -8   6 314.757 120.573   4
   1   8  -6 358.076 157.882  18
   1   8  -6-67.5358 95.4385  15
   1   8  -5 335.869 128.691  20
   1   8  -5 532.394 164.677  13
  -1  -8   5 652.770 157.145  21
   1   8  -5 835.178 209.946  19
  -1  -8   5 635.036 162.051   4
   1   8  -5 661.737 185.278  18
   1   8  -5 372.229 95.8793   8
   1   8  -5 409.759 157.998  17
   1   8  -5 391.209 165.469  15
   1   8  -5 619.007 164.404   5
  -1  -8   4 43.4913 63.2983   3
   1   8  -4-59.4220 80.3704  20
   1   8  -4 31.6574 65.4955  13
   1   8  -4 12.9884 38.6366   8
   1   8  -4-51.7542 71.1241  18
   1   8  -4-42.6771 72.1226   5
   1   8  -4 230.036 133.669  17
  -1  -8   4 51.3044 75.0071   4
  -1  -8   4 8.26218 41.2265  21
   1   8  -4 84.2829 88.6028  19
   1   8  -4 142.098 104.135  15
  -1  -8   3 509.994 140.714  21
   1   8  -3 288.307 136.879  15
   1   8  -3 560.533 142.984   5
  -1  -8   3 456.429 144.579   3
   1   8  -3 414.646 141.260  18
   1   8  -3 756.272 198.351  13
   1   8  -3 770.768 170.119  20
   1   8  -3 538.797 152.950  19
   1   8  -3 313.497 122.921  17
  -1  -8   3 388.601 115.677  16
  -1  -8   3 674.071 154.036   4
   1   8  -2-67.8255 69.9986  20
   1   8  -2 67.3793 90.5308  18
   1   8  -2-41.7397 57.3612  19
  -1  -8   2 64.7519 66.7072  21
   1   8  -2 132.871 105.433  15
   1   8  -2 80.3274 69.2357   5
  -1  -8   2-11.5891 41.3598  16
   1   8  -2-141.934 94.0585  17
   1   8  -2-9.26954 67.3693  13
  -1  -8   2 113.596 75.7960   3
   1   8  -1 9285.22 648.308  17
  -1  -8   1 8318.92 531.185  21
   1   8  -1 8401.70 516.959  20
   1   8  -1 8872.04 628.817  18
   1   8  -1 8234.53 609.370  13
   1   8  -1 8818.79 609.632  19
  -1  -8   1 9264.51 548.603  16
  -1  -8   1 10832.7 616.357   3
   1   8  -1 8476.60 506.064   5
   1   8  -1 8473.41 650.309  15
  -1  -8   0 2981.35 314.942   3
   1   8   0 2563.67 269.538  20
  -1  -8   0 1901.81 249.523  21
   1   8   0 2472.07 258.532   5
   1   8   0 2734.29 340.888  13
   1   8   0 2559.40 353.867  14
   1   8   0 2686.02 363.492  15
   1   8   0 2353.65 320.949  17
  -1  -8   0 2284.50 273.610  23
  -1  -8   0 2600.78 275.812  10
   1   8   0 2066.25 290.699  18
  -1  -8   0 2558.79 287.635  16
  -1  -8  -1-142.413 86.2181   3
   1   8   1-27.3533 70.7704  14
  -1  -8  -1 102.144 86.0998  21
   1   8   1 43.1038 57.1583   5
  -1  -8  -1 52.9109 55.4602  10
   1   8   1 21.6112 72.8523  13
  -1  -8  -1 3.42557 57.8633  16
  -1  -8  -1 40.8052 45.8893  23
   1   8   1-32.9601 92.2290  15
   1   8   1 56.3268 53.0551   1
   1   8   1 5.46883 33.1046  20
   1   8   1 84.2350 88.0508  18
   1   8   1 57.1696 89.2637  17
  -1  -8  -1 1.99916 66.3188   2
   1   8   2 5623.43 513.862  14
  -1  -8  -2 6368.00 466.831   3
  -1  -8  -2 5482.80 420.558  21
   1   8   2 5755.39 490.659  13
   1   8   2 6252.15 410.029   1
  -1  -8  -2 5821.62 458.720  16
   1   8   2 6367.45 374.185  11
  -1  -8  -2 5374.81 467.177   2
  -1  -8  -2 5879.52 440.720  23
   1   8   2 5823.60 490.438  18
   1   8   2 5423.50 343.651   5
  -1  -8  -2 6208.56 431.987  10
   1   8   2 5575.10 487.944  17
   1   8   2 6155.57 529.034  15
   1   8   2 5827.35 376.810  20
  -1  -8  -3 2310.00 298.238   2
  -1  -8  -3 2522.16 293.887   3
   1   8   3 2487.64 341.988  14
   1   8   3 2489.14 317.641  13
  -1  -8  -3 2669.87 295.148  23
  -1  -8  -3 2775.25 284.545  10
  -1  -8  -3 2578.10 285.614  21
   1   8   3 2618.10 326.574  17
   1   8   3 2663.99 264.407   1
   1   8   3 3251.18 255.267  11
  -1  -8  -3 2858.03 324.581  16
   1   8   3 2764.67 351.280  15
   1   8   3 2522.60 321.030  18
  -1  -8  -4 183.789 85.5170  21
  -1  -8  -4 208.930 107.028   3
   1   8   4 19.9280 63.3499  18
   1   8   4 125.990 62.0630   1
   1   8   4 193.371 71.0119  11
   1   8   4 167.175 97.9744  14
   1   8   4 130.383 55.8958  12
  -1  -8  -4 90.6313 55.8587  10
   1   8   4 101.548 76.0757  13
   1   8   4 113.058 67.1496  17
  -1  -8  -4 6.90110 53.9181   2
  -1  -8  -4 77.5536 57.8102  23
  -1  -8  -4 168.350 98.0344  16
   1   8   4 230.647 110.502  15
   1   8   5 250.274 72.1723  12
   1   8   5 427.913 130.203  13
  -1  -8  -5 393.227 122.016  23
   1   8   5 212.631 107.791  15
   1   8   5 384.906 88.6988  11
  -1  -8  -5 429.598 149.940  16
   1   8   5 311.768 101.346  18
  -1  -8  -5 345.188 126.699   3
   1   8   5 281.141 115.436  14
   1   8   5 225.735 103.568  17
  -1  -8  -5 436.014 120.056  21
  -1  -8  -5 325.735 99.5723  10
  -1  -8  -5 146.918 84.1684   2
   1   8   5 416.956 105.580   1
  -1  -8  -6 11909.4 656.783  23
   1   8   6 9783.57 695.278  14
   1   8   6 9882.17 682.583  15
  -1  -8  -6 12578.3 663.181  21
   1   8   6 10371.3 671.466  17
   1   8   6 11381.9 575.920   1
  -1  -8  -6 13870.2 771.796   3
   1   8   6 10198.7 665.734  18
  -1  -8  -6 13579.0 690.421  10
   1   8   6 12755.3 555.742  12
   1   8   6 10848.8 677.483  13
  -1  -8  -6 12471.0 775.208  16
   1   8   6 13367.6 550.179  11
  -1  -8  -7 16095.4 880.080   3
  -1  -8  -7 17138.9 814.835  10
   1   8   7 15893.0 647.752  11
   1   8   7 16294.1 679.926  12
   1   8   7 13945.7 659.241   1
  -1  -8  -7 15081.0 899.188  16
  -1  -8  -8 1161.14 220.118  10
   1   8   8 1090.49 175.930  12
   1   8   8 994.024 173.784   1
  -1  -8  -8 1288.11 254.381   3
  -1  -8  -8 754.317 216.777  16
   1   9  -6 460.376 175.134  13
  -1  -9   6 287.483 120.708  21
   1   9  -6 93.3824 97.3710  17
   1   9  -6 372.354 154.853  19
   1   9  -6 283.370 131.675  20
   1   9  -6 258.407 131.235   5
   1   9  -6 354.276 154.532  18
  -1  -9   6 259.079 115.847   4
   1   9  -6 46.0915 95.2922  15
   1   9  -5 5406.52 552.721  19
  -1  -9   5 3491.92 387.995  21
   1   9  -5 4822.97 531.453  18
   1   9  -5 4562.12 523.712  13
   1   9  -5 4038.68 519.707  15
   1   9  -5 4177.72 446.076  20
   1   9  -5 5226.51 560.777  17
  -1  -9   5 5559.10 499.382   4
   1   9  -5 4635.86 462.346   5
   1   9  -4 2554.45 373.979  19
   1   9  -4 2387.40 325.518   5
   1   9  -4 2349.65 328.424  20
   1   9  -4 2643.32 395.720  17
   1   9  -4 2687.32 394.437  18
   1   9  -4 2709.28 393.846  13
  -1  -9   4 2920.83 345.020   4
  -1  -9   4 2219.67 302.583  21
   1   9  -4 2437.05 400.410  15
  -1  -9   4 2775.24 371.498   3
   1   9  -3 1130.48 242.051  19
   1   9  -3 1051.12 217.027   5
   1   9  -3 1108.84 254.421  13
   1   9  -3 923.367 194.050  20
  -1  -9   3 1414.75 253.816   3
   1   9  -3 1324.20 282.976  15
   1   9  -3 1610.77 306.302  17
   1   9  -3 1161.18 256.124  18
  -1  -9   3 1255.79 225.616  21
  -1  -9   3 1323.97 229.695   4
  -1  -9   2 1265.50 218.050  16
   1   9  -2 1431.76 281.305  13
   1   9  -2 1777.11 304.404  19
  -1  -9   2 1577.02 246.354  21
   1   9  -2 1779.64 309.350  17
   1   9  -2 1492.76 236.109  20
   1   9  -2 1548.45 286.893  18
  -1  -9   2 1750.88 275.650   3
   1   9  -2 1512.80 296.883  15
   1   9  -2 1328.02 225.694   5
  -1  -9   1 75.9387 69.1435  21
  -1  -9   1 96.7762 76.8286  16
   1   9  -1 7.64773 56.1016   5
   1   9  -1 16.8313 74.0057  18
   1   9  -1-38.8477 104.039  19
   1   9  -1 57.0457 64.5806  13
   1   9  -1-92.0573 90.6625  17
   1   9  -1-30.6787 50.5150  20
  -1  -9   1 73.9748 83.7569   3
   1   9  -1 322.639 167.653  15
  -1  -9   0 42.6337 71.0971  21
  -1  -9   0-13.3329 80.0414   3
   1   9   0-56.6918 46.9160   1
   1   9   0-18.1422 42.3351  20
   1   9   0-11.7147 46.3431   5
  -1  -9   0 19.3687 60.8015  10
   1   9   0-17.7112 100.433  19
  -1  -9   0-26.2804 110.183   2
   1   9   0-2.69970 61.9378  18
  -1  -9   0-28.6562 58.8963  16
   1   9   0-102.326 95.4602  17
   1   9   0 1.80046 60.1763  13
   1   9   0 70.8747 83.0698  15
  -1  -9  -1 312.144 116.828  21
  -1  -9  -1 417.589 127.668  10
  -1  -9  -1 317.837 120.202  23
   1   9   1 200.791 124.990  17
   1   9   1 270.087 124.932  14
   1   9   1 281.618 159.463  15
  -1  -9  -1 508.654 144.748  16
   1   9   1 234.135 84.1779   5
   1   9   1 451.733 161.054  13
   1   9   1 289.009 95.6606   1
   1   9   1 411.170 143.984  18
  -1  -9  -1 160.975 106.701   2
   1   9   1 523.768 122.237  11
  -1  -9  -1 366.035 128.704   3
   1   9   1 334.243 107.508  20
   1   9   2 750.567 191.807  13
  -1  -9  -2 676.423 177.933   3
   1   9   2 713.566 188.893  17
   1   9   2 960.537 154.167  11
   1   9   2 719.999 210.792  14
  -1  -9  -2 581.109 163.412   2
  -1  -9  -2 786.720 173.237  21
   1   9   2 937.980 219.693  18
  -1  -9  -2 853.552 172.751  10
   1   9   2 860.723 163.795   1
  -1  -9  -2 593.309 156.097  23
  -1  -9  -2 833.584 183.021  16
   1   9   2 1178.18 264.702  15
   1   9   3 979.350 155.121  11
  -1  -9  -3 971.342 181.334  10
  -1  -9  -3 960.848 201.259   3
   1   9   3 650.829 179.058  17
   1   9   3 763.166 201.770  18
  -1  -9  -3 672.858 156.241  23
   1   9   3 497.844 165.649  14
   1   9   3 589.226 139.141   1
  -1  -9  -3 802.481 194.995  16
   1   9   3 514.934 176.467  15
  -1  -9  -3 634.766 184.912   2
   1   9   3 647.442 178.639  13
  -1  -9  -3 790.279 175.151  21
  -1  -9  -4 150.997 75.6172  23
   1   9   4 3.96559 70.7486  14
   1   9   4 201.921 89.0503   1
  -1  -9  -4 191.482 91.9528  21
   1   9   4 202.333 73.4897  11
   1   9   4 86.9171 72.5295  13
   1   9   4 141.464 89.6479  17
  -1  -9  -4 180.094 91.7971  10
  -1  -9  -4-19.5903 73.9819   2
  -1  -9  -4 135.120 97.4834   3
   1   9   4-25.9220 66.6777  18
  -1  -9  -4 268.159 110.044  16
   1   9   4 140.264 114.367  15
  -1  -9  -5 256.069 107.291  21
   1   9   5 187.013 106.086  18
  -1  -9  -5 210.855 109.700   3
  -1  -9  -5 102.527 78.4663  10
   1   9   5 22.4497 65.8902  13
   1   9   5 108.053 49.3972  11
   1   9   5 118.498 83.9391   1
  -1  -9  -5 31.3113 84.9279  16
  -1  -9  -5 121.299 93.6333  23
   1   9   5 93.1102 79.8013  17
   1   9   5 44.6686 82.9739  14
   1   9   5-31.6293 111.447  15
  -1  -9  -6 151.981 106.970   3
   1   9   6-25.7588 50.1144   1
   1   9   6 9.12174 36.4373  11
  -1  -9  -6 46.3506 60.2447  10
  -1  -9  -6 141.433 98.2091  16
  -1  -9  -7 126.602 96.2461  10
   1   9   7-12.4555 45.4651  12
  -1  -9  -7 110.729 110.711   3
   1   9   7 54.7094 60.2497   1
  -1  -9  -7 103.159 92.1017  16
  -1 -10   4-146.862 118.360   2
   1  10  -4 455.709 181.506  15
   1  10  -4-50.1468 131.080  13
   1  10  -4-137.497 115.528  17
   1  10  -4 0.21805 59.1829   5
   1  10  -4 137.110 104.093  19
   1  10  -4 97.2889 89.4247  20
  -1 -10   4-119.210 92.0266  21
  -1 -10   4-56.5142 82.4864   4
  -1 -10   4 204.716 111.814   3
   1  10  -4 71.7170 93.7860  18
  -1 -10   3 208.942 110.000  21
   1  10  -3 176.095 89.5649  19
  -1 -10   3 165.892 110.938   3
   1  10  -3-4.88648 94.6653  18
  -1 -10   3 276.294 127.706   4
   1  10  -3 75.0382 72.3400  13
   1  10  -3 36.2795 64.8758  20
   1  10  -3 28.6500 90.3606  17
  -1 -10   3 77.3211 112.934   2
   1  10  -3 111.821 104.368   5
   1  10  -3-17.2504 83.9991  15
  -1 -10   2 859.326 210.380   3
   1  10  -2 716.429 219.418  17
   1  10  -2 950.618 201.671   5
   1  10  -2 1155.39 269.942  13
  -1 -10   2 428.350 160.145   2
   1  10  -2 586.946 200.804  18
   1  10  -2 633.813 203.288  19
  -1 -10   2 938.939 211.840  21
   1  10  -2 844.859 180.099  20
  -1 -10   2 730.606 188.355  16
   1  10  -2 729.488 234.899  15
  -1 -10   1 314.706 141.762   2
   1  10  -1 152.687 126.283  17
   1  10  -1 248.728 122.487  15
   1  10  -1 236.691 112.400   5
  -1 -10   1 243.186 123.850  21
  -1 -10   1 166.226 95.4763  16
   1  10  -1 59.0508 60.6156   1
   1  10  -1 108.602 59.4880  20
   1  10  -1 116.935 99.7828  19
   1  10  -1 130.841 101.500  18
  -1 -10   1 190.910 110.476   3
   1  10  -1 78.5363 88.9036  13
   1  10   0-13.9901 84.1152  13
  -1 -10   0 59.0526 83.3792   3
  -1 -10   0 44.1428 64.3275  21
   1  10   0 83.2205 67.4765  20
  -1 -10   0 204.483 129.894   2
  -1 -10   0 115.228 82.6909  10
   1  10   0-25.8283 112.322  18
   1  10   0-45.1563 98.2596  19
   1  10   0 87.4583 66.5829  17
  -1 -10   0-27.5240 61.4716  16
   1  10   0-41.8252 62.0847   1
   1  10   0 123.605 80.5354   5
   1  10   0 167.740 123.629  15
  -1 -10  -1 136.205 99.0322  21
   1  10   1 31.0715 76.0156  13
   1  10   1 247.852 95.5265  11
   1  10   1 77.6021 74.6392   1
  -1 -10  -1-6.86405 64.5675   3
   1  10   1 99.1409 90.0201  18
   1  10   1 120.544 85.5000  19
  -1 -10  -1 91.5939 77.5848  10
   1  10   1 131.187 107.017  17
  -1 -10  -1 182.262 113.063   2
  -1 -10  -1-122.715 92.5667  16
   1  10   1 3.20279 103.675  15
   1  10   2 1598.01 218.664  11
  -1 -10  -2 1507.64 251.246  21
  -1 -10  -2 1468.92 239.928  10
   1  10   2 920.843 237.034  17
  -1 -10  -2 1280.35 264.809   2
   1  10   2 1234.66 215.868   1
   1  10   2 915.065 232.816  18
  -1 -10  -2 1518.68 268.348   3
   1  10   2 1104.01 264.480  15
  -1 -10  -2 1406.28 254.420  16
   1  10   2 889.984 223.641  13
   1  10   3 27.4085 84.0648  14
  -1 -10  -3 313.090 133.426   3
   1  10   3 15.9968 40.9618  11
  -1 -10  -3 16.7721 56.5369  21
  -1 -10  -3 50.6926 58.1517  10
   1  10   3-55.7747 88.6954  13
   1  10   3-7.68816 52.2378   1
   1  10   3-41.4534 78.8193  18
  -1 -10  -3 120.259 87.3454  23
   1  10   3 246.172 139.693  15
  -1 -10  -3 43.4884 106.820   2
   1  10   3 45.6261 82.4901  17
  -1 -10  -3 35.0054 67.6674  16
   1  10   4 2566.58 303.067   1
   1  10   4 1997.25 368.648  14
   1  10   4 2901.45 277.873  11
   1  10   4 2636.81 387.905  17
  -1 -10  -4 2332.51 340.607   3
   1  10   4 1833.77 326.935  13
  -1 -10  -4 2600.80 325.809  10
   1  10   4 1973.07 340.492  18
  -1 -10  -4 2447.97 332.572  23
  -1 -10  -4 2364.18 318.630  21
  -1 -10  -4 1981.63 317.974   2
  -1 -10  -4 2191.85 333.405  16
   1  10   4 2000.91 361.708  15
   1  10   5 396.835 173.971  14
   1  10   5 381.910 121.209   1
   1  10   5 256.512 134.192  13
  -1 -10  -5 353.040 131.581  23
  -1 -10  -5 194.002 119.336   3
   1  10   5 258.091 119.701  18
   1  10   5 201.680 131.589  15
   1  10   5 395.574 103.979  11
  -1 -10  -5 206.541 101.847  21
   1  10   5 315.092 147.317  17
  -1 -10  -5 461.314 135.607  10
  -1 -10  -5 240.882 133.319  16
  -1 -11   0 10.1531 82.0793   2
   1  11   0 96.2058 111.645  19
   1  11   0 4.26403 57.4467   1
  -1 -11   0-66.3630 81.2755  16
   1  11   0-49.2771 115.692  15
  -1 -11   0-142.750 97.6958  21
  -1 -11   0-223.821 127.157   3
   1  11   0 83.3237 75.5894  11
   1  11   0 48.8227 101.170  17
   1  11   0 179.291 148.402  18
   1  11   0-20.2546 99.3445  13
  -1 -11  -1 1900.84 308.212  21
   1  11   1 1661.42 336.447  13
   1  11   1 2251.02 307.239   1
  -1 -11  -1 2200.54 343.114   3
  -1 -11  -1 2224.26 313.600  10
   1  11   1 2015.52 269.461  11
   1  11   1 1964.27 355.778  18
   1  11   1 2010.19 371.062  17
   1  11   1 1642.84 324.838  19
  -1 -11  -1 1657.58 333.113   2
  -1 -11  -1 1854.24 313.045  16
   1  11   1 2148.79 409.638  15
  -2   9   2-34.4676 89.3513  13
   2  -9  -2-36.9575 59.2134  21
  -2   9   2 112.748 79.8324   1
   2  -9  -2-130.045 107.836   3
  -2   9   2 0.59087 48.5482  11
   2  -9  -2 72.4713 93.4280  16
  -2   9   2 74.7860 88.5184  19
  -2   9   2-29.8478 75.7811  18
  -2   9   2-159.164 114.021  17
   2  -9  -2-107.941 79.6898  10
  -2   9   2 115.916 111.276  15
   2  -9  -1 5251.52 547.076   3
  -2   9   1 5772.58 437.528  11
   2  -9  -1 5264.21 450.391  10
  -2   9   1 5148.12 439.124   1
  -2   9   1 5151.93 555.981  17
  -2   9   1 5029.73 543.403  18
  -2   9   1 5110.84 550.055  13
  -2   9   1 4386.06 500.443  19
   2  -9  -1 4443.99 444.187  21
   2  -9  -1 4962.24 537.664  16
  -2   9   1 4778.76 556.218  15
  -2   9   0 958.886 250.697  19
  -2   9   0 944.647 255.222  18
  -2   9   0 1047.86 195.328  11
  -2   9   0 1296.69 293.408  13
   2  -9   0 878.852 232.105  16
   2  -9   0 1180.58 236.062  21
  -2   9   0 879.636 242.453  17
  -2   9   0 1297.45 228.082   1
   2  -9   0 1052.99 255.839   3
  -2   9   0 1178.99 201.425   5
  -2   9   0 881.304 261.930  15
  -2   9  -1 267.790 109.343  17
  -2   9  -1 133.800 70.7653   5
   2  -9   1 273.758 141.702  16
  -2   9  -1 148.409 86.1546  11
   2  -9   1 267.326 121.571  21
  -2   9  -1 128.507 105.320  13
   2  -9   1 4.22373 80.9328   3
  -2   9  -1 291.655 144.313  18
  -2   9  -1 247.451 144.587  19
  -2   9  -1 317.723 163.700  15
   2  -9   2 348.024 157.378   3
  -2   9  -2-2.22064 76.7273  11
  -2   9  -2-21.5353 89.8540  13
  -2   9  -2 263.426 107.901   5
   2  -9   2 243.302 151.243  16
  -2   9  -2 399.807 177.570  19
  -2   9  -2 122.987 111.478  17
   2  -9   2 232.254 108.544  21
  -2   9  -2 177.253 120.021  18
  -2   9  -2 78.3788 103.469  15
   2  -9   3 4550.01 509.453   3
  -2   9  -3 3809.19 509.493  17
   2  -9   3 3649.81 419.210  21
  -2   9  -3 3707.99 474.130  19
  -2   9  -3 3822.99 529.950  15
  -2   9  -3 3721.83 389.827  20
  -2   9  -3 3308.39 472.706  18
   2  -9   3 3828.70 480.739  16
  -2   9  -3 4371.93 537.253  13
  -2   9  -3 3257.63 373.500   5
  -2   9  -4 1347.90 246.000   5
  -2   9  -4 1701.35 277.469  20
  -2   9  -4 1420.27 306.805  13
   2  -9   4 1063.62 256.788  16
   2  -9   4 1356.38 296.137   3
  -2   9  -4 1143.19 279.260  18
  -2   9  -4 1181.90 306.482  17
  -2   9  -4 1054.37 267.348  19
   2  -9   4 997.058 220.293  21
  -2   9  -4 1313.34 314.438  15
   2  -8  -5 15.9280 43.9026  10
   2  -8  -5-12.9607 85.2432   3
  -2   8   5 66.6941 52.7767  11
   2  -8  -5-36.0777 84.5028  16
   2  -8  -4 236.290 127.368  16
   2  -8  -4 197.461 88.2926  10
  -2   8   4 325.865 110.396  11
   2  -8  -4 256.284 107.532   3
  -2   8   3 119.416 81.0554   1
   2  -8  -3 81.7624 67.8167  10
   2  -8  -3 210.207 102.476   3
   2  -8  -3 253.672 124.570  16
  -2   8   3 170.660 77.8981  11
   2  -8  -2-108.557 73.0940  21
  -2   8   2-15.3005 72.0790  18
  -2   8   2-3.52211 67.7612  13
  -2   8   2 36.1077 58.9239   1
  -2   8   2-83.1953 62.2108  11
  -2   8   2 119.421 89.7107  19
   2  -8  -2-241.327 98.3478  10
  -2   8   2 95.6501 85.8028  17
   2  -8  -2-38.8871 79.8943   3
   2  -8  -2-118.202 93.2981  16
  -2   8   2 24.6987 62.9144  15
  -2   8   1 44.5333 72.5878  15
  -2   8   1 95.9683 85.1262  19
   2  -8  -1 37.0574 41.9977  21
   2  -8  -1 37.4886 68.7918  10
   2  -8  -1 25.8762 95.9234  16
  -2   8   1 42.0620 55.1709  11
  -2   8   1 32.7590 82.5368  13
   2  -8  -1 45.8009 79.4080   3
  -2   8   1-60.3211 58.6890   1
  -2   8   1 12.3137 61.5939  17
  -2   8   1 185.432 106.083  18
   2  -8   0 27.9505 63.2177  21
  -2   8   0 98.7353 89.3447  19
  -2   8   0 39.0411 104.023  17
  -2   8   0-50.4682 60.5467   5
  -2   8   0 79.5458 102.036  18
  -2   8   0 41.2883 75.3391  13
   2  -8   0 111.063 113.324  16
   2  -8   0 111.874 81.0190  10
   2  -8   0-57.2359 99.8879   3
  -2   8   0-31.9954 52.3426  11
  -2   8   0 44.8846 88.5095  15
  -2   8  -1 12446.5 829.304  13
  -2   8  -1 12617.2 883.523  15
   2  -8   1 11434.8 695.998  21
  -2   8  -1 11883.9 644.656   5
  -2   8  -1 12332.5 812.144  19
   2  -8   1 12266.5 793.604  16
  -2   8  -1 11323.4 791.486  18
  -2   8  -1 13055.6 858.912  17
   2  -8   1 14469.9 846.479   3
  -2   8  -1 15425.6 717.278  11
   2  -8   2 3600.05 418.870   3
   2  -8   2 2878.07 381.243  16
  -2   8  -2 3572.78 448.573  17
   2  -8   2 2808.53 340.866  21
  -2   8  -2 3199.91 419.806  18
  -2   8  -2 3158.09 413.566  19
  -2   8  -2 2893.00 308.654  20
  -2   8  -2 3219.96 423.522  13
  -2   8  -2 2591.41 308.656   5
  -2   8  -2 3482.85 467.011  15
  -2   8  -3 130.066 84.3743  17
  -2   8  -3 176.189 109.470  19
  -2   8  -3 181.103 98.4300  20
  -2   8  -3 217.502 124.313  13
   2  -8   3 42.6915 59.4784  21
  -2   8  -3-31.5758 94.3119  18
   2  -8   3 253.805 138.223   3
   2  -8   3-46.5596 76.1573  16
  -2   8  -3 14.6232 73.8891   5
  -2   8  -3 19.1391 89.5954  15
   2  -8   4 749.616 202.476   3
  -2   8  -4 700.452 209.761  13
  -2   8  -4 808.432 185.995   5
  -2   8  -4 520.063 147.952  20
  -2   8  -4 513.615 178.473  15
  -2   8  -4 552.975 184.785  19
  -2   8  -4 977.175 236.641  18
  -2   8  -4 733.061 217.001  17
   2  -8   4 668.042 170.336  21
   2  -8   4 587.566 188.079  16
   2  -8   5 726.538 218.296  16
  -2   8  -5 930.763 243.122  13
   2  -8   5 1018.64 246.644   3
  -2   8  -5 567.185 194.207  19
  -2   8  -5 926.950 247.654  17
  -2   8  -5 966.253 209.119   5
  -2   8  -5 1012.74 212.675  20
  -2   8  -5 875.056 236.478  18
   2  -8   6 235.651 103.958  14
   2  -8   6 332.347 146.891   3
  -2   8  -6 235.515 120.823  20
  -2   8  -6 176.965 119.728  23
   2  -8   6 212.954 129.430   4
  -2   8  -6 201.776 136.340  13
  -2   8  -6 389.009 155.265   5
  -2   8  -6 253.523 141.573  19
  -2   8  -6 131.823 116.977  17
  -2   8  -6 171.822 82.5911  18
   2  -7  -6 137.043 92.0971   3
  -2   7   6 213.876 86.0632  11
   2  -7  -6 127.809 77.6079  10
   2  -7  -6 294.334 134.110  16
   2  -7  -5-22.0625 76.5004  16
   2  -7  -5 71.3819 99.2581   3
   2  -7  -5 51.7940 58.0133  10
  -2   7   5 111.874 64.5122  11
  -2   7   4 2221.61 240.473  11
   2  -7  -4 2376.85 335.647  16
  -2   7   4 1910.97 220.305   1
   2  -7  -4 2395.96 271.877  10
   2  -7  -4 2368.83 332.386   3
   2  -7  -3 2745.22 346.235   3
   2  -7  -3 2784.43 292.654  21
  -2   7   3 2620.74 258.222   1
  -2   7   3 2589.00 317.618  19
  -2   7   3 2516.22 319.172  17
  -2   7   3 2580.40 323.218  18
  -2   7   3 3497.19 295.830  11
  -2   7   3 2770.15 354.829  15
   2  -7  -3 2729.57 357.231  16
  -2   7   3 2286.42 299.524  13
   2  -7  -3 3327.40 311.973  10
  -2   7   2 1086.84 225.261  15
  -2   7   2 1284.85 181.698   1
  -2   7   2 1184.72 226.305  17
  -2   7   2 1532.64 198.858  11
  -2   7   2 912.762 195.532  19
   2  -7  -2 1347.32 248.845   3
   2  -7  -2 1047.44 220.951  16
  -2   7   2 1106.77 221.179  18
  -2   7   2 1268.87 229.213  13
   2  -7  -2 1482.43 207.859  10
   2  -7  -2 1054.36 182.127  21
   2  -7  -1-74.6813 60.5430  21
  -2   7   1 48.6879 88.0202  13
   2  -7  -1-97.5236 88.0014   3
  -2   7   1 177.747 90.5268  19
  -2   7   1 120.634 91.3139  17
  -2   7   1 66.9886 89.1523  18
   2  -7  -1-70.7336 71.0572  10
  -2   7   1 111.657 88.3785  15
   2  -7  -1 72.7416 74.5807  16
  -2   7   1 37.6316 50.7805  11
  -2   7   0 13975.1 637.146   5
  -2   7   0 14323.8 797.995  19
  -2   7   0 13923.6 847.963  15
  -2   7   0 16752.7 687.260  11
  -2   7   0 13526.1 794.318  13
  -2   7   0 13837.0 813.228  17
   2  -7   0 14594.0 798.956   3
   2  -7   0 12813.3 678.864  21
   2  -7   0 14889.5 670.675  10
  -2   7   0 13076.3 783.100  18
   2  -7   0 13783.9 787.100  16
  -2   7  -1 15823.7 873.898  13
  -2   7  -1 15213.2 839.143  19
  -2   7  -1 14056.6 635.431  20
   2  -7   1 15250.8 833.440  16
  -2   7  -1 16915.5 945.397  15
  -2   7  -1 15130.8 697.426   5
  -2   7  -1 15578.6 866.641  18
   2  -7   1 13707.5 716.445  21
   2  -7   1 17045.4 861.197   3
  -2   7  -1 18193.3 734.226  11
  -2   7  -1 16235.3 895.630  17
  -2   7  -2 6531.46 451.155   5
   2  -7   2 7269.05 555.141   3
   2  -7   2 6095.87 470.245  21
  -2   7  -2 6365.91 540.112  19
  -2   7  -2 6541.09 558.557  18
  -2   7  -2 5777.96 413.063  20
  -2   7  -2 6064.58 568.018  15
  -2   7  -2 6320.01 557.332  17
   2  -7   2 5412.25 488.302  16
  -2   7  -2 6089.51 539.182  13
  -2   7  -3 557.007 157.834  19
  -2   7  -3 561.604 149.729   5
  -2   7  -3 458.597 133.851  20
  -2   7  -3 446.392 148.499  17
   2  -7   3 564.336 165.866   3
  -2   7  -3 386.916 144.849  13
   2  -7   3 408.584 120.015  21
   2  -7   3 578.758 164.017  16
  -2   7  -3 397.283 143.972  18
  -2   7  -3 605.585 196.172  15
  -2   7  -4 361.447 115.918  18
   2  -7   4 214.759 116.449   3
   2  -7   4 242.132 102.047  21
  -2   7  -4 332.400 113.481  19
  -2   7  -4 398.050 130.481  20
  -2   7  -4 198.325 94.1780   5
  -2   7  -4 367.252 145.527  13
  -2   7  -4 359.342 136.864  17
   2  -7   4 179.631 115.644  16
  -2   7  -4 233.380 133.220  15
   2  -7   5-126.643 95.6791   3
  -2   7  -5 1.58335 57.1666  20
  -2   7  -5-64.0146 83.4316  17
  -2   7  -5 17.1127 53.5641   5
  -2   7  -5 120.965 97.5461  18
  -2   7  -5-41.2399 75.3479  13
   2  -7   5-0.67149 71.7029  16
  -2   7  -5 118.277 76.5733  19
  -2   7  -6 106.725 86.1719  20
   2  -7   6 280.898 133.012   3
   2  -7   6 231.370 96.7448  14
  -2   7  -6 225.468 124.277  18
   2  -7   6 354.443 146.857  16
  -2   7  -6 171.879 119.374  13
  -2   7  -6 182.926 128.717  17
  -2   7  -6 316.321 131.876   5
  -2   7  -6 144.999 104.355  23
  -2   7  -6 575.842 172.389  19
  -2   7  -7 2357.18 375.412  17
   2  -7   7 2115.41 276.800  14
  -2   7  -7 2214.82 322.485  20
  -2   7  -7 2757.72 401.791  13
  -2   7  -7 2517.12 339.781   5
  -2   7  -7 2059.31 337.563  23
  -2   7  -7 2216.26 349.481  19
  -2   7  -7 1816.40 327.790  18
   2  -7   7 2484.62 337.178   4
  -2   7  -8 4506.69 526.441  13
   2  -7   8 4041.47 390.437  14
   2  -7   8 5736.83 531.854   4
  -2   7  -8 5060.53 545.368  23
  -2   7  -8 4386.58 509.224  19
  -2   7  -8 5337.52 509.521   5
  -2   7  -8 4402.61 514.826  18
  -2   7  -8 4647.27 545.183  17
  -2   7  -8 4908.22 501.679  20
  -2   6   7 5.38892 40.1561  11
   2  -6  -7 178.443 109.021   3
   2  -6  -7 35.6275 71.0777  16
   2  -6  -6 86.5948 83.3329  16
   2  -6  -6 47.3925 55.7801  10
   2  -6  -6 103.077 132.255   3
  -2   6   6 120.453 66.3729  11
   2  -6  -5-95.7838 88.5556   3
   2  -6  -5-57.2788 61.0199  16
  -2   6   5-34.4950 46.1782  11
   2  -6  -5-167.651 79.0705  10
   2  -6  -4 55.9315 54.4601  10
   2  -6  -4 37.9012 66.5637   3
  -2   6   4 119.916 59.2414   1
   2  -6  -4 31.2129 71.0123  16
  -2   6   4 85.8071 44.9518  11
   2  -6  -3 2183.36 236.243  21
  -2   6   3 2353.71 276.865  19
   2  -6  -3 2601.48 253.374  10
  -2   6   3 1795.80 246.951  18
  -2   6   3 2451.25 284.280  13
   2  -6  -3 2327.66 300.791  16
  -2   6   3 2845.25 250.757  11
  -2   6   3 2221.19 218.239   1
  -2   6   3 2369.33 284.480  17
   2  -6  -3 2944.29 337.408   3
  -2   6   3 2212.93 284.486  15
   2  -6  -2 161.547 105.496   3
  -2   6   2 162.966 95.1461  13
   2  -6  -2 140.423 94.9645  16
   2  -6  -2 131.048 63.9768  10
  -2   6   2 130.663 60.2033  11
  -2   6   2 161.559 78.2718  19
   2  -6  -2 94.4656 59.0441  21
  -2   6   2 150.259 99.1111  17
  -2   6   2 140.971 64.5199  18
  -2   6   2 69.1439 48.4005   1
  -2   6   2 90.8169 87.8671  15
  -2   6   1 988.788 145.688  11
  -2   6   1 820.029 175.654  13
   2  -6  -1 643.464 161.835   3
  -2   6   1 832.233 174.452  18
  -2   6   1 847.922 173.462  19
   2  -6  -1 993.705 153.434  10
  -2   6   1 818.094 177.839  17
   2  -6  -1 940.306 159.474  21
   2  -6  -1 999.373 191.161  16
  -2   6   1 904.433 198.028  15
  -2   6   0-0.18547 56.9618  15
  -2   6   0-37.1743 37.1440  20
   2  -6   0-70.6248 67.1481  16
  -2   6   0-23.6678 42.6398   5
  -2   6   0 27.0929 69.0382  13
   2  -6   0 8.43684 44.2742  21
   2  -6   0 7.12252 34.4320  10
  -2   6   0 38.2418 57.9243  17
  -2   6   0 44.3230 43.6505  11
  -2   6   0 38.2965 66.5920  19
  -2   6   0-34.4388 50.3463  18
   2  -6   0-13.8663 69.3116   3
  -2   6  -1 109.522 110.183  13
   2  -6   1 46.1708 52.8728  21
  -2   6  -1-20.3502 49.6554   5
  -2   6  -1-36.4669 40.2276  20
   2  -6   1 26.5350 39.3722  10
  -2   6  -1-4.90789 58.1793  19
   2  -6   1-89.4995 67.0891  16
  -2   6  -1-78.5924 77.8211  17
  -2   6  -1-15.8761 75.0396  18
   2  -6   1 36.1806 67.9442   3
  -2   6  -1-21.7799 90.2917  15
   2  -6   2 2406.71 297.712   3
  -2   6  -2 1903.77 277.111  19
  -2   6  -2 2097.90 288.122  18
  -2   6  -2 1857.75 215.659  20
  -2   6  -2 2213.99 303.846  17
   2  -6   2 1682.00 250.981  16
  -2   6  -2 2229.50 304.834  13
  -2   6  -2 2574.33 340.699  15
  -2   6  -2 2236.83 241.779   5
   2  -6   2 2076.03 246.818  21
  -2   6  -3 2587.57 271.797   5
  -2   6  -3 1965.41 295.054  17
  -2   6  -3 2123.79 296.094  19
   2  -6   3 3001.00 336.324   3
   2  -6   3 2121.62 258.534  21
  -2   6  -3 2098.57 314.787  15
  -2   6  -3 2114.45 295.412  18
  -2   6  -3 2066.40 292.355  13
  -2   6  -3 1631.95 216.022  20
   2  -6   3 2343.77 299.774  16
  -2   6  -4 69.5404 55.9619  20
   2  -6   4 128.356 108.540   3
  -2   6  -4 122.963 95.0259  13
   2  -6   4 80.3545 60.9519  16
  -2   6  -4 151.697 104.617   5
  -2   6  -4 150.266 99.4025  18
  -2   6  -4-11.9527 104.003  17
   2  -6   4 113.205 58.7629  21
  -2   6  -4 223.653 103.089  19
  -2   6  -4-24.0864 102.828  15
  -2   6  -5 88.0500 78.9892  18
  -2   6  -5 46.9366 60.5010  19
  -2   6  -5 90.4104 100.930  17
  -2   6  -5 145.314 62.6456   8
   2  -6   5 47.3111 70.1596   3
  -2   6  -5 156.551 114.580  13
  -2   6  -5 153.969 94.1267  20
   2  -6   5 26.9186 51.2177  16
  -2   6  -5 264.634 130.649   5
   2  -6   6 50.7832 57.9943  16
  -2   6  -6 126.896 100.740  17
  -2   6  -6-85.7927 81.8032  23
   2  -6   6 204.699 113.633   3
   2  -6   6 4.17958 67.7487  14
  -2   6  -6 57.7923 65.4336  13
  -2   6  -6 69.9318 80.7627  20
  -2   6  -6 62.3218 84.3666   5
  -2   6  -6-8.76619 59.3919  18
  -2   6  -6-7.90470 71.2877  19
  -2   6  -6-0.70704 54.0173   8
   2  -6   7-43.6756 55.1841  14
  -2   6  -7 59.1068 71.4956   8
  -2   6  -7-55.3592 64.4048  20
  -2   6  -7 1.97804 51.6660  19
  -2   6  -7 7.90975 73.1123  18
  -2   6  -7-79.6148 81.4299  23
  -2   6  -7-190.714 114.479  13
   2  -6   7-141.712 101.965  16
  -2   6  -7-74.0173 87.8644  17
  -2   6  -7 192.194 119.624   5
   2  -6   7 40.3761 91.5476   4
  -2   6  -8 5245.29 529.580  18
   2  -6   8 6653.00 534.625   4
  -2   6  -8 5601.28 539.494  19
  -2   6  -8 5182.40 489.368  20
   2  -6   8 5166.64 420.384  14
  -2   6  -8 5791.95 561.845  13
  -2   6  -8 5427.86 492.509   5
  -2   6  -8 5186.72 520.210  23
  -2   6  -8 5434.38 411.247   8
  -2   6  -8 5056.86 538.388  17
   2  -6   9 3323.93 344.846  14
  -2   6  -9 4575.28 492.949  23
  -2   6  -9 3152.77 402.177  20
  -2   6  -9 3650.85 456.403  13
  -2   6  -9 3790.19 447.604  19
  -2   6  -9 3744.10 455.503  18
  -2   6  -9 4159.16 490.307  17
   2  -6   9 4868.94 472.485   4
  -2   6  -9 3587.46 354.388   8
  -2   6  -9 4056.79 439.121   5
  -2   5   8 41.9055 54.9180   7
  -2   5   8 52.4135 53.8220  11
   2  -5  -8 25.9810 79.5619   3
  -2   5   7 28.1113 52.6939   7
   2  -5  -7 64.8740 84.8173   3
  -2   5   7 40.3526 59.4489  11
   2  -5  -7 87.9119 68.1086  10
   2  -5  -7 206.054 104.414  16
   2  -5  -6 2698.61 275.692  10
  -2   5   6 2180.31 235.337   7
   2  -5  -6 2741.30 334.120  16
   2  -5  -6 2932.41 355.344   3
  -2   5   6 2965.52 270.862  11
  -2   5   5 429.121 102.652  11
  -2   5   5 345.462 83.0428   7
   2  -5  -5 390.397 106.865  10
   2  -5  -5 548.758 142.656  16
   2  -5  -5 577.412 159.276   3
   2  -5  -4 79.6541 64.2083   3
  -2   5   4 28.0478 29.1378  11
   2  -5  -4 104.025 91.8456  16
   2  -5  -4 143.938 65.9449  10
  -2   5   4 31.9435 35.0514   7
  -2   5   4-9.25629 36.8522   1
  -2   5   3 5756.42 396.974  18
   2  -5  -3 7693.63 409.704  10
  -2   5   3 6815.59 348.328   1
  -2   5   3 5838.28 400.669  13
  -2   5   3 6171.57 400.833  19
  -2   5   3 8027.85 393.274  11
  -2   5   3 5986.75 410.196  17
   2  -5  -3 6523.37 377.758  21
  -2   5   3 6527.40 442.410  15
   2  -5  -3 7849.39 509.924  16
   2  -5  -3 7363.42 495.362   3
   2  -5  -2 10867.7 479.991  10
  -2   5   2 11672.6 474.557  11
  -2   5   2 8595.28 509.994  18
   2  -5  -2 9717.62 477.259  21
  -2   5   2 9109.37 510.057  19
   2  -5  -2 10430.2 575.862   3
  -2   5   2 9202.70 523.997  13
  -2   5   2 8685.73 534.946  15
  -2   5   2 9129.90 526.566  17
  -2   5   2 9776.77 435.697   1
   2  -5  -2 10362.4 580.461  16
   2  -5  -1 7969.70 492.312   3
  -2   5   1 9233.18 416.376  11
  -2   5   1 7130.35 464.988  13
  -2   5   1 6381.31 296.639  20
  -2   5   1 7253.75 462.043  19
  -2   5   1 7953.75 519.669  15
   2  -5  -1 8084.70 406.680  10
  -2   5   1 7089.81 469.906  17
   2  -5  -1 7387.56 485.823  16
   2  -5  -1 7509.24 421.316  21
  -2   5   1 6914.79 463.622  18
  -2   5   0 4753.11 305.242  11
  -2   5   0 4001.66 252.470  20
  -2   5   0 4292.23 364.265  18
  -2   5   0 4191.70 354.724  19
  -2   5   0 4535.43 375.817  17
  -2   5   0 4330.20 300.323   5
   2  -5   0 4649.85 370.222   3
   2  -5   0 4037.88 308.732  21
   2  -5   0 4742.55 382.519  16
   2  -5   0 4716.34 304.633  10
  -2   5   0 4122.70 379.118  15
  -2   5   0 4095.08 359.542  13
  -2   5  -1 1589.53 168.075  20
  -2   5  -1 1862.12 244.156  13
   2  -5   1 1524.24 193.110  21
  -2   5  -1 1693.88 237.197  18
  -2   5  -1 1675.94 256.750  15
   2  -5   1 1537.79 173.682  10
  -2   5  -1 1877.75 246.640  17
   2  -5   1 1678.73 228.104  16
  -2   5  -1 1690.64 189.523   5
   2  -5   1 1790.52 235.208   3
  -2   5  -1 1833.97 241.196  19
   2  -5   2 1136.75 169.703  21
  -2   5  -2 1114.50 194.995  19
  -2   5  -2 1033.39 149.244  20
  -2   5  -2 1145.89 200.125  18
  -2   5  -2 1223.03 216.171  15
  -2   5  -2 1355.83 177.817   5
  -2   5  -2 1239.60 209.243  17
   2  -5   2 1215.38 201.996  16
   2  -5   2 1372.73 210.957   3
  -2   5  -2 1312.05 213.121  13
   2  -5   3 158.478 100.795   3
  -2   5  -3 247.910 89.8990  20
   2  -5   3 212.371 79.6225  21
  -2   5  -3 106.366 86.8215  13
  -2   5  -3 195.562 80.1721   5
  -2   5  -3 112.960 74.3242  19
  -2   5  -3 218.032 120.098  15
  -2   5  -3 154.189 88.8584  18
   2  -5   3 178.825 93.5750  16
  -2   5  -3 154.248 90.8295  17
  -2   5  -3 175.605 56.0559   8
  -2   5  -4 9666.21 615.308  13
   2  -5   4 9142.70 520.912  21
  -2   5  -4 9199.97 511.554  20
  -2   5  -4 9544.23 518.585   5
  -2   5  -4 9740.57 598.606  19
   2  -5   4 10309.6 618.542   3
  -2   5  -4 9508.41 598.389  18
   2  -5   4 8704.19 572.925  16
  -2   5  -4 8682.07 375.133   8
  -2   5  -4 9347.27 606.790  17
  -2   5  -4 9241.24 633.587  15
   2  -5   5 4779.07 346.911  14
   2  -5   5 5460.95 457.985   3
  -2   5  -5 4815.12 382.407  20
   2  -5   5 4905.11 443.836  16
  -2   5  -5 4826.19 447.570  17
  -2   5  -5 5191.46 453.299  13
  -2   5  -5 5016.27 437.287  23
  -2   5  -5 5358.13 398.655   5
  -2   5  -5 5226.95 451.512  18
  -2   5  -5 5590.77 456.274  19
  -2   5  -5 4958.58 301.164   8
  -2   5  -6 18381.5 893.932  19
  -2   5  -6 18350.5 809.327   5
  -2   5  -6 19460.4 955.147  17
  -2   5  -6 18458.3 919.956  13
   2  -5   6 18881.4 938.178  16
  -2   5  -6 18830.7 909.714  23
  -2   5  -6 17659.6 666.557   8
  -2   5  -6 18983.8 837.082  20
   2  -5   6 15209.7 1065.95   1
   2  -5   6 17635.1 731.242  14
  -2   5  -6 18642.5 911.956  18
   2  -5   6 22304.4 989.679   3
   2  -5   7-29.6903 42.4289  14
  -2   5  -7-38.0652 70.9033  23
  -2   5  -7-11.8055 55.7988  19
  -2   5  -7-124.524 88.5035  17
   2  -5   7 204.274 110.855  16
  -2   5  -7 183.631 102.328   5
  -2   5  -7-47.1139 62.9709  20
  -2   5  -7-39.2556 64.3284  13
   2  -5   7-42.7028 78.8140   4
   2  -5   7-12.0155 106.008   1
  -2   5  -7 18.7972 68.3934  18
  -2   5  -7 6.84967 56.7924   8
  -2   5  -8 335.728 119.963   5
  -2   5  -8 241.092 92.7758   8
  -2   5  -8 94.8157 75.7572  20
   2  -5   8-191.157 157.454   1
  -2   5  -8 33.9454 67.3676  19
  -2   5  -8 152.295 86.8768  18
   2  -5   8 137.290 69.0862  14
  -2   5  -8 64.2925 71.8337  17
  -2   5  -8 245.577 112.432  23
  -2   5  -8-20.0981 59.5551  13
   2  -5   8 194.136 95.5265   4
   2  -5   9 326.065 110.424  14
  -2   5  -9 174.189 100.083  19
  -2   5  -9 263.896 118.058  18
  -2   5  -9 233.142 119.318   5
  -2   5  -9 374.697 133.687  20
  -2   5  -9 325.589 126.951  23
   2  -5   9 122.309 149.509   1
  -2   5  -9 113.886 94.8573  17
  -2   5  -9 222.966 115.444  13
   2  -5   9 147.798 115.746   4
  -2   5  -9 42.8163 63.1550   8
   2  -5  10 230.843 157.672   1
  -2   5 -10 133.206 102.881   5
  -2   5 -10-10.3965 68.1278  20
   2  -5  10 69.6967 79.8493   4
  -2   5 -10-19.8309 88.1386   8
  -2   4   9 69.4322 63.4110   7
  -2   4   9 154.622 79.3658  11
  -2   4   8 265.638 96.6713   7
   2  -4  -8 399.040 119.164  10
  -2   4   8 312.610 102.239  11
   2  -4  -8 244.218 110.727   3
   2  -4  -7 350.990 134.943   3
  -2   4   7 142.831 82.7593   7
  -2   4   7 364.126 102.742  11
   2  -4  -7 227.675 97.6078  16
   2  -4  -7 347.918 106.770  10
  -2   4   6 7453.18 434.593   7
   2  -4  -6 8358.29 579.023   3
  -2   4   6 9339.21 474.617  11
   2  -4  -6 8553.09 471.828  10
   2  -4  -6 8078.34 540.946  16
   2  -4  -5 599.925 118.687  10
   2  -4  -5 466.175 119.465  16
  -2   4   5 690.825 119.424   7
  -2   4   5 645.696 115.104  11
   2  -4  -5 544.712 146.744   3
  -2   4   4 764.964 117.807  11
   2  -4  -4 709.465 163.262   3
  -2   4   4 706.699 95.9804   1
  -2   4   4 529.612 92.4751   7
   2  -4  -4 683.366 145.501  16
   2  -4  -4 800.966 122.435  10
  -2   4   3 513.676 86.0330   7
   2  -4  -3 488.683 95.2708  10
   2  -4  -3 387.726 118.792   3
  -2   4   3 331.982 91.1952  13
   2  -4  -3 505.299 93.5089  21
  -2   4   3 338.526 87.1706  19
  -2   4   3 463.576 80.1379   1
  -2   4   3 324.892 88.3745  17
  -2   4   3 347.553 85.7419  18
  -2   4   3 455.326 88.8263  11
   2  -4  -3 374.550 108.529  16
  -2   4   3 340.817 97.0361  15
  -2   4   2 2028.80 148.407   7
   2  -4  -2 2082.36 235.810   3
   2  -4  -2 1983.49 185.566  21
  -2   4   2 2463.26 191.142  11
  -2   4   2 1901.98 197.366  19
  -2   4   2 2011.83 207.864  18
  -2   4   2 1957.58 165.893   1
   2  -4  -2 1903.65 226.249  16
  -2   4   2 1888.22 203.636  13
  -2   4   2 1732.38 196.960  17
   2  -4  -2 1980.18 181.087  10
  -2   4   2 1788.07 212.239  15
  -2   4   1 932.631 82.3105   7
   2  -4  -1 957.320 158.126   3
  -2   4   1 1378.46 145.701  11
  -2   4   1 1178.68 167.089  13
  -2   4   1 1131.16 163.061  19
   2  -4  -1 1050.83 127.770  10
  -2   4   1 1083.56 100.031  20
  -2   4   1 1010.15 155.725  18
   2  -4  -1 1085.75 140.856  21
   2  -4  -1 1093.04 167.170  16
  -2   4   1 1122.45 167.055  17
  -2   4   1 985.585 164.637  15
  -2   4   0 1191.28 140.596   5
  -2   4   0 1217.64 177.932  13
  -2   4   0 984.833 171.676  15
  -2   4   0 1240.49 181.961  18
  -2   4   0 1052.01 128.463  11
  -2   4   0 1020.88 112.514  20
   2  -4   0 1101.87 130.402  10
  -2   4   0 1065.32 164.826  17
   2  -4   0 718.202 137.268   3
   2  -4   0 1206.21 151.354  21
   2  -4   0 747.791 138.314  16
  -2   4   0 1039.25 161.642  19
   2  -4   1 13213.2 598.445   3
   2  -4   1 13357.8 609.095  16
   2  -4   1 12662.4 539.367  21
  -2   4  -1 13371.4 533.485   5
  -2   4  -1 13490.5 484.068  20
  -2   4  -1 12908.4 597.853  19
   2  -4   1 13157.8 493.342  10
  -2   4  -1 13257.4 613.895  13
  -2   4  -1 13241.9 624.371  17
  -2   4  -1 11747.1 313.155   8
  -2   4  -1 13537.4 618.168  18
  -2   4  -1 14176.6 665.954  15
   2  -4   2 13874.6 626.005   3
  -2   4  -2 12351.0 597.642  19
  -2   4  -2 14095.4 546.960   5
   2  -4   2 12375.2 544.774  21
  -2   4  -2 13220.8 516.194  20
  -2   4  -2 12891.6 622.180  18
  -2   4  -2 13375.5 632.372  13
  -2   4  -2 13032.7 634.243  17
   2  -4   2 12523.4 603.537  16
  -2   4  -2 12739.9 371.683   8
  -2   4  -2 13187.9 660.532  15
   2  -4   3 569.283 141.489   3
  -2   4  -3 526.659 137.638  15
  -2   4  -3 562.006 129.805  19
  -2   4  -3 439.158 101.565  20
   2  -4   3 474.983 108.060  21
  -2   4  -3 496.024 132.605  13
  -2   4  -3 665.303 147.356  17
  -2   4  -3 834.906 141.639   5
  -2   4  -3 468.007 123.020  18
   2  -4   3 585.633 136.448  16
  -2   4  -3 600.351 81.7387   8
   2  -4   4 2174.85 265.802   3
  -2   4  -4 2029.67 222.934   5
   2  -4   4 1678.86 126.423   6
  -2   4  -4 2015.55 249.252  19
  -2   4  -4 1589.16 220.132  18
   2  -4   4 1350.27 281.234   1
  -2   4  -4 1908.06 247.332  13
  -2   4  -4 1762.65 240.933  17
  -2   4  -4 1863.79 160.578   8
   2  -4   4 2048.12 261.222  16
  -2   4  -4 1940.76 213.656  20
  -2   4  -5 14935.9 719.051  23
  -2   4  -5 14633.8 727.883  13
  -2   4  -5 14093.8 705.810  18
  -2   4  -5 14340.1 641.416  20
   2  -4   5 13714.9 729.611  16
  -2   4  -5 14184.2 725.018  17
   2  -4   5 11566.4 839.544   1
  -2   4  -5 14022.1 695.419  19
   2  -4   5 13809.5 579.724  14
  -2   4  -5 13803.5 621.916   5
  -2   4  -5 14423.1 521.755   8
   2  -4   5 16020.2 754.828   3
  -2   4  -6 3.88706 77.4780  23
  -2   4  -6 130.744 83.3486  13
  -2   4  -6 243.428 90.3025  20
  -2   4  -6 105.370 71.7890   8
   2  -4   6-172.197 130.316   1
  -2   4  -6 21.2013 54.9468  18
  -2   4  -6 118.898 76.3296  19
   2  -4   6 108.579 90.7171  16
  -2   4  -6 158.009 97.6027   5
   2  -4   6 131.897 57.8890  14
  -2   4  -6 66.9293 72.7343  17
   2  -4   6 92.1866 71.6503   4
   2  -4   7 8452.11 518.040   4
   2  -4   7 7412.35 439.225  14
  -2   4  -7 7906.48 551.192  18
  -2   4  -7 7181.24 474.426   5
  -2   4  -7 7676.25 554.474  13
  -2   4  -7 7328.80 524.906  19
  -2   4  -7 8175.84 554.279  23
   2  -4   7 6045.93 644.606   1
  -2   4  -7 7107.83 540.359  17
   2  -4   7 7638.56 584.441  16
  -2   4  -7 6609.99 403.710   8
  -2   4  -7 7164.39 491.084  20
   2  -4   8 1253.06 186.416  14
  -2   4  -8 1279.31 234.804  17
  -2   4  -8 994.061 201.748  19
   2  -4   8 984.569 227.120  16
  -2   4  -8 1134.16 201.174   5
  -2   4  -8 875.286 198.794  13
   2  -4   8 935.944 264.746   1
  -2   4  -8 936.001 192.796  23
  -2   4  -8 1087.96 210.084  18
   2  -4   8 1257.06 204.076   4
  -2   4  -8 1251.39 212.939  20
  -2   4  -8 1270.82 188.723   8
  -2   4  -9 75.9511 75.6561  23
  -2   4  -9 42.3522 65.3373  20
   2  -4   9 37.4409 117.138   1
   2  -4   9 109.270 47.5664  14
  -2   4  -9 272.681 123.754   5
  -2   4  -9 101.332 81.9576  17
  -2   4  -9-40.9213 65.3878  18
  -2   4  -9-50.2288 69.8914  19
   2  -4   9 133.934 75.0864   4
  -2   4  -9 98.8956 93.2762  13
  -2   4  -9 137.851 81.5629   8
  -2   4 -10 230.711 94.8211  20
   2  -4  10 220.115 164.807   1
  -2   4 -10 264.625 112.114   8
  -2   4 -10 459.837 152.578   5
   2  -4  10 167.202 110.619   4
  -2   3   9 751.189 167.069   7
  -2   3   9 1059.39 189.878  11
   2  -3  -9 1177.49 209.218  10
   2  -3  -9 944.637 221.406   3
   2  -3  -8-18.0797 70.5411   3
  -2   3   8-35.4201 51.6251  11
  -2   3   8 114.699 73.8160   7
  -2   3   7 215.503 65.8887  11
   2  -3  -7 128.378 85.7439   3
  -2   3   7 206.957 80.5343   7
   2  -3  -7 210.514 76.0765  10
  -2   3   6 262.863 80.5286   7
   2  -3  -6 243.062 108.945   3
   2  -3  -6 129.398 68.4982  16
   2  -3  -6 289.374 90.8393  10
  -2   3   6 340.667 89.7557  11
  -2   3   5 1207.98 158.944   7
   2  -3  -5 1318.44 205.585   3
   2  -3  -5 1264.00 156.172  10
   2  -3  -5 1209.52 178.551  16
  -2   3   5 1473.31 162.724  11
   2  -3  -4-56.4463 63.0543   3
  -2   3   4-19.5577 31.5358  19
  -2   3   4-29.6224 34.1895  13
  -2   3   4-15.4085 31.2230   7
   2  -3  -4-22.7392 58.0795  16
  -2   3   4-21.5602 23.3689   1
   2  -3  -4-6.55206 33.4106  10
  -2   3   4 1.38731 34.1355  15
  -2   3   4 7.89226 25.8620  18
  -2   3   4-22.2226 27.7610  17
  -2   3   4 23.4804 25.3979  11
   2  -3  -3 0.63702 31.0966  10
  -2   3   3-6.77151 28.2191   7
  -2   3   3 44.8938 34.4959  19
   2  -3  -3 0.80048 15.1271   8
  -2   3   3-10.7389 27.6211   9
   2  -3  -3 80.4717 79.5257   3
   2  -3  -3 11.3747 26.2429  21
  -2   3   3 26.6468 28.7532  18
  -2   3   3-30.2784 34.1313  15
  -2   3   3-6.76446 19.2708   1
   2  -3  -3-10.6805 35.6529  16
  -2   3   3-15.5746 22.7541  11
  -2   3   3-13.6180 30.2692  17
  -2   3   3 50.5755 43.2554  13
  -2   3   2 623.017 79.7433   7
  -2   3   2 778.394 99.2076  11
   2  -3  -2 512.690 82.9051  21
   2  -3  -2 495.076 108.360   3
  -2   3   2 382.933 33.5931  20
  -2   3   2 649.072 80.8434   1
  -2   3   2 477.367 87.6523  19
   2  -3  -2 378.973 27.4532   8
   2  -3  -2 626.586 91.7141  10
  -2   3   2 511.912 95.7114  18
  -2   3   2 378.806 79.1167   9
  -2   3   2 549.527 99.3654  17
   2  -3  -2 557.810 114.313  16
  -2   3   2 709.931 108.130  13
  -2   3   2 608.840 107.863  15
   2  -3  -1 418.631 78.4656  21
  -2   3   1 468.268 57.1024  20
  -2   3   1 535.420 104.202  18
  -2   3   1 437.167 71.6258   9
  -2   3   1 479.682 96.2961  19
   2  -3  -1 441.208 75.6951  10
   2  -3  -1 509.709 108.197   3
  -2   3   1 456.536 97.3632  17
  -2   3   1 525.413 79.3267  11
   2  -3  -1 377.918 101.408  16
  -2   3   1 416.842 94.1019  13
  -2   3   1 427.720 55.6309   7
  -2   3   1 626.143 113.560  15
  -2   3   0 1573.80 167.182   2
   2  -3   0 1440.57 167.567   3
  -2   3   0 1269.24 108.531   9
  -2   3   0 1485.58 118.524  20
   2  -3   0 1502.10 135.513  10
  -2   3   0 1463.77 169.452  19
  -2   3   0 1644.92 154.260   5
  -2   3   0 1314.88 162.441  13
   2  -3   0 1536.52 154.852  21
  -2   3   0 1603.56 179.186  17
  -2   3   0 1474.62 169.394  18
   2  -3   0 1442.86 175.293  16
  -2   3   0 1418.24 132.325  11
  -2   3   0 1460.86 182.489  15
  -2   3  -1 15440.1 611.276  18
   2  -3   1 16049.7 562.107  21
   2  -3   1 15819.5 604.254   3
  -2   3  -1 15026.6 577.223   2
  -2   3  -1 17761.9 560.632   5
   2  -3   1 15767.5 504.917  10
  -2   3  -1 15507.1 604.995  19
  -2   3  -1 15143.5 391.704   9
  -2   3  -1 16315.5 622.278  13
  -2   3  -1 15486.3 618.477  17
   2  -3   1 16031.2 620.809  16
  -2   3  -1 16027.3 375.934   8
  -2   3  -1 16970.9 511.098  20
  -2   3  -1 16474.2 656.428  15
  -2   3  -2 67292.2 1638.80  15
   2  -3   2 55409.0 1770.22   1
   2  -3   2 70054.3 1570.65   3
  -2   3  -2 68467.1 1415.34  20
  -2   3  -2 61217.7 1497.74   2
  -2   3  -2 64747.3 1544.41  19
  -2   3  -2 64132.5 1558.75  18
   2  -3   2 65049.7 1463.33  21
  -2   3  -2 72297.3 1457.16   5
  -2   3  -2 66939.2 1594.27  17
   2  -3   2 67158.5 1580.76  16
  -2   3  -2 65438.5 1228.83   8
  -2   3  -2 60201.5 1121.21   9
  -2   3  -2 65663.7 1569.35  13
  -2   3  -3 1935.22 211.231  19
  -2   3  -3 1728.85 172.056  20
   2  -3   3 1718.38 185.083  21
  -2   3  -3 1843.82 210.949  13
  -2   3  -3 1887.61 136.148   8
   2  -3   3 1684.33 125.769   6
   2  -3   3 1717.11 268.126   1
  -2   3  -3 1990.97 191.486   5
   2  -3   3 1338.34 61.6346   7
   2  -3   3 1965.37 218.475   3
  -2   3  -3 2130.97 212.108   2
  -2   3  -3 2056.62 221.405  18
  -2   3  -3 1469.84 203.026  15
  -2   3  -3 1727.50 211.000  17
   2  -3   3 1841.13 217.093  16
   2  -3   4 1712.76 99.2533   7
  -2   3  -4 1881.87 152.034   8
  -2   3  -4 1941.64 221.992  19
  -2   3  -4 1638.68 206.977  13
  -2   3  -4 1816.45 218.524  18
   2  -3   4 1758.47 176.214  14
  -2   3  -4 2042.80 200.306   5
   2  -3   4 1848.82 121.867   6
  -2   3  -4 2003.51 234.825  17
   2  -3   4 1278.04 239.277   1
   2  -3   4 1409.72 55.8416  12
  -2   3  -4 2056.25 213.725   2
   2  -3   4 1918.49 235.391  16
  -2   3  -4 2054.76 201.005  20
  -2   3  -4 1746.80 213.327  23
   2  -3   4 1658.88 215.676   3
  -2   3  -5 1055.46 174.485  13
   2  -3   5 1129.33 185.175   3
  -2   3  -5 1228.25 182.896  18
  -2   3  -5 1140.82 188.892  17
   2  -3   5 1275.92 156.790  14
   2  -3   5 957.092 239.237   1
  -2   3  -5 1191.17 135.764   8
  -2   3  -5 1087.57 166.084   2
   2  -3   5 940.053 92.0197   7
  -2   3  -5 1157.77 160.805   5
   2  -3   5 1343.88 211.768  16
  -2   3  -5 1120.48 173.536  19
  -2   3  -5 1154.59 180.708  23
  -2   3  -5 1193.25 169.715  20
   2  -3   6 439.948 136.042  16
   2  -3   6 390.264 76.2739   7
  -2   3  -6 658.593 126.343   5
   2  -3   6 470.948 173.020   1
   2  -3   6 410.713 94.2235  14
  -2   3  -6 502.297 128.024   2
  -2   3  -6 436.767 115.729  23
  -2   3  -6 478.963 121.996  19
  -2   3  -6 430.590 122.062  17
  -2   3  -6 319.038 105.996  18
  -2   3  -6 557.981 122.483  20
  -2   3  -6 375.940 118.898  13
  -2   3  -6 498.517 98.1832   8
   2  -3   6 515.592 119.365   4
  -2   3  -7 711.819 150.437  23
  -2   3  -7 585.735 146.985  17
   2  -3   7 637.189 194.866   1
   2  -3   7 615.219 99.8417   7
  -2   3  -7 1171.57 190.682   2
  -2   3  -7 687.138 153.420  13
  -2   3  -7 911.326 163.396  20
  -2   3  -7 809.392 148.449   5
  -2   3  -7 692.010 146.700  19
   2  -3   7 760.185 132.680  14
   2  -3   7 852.193 153.553   4
   2  -3   7 1053.91 217.227  16
  -2   3  -7 860.066 166.948  18
  -2   3  -7 913.320 141.483   8
  -2   3  -8 1710.62 239.749  23
   2  -3   8 1485.47 164.600   7
   2  -3   8 2082.62 225.997  14
   2  -3   8 1565.91 317.177   1
  -2   3  -8 1872.34 261.800  13
   2  -3   8 1628.53 284.503  16
  -2   3  -8 2345.40 278.500  19
  -2   3  -8 1877.64 251.488  20
  -2   3  -8 1565.68 220.517   5
  -2   3  -8 1790.00 256.670  17
   2  -3   8 2144.47 251.251   4
  -2   3  -8 1877.66 218.807   8
  -2   3  -8 1731.84 243.741  18
   2  -3   9 1537.79 200.951  14
   2  -3   9 1732.54 351.154   1
  -2   3  -9 1684.48 260.664  17
  -2   3  -9 1565.48 237.834  23
  -2   3  -9 1795.95 253.123  19
  -2   3  -9 1562.37 241.186  20
  -2   3  -9 1748.35 250.243  18
  -2   3  -9 1601.75 231.371   5
   2  -3   9 1428.08 219.800   4
  -2   3  -9 1571.00 216.411   8
  -2   3 -10 67.0865 84.6954   5
  -2   3 -10 54.1495 94.2821  20
   2  -3  10-43.0999 100.599   1
   2  -3  10-36.9897 65.5668   4
  -2   3 -10 65.9785 71.2031   8
   2  -3  11 40.1799 114.191   1
  -2   3 -11 74.3612 76.8482  20
  -2   3 -11-100.065 85.7735   8
  -2   2  10 81.6776 79.4066   7
   2  -2 -10 20.3088 81.7416   3
  -2   2  10-71.4612 64.4645  11
  -2   2   9 13028.9 693.462   7
  -2   2   9 15450.6 734.465  11
   2  -2  -9 14160.6 853.597   3
   2  -2  -8 296.392 128.581   3
  -2   2   8 326.282 107.934  11
  -2   2   8 75.4241 72.0588   7
   2  -2  -8 214.915 89.6753  10
  -2   2   7 415.333 111.666   7
  -2   2   7 354.233 108.107   4
   2  -2  -7 511.378 143.973   3
  -2   2   7 434.738 104.043  11
   2  -2  -7 457.528 116.098  10
  -2   2   6 1128.48 160.695   7
   2  -2  -6 805.310 110.194   8
   2  -2  -6 823.454 170.792   3
   2  -2  -6 887.015 143.138  16
   2  -2  -6 1193.37 164.778  10
  -2   2   6 1148.58 152.495  11
  -2   2   5 22.9337 42.7014   7
  -2   2   5 88.8164 47.7352  11
   2  -2  -5 22.1633 44.4005  16
  -2   2   5 37.7524 49.2864   9
   2  -2  -5-17.7790 34.5747  10
   2  -2  -5 55.8859 82.4411   3
   2  -2  -5 32.1032 29.2916   8
  -2   2   4 2060.59 179.884   7
   2  -2  -4 2391.38 237.757   3
  -2   2   4 1527.92 108.723  13
  -2   2   4 1423.63 105.562  17
  -2   2   4 1507.55 108.021  18
  -2   2   4 1654.61 183.894   9
  -2   2   4 1535.59 106.412  19
   2  -2  -4 2133.15 179.565  10
  -2   2   4 1801.93 114.401   1
   2  -2  -4 2124.10 202.567  16
   2  -2  -4 2037.56 130.665   8
  -2   2   4 1571.77 115.643  15
  -2   2   4 2026.05 168.716  11
  -2   2   3 1732.29 125.530  19
  -2   2   3 1721.04 129.532  17
  -2   2   3 1882.49 133.507  13
   2  -2  -3 2538.58 227.267   3
  -2   2   3 1622.05 124.668  18
   2  -2  -3 1900.87 121.676  21
  -2   2   3 2136.15 166.744   7
   2  -2  -3 2327.88 170.640  10
  -2   2   3 1776.90 175.724   9
  -2   2   3 2107.78 158.795  11
  -2   2   3 1942.59 117.544   1
   2  -2  -3 1992.75 190.701  16
   2  -2  -3 2096.58 113.046   8
  -2   2   3 1632.68 131.930  15
  -2   2   2 258247. 4145.40   7
   2  -2  -2 257425. 4376.01   3
  -2   2   2 227625. 4140.96  13
  -2   2   2 230474. 4132.03  19
   2  -2  -2 260381. 4150.65  10
  -2   2   2 244019. 4047.29   1
  -2   2   2 266657. 4164.47  11
  -2   2   2 226983. 4146.14  17
   2  -2  -2 237365. 4100.37  21
  -2   2   2 228323. 4140.57  18
  -2   2   2 227657. 4208.79   9
  -2   2   2 228801. 4174.68  15
   2  -2  -2 246239. 4327.04  16
   2  -2  -1 3810.95 248.903   3
  -2   2   1 4112.57 201.082  11
   2  -2  -1 3664.97 198.097  21
  -2   2   1 3810.65 215.182   2
  -2   2   1 3931.82 220.713  19
  -2   2   1 3911.39 206.055   9
  -2   2   1 4072.40 227.919  13
   2  -2  -1 3807.52 188.306  10
  -2   2   1 3775.64 220.396  18
  -2   2   1 3184.34 132.113  20
  -2   2   1 3693.10 167.404   7
   2  -2  -1 3716.46 246.853  16
  -2   2   1 3835.90 224.283  17
  -2   2   1 3751.99 233.285  15
  -2   2   0 50.0567 18.3685   7
  -2   2   0 70.2850 23.4668   9
   2  -2   0 53.0139 31.9490  21
   2  -2   0 77.0366 47.6161   3
  -2   2   0 121.060 48.4575  13
   2  -2   0 70.5528 30.2009  10
  -2   2   0 66.0801 28.1082  20
  -2   2   0 51.7180 28.4105  11
  -2   2   0 68.1865 36.6420  19
   2  -2   0 10.1766 40.6619  16
  -2   2   0 19.1993 41.7385  18
  -2   2   0 63.5435 35.3506   2
  -2   2   0 8.65338 30.6797  17
  -2   2   0 110.276 54.4729  15
   2  -2   1 5715.33 308.115   3
  -2   2  -1 5653.05 324.015  15
   2  -2   1 5227.95 267.131  21
  -2   2  -1 5762.49 247.021  20
   2  -2   1 5195.44 229.001  10
  -2   2  -1 5597.50 303.034  18
  -2   2  -1 5312.58 183.697   9
   2  -2   1 4468.23 363.062   1
  -2   2  -1 5779.57 310.677  17
  -2   2  -1 5170.11 289.383  19
  -2   2  -1 5586.56 304.232  13
  -2   2  -1 4982.01 275.297   2
   2  -2   1 5855.88 324.413  16
  -2   2  -1 5826.33 189.680   8
  -2   2  -1 5916.41 278.785   5
  -2   2  -2 26017.4 526.676   9
   2  -2   2 28073.0 807.114   3
   2  -2   2 26781.5 734.353  21
   2  -2   2 24276.0 930.912   1
   2  -2   2 27075.9 829.955  16
  -2   2  -2 29582.0 732.105   5
  -2   2  -2 27814.2 707.967  20
  -2   2  -2 25379.5 744.102   2
  -2   2  -2 27229.9 799.937  18
  -2   2  -2 26463.5 808.008  17
  -2   2  -2 27183.1 807.308  13
  -2   2  -2 27977.3 843.306  15
  -2   2  -2 27410.8 604.848   8
  -2   2  -2 26712.7 785.702  19
   2  -2   3 14173.1 695.239   1
  -2   2  -3 15779.9 602.453  13
  -2   2  -3 15564.0 441.803   8
  -2   2  -3 14872.9 547.347   2
  -2   2  -3 16210.5 534.115  20
  -2   2  -3 16137.4 526.419   5
  -2   2  -3 15413.0 582.346  19
  -2   2  -3 15713.7 347.080   9
  -2   2  -3 15843.0 609.649  17
  -2   2  -3 15320.6 589.382  23
   2  -2   3 15217.5 430.389   6
  -2   2  -3 15998.2 594.835  18
   2  -2   3 16505.6 642.145  16
   2  -2   3 15987.5 506.680  14
   2  -2   3 14954.9 379.660   7
   2  -2   3 17314.8 631.106   3
  -2   2  -4 419.634 102.894  13
  -2   2  -4 475.501 103.963  19
   2  -2   4 449.708 62.0643   7
   2  -2   4 373.149 94.1011   3
   2  -2   4 542.093 89.5723  14
   2  -2   4 346.200 51.5218   6
  -2   2  -4 436.520 99.3772  23
  -2   2  -4 494.870 94.8877   2
   2  -2   4 435.951 46.8070  12
  -2   2  -4 460.885 90.2615  20
   2  -2   4 485.016 111.751  16
  -2   2  -4 556.508 100.194   5
  -2   2  -4 423.444 99.9814  18
   2  -2   4 496.526 136.315   1
  -2   2  -4 425.298 100.903  17
  -2   2  -4 458.102 84.0211   8
  -2   2  -5 486.608 97.7077   2
   2  -2   5 484.614 53.6272  12
   2  -2   5 504.908 77.5856   7
  -2   2  -5 461.096 111.149  23
   2  -2   5 574.525 97.7153  14
   2  -2   5 326.777 42.3140   6
  -2   2  -5 368.604 99.2916  17
  -2   2  -5 469.708 111.722  18
  -2   2  -5 472.701 107.539  19
  -2   2  -5 443.891 98.4947  20
  -2   2  -5 563.514 105.340   5
   2  -2   5 381.472 126.911   1
   2  -2   5 420.248 134.266  16
  -2   2  -5 549.992 119.094  13
  -2   2  -5 527.536 91.0434   8
  -2   2  -6 22.3405 50.3294  20
  -2   2  -6-21.1265 47.5336  23
   2  -2   6 6.25240 31.0201  14
   2  -2   6 40.6368 33.4708   7
  -2   2  -6-38.6237 47.5043  13
   2  -2   6-42.7852 53.6372   4
  -2   2  -6 33.9821 58.6442   2
  -2   2  -6 9.41676 44.6231  17
  -2   2  -6 70.9794 52.0429   8
  -2   2  -6-6.71116 45.5105   5
   2  -2   6-23.6830 21.8172  12
  -2   2  -6 30.6644 41.0833  19
   2  -2   6-40.5016 62.6297  16
  -2   2  -6-74.7248 63.3562  18
  -2   2  -7 832.075 149.560  23
   2  -2   7 839.231 129.254  14
  -2   2  -7 723.092 140.418  19
  -2   2  -7 874.975 163.012  17
  -2   2  -7 775.238 144.421  20
   2  -2   7 560.364 157.313   1
  -2   2  -7 833.388 159.997  13
  -2   2  -7 766.149 144.663  18
  -2   2  -7 803.135 138.641   5
   2  -2   7 661.960 110.567   7
   2  -2   7 838.121 91.1482  12
  -2   2  -7 868.118 136.634   8
  -2   2  -7 840.766 147.846   2
   2  -2   7 713.930 129.379   4
   2  -2   7 582.136 164.624  16
  -2   2  -8 2677.82 269.281   2
   2  -2   8 1967.28 195.731   7
   2  -2   8 2887.31 247.653  14
  -2   2  -8 2687.56 273.341  23
  -2   2  -8 1864.45 217.343   5
  -2   2  -8 2154.86 248.573  19
   2  -2   8 2132.59 330.253   1
  -2   2  -8 2208.95 252.499  18
  -2   2  -8 2316.33 269.136  17
   2  -2   8 2799.94 269.382   4
  -2   2  -8 1765.19 228.219  20
  -2   2  -8 2328.06 238.294   8
   2  -2   9 171.675 69.6817  15
   2  -2   9 77.2609 53.0663   7
   2  -2   9 6.23264 35.2528  14
  -2   2  -9 61.4685 64.7226  19
  -2   2  -9 51.0126 48.6100  18
  -2   2  -9 131.565 61.0402  20
  -2   2  -9 156.422 92.5211   5
  -2   2  -9 114.825 55.7782  21
  -2   2  -9 81.7010 67.4948  17
  -2   2  -9 84.1733 60.7326  23
  -2   2  -9 21.8492 58.2113   8
   2  -2   9 13.0945 54.0099   4
   2  -2  10 55.8974 95.3721   1
  -2   2 -10 84.1016 92.9097  20
  -2   2 -10 24.2193 69.0154   8
   2  -2  10-48.1843 49.1189   7
   2  -2  10 52.9194 56.7252   4
  -2   2 -11 81.0650 68.1347  20
  -2   2 -11 85.6319 96.3949   8
   2  -2  11 8.37538 84.5167   1
   2  -2  11 99.5509 69.2396   7
   2  -1 -10 1716.24 257.995  10
  -2   1  10 1464.63 238.344   4
  -2   1  10 1407.59 233.364   7
  -2   1   9-15.6938 70.4745   7
  -2   1   9-73.5178 62.7623  11
   2  -1  -9-69.2219 81.8269  10
  -2   1   9-52.4210 71.4221   4
   2  -1  -9 56.2951 70.3345   8
  -2   1   8 5183.03 379.263  11
   2  -1  -8 4850.98 379.553  10
  -2   1   8 4417.94 361.361   7
  -2   1   8 4767.60 371.400   4
   2  -1  -8 3654.83 282.597   8
  -2   1   7 129.921 68.7363   7
  -2   1   7 84.7037 80.8693   4
  -2   1   7 98.3275 51.1469  11
   2  -1  -7 47.5213 46.7441  10
   2  -1  -7 45.3699 44.5959   8
  -2   1   6 5408.44 346.962   7
  -2   1   6 5893.81 358.162   4
  -2   1   6 5824.27 341.194  11
   2  -1  -6 4961.76 279.180   5
   2  -1  -6 5000.53 276.926   8
   2  -1  -6 6120.78 353.498  10
   2  -1  -6 5870.14 342.077  16
  -2   1   5 2609.11 217.917   7
   2  -1  -5 2260.40 195.325  10
  -2   1   5 2377.08 195.195  11
  -2   1   5 1765.46 198.085   9
  -2   1   5 1920.68 191.364   4
   2  -1  -5 2374.41 167.688   8
   2  -1  -5 2397.47 204.580  16
  -2   1   5 1971.11 129.542   1
  -2   1   4 46.0469 17.8747   1
  -2   1   4 34.7239 33.2337   7
  -2   1   4-20.6652 35.9994   4
   2  -1  -4 21.8500 8.33336  20
   2  -1  -4-17.4869 38.7627  10
  -2   1   4 23.5230 30.1015  11
  -2   1   4 16.5218 29.4416   9
   2  -1  -4 35.4741 34.7474  16
   2  -1  -4-32.8032 32.0558   8
  -2   1   3 1134.75 61.9468  18
   2  -1  -3 1729.86 170.582   3
  -2   1   3 1780.11 135.885  11
  -2   1   3 1706.55 152.720   4
  -2   1   3 1695.80 144.887   7
  -2   1   3 1184.84 62.2660  19
  -2   1   3 1587.81 80.6112   1
   2  -1  -3 1823.35 138.569  10
  -2   1   3 1401.77 144.189   9
   2  -1  -3 1660.91 151.679  16
  -2   1   2 11968.5 369.704   7
  -2   1   2 11200.2 266.177   1
   2  -1  -2 11299.3 401.899  16
  -2   1   2 11295.3 400.049   9
  -2   1   2 11066.7 389.997   4
  -2   1   2 11987.6 354.889  11
  -2   1   2 10114.5 284.195  19
   2  -1  -2 11832.8 342.347  10
  -2   1   2 10084.9 287.525  18
   2  -1  -2 11739.3 428.597   3
  -2   1   2 11000.1 311.789   2
  -2   1   2 10094.5 299.845  15
  -2   1   2 9633.44 285.446  13
  -2   1   2 9631.41 287.400  17
   2  -1  -1 22360.2 505.637  21
   2  -1  -1 22663.4 616.696   3
  -2   1   1 20877.3 526.382  13
  -2   1   1 21307.6 523.680  19
  -2   1   1 23062.5 529.738  11
   2  -1  -1 23108.5 497.621  10
  -2   1   1 21850.2 531.172  18
  -2   1   1 21902.1 514.544   7
  -2   1   1 23568.0 575.317   9
  -2   1   1 21166.6 534.775  17
  -2   1   1 21939.0 535.708   2
   2  -1  -1 21657.9 607.248  16
  -2   1   1 21475.7 548.543  15
   2  -1   0 20396.0 569.973   3
  -2   1   0 21382.4 562.763  13
  -2   1   0 22409.9 511.141  11
   2  -1   0 21013.9 465.632  10
  -2   1   0 22297.1 504.622   9
  -2   1   0 22182.6 487.608  20
   2  -1   0 21650.8 610.453  16
  -2   1   0 21497.0 551.432  19
  -2   1   0 21774.6 570.013  17
  -2   1   0 22131.7 560.981  18
  -2   1   0 21291.8 542.611   2
  -2   1  -1 721.891 93.2418  13
   2  -1   1 704.915 113.525   1
   2  -1   1 663.739 99.7608  16
   2  -1   1 707.193 93.0346   3
   2  -1   1 693.774 73.5194  14
  -2   1  -1 782.443 94.9999  23
  -2   1  -1 918.079 70.0897   8
  -2   1  -1 745.883 79.3491   5
  -2   1  -1 787.108 94.3909  19
  -2   1  -1 653.294 86.4000  18
  -2   1  -1 923.212 83.7549  20
  -2   1  -1 880.890 92.4074   2
  -2   1  -1 633.555 88.9640  17
  -2   1  -1 693.503 58.0813   9
  -2   1  -2 16013.9 491.676   2
   2  -1   2 17109.6 547.720   3
  -2   1  -2 18503.5 445.078   8
   2  -1   2 16220.4 464.013  14
  -2   1  -2 17433.4 549.353  13
  -2   1  -2 17411.5 543.408  23
  -2   1  -2 18693.0 496.141   5
  -2   1  -2 18712.2 498.005  20
  -2   1  -2 17624.6 558.987  17
  -2   1  -2 16915.0 386.183   9
  -2   1  -2 17102.7 535.581  19
   2  -1   2 17413.4 620.120   1
   2  -1   2 17680.8 469.236   6
  -2   1  -2 18005.2 550.637  18
   2  -1   2 18052.5 604.122  16
   2  -1   3 203.446 78.2868   1
   2  -1   3 155.988 41.5746   7
  -2   1  -3 196.325 51.7960   5
   2  -1   3 147.273 42.4451  14
   2  -1   3 285.459 50.5285   6
  -2   1  -3 270.863 60.3367   2
  -2   1  -3 208.709 60.5738  13
  -2   1  -3 227.953 63.7193  23
  -2   1  -3 147.758 53.5379  17
  -2   1  -3 121.671 45.6447  19
  -2   1  -3 167.603 56.1302  18
   2  -1   3 92.0825 49.5517   3
   2  -1   3 218.819 76.6375  16
  -2   1  -3 181.560 44.8136   8
  -2   1  -3 210.125 55.2352  20
   2  -1   4 3471.14 157.305  12
   2  -1   4 3599.02 173.158   6
  -2   1  -4 4406.98 277.000  23
   2  -1   4 3553.74 201.285   7
  -2   1  -4 4579.55 283.321  18
  -2   1  -4 3762.93 236.910  20
  -2   1  -4 3980.06 260.931  19
   2  -1   4 4086.71 226.279  14
  -2   1  -4 3592.96 260.959  17
  -2   1  -4 3616.03 227.262   2
  -2   1  -4 4282.48 276.197  13
   2  -1   4 4127.54 309.101   1
   2  -1   4 3870.45 310.631  16
  -2   1  -4 4064.76 216.235   8
  -2   1  -4 4175.50 229.183   5
   2  -1   5 1621.72 221.074  16
   2  -1   5 1342.90 140.262   4
   2  -1   5 1527.73 140.788   7
   2  -1   5 1732.15 216.251   1
   2  -1   5 1463.50 145.459  14
  -2   1  -5 1833.94 161.801   5
  -2   1  -5 1606.15 186.694  13
  -2   1  -5 1904.14 179.618  20
   2  -1   5 1406.48 104.492   6
  -2   1  -5 1692.09 181.565  23
  -2   1  -5 1655.16 153.134   8
  -2   1  -5 1520.05 174.405  18
  -2   1  -5 1682.20 181.311  19
  -2   1  -5 1548.56 183.083  17
   2  -1   5 1627.02 111.104  12
  -2   1  -5 1623.26 164.778   2
   2  -1   6 31842.2 1081.28   1
   2  -1   6 32864.3 847.441  14
   2  -1   6 31031.3 854.375   4
  -2   1  -6 32063.9 964.780  13
  -2   1  -6 29998.4 915.938  23
  -2   1  -6 30407.6 884.630   2
  -2   1  -6 30321.7 844.458   8
  -2   1  -6 30335.1 901.603  20
  -2   1  -6 30288.2 909.950  19
  -2   1  -6 31774.9 934.260  18
  -2   1  -6 31168.0 947.634  17
   2  -1   6 29640.5 698.523  12
  -2   1  -6 27640.2 816.934   5
   2  -1   6 32346.5 1101.13  16
   2  -1   6 29335.6 815.459   7
   2  -1   7 5455.33 438.822   1
   2  -1   7 5183.96 321.406   4
  -2   1  -7 4801.11 328.860  21
  -2   1  -7 5550.46 344.573   2
   2  -1   7 4808.20 301.978   7
   2  -1   7 5048.97 299.377  14
  -2   1  -7 4890.69 332.868  23
  -2   1  -7 4572.15 295.507   5
  -2   1  -7 4916.70 348.960  17
  -2   1  -7 5364.14 327.896   8
  -2   1  -7 4826.05 332.689  20
   2  -1   7 4617.38 233.931  12
  -2   1  -7 4987.45 339.696  19
  -2   1  -7 5204.90 349.438  18
   2  -1   7 5190.40 308.237  15
   2  -1   8 4747.69 326.735   7
  -2   1  -8 4723.86 320.010   5
   2  -1   8 6144.55 348.220  14
   2  -1   8 5321.01 350.617   4
  -2   1  -8 5162.40 369.645  17
  -2   1  -8 4843.33 359.914  20
  -2   1  -8 5549.39 371.569  19
  -2   1  -8 5464.10 368.765  21
  -2   1  -8 5593.33 378.315  18
   2  -1   8 4777.63 262.476  12
   2  -1   8 5507.84 483.916   1
  -2   1  -8 5510.66 361.247   2
  -2   1  -8 5787.76 377.406  23
  -2   1  -8 4877.88 339.184   8
   2  -1   8 6107.85 352.667  15
   2  -1   9 1219.66 179.295   7
   2  -1   9 1586.35 183.796  14
  -2   1  -9 1323.46 188.322  18
  -2   1  -9 1297.69 179.278   5
  -2   1  -9 1666.89 207.269  23
  -2   1  -9 1422.63 194.802  21
   2  -1   9 1073.31 136.663  12
   2  -1   9 1571.52 194.775  15
  -2   1  -9 1300.22 199.486  17
  -2   1  -9 1360.45 194.609  20
   2  -1   9 1390.83 190.084   4
  -2   1  -9 1372.10 195.164   8
   2  -1   9 1351.59 259.182   1
  -2   1  -9 1406.45 191.025  19
   2  -1  10 54.6476 48.9273   7
   2  -1  10-228.705 133.156   1
  -2   1 -10 76.6080 58.7736  20
   2  -1  10-121.416 73.9213   4
  -2   1 -10 84.7607 74.8222   8
   2  -1  11 6665.54 468.967   7
  -2   1 -11 6575.50 487.940  20
  -2   1 -11 7432.93 517.699   8
   2   0 -10 43.5343 55.7268   8
  -2   0  10 146.720 92.2180   4
  -2   0  10-20.5227 54.7424   7
   2   0  -9-56.9691 66.9918  10
  -2   0   9 54.3157 76.2128   4
  -2   0   9 29.9120 63.1933   7
   2   0  -9-29.2938 65.8725   8
  -2   0   8 12.7603 48.4727   7
  -2   0   8 2.43894 43.8666  11
  -2   0   8 78.5103 75.5152   4
   2   0  -8 62.7390 50.7394   8
  -2   0   7 84.0741 78.4884   7
  -2   0   7 45.2831 39.2699  11
   2   0  -7 46.2354 33.0297   5
  -2   0   7 100.253 76.6281   4
   2   0  -7 139.375 59.1326   8
  -2   0   6 3114.73 258.436   7
  -2   0   6 3231.67 267.256   4
   2   0  -6 2639.73 210.430   8
   2   0  -6 2977.97 216.830   5
  -2   0   6 3217.69 249.210  11
  -2   0   5 30253.3 728.694   1
   2   0  -5 26150.3 674.633  20
  -2   0   5 33174.8 888.074   7
   2   0  -5 30392.4 779.228   5
  -2   0   5 33048.2 857.455  11
  -2   0   5 24638.1 844.922   9
  -2   0   5 32981.3 895.411   4
   2   0  -5 30836.8 775.222  16
   2   0  -5 30779.2 773.311   8
  -2   0   4 172.115 56.7809   7
  -2   0   4 160.809 35.4440   1
   2   0  -4 204.292 41.7585  20
  -2   0   4 221.206 57.0987  11
  -2   0   4 104.882 50.0199   9
  -2   0   4 244.604 66.6026   4
   2   0  -4 193.317 47.4158  16
  -2   0   3 5390.44 261.230   7
   2   0  -3 5174.49 224.957  16
  -2   0   3 5204.75 237.199  11
  -2   0   3 4236.30 146.310   1
  -2   0   3 5377.97 269.729   4
  -2   0   3 4882.87 264.188   9
   2   0  -3 4852.90 188.068  20
  -2   0   2 15864.1 445.371   7
   2   0  -2 15276.6 418.904  16
  -2   0   2 15657.0 417.997  11
  -2   0   2 15874.7 465.962   9
  -2   0   2 15063.4 328.685   2
  -2   0   2 15178.7 459.801   4
  -2   0   1 2467.51 94.3518  21
   2   0  -1 2256.40 84.7489  14
  -2   0   1 2288.02 94.1846  19
  -2   0   1 2219.36 92.3152  23
  -2   0   1 2694.21 110.425   2
  -2   0   1 2237.57 93.4082  18
   2   0  -1 2685.44 104.269  10
   2   0  -1 2643.70 146.897  16
  -2   0   1 2328.75 96.9375  17
  -2   0   1 2488.84 121.094  11
  -2   0   1 2579.63 134.973   7
  -2   0   1 2871.97 149.841   9
  -2   0   1 2490.28 146.669   4
   2   0  -1 2690.19 153.052   3
   2   0  -1 2339.45 88.4640  15
   2   0   0 492563. 7914.30  14
   2   0   0 491265. 8008.00   1
  -2   0   0 484403. 7952.61  19
  -2   0   0 484939. 7958.78  18
  -2   0   0 490716. 7954.16  23
  -2   0   0 470549. 7912.00  11
  -2   0   0 507590. 7943.94   2
  -2   0   0 479772. 7967.51  17
  -2   0   0 479178. 7959.70   9
  -2   0   0 485606. 7967.05  13
   2   0   0 483002. 8060.02  16
   2   0   0 524649. 8074.09   6
   2   0   0 448303. 7972.94   3
  -2   0  -1 43104.0 835.463  11
   2   0   1 46394.6 958.350   1
   2   0   1 44779.9 875.755  14
  -2   0  -1 46462.3 927.069  23
   2   0   1 40633.4 908.241   3
  -2   0  -1 45846.0 937.139  13
  -2   0  -1 45634.3 929.277  18
  -2   0  -1 45786.5 924.353  19
  -2   0  -1 49186.3 876.926   8
  -2   0  -1 45367.1 939.482  17
  -2   0  -1 44816.2 860.981   9
  -2   0  -1 52667.4 913.595  20
   2   0   1 45453.4 1017.12  16
  -2   0  -1 44983.2 881.452   2
   2   0   1 47526.1 956.769   6
   2   0   2 6670.23 281.041   1
   2   0   2 7229.71 273.345   6
   2   0   2 6940.38 243.217  14
  -2   0  -2 7058.69 285.877  13
  -2   0  -2 8085.25 274.500  20
  -2   0  -2 7633.79 247.770   5
   2   0   2 7038.98 333.447  16
  -2   0  -2 7068.50 242.367   2
  -2   0  -2 7129.45 276.962  19
  -2   0  -2 7521.19 245.695   8
  -2   0  -2 6986.87 275.326  23
  -2   0  -2 7073.58 288.825  17
  -2   0  -2 7122.65 280.504  18
   2   0   2 6421.42 275.560   3
   2   0   3 134.991 56.1911  16
   2   0   3 89.7673 33.3832   6
  -2   0  -3 84.7426 34.9152  13
  -2   0  -3 113.531 35.4131   2
  -2   0  -3 113.328 38.7443  18
   2   0   3 140.842 36.0189  14
  -2   0  -3 124.354 37.9322  20
  -2   0  -3 178.109 46.1324  19
  -2   0  -3 129.152 34.9521   5
   2   0   3 112.128 43.7998   1
  -2   0  -3 113.461 39.6231  17
  -2   0  -3 94.2519 37.9228  23
  -2   0  -3 128.741 38.4377   8
   2   0   4 17625.1 554.172   7
   2   0   4 18908.0 514.371  14
  -2   0  -4 17939.8 499.059   2
  -2   0  -4 18474.2 557.139  19
  -2   0  -4 19168.1 562.636  23
  -2   0  -4 18405.0 561.511  18
  -2   0  -4 18168.3 491.566   5
  -2   0  -4 19248.0 518.338   8
   2   0   4 17116.1 484.035   6
   2   0   4 18226.9 602.987   1
  -2   0  -4 18577.1 558.415  20
  -2   0  -4 17375.0 567.523  17
   2   0   4 16573.9 475.020   4
   2   0   4 18279.4 694.396  16
   2   0   4 17407.7 452.675  12
  -2   0  -5 221.904 61.9399  20
   2   0   5 255.302 69.7917   7
  -2   0  -5 305.948 65.7125   5
  -2   0  -5 228.395 54.4602   2
   2   0   5 349.320 60.6463   6
  -2   0  -5 248.490 66.9638  17
   2   0   5 259.708 48.7182  12
   2   0   5 288.729 61.0920  14
  -2   0  -5 249.608 68.1051  21
   2   0   5 220.609 91.9749  16
   2   0   5 230.999 70.6211   1
  -2   0  -5 392.888 79.5899  19
  -2   0  -5 308.536 74.2722  18
  -2   0  -5 238.678 59.9909  23
   2   0   5 285.608 61.5988  15
   2   0   5 302.276 64.2796   4
  -2   0  -5 293.828 70.9866   8
  -2   0  -6 2186.40 200.301  21
   2   0   6 2146.97 227.782   1
   2   0   6 2179.03 194.979   7
   2   0   6 2176.15 171.692  14
  -2   0  -6 2208.55 193.086  23
   2   0   6 2237.93 154.493  12
  -2   0  -6 2091.65 194.216  20
  -2   0  -6 2215.97 170.394   5
  -2   0  -6 2269.54 199.541  18
  -2   0  -6 2295.88 207.066  17
  -2   0  -6 2241.05 198.389  19
  -2   0  -6 2303.76 180.751   2
   2   0   6 2233.58 172.991   4
  -2   0  -6 2327.04 195.868   8
   2   0   6 2249.34 178.580  15
   2   0   7 41143.1 1224.39   1
   2   0   7 38817.9 1052.50   7
   2   0   7 41427.8 998.828  14
  -2   0  -7 38533.7 1054.82  23
   2   0   7 38392.5 904.726  12
  -2   0  -7 38377.1 1046.52  20
  -2   0  -7 33881.3 922.104   5
  -2   0  -7 34553.1 1061.66  18
  -2   0  -7 37176.6 1076.93  17
   2   0   7 39447.0 995.093   4
  -2   0  -7 41263.1 1020.67   2
  -2   0  -7 38397.9 1032.18   8
  -2   0  -7 37857.4 1035.90  21
  -2   0  -7 35799.3 1061.27  19
   2   0   7 42160.6 1018.03  15
   2   0   8 7784.32 431.245   7
   2   0   8 7602.81 522.773   1
   2   0   8 7979.18 392.961  14
   2   0   8 6661.38 369.196   4
  -2   0  -8 8380.19 426.267  23
  -2   0  -8 8239.29 425.365  19
  -2   0  -8 7473.66 410.227  18
   2   0   8 6451.74 320.061  12
  -2   0  -8 6795.37 400.074  20
  -2   0  -8 6189.54 336.958   5
  -2   0  -8 8039.65 421.101  21
  -2   0  -8 7272.47 412.716  17
  -2   0  -8 7891.07 401.268   2
  -2   0  -8 7435.64 416.399   8
   2   0   8 8418.47 400.301  15
   2   0   9-83.6867 49.5496  15
  -2   0  -9-24.2538 39.6351  23
  -2   0  -9-93.1860 54.5383  18
   2   0   9 114.962 56.4275  12
   2   0   9 83.7120 59.1356   4
  -2   0  -9 72.5457 65.6610  20
  -2   0  -9 27.2354 35.0322  19
   2   0   9 15.9163 46.6609   7
  -2   0  -9-27.6943 62.4069   8
  -2   0  -9 78.5834 51.1986  21
   2   0   9 75.7170 48.8688  14
  -2   0  -9 35.1260 43.4788  17
   2   0   9-48.5382 93.9781   1
   2   0  10 65.9054 82.6386   1
   2   0  10 144.811 64.6324  12
  -2   0 -10 13.2152 53.3966  20
   2   0  10 76.1323 66.0747   7
  -2   0 -10 37.5881 65.0275   8
   2   0  11-24.8709 86.7036   1
   2   0  11-5.00056 48.5327   7
   2   0  11 123.492 60.0369  12
  -2   0 -11-46.8027 53.8516   8
   2   0  12 297.013 105.330   7
  -2   0 -12 572.432 155.692   8
  -2  -1  10 1313.63 222.501   7
  -2  -1  10 1539.90 240.842   4
   2   1 -10 872.998 170.173   8
  -2  -1   9 997.310 183.054   7
  -2  -1   9 954.589 188.464   4
   2   1  -9 888.171 165.801   8
   2   1  -8 334.083 87.1541   5
  -2  -1   8 233.853 84.3060   7
  -2  -1   8 413.234 120.787   4
   2   1  -8 236.574 77.0333   8
  -2  -1   7 869.118 148.063   7
   2   1  -7 689.856 120.492   8
   2   1  -7 767.995 124.246   5
  -2  -1   7 869.220 157.954   4
  -2  -1   6 1184.67 156.074   7
  -2  -1   6 1206.02 153.222  11
   2   1  -6 1289.46 142.252  20
   2   1  -6 1332.41 150.828   5
  -2  -1   6 1542.59 185.784   4
  -2  -1   6 1003.29 146.298   9
   2   1  -6 1283.36 147.670   8
  -2  -1   5 9991.40 429.368   7
   2   1  -5 7852.42 345.189  20
  -2  -1   5 8840.72 397.641   1
  -2  -1   5 9532.83 413.407  11
   2   1  -5 9018.47 381.543   5
  -2  -1   5 7337.86 387.956   9
  -2  -1   5 9222.00 432.429   4
   2   1  -5 8851.23 370.482   8
  -2  -1   4 10357.8 391.826   7
   2   1  -4 9659.39 350.435   5
  -2  -1   4 10064.0 373.537  11
   2   1  -4 8545.36 322.486  20
  -2  -1   4 8907.44 372.627   9
   2   1  -4 9249.24 252.859  16
  -2  -1   4 9558.55 395.727   4
  -2  -1   4 9101.49 344.578   1
   2   1  -3 18930.4 511.125  20
  -2  -1   3 21518.8 559.642   7
   2   1  -3 20159.1 520.747   5
  -2  -1   3 20256.5 532.786  11
   2   1  -3 18481.4 394.417  16
  -2  -1   3 19989.9 561.558   9
  -2  -1   3 20549.2 582.063   4
  -2  -1   2 18.9983 22.5802   7
  -2  -1   2 20.8217 17.3460  11
  -2  -1   2 11.3390 7.60688  23
  -2  -1   2 8.35669 7.05420  21
   2   1  -2 22.0823 25.7233   6
   2   1  -2 17.8176 8.88983  18
  -2  -1   2 50.5033 25.2038   9
   2   1  -2 12.3949 8.00616  17
  -2  -1   2 27.1615 15.2449   2
   2   1  -2 23.4819 10.3230  13
  -2  -1   2 11.5586 26.0822   4
   2   1  -2 7.05343 8.82391  16
   2   1  -2 5.89031 7.11004  15
  -2  -1   1 55054.9 977.491  23
   2   1  -1 56305.1 993.860  14
  -2  -1   1 55885.0 979.014  22
   2   1  -1 56171.2 983.576  13
   2   1  -1 56283.6 992.539  15
  -2  -1   1 56422.2 974.386  19
  -2  -1   1 54266.3 1033.43  11
   2   1  -1 57226.8 987.560  17
  -2  -1   1 56658.3 1072.46   9
   2   1  -1 56025.5 1138.59   6
  -2  -1   1 55077.4 1097.07   4
  -2  -1   1 55642.3 1010.23   2
  -2  -1   1 55520.8 977.980  21
  -2  -1   1 52547.4 1064.66   7
   2   1   0 10205.0 243.374   3
  -2  -1   0 11463.3 283.093  22
  -2  -1   0 11020.3 285.432   2
   2   1   0 10152.0 311.055  16
  -2  -1   0 11615.5 279.616  18
  -2  -1   0 10209.1 247.692  11
   2   1   0 11598.0 359.100   6
   2   1   0 10641.9 229.334   1
  -2  -1   0 11225.3 278.069  19
  -2  -1   0 11186.8 278.836  23
  -2  -1   0 10854.4 296.826   9
  -2  -1   0 10654.9 295.036   4
   2   1   0 11356.3 281.431  14
  -2  -1   0 11369.7 281.803  21
   2   1   0 11319.6 278.058  13
   2   1   0 11057.5 278.415  15
   2   1   1 96.1282 20.7201   1
   2   1   1 130.992 28.7319  15
  -2  -1  -1 113.009 24.9114   2
   2   1   1 107.229 20.2495   3
   2   1   1 134.856 29.2593  14
   2   1   1 147.763 39.6552   6
  -2  -1  -1 95.3767 24.9438  19
  -2  -1  -1 131.778 30.0633  21
   2   1   1 129.384 45.6476  16
  -2  -1  -1 106.864 12.2626  11
  -2  -1  -1 119.626 19.4370  10
  -2  -1  -1 111.407 26.8586  23
  -2  -1  -1 103.676 27.0691  18
  -2  -1  -1 105.797 26.8639  17
  -2  -1  -1 140.215 25.6287   4
  -2  -1  -1 103.634 24.1531   8
   2   1   2 20790.6 495.821  14
  -2  -1  -2 23300.8 516.354  20
  -2  -1  -2 21830.2 523.104  19
  -2  -1  -2 20985.6 479.133   2
  -2  -1  -2 21700.8 523.418  18
  -2  -1  -2 21573.0 527.036  17
  -2  -1  -2 20888.2 522.628  21
   2   1   2 21516.8 555.387   6
  -2  -1  -2 21404.5 519.468  23
   2   1   2 20626.1 488.028   1
   2   1   2 20643.6 621.303  16
  -2  -1  -2 23847.8 518.674   8
   2   1   2 20420.7 497.507  15
  -2  -1  -3 15669.7 445.378  21
  -2  -1  -3 15334.3 431.283  20
  -2  -1  -3 15859.4 405.302   2
   2   1   3 14980.2 457.356   6
  -2  -1  -3 16026.7 447.034  23
  -2  -1  -3 16255.9 365.442   5
   2   1   3 13908.1 325.662   4
  -2  -1  -3 16204.3 448.289  19
  -2  -1  -3 16052.6 449.326  18
   2   1   3 14842.4 417.088  14
  -2  -1  -3 15756.4 450.697  17
   2   1   3 15428.5 428.721   1
  -2  -1  -3 16135.7 433.591   8
   2   1   3 14605.8 415.470  15
   2   1   4 13771.2 358.130   4
  -2  -1  -4 16851.6 472.576  20
   2   1   4 14724.5 464.782   6
  -2  -1  -4 14022.1 467.456  21
  -2  -1  -4 14838.7 466.353  23
  -2  -1  -4 15526.2 377.847   5
   2   1   4 15099.5 445.021  14
  -2  -1  -4 14676.7 477.591  17
  -2  -1  -4 14477.4 468.867  18
   2   1   4 14280.8 416.205  12
  -2  -1  -4 15993.8 414.684   2
   2   1   4 14705.7 521.495   7
  -2  -1  -4 16320.1 459.798   8
   2   1   4 15447.1 468.732   1
  -2  -1  -4 14815.3 470.219  19
   2   1   4 14811.7 441.331  15
  -2  -1  -5 59897.0 1137.45   2
   2   1   5 56552.6 1180.30  14
  -2  -1  -5 58424.4 1228.81  23
   2   1   5 52983.6 1209.85   6
   2   1   5 55971.0 1313.93   7
  -2  -1  -5 59163.0 1235.97  19
  -2  -1  -5 53603.4 1191.73  20
  -2  -1  -5 53051.7 1081.33   5
   2   1   5 54768.5 1150.51  12
  -2  -1  -5 59501.7 1238.02  21
  -2  -1  -5 57956.9 1235.96  18
  -2  -1  -5 55981.3 1238.28  17
   2   1   5 51084.7 1088.70   4
   2   1   5 59192.2 1283.84   1
  -2  -1  -5 57687.2 1210.96   8
   2   1   5 56907.2 1187.12  15
  -2  -1  -6 10845.1 424.548   8
   2   1   6 10823.8 407.390  14
  -2  -1  -6 9321.74 403.381  20
   2   1   6 10691.1 472.745   1
   2   1   6 11195.0 485.986   7
  -2  -1  -6 11444.4 437.612  23
   2   1   6 10310.2 379.873  12
  -2  -1  -6 11623.6 382.511   2
  -2  -1  -6 9311.07 326.105   5
  -2  -1  -6 10950.1 434.385  21
  -2  -1  -6 10400.2 431.968  18
  -2  -1  -6 10534.8 431.059  19
  -2  -1  -6 10009.0 433.747  17
   2   1   6 10769.6 405.849  15
   2   1   6 9743.03 355.508   4
   2   1   7 1947.85 208.454   7
   2   1   7 2055.55 182.691  14
  -2  -1  -7 1672.21 174.125  19
  -2  -1  -7 1942.08 187.817   8
  -2  -1  -7 1821.26 142.200   5
   2   1   7 1762.47 155.675   4
  -2  -1  -7 2075.03 193.626  21
   2   1   7 2053.22 165.521  12
  -2  -1  -7 2039.41 192.981  17
  -2  -1  -7 1922.68 188.370  18
  -2  -1  -7 1781.29 175.646  23
  -2  -1  -7 1922.46 167.520   2
  -2  -1  -7 1882.66 180.087  20
   2   1   7 1814.71 213.020   1
   2   1   7 1936.89 174.820  15
   2   1   8 20295.8 770.591   7
  -2  -1  -8 21569.3 740.253  21
   2   1   8 20846.1 660.255   4
  -2  -1  -8 22040.1 734.178  23
   2   1   8 20156.1 641.090  12
   2   1   8 22376.5 708.025  14
  -2  -1  -8 20511.4 720.322   8
  -2  -1  -8 22363.4 737.719  19
  -2  -1  -8 21627.1 741.700  18
   2   1   8 22957.4 713.459  15
   2   1   8 21377.8 832.993   1
   2   1   9 20728.4 889.400   1
   2   1   9 17782.2 750.572   7
  -2  -1  -9 20465.9 767.721  22
   2   1   9 20435.0 708.902  14
  -2  -1  -9 14680.4 632.691  20
   2   1   9 18240.5 700.310  13
   2   1   9 18180.6 640.248  12
  -2  -1  -9 19910.8 743.565  21
  -2  -1  -9 20438.2 735.798  19
  -2  -1  -9 20191.7 732.657  18
  -2  -1  -9 21238.0 745.036  23
  -2  -1  -9 17867.7 714.120   8
   2   1   9 20950.4 717.705  15
   2   1  10 74.9870 73.2360   7
   2   1  10 41.6899 40.3553  12
   2   1  10 42.6812 59.3409   1
  -2  -1 -10 81.4199 78.9881   8
   2   1  11 1587.32 241.909   7
   2   1  11 2135.42 229.348  12
   2   1  11 2408.94 360.057   1
  -2  -1 -11 1401.19 224.348   8
   2   1  12 180.780 96.4896   7
   2   1  12 155.615 75.7354  12
  -2  -1 -12 418.015 139.353   8
  -2  -2  10 497.387 134.533   7
  -2  -2  10 785.988 194.023   4
   2   2 -10 454.685 130.166   8
  -2  -2   9-63.8439 60.9935   7
   2   2  -9-47.9562 59.1374   8
  -2  -2   8 1021.53 162.579   7
   2   2  -8 906.824 150.370   5
  -2  -2   8 1017.72 183.202   4
   2   2  -8 782.001 144.513   8
   2   2  -7 2669.33 244.682  20
   2   2  -7 3194.16 269.140   5
  -2  -2   7 3567.10 288.814   7
  -2  -2   7 3898.74 330.412   4
   2   2  -7 2809.00 245.407   8
   2   2  -6 1055.04 146.277  20
  -2  -2   6 1500.10 171.835   7
  -2  -2   6 1478.00 191.646   4
  -2  -2   6 930.003 137.497   9
   2   2  -6 1143.76 148.698   5
   2   2  -6 1167.00 146.088   8
  -2  -2   5 6964.83 345.143   7
  -2  -2   5 7193.28 393.364   4
   2   2  -5 6644.75 340.490   5
  -2  -2   5 5345.85 312.502   9
  -2  -2   5 4509.21 208.170   2
  -2  -2   5 5309.19 359.122   1
   2   2  -5 5756.22 322.086  20
   2   2  -5 5656.42 279.277   6
   2   2  -5 6142.89 310.087   8
   2   2  -4 758.823 80.2543  23
  -2  -2   4 608.865 97.1430   7
  -2  -2   4 623.006 119.936   1
   2   2  -4 735.183 78.8125  18
  -2  -2   4 643.366 59.8820  14
   2   2  -4 704.072 79.3438  13
   2   2  -4 644.699 72.8918  19
  -2  -2   4 671.654 79.3695   2
   2   2  -4 703.959 104.814  20
   2   2  -4 607.796 94.0926   5
   2   2  -4 700.374 89.9883   6
   2   2  -4 653.106 77.1027  17
  -2  -2   4 732.477 104.850   9
  -2  -2   4 713.219 120.010   4
  -2  -2   3 9248.70 345.338   7
   2   2  -3 9125.76 348.958   5
   2   2  -3 8323.89 293.671  17
   2   2  -3 8451.96 294.498  13
   2   2  -3 8244.53 284.540  19
  -2  -2   3 8582.39 327.064   9
   2   2  -3 9077.42 368.585  20
   2   2  -3 8370.68 308.304  15
  -2  -2   3 8841.47 312.313   2
   2   2  -3 8763.34 321.674   6
  -2  -2   3 8664.65 271.211  21
   2   2  -3 8136.52 289.259  18
  -2  -2   3 9539.08 392.609   4
   2   2  -2 1905.23 123.258  18
  -2  -2   2 1856.95 109.331  21
   2   2  -2 1816.81 132.631   6
   2   2  -2 1898.54 136.490   5
   2   2  -2 1704.80 117.122  13
  -2  -2   2 1854.91 131.148   7
  -2  -2   2 1882.24 125.257   9
  -2  -2   2 1910.63 133.910   2
  -2  -2   2 1940.30 112.265  23
   2   2  -2 1851.11 129.930  15
   2   2  -2 1719.39 143.199  20
   2   2  -2 1812.51 121.525  17
   2   2  -2 1721.75 126.800  14
  -2  -2   2 2006.58 155.106   4
   2   2  -1 351.154 56.9283  14
  -2  -2   1 426.774 64.6187   2
   2   2  -1 346.453 61.5151   6
   2   2  -1 304.776 49.1795  13
  -2  -2   1 373.151 49.3435  22
  -2  -2   1 415.108 50.1328  19
  -2  -2   1 403.324 51.4117  23
   2   2  -1 294.004 48.0974   5
   2   2  -1 316.112 50.0955  17
  -2  -2   1 399.428 50.9078  21
  -2  -2   1 302.061 55.0514   4
   2   2  -1 360.790 55.6015  15
  -2  -2   1 329.158 46.7615   9
   2   2   0 7653.48 274.949  14
  -2  -2   0 7933.00 283.781   2
   2   2   0 7661.73 272.507  15
  -2  -2   0 8114.73 259.198  23
   2   2   0 8206.73 298.985   6
  -2  -2   0 7965.32 259.148  22
  -2  -2   0 8053.62 258.122  21
  -2  -2   0 8006.40 253.561  19
  -2  -2   0 7716.58 235.975  10
   2   2   0 7799.85 264.963  17
   2   2   0 7958.83 265.899  13
  -2  -2   0 7875.24 253.525   4
   2   2   0 8163.98 222.102   1
  -2  -2   0 8209.36 247.830   9
  -2  -2  -1 46527.2 924.896  19
  -2  -2  -1 44048.8 792.519   3
   2   2   1 47961.5 934.579  13
  -2  -2  -1 44522.8 872.427  10
  -2  -2  -1 47521.6 933.402  21
   2   2   1 46078.2 871.166   1
  -2  -2  -1 46985.9 936.568  22
  -2  -2  -1 44530.1 833.430   4
  -2  -2  -1 47944.1 929.577  18
  -2  -2  -1 46719.9 930.393  23
  -2  -2  -1 46927.6 949.406   2
   2   2   1 47848.7 993.080   6
   2   2   1 47274.7 948.772  14
   2   2   1 46953.2 945.262  15
   2   2   2 182.669 45.2007  14
  -2  -2  -2 147.596 37.1258  23
  -2  -2  -2 152.760 39.3963  21
   2   2   2 238.841 57.3849   6
   2   2   2 158.897 39.5220  13
  -2  -2  -2 188.024 43.5798  18
   2   2   2 197.704 37.1810   1
  -2  -2  -2 171.367 37.6795  10
  -2  -2  -2 192.179 43.8914  22
  -2  -2  -2 222.730 41.1212   8
  -2  -2  -2 257.676 47.9113  19
  -2  -2  -2 193.310 41.3616   2
   2   2   2 215.165 46.0773  15
  -2  -2  -3 197.089 39.9507   2
  -2  -2  -3 188.427 46.1755  22
   2   2   3 201.195 46.2230  14
  -2  -2  -3 167.579 43.3883  18
   2   2   3 275.014 62.3338   6
  -2  -2  -3 177.943 45.5397  23
  -2  -2  -3 146.470 41.0052  10
  -2  -2  -3 209.718 46.6210  21
   2   2   3 233.539 27.7798  11
   2   2   3 223.718 48.4405  13
   2   2   3 222.220 43.0391   1
  -2  -2  -3 169.666 44.0332  19
   2   2   3 208.868 48.2249  15
  -2  -2  -3 183.187 39.5146   8
  -2  -2  -4 38599.2 810.512   8
   2   2   4 32931.3 916.429   7
  -2  -2  -4 33793.2 761.143  20
   2   2   4 33354.1 772.781  12
  -2  -2  -4 35916.4 818.945  18
   2   2   4 34026.5 867.335   6
  -2  -2  -4 35226.9 816.856  19
   2   2   4 34449.6 807.284  14
   2   2   4 30155.9 624.231   4
  -2  -2  -4 31636.1 801.264  10
  -2  -2  -4 36400.9 826.412  21
   2   2   4 32473.7 686.918  11
   2   2   4 35590.4 814.627  15
  -2  -2  -4 33529.7 727.607   2
  -2  -2  -4 36561.0 829.064  22
   2   2   4 36073.5 809.555  13
   2   2   4 35498.1 780.285   1
  -2  -2  -4 35125.5 815.006  23
   2   2   5 41345.8 890.373   1
   2   2   5 37998.3 901.971  14
  -2  -2  -5 38657.4 910.812  21
   2   2   5 37981.8 956.791   6
  -2  -2  -5 39603.5 903.990  23
   2   2   5 39949.1 899.242  13
  -2  -2  -5 39038.0 926.990  22
  -2  -2  -5 40603.1 909.036  19
   2   2   5 34694.4 716.817   4
   2   2   5 38593.7 860.452  12
   2   2   5 37029.5 785.598  11
  -2  -2  -5 40680.5 906.752  18
   2   2   5 39053.7 890.914  15
  -2  -2  -5 34397.2 820.427  20
  -2  -2  -5 41497.7 885.563   8
   2   2   5 40495.2 1027.04   7
  -2  -2  -5 41258.8 800.919   2
   2   2   6 122.470 51.7783  15
  -2  -2  -6 130.286 40.0752   2
   2   2   6 24.0583 53.1182   7
   2   2   6 49.1086 40.1060  14
   2   2   6 50.7344 37.1861   1
  -2  -2  -6 95.2703 40.5159  20
  -2  -2  -6 57.2882 33.0286  21
   2   2   6 105.301 39.3849  11
   2   2   6 127.086 47.9034  12
  -2  -2  -6 54.8586 35.8834  23
  -2  -2  -6 47.7748 30.3715  19
  -2  -2  -6 66.8756 18.2972   5
  -2  -2  -6 113.417 46.2246  18
   2   2   6 66.6819 33.3554   4
   2   2   6 165.033 50.6405  13
  -2  -2  -6 108.975 54.0239   8
  -2  -2  -6 158.284 57.3471  22
  -2  -2  -7 78.3147 52.4029  22
   2   2   7 82.6191 53.4343  15
   2   2   7 138.016 71.3059   7
   2   2   7 105.538 58.2863  14
  -2  -2  -7 124.888 53.1006  23
   2   2   7 94.8321 62.2058   1
   2   2   7 94.8039 46.9613  12
  -2  -2  -7 115.319 48.6651  21
  -2  -2  -7 136.961 56.0917  20
  -2  -2  -7 115.118 47.9865  19
  -2  -2  -7 98.5528 46.6051  18
   2   2   7 116.074 53.2528  13
   2   2   7 30.9060 30.6851   4
  -2  -2  -7 164.369 43.9943   2
  -2  -2  -7 207.896 73.2660   8
  -2  -2  -8 338.621 87.7115  18
   2   2   8 285.078 81.2520   7
  -2  -2  -8 313.249 81.6784  19
  -2  -2  -8 271.383 84.6245   8
  -2  -2  -8 235.069 83.8113  21
  -2  -2  -8 245.964 76.9127  22
  -2  -2  -8 184.037 56.7371  20
   2   2   8 217.761 62.3202  12
   2   2   8 249.291 89.1634   1
   2   2   8 107.503 50.8685  14
   2   2   8 276.378 69.8621   4
   2   2   8 185.213 65.9211  13
  -2  -2  -8 267.245 82.2540  23
   2   2   8 47.7405 50.8843  15
   2   2   9 4715.65 375.889   7
   2   2   9 4982.70 316.845  12
  -2  -2  -9 4948.13 348.069   8
   2   2   9 5568.43 413.592   1
   2   2  10 1112.44 195.816   7
  -2  -2 -10 1516.56 240.807  10
   2   2  10 1705.19 257.812   1
   2   2  10 1344.61 177.529  12
  -2  -2 -10 1164.43 187.422   8
   2   2  11 333.592 98.7168  12
   2   2  11 250.360 107.728   7
  -2  -2 -11 375.754 129.606   8
  -2  -2 -11 289.368 119.407  10
   2   2  11 207.936 112.147   1
   2   2  12-7.38110 54.0509   7
  -2  -2 -12 22.4435 69.0193   8
  -2  -2 -12 184.729 115.235  10
   2   2  12 169.497 93.4440  12
  -2  -3  10 673.106 158.461   7
  -2  -3  10 905.841 208.768   4
   2   3 -10 661.430 156.410   8
  -2  -3   9 175.635 75.1790   7
   2   3  -9 246.263 100.286   8
   2   3  -9 158.314 85.6289   5
  -2  -3   9-0.85387 81.8956   4
  -2  -3   8 1774.26 213.293   7
   2   3  -8 1497.90 210.618  20
   2   3  -8 1475.91 199.736   8
  -2  -3   8 1782.38 252.807   4
   2   3  -8 1334.62 195.818   5
  -2  -3   7 13159.7 647.939   4
  -2  -3   7 12241.0 547.671   7
   2   3  -7 11096.6 559.658  20
   2   3  -7 11995.0 572.865   5
   2   3  -7 11372.3 530.862   8
  -2  -3   6 4526.96 299.220   7
  -2  -3   6 4808.24 359.452   4
   2   3  -6 4244.75 315.275  20
   2   3  -6 4393.02 294.715   8
   2   3  -6 4643.67 322.165   5
   2   3  -5 483.532 97.1765  20
  -2  -3   5 662.869 104.932   7
  -2  -3   5 548.566 76.2572  14
   2   3  -5 585.723 92.1594  19
   2   3  -5 652.530 109.041   5
  -2  -3   5 579.549 97.7396   9
   2   3  -5 533.713 88.1586  18
   2   3  -5 652.815 102.622  17
   2   3  -5 514.459 89.7825  23
   2   3  -5 683.263 106.470  13
  -2  -3   5 462.893 82.1152   2
  -2  -3   5 733.801 135.700   4
   2   3  -5 635.442 104.745   8
   2   3  -4 81.1556 47.8225  20
  -2  -3   4 70.2828 37.3078   7
   2   3  -4 70.5810 29.8447   6
   2   3  -4 80.4527 43.1027  19
   2   3  -4 178.850 53.6088  18
   2   3  -4 19.9726 30.7717   5
   2   3  -4 142.458 57.8408  17
  -2  -3   4 30.0284 38.2187  21
  -2  -3   4 69.4488 37.7827   9
  -2  -3   4 133.330 48.5826   2
   2   3  -4 52.8099 38.8410  13
  -2  -3   4 41.9451 44.2978   4
   2   3  -4 45.0494 37.4595  15
   2   3  -3 902.444 113.025  13
   2   3  -3 942.035 94.2654   6
  -2  -3   3 1011.11 102.999  21
   2   3  -3 1046.22 135.524  20
  -2  -3   3 955.721 119.763   2
   2   3  -3 1003.02 116.890  18
  -2  -3   3 924.677 100.910   7
  -2  -3   3 1046.38 135.166   4
   2   3  -3 963.048 116.442  17
  -2  -3   3 833.795 92.6582   9
   2   3  -3 1021.58 119.435   5
   2   3  -3 879.680 118.249  15
   2   3  -3 895.575 108.113  19
   2   3  -2 200.928 58.7058  14
   2   3  -2 369.273 60.9904   6
   2   3  -2 359.839 66.4004  17
  -2  -3   2 317.327 56.7198  23
  -2  -3   2 380.114 61.1548  21
  -2  -3   2 244.511 49.0513   7
  -2  -3   2 300.806 35.0920  16
   2   3  -2 435.462 75.6277  18
   2   3  -2 309.488 71.5645  15
   2   3  -2 440.982 83.6531  20
   2   3  -2 330.980 63.9318   5
  -2  -3   2 308.787 72.6362   2
   2   3  -2 417.062 76.0158  13
  -2  -3   2 298.930 49.6343   9
  -2  -3   2 252.326 62.2361   4
   2   3  -1 5714.56 290.404  14
  -2  -3   1 5840.65 208.748   9
  -2  -3   1 5810.32 250.928  21
   2   3  -1 5902.54 250.787   6
  -2  -3   1 5711.80 251.835  23
  -2  -3   1 5606.48 250.903  22
  -2  -3   1 5838.31 296.605   2
   2   3  -1 5986.09 253.303   5
   2   3  -1 6062.41 291.577  15
   2   3  -1 5871.72 277.277  18
   2   3  -1 5984.12 279.778  17
  -2  -3   1 5944.37 267.298   4
  -2  -3   1 5772.36 192.586  16
   2   3  -1 5845.80 273.243  13
  -2  -3   0 224564. 3757.57   3
   2   3   0 225745. 3956.67  14
  -2  -3   0 217205. 3867.09  22
  -2  -3   0 221187. 3859.20  21
   2   3   0 225071. 3781.23   1
  -2  -3   0 227390. 3967.29   2
  -2  -3   0 221347. 3865.12  23
   2   3   0 225065. 3907.43  17
  -2  -3   0 227603. 3832.46  10
  -2  -3   0 219568. 3819.47   4
  -2  -3   0 227367. 3761.57   9
   2   3   0 225758. 3900.94  13
   2   3   0 219671. 3798.59   5
   2   3   0 230554. 3884.17   6
  -2  -3   0 221218. 3851.44  19
   2   3   0 230576. 3943.96  15
   2   3   1 32757.3 806.803  14
  -2  -3  -1 31172.9 655.110   3
  -2  -3  -1 32570.0 764.751  22
   2   3   1 33302.0 802.754   6
   2   3   1 33742.0 708.468   1
  -2  -3  -1 31921.6 757.665  23
   2   3   1 32657.5 781.856  17
   2   3   1 32805.3 779.987  13
  -2  -3  -1 33193.0 820.120   2
  -2  -3  -1 31335.9 716.250  10
  -2  -3  -1 32059.9 750.082  19
   2   3   1 30944.0 662.841   5
  -2  -3  -1 31017.9 667.780   4
  -2  -3  -1 31692.9 754.997  21
   2   3   1 32555.3 800.943  15
   2   3   2 81529.1 1620.25  14
  -2  -3  -2 79738.0 1462.18   8
  -2  -3  -2 78436.0 1486.85   3
   2   3   2 80301.2 1642.56   6
  -2  -3  -2 80391.8 1575.52  23
   2   3   2 81093.1 1579.79  13
  -2  -3  -2 80786.1 1575.20  21
   2   3   2 80522.5 1385.74  11
   2   3   2 83239.1 1595.68  17
  -2  -3  -2 80760.5 1567.46  19
   2   3   2 80059.0 1409.94   5
   2   3   2 83101.7 1518.81   1
  -2  -3  -2 81155.3 1542.68  10
  -2  -3  -2 80244.0 1579.41  22
  -2  -3  -2 82005.2 1621.90   2
   2   3   2 82037.1 1612.14  15
   2   3   3 23517.9 629.533  13
  -2  -3  -3 24965.6 561.522   8
  -2  -3  -3 23066.3 624.573  21
  -2  -3  -3 23392.0 635.140  22
  -2  -3  -3 22751.8 620.800   2
  -2  -3  -3 24181.8 629.129  18
  -2  -3  -3 23770.4 624.026  19
   2   3   3 22147.0 460.923  11
  -2  -3  -3 23713.2 617.423  10
   2   3   3 23729.3 694.878   6
   2   3   3 23493.6 581.699   1
   2   3   3 21739.3 428.023   5
  -2  -3  -3 23840.5 631.639  23
   2   3   3 23574.0 650.950  15
   2   3   3 23541.8 655.863  14
  -2  -3  -4 17786.2 550.614  23
   2   3   4 17474.5 630.062   7
   2   3   4 18618.0 513.449   1
   2   3   4 17979.0 564.226  14
   2   3   4 18027.0 622.554   6
   2   3   4 16433.0 412.319  11
  -2  -3  -4 18331.1 558.964  22
   2   3   4 17458.7 543.398  13
   2   3   4 18267.0 520.652  12
  -2  -3  -4 17529.4 548.811  10
  -2  -3  -4 18230.8 547.371  18
  -2  -3  -4 18670.5 552.286  19
  -2  -3  -4 18255.0 513.090   2
   2   3   4 17194.8 560.221  15
  -2  -3  -4 19862.5 510.590   8
  -2  -3  -4 18660.6 556.454  21
   2   3   5 15706.4 496.753  12
   2   3   5 14876.7 512.858  13
   2   3   5 15750.2 607.222   7
   2   3   5 16079.8 540.436  14
   2   3   5 14480.1 521.356  15
  -2  -3  -5 15284.2 453.707   2
  -2  -3  -5 16196.4 533.774  22
  -2  -3  -5 15361.2 536.614  10
   2   3   5 14738.1 418.154  11
  -2  -3  -5 16794.0 535.931  21
  -2  -3  -5 16435.5 530.239  19
  -2  -3  -5 16181.0 525.506  18
  -2  -3  -5 16031.1 528.589  23
   2   3   5 15462.8 490.524   1
  -2  -3  -5 15319.7 482.525   8
  -2  -3  -6-25.0558 39.5515  21
   2   3   6-14.7704 27.2656  15
  -2  -3  -6 20.7125 25.3140   2
   2   3   6 5.31757 49.4300   7
  -2  -3  -6 31.6541 32.2808  23
   2   3   6 21.5950 34.2798  14
   2   3   6 1.30703 18.3701  11
  -2  -3  -6 5.45230 28.0336  22
   2   3   6 23.9143 35.7829  12
  -2  -3  -6 20.7890 37.8633  10
  -2  -3  -6 12.0252 23.8408  18
   2   3   6 67.5586 41.6360  13
  -2  -3  -6-12.0476 22.5710  19
  -2  -3  -6-11.6641 33.4817   8
   2   3   6 117.079 45.6460   1
  -2  -3  -7 71.1062 44.5102  23
   2   3   7 69.6316 39.6551  15
   2   3   7 28.4980 27.6215   4
  -2  -3  -7 99.5329 37.4758   2
   2   3   7 158.538 74.8438   7
   2   3   7 55.0191 44.8295  14
  -2  -3  -7 90.0534 45.1943  19
  -2  -3  -7 96.3288 53.8431  22
  -2  -3  -7 68.9383 67.2514  10
  -2  -3  -7 36.6734 36.1444  18
   2   3   7 104.821 58.1876   1
   2   3   7 35.0704 40.9902  12
   2   3   7 75.4508 39.0716  13
   2   3   7 43.3053 29.5704  11
  -2  -3  -7 105.915 61.5755   8
  -2  -3  -7 83.8945 44.8426  21
  -2  -3  -8 5940.47 343.438  19
   2   3   8 5802.38 407.655   7
  -2  -3  -8 6183.94 359.328  22
   2   3   8 4825.31 330.662  14
  -2  -3  -8 5947.76 350.113  21
   2   3   8 4998.87 328.489  15
   2   3   8 5291.39 325.263  13
   2   3   8 6115.03 378.052   1
   2   3   8 5754.35 319.752  11
   2   3   8 5649.41 326.106  12
  -2  -3  -8 5671.47 387.433  10
  -2  -3  -8 5275.11 335.055   8
  -2  -3  -8 5734.91 344.828  18
  -2  -3  -8 5510.36 337.841  23
   2   3   9-58.5379 65.3372   1
   2   3   9 13.7574 56.5375   7
  -2  -3  -9 160.342 82.7542  10
   2   3   9 40.3318 52.6937  12
  -2  -3  -9 53.9293 64.2954   8
   2   3  10 1066.09 195.309   7
  -2  -3 -10 934.688 157.940   8
  -2  -3 -10 1630.80 245.128  10
   2   3  10 1141.85 195.235   1
   2   3  10 1210.81 170.621  12
   2   3  11 147.525 92.1667   7
  -2  -3 -11 186.150 91.4434  10
   2   3  11 155.326 72.2580  12
  -2  -3 -11 251.117 106.134   8
   2   3  12 493.640 164.462   7
   2   3  12 435.768 133.095  12
  -2  -3 -12 636.600 174.323  10
  -2  -3 -12 356.886 128.739   8
  -2  -4   9 1232.43 185.927   7
  -2  -4   9 1808.86 278.939   4
   2   4  -9 1700.86 247.988   5
   2   4  -9 1326.72 204.942   8
   2   4  -8-42.6159 63.8294  20
   2   4  -8 25.0341 63.1233   5
  -2  -4   8 22.1580 36.4702   7
  -2  -4   8 83.1775 59.3984   4
   2   4  -8-15.3327 46.6457   8
  -2  -4   7 1290.27 164.620   7
  -2  -4   7 1804.94 246.555   4
   2   4  -7 1500.25 212.254  20
   2   4  -7 1384.34 187.064   8
   2   4  -7 1509.53 204.535   5
  -2  -4   6-7.40970 40.3568   9
  -2  -4   6-3.05164 29.4625   7
   2   4  -6-49.5182 49.0350   5
   2   4  -6-27.5325 48.3079  20
   2   4  -6-36.2823 40.1710   8
  -2  -4   6 27.2385 63.1929   4
   2   4  -5 2026.43 209.650  13
   2   4  -5 2322.49 200.896   8
  -2  -4   5 1900.32 174.761  21
   2   4  -5 2191.96 219.769  17
  -2  -4   5 1674.38 188.622   2
   2   4  -5 1834.97 217.651  20
   2   4  -5 2120.42 217.718   5
   2   4  -5 2062.97 203.672  19
  -2  -4   5 2094.47 176.172   9
   2   4  -5 1937.05 202.700  18
  -2  -4   5 2202.83 233.552   4
   2   4  -5 2236.38 231.279  15
  -2  -4   5 2302.40 194.448   7
  -2  -4   4 11079.5 506.857   4
   2   4  -4 10830.5 488.943  13
   2   4  -4 9942.68 473.447  17
   2   4  -4 11013.0 476.971   5
  -2  -4   4 10090.3 417.502  21
  -2  -4   4 9178.70 454.886   2
   2   4  -4 10125.1 459.879  19
   2   4  -4 10638.8 480.178  18
  -2  -4   4 9440.99 366.158   9
   2   4  -4 10359.5 502.707  20
   2   4  -4 10305.9 504.566  15
  -2  -4   4 10885.6 408.655   7
  -2  -4   3 7619.12 283.846   9
   2   4  -3 8041.67 286.704   6
   2   4  -3 7506.94 386.907  18
   2   4  -3 7866.81 414.468  20
   2   4  -3 7762.13 394.405  13
  -2  -4   3 8227.17 359.817  21
   2   4  -3 8379.53 385.384   5
  -2  -4   3 8962.62 415.394   4
   2   4  -3 8261.26 393.569  19
  -2  -4   3 6692.09 263.721  16
   2   4  -3 8152.28 404.955  17
  -2  -4   3 8019.94 412.496   2
   2   4  -3 7332.21 408.567  15
   2   4  -2 10766.2 493.788  14
  -2  -4   2 10455.2 314.482   9
   2   4  -2 11030.0 367.886   6
  -2  -4   2 10461.3 415.886  23
   2   4  -2 11751.1 435.695   5
  -2  -4   2 10513.7 474.118   2
   2   4  -2 10803.3 465.001  17
   2   4  -2 10643.1 485.597  15
   2   4  -2 10185.7 461.742  20
   2   4  -2 10541.6 456.311  18
  -2  -4   2 10900.4 416.932  21
  -2  -4   2 11920.6 458.298   4
  -2  -4   2 10844.4 336.905  16
   2   4  -2 10653.6 459.305  13
  -2  -4   1 284.367 62.8925  22
   2   4  -1 228.529 65.0967  20
   2   4  -1 232.226 75.6538  14
  -2  -4   1 302.641 64.2646   3
  -2  -4   1 278.227 65.3417  23
  -2  -4   1 227.543 60.1352  21
   2   4  -1 199.845 53.1423   6
   2   4  -1 257.198 74.2560  13
   2   4  -1 198.158 49.4929   5
   2   4  -1 303.113 76.5609  18
  -2  -4   1 258.923 40.4840   9
   2   4  -1 131.909 56.6710  17
  -2  -4   1 327.558 79.3355   2
  -2  -4   1 274.872 53.7043  16
  -2  -4   1 378.784 77.1310   4
   2   4  -1 339.058 86.2801  15
   2   4   0 101.632 56.8210  14
  -2  -4   0 33.5646 39.5443   2
   2   4   0 27.8626 40.2772  13
   2   4   0 55.2661 37.2423  18
  -2  -4   0 9.31983 27.3014  22
   2   4   0 37.7324 21.4985   5
  -2  -4   0 76.5800 39.4523  23
   2   4   0 29.5804 19.4820   1
  -2  -4   0 73.4060 41.0969  10
  -2  -4   0 12.7152 28.6144   3
   2   4   0 78.1670 50.9720  17
   2   4   0 7.90848 26.5852   6
  -2  -4   0 80.6944 40.5577  21
  -2  -4   0 11.5989 30.2680   4
   2   4   0 29.4397 47.1481  15
  -2  -4  -1 171123. 3022.71  10
   2   4   1 162031. 3186.35  14
   2   4   1 172083. 3133.42  17
   2   4   1 170963. 3118.81  13
   2   4   1 169648. 3096.97   6
  -2  -4  -1 170042. 3075.80  21
  -2  -4  -1 168967. 3076.76  23
  -2  -4  -1 167615. 3187.91   2
  -2  -4  -1 169033. 3064.25  19
  -2  -4  -1 169627. 3086.00  22
   2   4   1 165426. 2926.07   5
   2   4   1 171040. 2988.11   1
  -2  -4  -1 166246. 2962.84   3
   2   4   1 165635. 3168.05  15
   2   4   2-17.0700 35.6657  14
   2   4   2-0.36009 33.9209   6
  -2  -4  -2 7.82992 23.2165  23
   2   4   2 46.3058 35.1665   1
  -2  -4  -2 3.51903 30.5236  21
  -2  -4  -2 40.5771 32.5776   3
   2   4   2-20.4882 25.9050  13
  -2  -4  -2-5.25098 22.6920  22
   2   4   2 25.8626 24.3917  17
   2   4   2 12.5156 15.9201   5
  -2  -4  -2 19.1727 33.6181  10
  -2  -4  -2 13.6926 33.4945   2
   2   4   2-13.3306 51.3550  15
  -2  -4  -2-9.82249 21.6323  19
   2   4   3 1935.99 185.997  14
  -2  -4  -3 1879.04 155.306   3
  -2  -4  -3 1654.29 151.488  10
  -2  -4  -3 1810.06 164.553  22
  -2  -4  -3 1936.59 167.436  21
   2   4   3 1998.33 174.653  13
  -2  -4  -3 1899.65 177.431   2
  -2  -4  -3 1780.91 158.772  19
   2   4   3 1978.23 177.994  17
   2   4   3 1943.64 142.037  12
   2   4   3 1789.42 175.089  15
   2   4   3 1937.75 151.511   1
   2   4   3 1820.16 106.118  11
  -2  -4  -3 1894.92 167.428  23
   2   4   3 1684.51 91.3409   5
  -2  -4  -3 1640.78 113.798   8
   2   4   3 2023.90 195.189   6
  -2  -4  -4 679.700 102.860   3
  -2  -4  -4 874.535 120.213  10
   2   4   4 672.612 115.197  14
   2   4   4 706.614 108.789  13
   2   4   4 619.515 119.890   7
  -2  -4  -4 819.530 112.088  19
  -2  -4  -4 757.112 109.133  23
   2   4   4 735.513 94.9124  12
   2   4   4 672.162 113.680  15
  -2  -4  -4 715.248 108.161  22
   2   4   4 702.846 68.6507  11
  -2  -4  -4 847.439 91.5343   8
   2   4   4 926.881 107.733   1
   2   4   4 716.382 110.553  17
  -2  -4  -4 604.359 95.3360   2
  -2  -4  -4 825.017 112.672  21
   2   4   5 149.735 57.0012  15
  -2  -4  -5 237.607 69.2411  22
   2   4   5 220.864 76.2823  14
   2   4   5 215.558 79.8776   7
  -2  -4  -5 276.408 72.1182  19
  -2  -4  -5 277.981 72.6872  23
  -2  -4  -5 191.298 68.2958  21
   2   4   5 293.642 69.9305  12
   2   4   5 198.050 65.0297  17
   2   4   5 226.742 58.3208   1
   2   4   5 206.332 44.2334  11
  -2  -4  -5 261.078 60.5523   2
  -2  -4  -5 278.622 81.5541  10
  -2  -4  -5 238.807 51.9948   8
   2   4   5 206.630 65.3925  13
   2   4   6 4551.95 334.447   7
  -2  -4  -6 4642.37 291.580  19
   2   4   6 4283.44 303.481  15
   2   4   6 4225.43 222.060  11
  -2  -4  -6 4809.59 299.421  21
  -2  -4  -6 4827.94 298.765  22
   2   4   6 4691.13 270.484  12
   2   4   6 4251.67 305.288  14
  -2  -4  -6 4056.67 231.201   2
  -2  -4  -6 4642.87 314.239  10
   2   4   6 4906.87 278.220   1
   2   4   6 4478.37 297.029  17
  -2  -4  -6 4920.51 302.819  23
  -2  -4  -6 4956.48 259.786   8
   2   4   6 4171.76 282.739  13
  -2  -4  -7 6385.72 363.935  23
   2   4   7 6346.37 414.932   7
   2   4   7 5511.70 359.887  14
  -2  -4  -7 6027.03 351.805  21
   2   4   7 5175.89 344.882  15
  -2  -4  -7 6288.10 359.356  22
   2   4   7 5964.42 327.145  12
   2   4   7 5857.68 294.901  11
   2   4   7 5881.59 331.250   1
  -2  -4  -7 5416.58 266.923   2
  -2  -4  -7 6363.24 397.110  10
   2   4   7 5391.18 343.859  17
   2   4   7 6050.94 352.336  13
  -2  -4  -7 5566.67 305.626   8
  -2  -4  -7 5838.10 344.655  19
   2   4   8 6019.91 368.468  13
  -2  -4  -8 6600.06 382.625  19
   2   4   8 6034.70 423.196   7
   2   4   8 5833.87 385.007  14
  -2  -4  -8 6705.82 390.705  23
  -2  -4  -8 6521.29 429.056  10
  -2  -4  -8 6821.38 392.011  22
   2   4   8 6180.78 360.089  12
   2   4   8 7037.15 395.403   1
   2   4   8 6712.28 348.794  11
   2   4   8 6049.21 385.466  15
  -2  -4  -8 5885.60 343.404   8
  -2  -4  -8 6446.07 381.439  21
   2   4   8 5881.07 369.172  17
   2   4   9-54.9141 62.5813   7
   2   4   9-31.4020 53.3138  12
   2   4   9 24.6252 41.5534   1
  -2  -4  -9 109.759 73.2614  10
   2   4   9 43.2361 39.9512  11
  -2  -4  -9 42.1685 57.4667   8
   2   4  10 2108.29 275.612   7
   2   4  10 2406.32 251.171  12
  -2  -4 -10 2274.91 288.507  10
   2   4  10 2272.39 235.934  11
  -2  -4 -10 2376.40 250.464   8
   2   4  10 2695.47 306.159   1
   2   4  11 1662.25 256.920   7
  -2  -4 -11 2088.89 287.888  10
   2   4  11 1525.24 216.678  12
  -2  -5   9 1439.48 199.292   7
   2   5  -9 1241.59 231.209  20
   2   5  -9 1330.21 229.943   5
  -2  -5   9 1500.83 264.625   4
   2   5  -9 1310.92 218.376   8
  -2  -5   8 503.939 113.172   7
  -2  -5   8 759.979 179.611   4
   2   5  -8 473.304 117.990   8
   2   5  -8 447.630 137.990  20
   2   5  -8 756.700 173.321   5
  -2  -5   7 695.848 121.932   7
   2   5  -7 832.195 172.618  20
   2   5  -7 794.536 162.606   5
  -2  -5   7 406.059 134.692   4
   2   5  -7 628.742 131.331   8
   2   5  -6 536.692 127.597   5
   2   5  -6 845.449 166.648  20
  -2  -5   6 413.655 90.3208   7
  -2  -5   6 1008.05 183.283   4
   2   5  -6 486.365 109.018   8
   2   5  -5 206.916 76.6365   5
  -2  -5   5 311.738 80.1027  21
  -2  -5   5 252.669 89.1116   2
   2   5  -5 313.809 104.200  20
   2   5  -5 152.806 72.1514  13
   2   5  -5 127.117 59.0539  18
   2   5  -5 146.730 65.7738  19
   2   5  -5 116.659 67.8755  17
  -2  -5   5 291.027 82.2145   4
   2   5  -5 118.668 66.6317  15
   2   5  -5 243.896 63.9992   8
  -2  -5   5 134.747 51.4371   7
   2   5  -4 2425.14 236.249   5
   2   5  -4 2387.19 242.830  19
   2   5  -4 2535.01 257.869  17
  -2  -5   4 2158.14 234.193   2
   2   5  -4 2365.27 244.751  18
   2   5  -4 2476.15 253.838  20
  -2  -5   4 1980.72 149.969   9
  -2  -5   4 2547.12 222.230  21
  -2  -5   4 2748.54 260.162   4
   2   5  -4 2578.12 261.461  13
   2   5  -4 2530.27 271.213  15
   2   5  -3 106228. 2355.97  13
   2   5  -3 113918. 2013.66   6
  -2  -5   3 110838. 2242.23  21
   2   5  -3 113087. 2382.46  20
   2   5  -3 113279. 2281.33   5
   2   5  -3 108624. 2333.15  19
   2   5  -3 105745. 2416.04  15
   2   5  -3 108563. 2365.21  18
  -2  -5   3 121010. 2343.76   4
  -2  -5   3 104325. 1965.24   9
   2   5  -3 107801. 2368.13  17
  -2  -5   3 106350. 2093.11  16
   2   5  -2 1197.86 191.958  14
   2   5  -2 1485.51 186.407  17
   2   5  -2 1807.89 145.150   6
  -2  -5   2 1703.97 178.774  23
   2   5  -2 1661.74 167.306   5
   2   5  -2 1528.64 191.908  13
  -2  -5   2 1560.77 102.559   9
   2   5  -2 1577.42 191.446  18
  -2  -5   2 1401.30 188.279   2
  -2  -5   2 1597.35 140.993  16
   2   5  -2 1425.32 198.778  15
  -2  -5   2 1489.02 164.740  21
  -2  -5   2 1647.90 175.762   4
   2   5  -2 1411.08 174.946  20
  -2  -5   2 1482.42 164.946   3
   2   5  -1 24190.4 699.607   5
  -2  -5   1 24299.4 728.766   4
   2   5  -1 23137.6 797.382  13
   2   5  -1 23938.5 672.098   6
   2   5  -1 23823.0 772.204  20
  -2  -5   1 23369.9 738.748  23
  -2  -5   1 23007.8 728.578  21
  -2  -5   1 22683.1 818.374   2
  -2  -5   1 24917.9 734.886   3
  -2  -5   1 25329.4 743.157  10
   2   5  -1 24162.1 809.795  18
   2   5  -1 22885.7 851.631  14
  -2  -5   1 24245.6 539.848   9
   2   5  -1 22855.2 799.531  17
  -2  -5   1 23334.9 657.109  16
   2   5  -1 22836.3 834.636  15
  -2  -5   0 4590.13 333.707   2
  -2  -5   0 4738.05 289.138  21
  -2  -5   0 5031.51 280.087   3
   2   5   0 5191.82 289.545   6
   2   5   0 4377.80 331.881  15
   2   5   0 5120.64 265.655   5
   2   5   0 5007.27 329.774  13
  -2  -5   0 5035.29 302.581  22
  -2  -5   0 4698.95 293.782  23
   2   5   0 4843.10 326.426  18
   2   5   0 4709.69 322.763  17
  -2  -5   0 5260.45 294.993  10
   2   5   0 4820.94 358.036  14
  -2  -5   0 4919.48 273.665  16
   2   5   1 15738.4 608.201  13
  -2  -5  -1 15575.0 513.974   3
  -2  -5  -1 14584.6 548.640  21
   2   5   1 15765.1 569.713   6
   2   5   1 14678.2 636.691  14
  -2  -5  -1 15331.1 567.134  22
   2   5   1 14621.5 622.036  15
  -2  -5  -1 14985.9 629.670   2
   2   5   1 14993.9 503.282   1
  -2  -5  -1 15570.9 536.866  10
  -2  -5  -1 14835.0 557.115  23
   2   5   1 14790.8 606.733  18
   2   5   1 15631.1 619.360  17
   2   5   1 15088.6 469.965   5
  -2  -5  -2 7008.15 367.072  23
  -2  -5  -2 6829.94 329.701   3
  -2  -5  -2 6889.20 342.710  10
   2   5   2 7084.59 389.500   6
  -2  -5  -2 6758.71 356.798  21
  -2  -5  -2 7141.00 371.947  22
   2   5   2 7210.15 389.758  13
   2   5   2 7059.85 277.491   5
  -2  -5  -2 7492.23 372.233  19
   2   5   2 7620.80 337.605   1
   2   5   2 6661.43 387.707  17
   2   5   2 7056.74 404.539  15
   2   5   2 7156.47 421.394  14
  -2  -5  -2 6833.00 398.196   2
   2   5   3 1389.47 188.766  14
  -2  -5  -3 1543.81 161.401   3
  -2  -5  -3 1436.01 163.417  21
  -2  -5  -3 1419.55 166.529  22
   2   5   3 1628.99 117.759  11
   2   5   3 1725.39 139.596  12
  -2  -5  -3 1321.99 154.556  19
  -2  -5  -3 1398.07 175.895   2
   2   5   3 1518.35 148.500   1
  -2  -5  -3 1505.92 158.689  10
   2   5   3 1352.08 171.333  17
   2   5   3 1197.88 97.5562   5
  -2  -5  -3 1411.01 163.188  23
   2   5   3 1292.99 169.027  13
   2   5   3 1188.91 171.736  15
   2   5   4 3451.29 264.730  13
   2   5   4 2673.79 114.793   5
   2   5   4 3235.65 280.839  14
   2   5   4 3563.88 279.925   7
  -2  -5  -4 3446.32 254.041   3
  -2  -5  -4 3664.54 267.452  22
   2   5   4 3237.10 273.868  15
  -2  -5  -4 3269.71 248.474  21
   2   5   4 3520.33 175.624  11
  -2  -5  -4 3182.16 254.557   2
  -2  -5  -4 3598.25 261.675  23
  -2  -5  -4 3359.56 245.086  10
   2   5   4 3493.60 232.422   1
  -2  -5  -4 3416.42 253.154  19
   2   5   4 3057.92 259.351  17
   2   5   4 3936.24 230.033  12
  -2  -5  -4 3416.80 173.158   8
   2   5   5 1585.00 151.701  12
   2   5   5 1368.71 172.945  13
   2   5   5 1324.44 184.345  14
   2   5   5 1374.96 148.585   1
  -2  -5  -5 1332.05 171.423   3
  -2  -5  -5 1423.58 167.532  19
   2   5   5 1315.82 186.300   7
  -2  -5  -5 1474.02 172.351  21
  -2  -5  -5 1315.52 163.182  23
  -2  -5  -5 1254.26 155.110   2
   2   5   5 1412.19 116.641  11
  -2  -5  -5 1536.87 174.676  10
   2   5   5 1264.57 171.130  17
  -2  -5  -5 1386.78 120.350   8
   2   5   5 1381.95 181.015  15
  -2  -5  -5 1389.19 169.586  22
  -2  -5  -6 6120.15 372.142  22
   2   5   6 6436.52 416.492   7
   2   5   6 5815.97 396.127  14
  -2  -5  -6 6385.38 378.170  23
  -2  -5  -6 6681.46 413.375   3
   2   5   6 6143.13 383.975  17
  -2  -5  -6 6923.94 388.298  21
  -2  -5  -6 5453.22 317.496   2
  -2  -5  -6 6283.10 373.188  19
   2   5   6 6885.15 346.111  12
   2   5   6 6666.98 392.078  13
   2   5   6 6759.84 295.910  11
  -2  -5  -6 6886.21 312.144   8
  -2  -5  -6 6831.88 398.716  10
   2   5   6 6513.69 344.755   1
   2   5   6 6653.04 411.483  15
   2   5   7-15.8338 57.3850  15
   2   5   7-17.9272 60.0919  14
   2   5   7-75.5882 59.8607   7
   2   5   7 9.18053 34.4674  13
   2   5   7 16.8110 42.3845  12
  -2  -5  -7 1.91872 39.4669  23
  -2  -5  -7 46.6430 41.0013  21
  -2  -5  -7 22.6301 48.7449  22
  -2  -5  -7 8.75252 32.6909  19
   2   5   7 3.78229 33.8771   1
  -2  -5  -7-2.92631 70.4066   3
  -2  -5  -7 16.6692 52.4657  10
   2   5   7 75.1492 53.2335  17
   2   5   7-20.8388 27.6866  11
  -2  -5  -7 7.83796 35.1276   8
   2   5   8 6953.33 429.564  17
   2   5   8 7665.05 488.525   7
   2   5   8 6396.72 435.914  14
  -2  -5  -8 7574.00 440.269  22
   2   5   8 7015.52 396.046  12
   2   5   8 6234.30 405.250  13
  -2  -5  -8 7511.80 426.828  19
  -2  -5  -8 7331.82 428.071  21
   2   5   8 7565.56 375.710  11
   2   5   8 7147.73 403.705   1
  -2  -5  -8 7553.39 472.361  10
  -2  -5  -8 7390.22 430.631  23
   2   5   8 5976.16 413.860  15
   2   5   9 138.649 66.0795   1
   2   5   9 53.4131 63.2404   7
   2   5   9 118.881 46.6984  11
  -2  -5  -9 52.6395 83.8479  10
   2   5   9 109.298 81.9146  12
   2   5  10 445.066 135.935   7
   2   5  10 365.956 121.613   1
   2   5  10 165.533 97.6596  12
  -2  -5 -10 300.945 123.187  10
   2   5  11-37.9375 66.4419   7
   2   5  11 135.486 78.1698  12
  -2  -5 -11 12.3483 80.4130   3
   2   6  -8 144.078 95.3260  20
   2   6  -8 189.600 97.9643   5
  -2  -6   8-33.0164 122.744   4
   2   6  -8 172.493 87.2123   8
   2   6  -7 3256.51 344.996   5
   2   6  -7 3120.28 348.985  20
  -2  -6   7 3327.65 357.564   4
   2   6  -7 2942.09 286.661   8
  -2  -6   6 919.110 154.752  21
   2   6  -6 976.441 190.518  20
   2   6  -6 1275.07 202.873   5
  -2  -6   6 1248.30 213.200   4
  -2  -6   6 1136.40 198.033   2
   2   6  -6 1047.51 153.418   8
   2   6  -5 2043.81 267.115  13
   2   6  -5 2006.15 206.522   8
  -2  -6   5 2008.48 220.907  21
   2   6  -5 2081.04 250.307   5
   2   6  -5 2519.74 281.732  19
   2   6  -5 2032.57 261.552  18
   2   6  -5 2014.72 273.842  17
  -2  -6   5 2367.47 269.639   4
  -2  -6   5 2005.56 260.379   2
   2   6  -5 2210.47 297.175  15
   2   6  -5 2296.74 274.731  20
  -2  -6   4 1288.14 186.055   4
   2   6  -4 1334.89 201.262  20
   2   6  -4 1091.86 191.811  13
  -2  -6   4 1003.33 150.647  21
   2   6  -4 1214.43 192.548  19
   2   6  -4 938.228 156.441   5
   2   6  -4 848.828 171.544  18
   2   6  -4 934.332 176.964  17
   2   6  -4 1070.41 137.113   8
   2   6  -4 974.452 193.803  15
   2   6  -3 51001.9 1489.43  13
   2   6  -3 54271.5 1475.09  20
  -2  -6   3 51474.6 1359.01  21
   2   6  -3 50108.7 1448.88  19
   2   6  -3 55447.5 1388.29   5
   2   6  -3 51229.4 1486.50  18
   2   6  -3 51607.2 1500.96  17
  -2  -6   3 51200.0 1247.42  16
   2   6  -3 50578.4 1542.60  15
  -2  -6   2 2680.42 245.864  21
   2   6  -2 2932.85 295.356  18
   2   6  -2 3018.73 296.006  13
  -2  -6   2 2519.79 241.268  23
   2   6  -2 3150.37 288.500  20
   2   6  -2 2757.67 237.624   5
   2   6  -2 2674.80 302.020  15
   2   6  -2 2805.36 311.521  14
   2   6  -2 2992.42 298.135  17
  -2  -6   2 3364.44 274.337   4
  -2  -6   2 2840.35 218.762  16
  -2  -6   2 2959.01 260.547   3
   2   6  -1 163.921 79.0409  17
   2   6  -1 133.683 75.6304  14
  -2  -6   1 82.3259 53.6455  23
  -2  -6   1 97.6621 56.3303   3
   2   6  -1 187.877 67.0134  13
  -2  -6   1 151.927 66.2087  10
   2   6  -1 148.321 73.7299  18
  -2  -6   1 117.949 60.9695  21
   2   6  -1 110.485 64.1259  20
  -2  -6   1 152.378 78.1974   2
   2   6  -1 105.441 56.2077   5
  -2  -6   1 131.808 32.8422   9
  -2  -6   1 145.830 53.0436  16
  -2  -6   1 51.8928 38.7994   4
   2   6  -1 72.0036 67.1780  15
   2   6   0 582.966 127.885  13
   2   6   0 568.793 113.838  20
   2   6   0 584.616 145.161  14
   2   6   0 726.214 112.713   5
  -2  -6   0 718.188 118.972  10
  -2  -6   0 731.267 122.585   3
   2   6   0 568.872 133.498  17
  -2  -6   0 652.146 124.484  21
   2   6   0 650.177 139.771  18
  -2  -6   0 496.182 128.410   2
  -2  -6   0 733.149 129.178  23
  -2  -6   0 658.742 111.792  16
   2   6   0 568.724 146.317  15
   2   6   1 3305.30 324.002  14
  -2  -6  -1 3795.50 266.161   3
   2   6   1 3621.22 268.596  20
  -2  -6  -1 3638.76 282.648  23
   2   6   1 3413.38 299.702  13
  -2  -6  -1 3559.47 276.062  21
   2   6   1 3562.63 251.385   1
   2   6   1 3501.07 230.635   5
  -2  -6  -1 3099.19 297.267   2
  -2  -6  -1 3089.51 261.510  22
  -2  -6  -1 3489.85 260.573  10
   2   6   1 3560.60 310.716  17
   2   6   1 3675.93 314.951  18
  -2  -6  -1 3336.45 264.381  16
   2   6   1 3631.98 324.405  15
   2   6   2 2174.48 263.765  14
   2   6   2 2259.80 250.983  18
  -2  -6  -2 2486.90 217.433   3
   2   6   2 2389.77 249.951  17
  -2  -6  -2 2267.75 226.263  22
   2   6   2 2260.12 172.776   5
   2   6   2 2378.34 252.717  13
   2   6   2 2359.06 202.783   1
   2   6   2 2516.81 165.021  12
  -2  -6  -2 2372.27 225.699  21
  -2  -6  -2 2165.69 248.693   2
  -2  -6  -2 2541.71 220.021  10
  -2  -6  -2 2311.62 225.060  23
   2   6   2 2238.70 261.114  15
   2   6   3 3861.98 343.929  14
  -2  -6  -3 3984.71 288.017   3
  -2  -6  -3 4124.67 303.968  23
   2   6   3 3912.71 318.761  13
   2   6   3 3574.47 206.043   5
  -2  -6  -3 3830.22 291.804  21
   2   6   3 4055.70 228.236  12
  -2  -6  -3 4041.46 306.011  22
   2   6   3 4276.06 222.538  11
   2   6   3 4632.23 288.598   1
  -2  -6  -3 3433.54 302.982   2
  -2  -6  -3 4220.84 295.821  10
   2   6   3 3802.20 332.033  15
   2   6   3 3448.21 302.975  17
   2   6   4 13006.1 649.625  14
   2   6   4 14945.4 611.364   7
  -2  -6  -4 13870.2 595.145   3
  -2  -6  -4 13161.2 581.635  23
  -2  -6  -4 13961.4 599.138  22
   2   6   4 14266.6 489.530  12
   2   6   4 12653.8 609.608  17
   2   6   4 15013.3 553.515   1
  -2  -6  -4 14711.9 591.916  10
   2   6   4 14680.9 447.887  11
  -2  -6  -4 11566.2 574.654   2
  -2  -6  -4 13281.4 573.549  19
   2   6   4 13277.1 613.434  13
  -2  -6  -4 13387.2 582.304  21
   2   6   4 11915.6 612.657  15
  -2  -6  -5 13960.2 592.062  10
   2   6   5 11917.3 638.501  14
  -2  -6  -5 13501.4 613.702   3
  -2  -6  -5 12854.5 575.455  19
   2   6   5 11808.7 583.896  13
  -2  -6  -5 11113.9 536.275   2
  -2  -6  -5 13431.5 588.979  21
   2   6   5 13039.3 430.581  11
   2   6   5 14254.3 546.590   1
  -2  -6  -5 13473.7 596.866  23
   2   6   5 13184.4 623.305  17
   2   6   5 14194.4 619.319   7
   2   6   5 11491.8 610.707  15
  -2  -6  -5 13303.7 593.448  22
   2   6   5 13892.4 507.859  12
   2   6   6-27.6088 45.2100  15
   2   6   6 71.8212 72.6808  17
   2   6   6 2.38096 57.5409  14
   2   6   6 16.2960 50.2438   7
  -2  -6  -6 185.232 86.9084   3
  -2  -6  -6 64.7554 61.4143  10
   2   6   6 0.11921 43.9190  13
   2   6   6-50.9060 42.9506  11
  -2  -6  -6 49.1658 51.5190  19
  -2  -6  -6 83.9178 55.3599  21
  -2  -6  -6-5.93629 45.5811  22
   2   6   6 31.6951 41.0606   1
   2   6   6 4.35791 49.5678  12
  -2  -6  -6 16.6636 32.2562  23
  -2  -6  -6-58.7066 63.2636   2
  -2  -6  -7 13242.2 609.967  21
   2   6   7 13416.7 643.907   7
  -2  -6  -7 12818.2 662.560   3
  -2  -6  -7 12867.0 609.058  23
   2   6   7 14303.6 567.439  12
   2   6   7 13295.9 490.236  11
  -2  -6  -7 12915.7 614.483  22
   2   6   7 12649.7 544.818   1
   2   6   7 11360.9 591.878  13
  -2  -6  -7 13042.6 601.518  19
  -2  -6  -7 13418.5 639.370  10
   2   6   7 12010.5 615.724  17
   2   6   7 10848.2 604.037  15
   2   6   7 11821.5 644.557  14
   2   6   8 1771.19 239.200   7
   2   6   8 1481.73 228.072  14
  -2  -6  -8 2009.72 267.163   3
   2   6   8 2023.52 195.135  11
   2   6   8 1700.40 208.847  12
   2   6   8 1369.80 201.597  13
  -2  -6  -8 1806.62 234.640  10
   2   6   8 1734.45 228.312  17
   2   6   8 1887.83 211.889   1
   2   6   8 1418.95 215.585  15
   2   6   9 1412.28 230.995   7
   2   6   9 1353.49 191.680  12
  -2  -6  -9 1607.32 257.016   3
   2   6   9 1202.98 184.572   1
  -2  -6  -9 1538.79 233.044  10
   2   6  10 4619.00 428.574   7
  -2  -6 -10 4586.38 470.029   3
   2   6  10 5662.17 413.688  12
  -2  -6 -10 5824.64 476.743  10
   2   6  10 5226.09 415.506   1
   2   7  -8 476.061 149.723   5
   2   7  -8 447.372 151.051  20
  -2  -7   8 710.410 181.457   4
   2   7  -8 658.126 152.998   8
   2   7  -7 2688.66 346.190  20
   2   7  -7 2226.33 303.417   5
   2   7  -7 1932.60 240.006   8
  -2  -7   7 2580.49 333.988   4
  -2  -7   6 4017.24 356.416  21
   2   7  -6 4847.35 460.258  13
   2   7  -6 4694.62 434.966  19
  -2  -7   6 4062.05 408.693   2
   2   7  -6 4054.08 407.991  20
   2   7  -6 4928.29 429.148   5
   2   7  -6 4054.60 326.168   8
   2   7  -6 4850.53 461.329  17
  -2  -7   6 5828.77 468.615   4
   2   7  -6 4471.77 463.294  15
  -2  -7   5 660.401 147.113  21
  -2  -7   5 583.812 160.941   2
   2   7  -5 754.085 172.983  13
   2   7  -5 992.094 194.499  20
   2   7  -5 787.371 169.619  19
   2   7  -5 1094.93 197.338   5
   2   7  -5 1087.78 206.671  18
   2   7  -5 728.345 131.419   8
   2   7  -5 981.050 213.685  15
  -2  -7   5 854.560 169.103   4
   2   7  -5 792.580 175.822  17
   2   7  -4 621.104 158.886  13
  -2  -7   4 277.738 115.874   2
  -2  -7   4 509.985 123.125  21
   2   7  -4 533.241 132.483   5
   2   7  -4 433.777 98.9499   8
   2   7  -4 686.767 162.194  18
   2   7  -4 546.639 141.349  19
   2   7  -4 631.439 162.151  17
   2   7  -4 540.555 142.879  20
  -2  -7   4 706.036 150.499   4
   2   7  -4 441.423 139.710  15
  -2  -7   3 2893.15 282.189  21
   2   7  -3 2680.12 317.482  13
   2   7  -3 3169.39 317.492  20
  -2  -7   3 3460.04 318.401   3
   2   7  -3 2901.68 283.131   5
   2   7  -3 2913.71 356.927  15
   2   7  -3 3049.43 323.876  19
   2   7  -3 2992.24 334.783  18
   2   7  -3 3082.82 338.941  17
  -2  -7   3 3812.44 328.967   4
  -2  -7   2 6812.43 505.778   2
  -2  -7   2 8037.50 469.639  21
   2   7  -2 7453.66 522.447  13
  -2  -7   2 8864.40 500.930   3
   2   7  -2 7879.71 493.787  20
   2   7  -2 8315.62 464.179   5
   2   7  -2 8039.82 539.032  18
  -2  -7   2 7531.93 465.067  23
   2   7  -2 7304.92 522.384  17
  -2  -7   2 8440.03 477.414   4
  -2  -7   2 7296.32 409.279  16
   2   7  -2 7288.06 548.180  15
  -2  -7   1 22539.6 813.915   3
   2   7  -1 19349.6 929.369  14
  -2  -7   1 20347.7 798.368  23
   2   7  -1 20842.2 818.038  20
  -2  -7   1 20241.5 788.631  21
   2   7  -1 19990.9 879.181  13
   2   7  -1 20902.4 755.451   5
  -2  -7   1 19123.5 867.398   2
  -2  -7   1 22285.6 800.373  10
   2   7  -1 20125.2 884.870  18
   2   7  -1 19476.2 876.668  17
  -2  -7   1 23548.4 809.373   4
   2   7  -1 20032.4 932.411  15
  -2  -7   1 20688.0 736.677  16
   2   7   0 254.941 120.298  14
   2   7   0 176.235 90.8977  13
  -2  -7   0 483.283 117.617  23
  -2  -7   0 243.914 84.8009   3
  -2  -7   0 376.525 104.566  21
   2   7   0 379.179 97.3911  20
   2   7   0 324.226 89.6968   1
   2   7   0 212.937 68.6763   5
  -2  -7   0 411.020 102.886  10
   2   7   0 507.422 142.947  18
   2   7   0 396.496 125.617  17
  -2  -7   0 374.085 126.420   2
  -2  -7   0 398.102 101.180  16
   2   7   0 392.823 118.606  15
  -2  -7  -1 1631.96 195.713   3
   2   7   1 1379.05 240.362  14
  -2  -7  -1 1272.44 183.582  21
  -2  -7  -1 1667.53 195.339  10
  -2  -7  -1 1378.49 193.511  23
   2   7   1 1414.40 220.328  13
   2   7   1 1508.29 234.725  15
   2   7   1 1499.26 190.433  20
   2   7   1 1598.50 184.170   1
   2   7   1 1459.28 217.824  18
  -2  -7  -1 1111.19 199.999   2
  -2  -7  -1 1291.04 182.880  16
   2   7   1 1621.51 236.622  17
   2   7   1 1424.14 164.770   5
   2   7   1 1578.73 125.307  12
   2   7   2 427.504 123.771  13
   2   7   2 638.042 159.874  14
  -2  -7  -2 504.422 118.046  22
  -2  -7  -2 371.787 101.154  23
  -2  -7  -2 591.871 127.265  21
   2   7   2 475.552 75.7554  12
  -2  -7  -2 468.090 110.252   3
   2   7   2 222.394 67.8807  11
   2   7   2 485.190 124.647  17
   2   7   2 655.504 123.399   1
   2   7   2 301.813 86.4224  20
   2   7   2 354.595 83.9564   5
  -2  -7  -2 487.627 113.667  10
   2   7   2 397.018 127.183  18
   2   7   2 416.784 135.649  15
  -2  -7  -2 353.506 122.340   2
  -2  -7  -2 509.352 120.150  16
   2   7   3 10696.7 507.230   7
   2   7   3 10004.9 633.297  14
  -2  -7  -3 11280.5 532.813  10
  -2  -7  -3 11482.2 549.846   3
   2   7   3 9685.66 466.853  20
  -2  -7  -3 10195.7 531.673  21
   2   7   3 10151.2 407.834   5
   2   7   3 9627.50 607.516  15
   2   7   3 9948.36 580.492  13
   2   7   3 11447.1 510.312   1
  -2  -7  -3 8665.08 540.357   2
  -2  -7  -3 10351.9 541.682  22
  -2  -7  -3 10292.7 540.253  23
   2   7   3 9995.63 586.399  17
   2   7   3 11339.9 425.076  11
   2   7   3 10923.7 407.203  12
   2   7   3 10133.6 595.271  18
   2   7   4 53.1433 83.8192  14
   2   7   4-52.0395 69.8471   7
   2   7   4-40.9346 64.4708  13
   2   7   4 40.4820 60.9878  15
  -2  -7  -4 20.7612 45.3185  23
  -2  -7  -4 3.88248 45.8659  22
   2   7   4 7.55487 56.1067  18
  -2  -7  -4-24.8204 52.2305  21
   2   7   4-23.8760 25.3365  11
   2   7   4 14.8469 40.0090   1
   2   7   4-17.8859 58.1322  17
  -2  -7  -4 66.9549 71.5898  10
   2   7   4-19.4530 31.5925  12
  -2  -7  -4-59.1783 63.7182   3
  -2  -7  -4 54.6431 56.1981   2
   2   7   5 29192.4 1152.81  14
  -2  -7  -5 34068.8 1108.20   3
   2   7   5 30490.5 1107.80  17
   2   7   5 36840.6 1073.79   7
  -2  -7  -5 32394.8 1073.06  23
   2   7   5 30365.6 1116.25  18
  -2  -7  -5 31924.9 1056.69  21
   2   7   5 28921.3 1122.17  15
  -2  -7  -5 32579.7 1077.35  22
  -2  -7  -5 28045.9 1017.10   2
   2   7   5 34049.9 848.510  11
   2   7   5 35919.8 927.028  12
  -2  -7  -5 35522.6 1085.17  10
   2   7   5 34511.0 996.990   1
   2   7   5 29544.8 1083.98  13
  -2  -7  -6 15283.1 693.883  21
   2   7   6 14073.1 762.254  14
  -2  -7  -6 16199.4 758.749   3
   2   7   6 17679.1 622.746  12
   2   7   6 14119.7 709.455  13
  -2  -7  -6 15883.1 714.922  22
  -2  -7  -6 12599.1 610.873   2
   2   7   6 16941.9 711.954   7
   2   7   6 16138.3 643.914   1
  -2  -7  -6 14899.5 695.522  23
   2   7   6 14341.0 722.862  17
   2   7   6 16295.7 545.702  11
  -2  -7  -6 17290.5 731.251  10
   2   7   6 13787.1 735.008  15
  -2  -7  -7 172.871 85.8699  23
  -2  -7  -7 115.790 65.4696  22
   2   7   7 277.569 116.410  14
   2   7   7 149.737 90.9238   7
   2   7   7 87.2061 56.8967  13
   2   7   7 98.9751 48.7943  11
  -2  -7  -7 300.939 119.433   3
  -2  -7  -7 36.3216 57.5521  21
   2   7   7 93.4548 54.4736  12
   2   7   7 132.198 70.7498   1
  -2  -7  -7 116.412 62.1289  10
   2   7   7 121.332 80.2754  17
   2   7   7 63.5085 49.5794  15
   2   7   8 30.9702 69.4773   7
   2   7   8-10.3904 44.8661  12
   2   7   8-46.4562 41.4694   1
  -2  -7  -8 83.2965 75.5745   3
  -2  -7  -8-51.0777 61.8214  10
   2   7   9-159.859 91.3342   7
   2   7   9-233.489 90.3961  12
  -2  -7  -9-62.1338 80.6821   3
  -2  -7  -9 38.1516 57.4721  10
   2   7   9-76.1202 73.7270   1
   2   7  10 66.7427 73.0212   7
  -2  -7 -10 95.7794 78.6815   3
   2   7  10 114.989 88.9066  12
  -2  -7 -10 97.1796 80.1595  10
   2   8  -7-0.42532 69.0653   5
   2   8  -7 192.646 104.840  20
  -2  -8   7-74.0904 81.4174   4
   2   8  -7 97.9819 81.2806   8
   2   8  -6 7534.39 630.009  13
   2   8  -6 7367.16 584.575  20
   2   8  -6 8385.49 641.661  19
   2   8  -6 8353.62 649.433  18
   2   8  -6 8501.26 608.240   5
  -2  -8   6 6415.69 484.703  21
   2   8  -6 7871.34 644.397  17
  -2  -8   6 7118.38 584.714   2
  -2  -8   6 9565.72 633.821   4
   2   8  -6 6434.75 432.926   8
   2   8  -6 7706.54 669.101  15
   2   8  -5 836.097 180.960   5
   2   8  -5 745.777 199.076  13
  -2  -8   5 691.364 156.512  21
   2   8  -5 694.269 181.142  20
   2   8  -5 724.024 184.563  19
   2   8  -5 748.378 196.004  18
   2   8  -5 738.618 191.890  17
  -2  -8   5 685.269 184.981   2
  -2  -8   5 1008.29 198.675   4
   2   8  -5 790.099 208.375  15
   2   8  -5 700.353 129.687   8
   2   8  -4 219.482 89.7373  20
   2   8  -4 203.282 94.7773   5
  -2  -8   4 133.028 81.6064  21
   2   8  -4 19.1425 65.5431  13
  -2  -8   4-79.1244 82.4595   2
   2   8  -4 149.754 97.2795  19
   2   8  -4-38.3811 79.9827  18
   2   8  -4 69.2445 81.9768  17
  -2  -8   4 15.1131 71.7336   4
   2   8  -4 230.335 123.021  15
   2   8  -4 167.035 70.8393   8
   2   8  -3-7.96311 82.9277  17
  -2  -8   3 211.142 96.2149   3
  -2  -8   3 255.437 95.0434  21
   2   8  -3-32.7802 72.1327  20
   2   8  -3 125.368 116.281  15
   2   8  -3 104.767 91.5297  19
   2   8  -3 203.769 85.8752   5
  -2  -8   3 69.7690 80.6823   2
   2   8  -3 175.386 107.623  18
  -2  -8   3 278.467 107.610   4
   2   8  -3 102.140 60.9066  13
   2   8  -3 170.638 63.1784   8
  -2  -8   2 178.361 79.1876   3
   2   8  -2 246.937 121.776  13
  -2  -8   2 148.048 106.946   2
  -2  -8   2 298.987 104.881  21
   2   8  -2 199.621 88.5693  20
   2   8  -2 334.731 126.175  19
   2   8  -2 183.115 79.9683   5
   2   8  -2 165.063 87.0579  18
   2   8  -2 189.477 103.597  17
  -2  -8   2 200.724 83.9085  16
  -2  -8   2 180.382 85.3293   4
   2   8  -2 169.538 135.877  15
  -2  -8   1 516.259 137.676  23
   2   8  -1 489.635 159.231  14
   2   8  -1 594.979 148.988  20
   2   8  -1 329.933 126.781  18
   2   8  -1 239.538 83.9749   5
   2   8  -1 587.230 178.260  15
   2   8  -1 388.879 136.932  17
  -2  -8   1 443.181 121.725   3
  -2  -8   1 490.465 114.964  16
  -2  -8   1 337.888 120.748   2
   2   8  -1 286.005 140.028  13
  -2  -8   1 533.359 120.172   4
  -2  -8   1 522.152 133.751  21
  -2  -8   0 85.7441 69.6961  21
  -2  -8   0-60.3661 57.8045  10
  -2  -8   0 49.1578 58.5652   3
   2   8   0 42.8352 49.6450  20
   2   8   0 48.6911 52.4171   1
   2   8   0-0.18247 57.7410  17
   2   8   0-57.4590 109.482  15
  -2  -8   0-21.1981 43.3857  23
   2   8   0 29.4102 69.0655  14
   2   8   0-5.85586 53.1642   5
   2   8   0-17.3167 62.0740  13
   2   8   0 131.602 87.9869  18
  -2  -8   0-23.0380 67.3361   2
  -2  -8   0 101.316 58.1736  16
  -2  -8  -1 8601.50 528.521  23
  -2  -8  -1 10180.7 554.069   3
   2   8   1 8131.12 574.563  13
  -2  -8  -1 10014.8 538.813  10
  -2  -8  -1 8201.61 514.148  21
   2   8   1 8837.53 465.572   5
   2   8   1 8531.81 591.133  17
   2   8   1 8599.10 500.305  20
   2   8   1 9809.11 504.686   1
   2   8   1 8842.50 649.256  14
   2   8   1 8786.81 601.948  18
  -2  -8  -1 8414.93 519.033  16
  -2  -8  -1 7001.44 537.900   2
   2   8   1 8504.55 625.046  15
   2   8   2 481.597 159.787  14
  -2  -8  -2 653.303 143.679   3
   2   8   2 397.333 125.064  17
  -2  -8  -2 445.480 125.352  16
   2   8   2 434.243 107.226   1
  -2  -8  -2 399.702 111.287  21
  -2  -8  -2 441.633 120.634  23
   2   8   2 367.934 125.949  18
   2   8   2 528.006 106.523  11
   2   8   2 478.390 104.135   5
  -2  -8  -2 434.653 117.977  10
   2   8   2 443.943 124.689  13
   2   8   2 540.436 122.050  20
  -2  -8  -2 389.223 132.092   2
   2   8   2 413.740 139.138  15
   2   8   3 237.929 121.484  14
   2   8   3 47.3330 38.2318  12
   2   8   3 226.742 101.025  13
  -2  -8  -3 101.698 59.9728  21
  -2  -8  -3 182.674 86.6021  23
  -2  -8  -3 158.134 88.7969   3
   2   8   3 78.4400 72.9383  18
   2   8   3 74.6018 68.2470  15
   2   8   3 111.764 63.5219  20
   2   8   3 135.445 65.1192   1
   2   8   3 122.623 49.0313  11
  -2  -8  -3 158.153 80.0927  10
   2   8   3 55.2358 68.4585  17
  -2  -8  -3 0.49946 64.8937   2
  -2  -8  -3 192.641 90.6654  16
   2   8   4 4881.23 438.017  18
   2   8   4 4750.40 460.937  14
  -2  -8  -4 5642.07 423.740   3
  -2  -8  -4 5263.72 414.656  22
  -2  -8  -4 5407.79 414.726  21
  -2  -8  -4 5154.10 390.354  10
  -2  -8  -4 4524.07 404.800   2
   2   8   4 5455.93 381.672   1
   2   8   4 5964.06 319.722  11
   2   8   4 5095.92 441.931  13
  -2  -8  -4 5430.66 449.947  16
  -2  -8  -4 5457.38 421.791  23
   2   8   4 5666.72 308.611  12
   2   8   4 4511.98 442.488  15
   2   8   4 4636.28 426.992  17
  -2  -8  -5 1546.41 227.308  23
   2   8   5 2109.70 231.678   7
  -2  -8  -5 1940.30 252.521   3
   2   8   5 2009.71 298.931  14
   2   8   5 1497.74 242.525  13
   2   8   5 1855.11 185.912  12
   2   8   5 1502.45 260.644  15
   2   8   5 1811.31 172.837  11
   2   8   5 1612.63 253.238  18
  -2  -8  -5 1934.66 250.607  21
  -2  -8  -5 1901.57 241.348  10
   2   8   5 1592.58 202.236   1
   2   8   5 1498.03 247.314  17
  -2  -8  -5 1564.62 232.667   2
  -2  -8  -5 1627.88 231.042  22
   2   8   6 1615.07 215.022   7
  -2  -8  -6 2222.47 285.489   3
   2   8   6 1742.59 279.129  14
   2   8   6 2085.69 191.485  11
   2   8   6 1733.21 260.811  13
   2   8   6 1843.43 195.948  12
  -2  -8  -6 1971.15 253.769  21
   2   8   6 2151.89 239.397   1
  -2  -8  -6 1780.97 243.966  22
  -2  -8  -6 2131.07 268.991  10
   2   8   6 1649.87 252.092  18
  -2  -8  -6 1578.96 232.150  23
   2   8   6 1962.09 282.766  17
   2   8   6 1668.74 265.442  15
   2   8   7 2050.26 254.673   7
   2   8   7 2490.61 341.414  14
  -2  -8  -7 2455.34 317.205   3
   2   8   7 1948.30 277.838  13
  -2  -8  -7 2137.51 271.500  22
  -2  -8  -7 2100.54 264.938  21
   2   8   7 2271.53 301.649  17
  -2  -8  -7 2601.45 308.405  10
   2   8   7 2173.14 293.526  18
  -2  -8  -7 2372.17 288.989  23
   2   8   7 2367.16 256.020   1
   2   8   7 2500.27 245.401  12
   2   8   7 2017.16 301.120  15
   2   8   8 441.072 112.123  12
  -2  -8  -8 414.715 150.745   3
   2   8   8 289.553 113.695   7
  -2  -8  -8 245.733 92.2367  10
   2   8   8 227.399 91.6823   1
   2   8   9 52.5164 67.3436  12
   2   8   9 80.7183 74.3742   7
  -2  -8  -9-99.1780 103.766  10
  -2  -8  -9-10.6175 61.8830   3
   2   8   9-2.23672 54.6746   1
   2   9  -6-40.4205 81.9666  13
  -2  -9   6 115.966 74.2776  21
   2   9  -6 19.0741 65.7056  19
   2   9  -6 41.6255 64.3938  20
   2   9  -6-65.4225 91.7011  17
   2   9  -6-60.0042 64.6857   5
   2   9  -6 229.961 127.813  18
  -2  -9   6 20.6508 66.1866   2
  -2  -9   6-45.8279 68.6271   4
   2   9  -6 144.634 123.654  15
   2   9  -6 1.74535 49.0556   8
   2   9  -5 421.834 163.277  13
  -2  -9   5 490.181 143.949  21
   2   9  -5 494.235 115.021   8
   2   9  -5 336.954 134.830  20
   2   9  -5 452.007 130.682   5
   2   9  -5 284.545 137.990  19
   2   9  -5 643.636 194.656  18
   2   9  -5 467.574 165.906  17
  -2  -9   5 361.646 153.131   2
  -2  -9   5 397.795 124.034   4
   2   9  -5 241.895 145.294  15
   2   9  -4 603.964 156.659   5
  -2  -9   4 422.607 129.671  21
   2   9  -4 306.477 126.551  20
   2   9  -4 377.722 154.100  19
   2   9  -4 419.681 150.199  13
   2   9  -4 447.115 176.022  18
   2   9  -4 438.600 175.355  17
  -2  -9   4 691.350 188.802   2
  -2  -9   4 502.255 183.024   4
   2   9  -4 665.046 208.645  15
  -2  -9   3 229.262 97.1467   3
   2   9  -3 153.025 98.8154  20
   2   9  -3 72.3689 71.4977   5
  -2  -9   3 135.470 76.9736  21
   2   9  -3 80.3888 98.1434  15
   2   9  -3 228.810 119.078  13
   2   9  -3 50.3222 76.3945  19
   2   9  -3 125.921 114.757  17
   2   9  -3-28.7612 89.2760  18
  -2  -9   3 216.040 120.500   2
  -2  -9   3 220.618 102.590   4
  -2  -9   2 551.111 150.320   3
   2   9  -2 416.126 145.326  13
  -2  -9   2 631.581 147.243  21
  -2  -9   2 237.319 119.956   2
   2   9  -2 241.129 102.154  19
   2   9  -2 480.462 135.730   5
   2   9  -2 444.960 131.012  20
   2   9  -2 534.939 178.215  18
   2   9  -2 517.004 174.250  17
  -2  -9   2 303.274 121.729   4
   2   9  -2 428.696 132.552  15
  -2  -9   1 2469.31 303.549   3
   2   9  -1 2333.92 273.647   5
   2   9  -1 1835.87 306.930  13
   2   9  -1 2160.36 330.420  17
   2   9  -1 2173.81 263.523   1
  -2  -9   1 2149.69 333.492   2
   2   9  -1 2250.91 285.320  20
  -2  -9   1 1829.57 242.953  16
  -2  -9   1 2093.54 272.475  21
   2   9  -1 1978.73 313.392  18
  -2  -9   1 2407.60 282.038   4
   2   9  -1 1893.90 327.935  15
  -2  -9   0 3201.27 334.172   3
   2   9   0 2629.61 389.904  14
  -2  -9   0 2517.35 342.735   2
   2   9   0 2677.45 360.735  18
  -2  -9   0 3009.92 335.005  23
   2   9   0 2833.35 291.322   5
  -2  -9   0 2534.16 303.161  21
   2   9   0 2900.58 312.855  20
  -2  -9   0 3470.91 336.400  10
  -2  -9   0 2831.75 304.264  16
   2   9   0 2745.56 364.975  13
   2   9   0 2850.59 401.288  15
   2   9   0 2926.07 376.277  17
   2   9   0 2792.38 289.663   1
  -2  -9  -1 421.935 157.374   2
   2   9   1 399.841 163.964  14
  -2  -9  -1 672.826 158.801   3
   2   9   1 556.142 177.463  18
   2   9   1 387.053 108.591   1
   2   9   1 641.953 179.812  13
   2   9   1 809.473 153.373   5
   2   9   1 577.506 138.483  20
  -2  -9  -1 547.824 143.202  23
   2   9   1 438.526 158.032  17
  -2  -9  -1 445.210 124.478  16
  -2  -9  -1 690.316 149.235  10
   2   9   1 489.429 149.159  15
  -2  -9  -1 627.111 151.056  21
  -2  -9  -2 2554.65 297.974   3
   2   9   2 1787.25 310.628  14
   2   9   2 2048.79 307.193  13
   2   9   2 2710.18 252.292  11
  -2  -9  -2 2545.29 288.409  10
   2   9   2 2108.89 249.717  20
  -2  -9  -2 2036.10 269.825  21
  -2  -9  -2 2140.85 278.503  23
   2   9   2 2204.26 252.842   1
   2   9   2 2269.97 320.741  18
   2   9   2 2361.60 335.535  17
  -2  -9  -2 2444.63 302.469  16
  -2  -9  -2 1682.54 273.482   2
   2   9   2 2227.97 337.788  15
  -2  -9  -3 537.379 146.909   3
   2   9   3 451.478 161.077  14
  -2  -9  -3 633.754 155.932  21
  -2  -9  -3 556.489 147.302  23
   2   9   3 626.941 164.847  17
   2   9   3 714.955 190.765  13
   2   9   3 620.379 140.938   1
   2   9   3 832.042 134.562  11
   2   9   3 606.545 181.419  15
  -2  -9  -3 472.127 128.898  10
   2   9   3 468.464 160.583  18
  -2  -9  -3 605.803 170.004   2
  -2  -9  -3 690.463 169.555  16
   2   9   4 12.3369 73.2358  14
  -2  -9  -4-8.39391 71.0058  21
   2   9   4 85.4778 81.0146  13
   2   9   4-13.3692 52.8549   1
   2   9   4-47.7422 40.4584  11
  -2  -9  -4-7.89178 73.4767  10
  -2  -9  -4 46.0297 72.3603  23
   2   9   4-0.20438 69.9350  18
   2   9   4 16.0368 62.3393  17
  -2  -9  -4-4.81109 75.9340   3
  -2  -9  -4-199.975 101.947   2
  -2  -9  -4 116.386 100.170  16
   2   9   4-51.6969 128.581  15
  -2  -9  -5 491.975 150.840  16
  -2  -9  -5 580.430 157.711  23
   2   9   5 886.505 223.448  14
  -2  -9  -5 504.832 149.371   3
   2   9   5 521.007 157.967  18
   2   9   5 779.488 127.881  12
   2   9   5 752.502 183.463  13
   2   9   5 742.526 121.395  11
   2   9   5 697.661 153.055   1
  -2  -9  -5 536.567 146.649  10
   2   9   5 589.432 170.775  17
  -2  -9  -5 603.965 150.483  21
  -2  -9  -5 586.379 147.535   2
   2   9   5 648.183 183.159  15
   2   9   6 413.690 157.262  14
   2   9   6 524.672 168.416  17
  -2  -9  -6 347.108 129.758   3
  -2  -9  -6 462.789 136.537  23
   2   9   6 453.815 100.845  12
   2   9   6 390.313 127.725  18
  -2  -9  -6 698.870 160.722  10
   2   9   6 487.719 130.172   1
  -2  -9  -6 497.639 158.194  16
   2   9   6 509.093 157.886  13
  -2  -9  -6 612.772 155.498  21
   2   9   6 339.749 133.805  15
  -2  -9  -7 2038.75 280.814  10
   2   9   7 1292.01 275.670  14
  -2  -9  -7 1830.38 287.540   3
   2   9   7 1803.30 214.344  12
   2   9   7 1489.49 269.175  13
   2   9   7 2254.76 268.140   1
   2   9   7 2059.96 311.573  18
   2   9   7 1838.13 298.144  17
  -2  -9  -7 2025.84 328.621  16
   2   9   7 1429.12 269.903  15
  -2  -9  -8 892.376 213.333   3
   2   9   8 1538.68 210.912  12
  -2  -9  -8 1403.96 248.985  10
   2   9   8 1045.59 189.242   1
  -2  -9  -8 1193.97 257.892  16
   2  10  -4 31.0762 81.8744  13
   2  10  -4-58.5097 92.2283  20
  -2 -10   4 79.5194 86.3370  21
   2  10  -4 132.974 112.805   5
  -2 -10   4-21.2851 67.8717   2
   2  10  -4 192.044 119.514  19
   2  10  -4 15.3918 88.5361  18
   2  10  -4 96.3429 105.761  17
  -2 -10   4 156.269 102.815   4
   2  10  -4-68.3340 105.129  15
   2  10  -3 441.332 169.430  13
  -2 -10   3 422.727 134.642  21
   2  10  -3 637.760 172.842   5
   2  10  -3 540.814 181.662  19
  -2 -10   3 575.652 187.781   2
   2  10  -3 559.218 165.453  20
   2  10  -3 524.127 201.024  17
   2  10  -3 486.252 187.015  18
  -2 -10   3 773.049 183.084   4
   2  10  -3 532.608 202.566  15
   2  10  -2 1839.02 324.737  13
   2  10  -2 1958.00 268.044   1
   2  10  -2 2027.13 296.803  20
   2  10  -2 1664.57 262.561   5
   2  10  -2 2301.41 364.753  19
   2  10  -2 1803.96 323.181  18
  -2 -10   2 1444.06 247.470  21
   2  10  -2 1813.27 327.916  17
  -2 -10   2 1409.21 288.537   2
  -2 -10   2 1940.55 283.158   4
   2  10  -2 1608.09 334.257  15
   2  10  -1 1603.87 291.278  19
  -2 -10   1 1608.08 264.160   3
   2  10  -1 1183.27 271.781  13
   2  10  -1 1321.78 233.136  20
  -2 -10   1 1661.70 263.787  21
   2  10  -1 1551.64 242.854   5
   2  10  -1 1294.21 285.820  17
   2  10  -1 1580.84 303.828  18
  -2 -10   1 1299.79 284.123   2
  -2 -10   1 1447.46 239.681  16
  -2 -10   1 1291.19 226.057   4
   2  10  -1 1054.04 282.375  15
   2  10  -1 1322.85 217.494   1
  -2 -10   0 3113.16 358.073   3
   2  10   0 2044.18 339.238  18
  -2 -10   0 2252.26 300.562  16
  -2 -10   0 2131.28 296.821  21
   2  10   0 2066.34 281.270  20
   2  10   0 2430.63 291.015   5
   2  10   0 2351.25 289.760   1
   2  10   0 1882.03 327.690  13
  -2 -10   0 2279.92 293.751  10
   2  10   0 2461.49 372.629  17
   2  10   0 1734.96 332.344  15
  -2 -10   0 2221.49 352.889   2
  -2 -10  -1 1923.38 288.234  23
  -2 -10  -1 2547.23 322.737   3
  -2 -10  -1 2238.29 298.952  16
   2  10   1 1937.10 353.287  14
  -2 -10  -1 2003.56 289.272  21
   2  10   1 2033.91 271.455  20
   2  10   1 2177.53 278.853   1
   2  10   1 2668.33 282.900  11
  -2 -10  -1 1792.59 320.220   2
  -2 -10  -1 2432.31 308.306  10
   2  10   1 2268.10 354.800  13
   2  10   1 2209.62 346.041  18
   2  10   1 2468.91 369.219  17
   2  10   1 1758.53 338.454  15
   2  10   2 166.606 81.7947  14
  -2 -10  -2 530.532 143.564   3
  -2 -10  -2 589.126 157.383  23
   2  10   2 599.143 190.886  13
   2  10   2 530.933 166.476  17
  -2 -10  -2 343.689 118.115  21
   2  10   2 325.589 116.235   1
  -2 -10  -2 492.776 135.108  10
   2  10   2 226.130 124.807  18
  -2 -10  -2 283.309 135.548   2
   2  10   2 401.150 114.296  11
  -2 -10  -2 439.756 151.340  16
   2  10   2 458.926 173.839  15
  -2 -10  -3 3253.33 370.319   3
  -2 -10  -3 3246.55 356.069  10
   2  10   3 2298.35 395.062  14
   2  10   3 2687.41 376.614  13
  -2 -10  -3 2834.71 342.019  21
   2  10   3 3062.85 276.977  11
   2  10   3 2829.80 315.200   1
  -2 -10  -3 2822.94 344.794  23
  -2 -10  -3 2781.44 354.385  16
   2  10   3 2432.08 360.206  18
   2  10   3 2111.69 338.880  17
  -2 -10  -3 1846.87 312.311   2
   2  10   3 2414.70 384.976  15
   2  10   4 1000.91 237.063  13
   2  10   4 885.115 254.884  14
  -2 -10  -4 763.254 188.022  23
   2  10   4 827.399 170.347   1
  -2 -10  -4 707.008 173.181  21
  -2 -10  -4 905.359 191.891  10
  -2 -10  -4 436.538 153.535   2
  -2 -10  -4 931.871 207.165   3
   2  10   4 732.316 207.285  17
   2  10   4 800.878 216.972  18
  -2 -10  -4 1067.67 230.754  16
   2  10   4 899.679 223.719  15
   2  10   5 337.836 161.012  14
  -2 -10  -5-105.339 81.4656  23
   2  10   5 37.7339 109.758  15
  -2 -10  -5-145.466 89.4239  21
  -2 -10  -5 65.0025 84.6402   3
  -2 -10  -5 204.739 97.8747  10
   2  10   5 164.720 109.784  18
   2  10   5-80.2423 91.2658  17
   2  10   5-142.243 110.224  13
  -2 -10  -5-81.7140 76.7051   2
  -2 -10  -5-40.5847 71.6946  16
   2  10   5-1.71412 60.1750   1
   2  10   6 30.3418 72.9336  13
  -2 -10  -6-51.7600 82.7731   3
   2  10   6 42.8662 76.2475  18
   2  10   6 0.28230 78.8523  14
  -2 -10  -6-2.76575 47.4639  21
  -2 -10  -6 40.8977 67.4903  10
   2  10   6-45.5916 63.5790   1
  -2 -10  -6-65.7628 75.8600  23
   2  10   6-174.769 112.301  17
  -2 -10  -6-78.6485 94.1039  16
   2  10   6 103.830 117.666  15
   2  11  -1 1696.68 346.626  13
   2  11  -1 1970.72 288.538   1
   2  11  -1 1825.22 345.111  17
  -2 -11   1 1669.15 278.467  21
   2  11  -1 1910.13 293.446  20
   2  11  -1 1962.46 292.404   5
  -2 -11   1 1533.18 326.839   2
   2  11  -1 2081.26 362.835  19
   2  11  -1 1410.07 306.196  18
  -2 -11   1 1724.39 271.315   4
   2  11  -1 2280.06 418.811  15
  -2 -11   0 2860.36 364.017  21
   2  11   0 3116.02 366.385  20
   2  11   0 3941.59 501.358  18
   2  11   0 2777.78 423.952  13
   2  11   0 3275.62 458.253  19
   2  11   0 3162.81 458.197  17
  -2 -11   0 2694.61 354.747  16
  -2 -11   0 2565.52 399.288   2
   2  11   0 3112.02 354.698   1
   2  11   0 3125.79 476.967  15
   2  11   1 73.4744 92.2938  13
   2  11   1 53.5387 70.7171   1
   2  11   1 26.0422 80.0871  17
  -2 -11  -1 31.7461 65.0361  21
   2  11   1 39.8301 62.1311  11
   2  11   1-175.242 118.946  19
  -2 -11  -1 134.346 89.8582  10
   2  11   1-104.722 119.136  18
  -2 -11  -1-96.9596 98.7375   2
  -2 -11  -1-102.255 84.7812  16
   2  11   1 97.4729 116.386  15
   2  11   2 87.1904 148.552  14
  -2 -11  -2 144.582 96.3706  23
  -2 -11  -2 126.296 76.4779  21
  -2 -11  -2 533.050 169.095   3
   2  11   2 253.905 119.946   1
  -2 -11  -2 356.943 134.855  10
   2  11   2 369.459 162.999  18
   2  11   2 219.747 131.379  17
   2  11   2 212.213 87.9175  11
  -2 -11  -2 49.7650 86.7384   2
  -2 -11  -2 154.697 103.267  16
   2  11   2 435.067 181.599  13
   2  11   2 209.075 150.862  15
   2  11   3 510.811 199.037  14
   2  11   3-19.8786 71.4014  13
  -2 -11  -3 35.7145 62.5584  23
   2  11   3 156.587 119.906  18
  -2 -11  -3 184.179 107.631   3
  -2 -11  -3-93.7747 76.1138  21
   2  11   3-63.0620 79.0133   1
  -2 -11  -3 58.1868 70.6556  10
   2  11   3 222.227 133.058  17
  -2 -11  -3-179.446 114.850   2
  -2 -11  -3 33.9925 69.3124  16
   2  11   3 150.778 117.353  15
   3  -8  -3 615.524 184.233   3
  -3   8   3 483.457 128.451  11
   3  -8  -3 536.908 189.364  16
   3  -8  -2 397.159 160.699   3
  -3   8   2 340.707 122.063   1
  -3   8   2 593.376 136.905  11
   3  -8  -2 107.591 105.350  16
   3  -8  -1 1972.88 287.956  21
   3  -8  -1 2554.35 382.509   3
   3  -8  -1 2472.96 294.394  10
  -3   8   1 2267.31 276.645   1
  -3   8   1 3399.04 325.091  11
  -3   8   1 1738.30 297.832  19
  -3   8   1 2370.41 360.003  18
  -3   8   1 2520.61 372.915  17
   3  -8  -1 1878.82 329.307  16
  -3   8   1 1787.56 315.177  13
  -3   8   1 2206.31 362.995  15
   3  -8   0 6485.30 588.455   3
  -3   8   0 5250.90 538.680  18
   3  -8   0 4645.34 514.629  16
   3  -8   0 4873.22 451.948  21
  -3   8   0 5460.19 552.323  13
  -3   8   0 6589.23 461.771  11
  -3   8   0 5500.73 560.364  17
  -3   8   0 4620.74 540.270  15
  -3   8   0 4937.12 513.712  19
   3  -8   1 5754.71 555.034   3
  -3   8  -1 5379.17 559.223  13
  -3   8  -1 6758.80 472.453  11
   3  -8   1 5107.39 467.702  21
  -3   8  -1 5427.25 546.088  19
  -3   8  -1 5601.97 564.896  18
  -3   8  -1 5459.61 571.973  17
  -3   8  -1 5613.15 439.952   5
   3  -8   1 5089.45 544.138  16
  -3   8  -1 5735.71 607.847  15
  -3   8  -2 216.475 94.0728   5
  -3   8  -2 317.006 149.225  19
  -3   8  -2 216.891 133.974  18
   3  -8   2 297.015 121.267  21
  -3   8  -2 31.6028 81.0896  13
  -3   8  -2 309.771 148.814  17
   3  -8   2 420.324 171.160  16
  -3   8  -2 216.877 140.016  15
  -3   8  -2 384.333 118.478  11
   3  -8   2 360.904 151.983   3
   3  -8   3 294.272 135.235   3
   3  -8   3 80.1262 85.3486  16
  -3   8  -3 253.348 125.308  13
  -3   8  -3 177.687 90.8400   5
  -3   8  -3 96.5716 120.356  19
  -3   8  -3 124.464 114.325  18
  -3   8  -3 24.3197 81.9916  17
   3  -8   4 55.1979 57.0399  14
   3  -8   4 206.549 120.855   3
  -3   8  -4 112.207 94.0336  23
  -3   8  -4 109.371 66.1278  20
  -3   8  -4-47.3267 87.6254  18
  -3   8  -4-16.4853 64.9597   5
  -3   8  -4 41.0758 70.6185  19
  -3   8  -4 53.0543 69.9367  17
   3  -8   4 121.802 116.228  16
  -3   8  -4-24.7233 80.9994  13
   3  -8   5 252.925 142.017   3
   3  -8   5-48.7360 68.8498  14
  -3   8  -5 28.0748 77.4266  23
  -3   8  -5 50.3127 105.372  13
  -3   8  -5-57.8419 72.3422  20
  -3   8  -5-181.678 104.792   5
  -3   8  -5-110.590 107.297  19
  -3   8  -5-42.9525 89.6591  18
  -3   8  -5-6.51153 75.3107  17
   3  -8   5-72.3882 128.366  16
  -3   7   5-13.7103 39.7915  11
   3  -7  -5 140.782 126.336  16
   3  -7  -4 2203.03 342.133   3
   3  -7  -4 2596.14 376.311  16
  -3   7   4 2862.72 291.022  11
   3  -7  -3 502.942 170.421   3
  -3   7   3 634.155 137.092  11
   3  -7  -3 317.392 136.072  16
   3  -7  -2 133.337 63.3667  10
  -3   7   2 90.5368 70.9618   1
  -3   7   2 143.283 71.3892  11
   3  -7  -2 72.0119 84.5947   3
   3  -7  -2 31.0346 101.145  16
   3  -7  -1 394.196 116.654  10
   3  -7  -1 135.962 91.9090  16
   3  -7  -1 209.623 85.9405  21
  -3   7   1 273.870 129.799  19
  -3   7   1 378.590 101.871  11
   3  -7  -1 232.134 124.880   3
  -3   7   1 109.564 62.7329   1
  -3   7   1 318.356 138.298  18
  -3   7   1 439.599 142.168  13
  -3   7   1 317.884 132.828  15
  -3   7   1 349.221 132.535  17
   3  -7   0 51.2081 97.7835   3
  -3   7   0 21.6060 60.5566  13
  -3   7   0 166.088 101.549  18
   3  -7   0 79.1892 57.1787  10
  -3   7   0 147.685 95.3721  19
  -3   7   0 40.2979 62.8561  17
   3  -7   0 120.654 94.8295  16
   3  -7   0 234.010 97.8412  21
  -3   7   0 106.095 66.0063  11
  -3   7   0 124.451 102.315  15
  -3   7  -1 23.2144 74.1943  13
   3  -7   1 25.8961 75.6095   3
   3  -7   1 5.49552 45.3007  21
  -3   7  -1 72.0629 64.4483   5
  -3   7  -1 87.3858 67.1801  11
  -3   7  -1 101.605 102.562  18
  -3   7  -1-78.4772 79.4215  19
  -3   7  -1-80.1298 86.8943  17
   3  -7   1 217.326 119.631  16
  -3   7  -1-65.2475 87.1471  15
   3  -7   2 11703.3 754.145   3
  -3   7  -2 10373.3 740.908  13
  -3   7  -2 9013.53 525.580  20
  -3   7  -2 12888.8 635.120  11
   3  -7   2 9048.89 604.320  21
  -3   7  -2 10542.6 728.895  19
  -3   7  -2 10108.8 589.140   5
  -3   7  -2 9380.27 697.796  18
  -3   7  -2 10773.6 761.213  17
   3  -7   2 9504.81 702.509  16
  -3   7  -2 10230.9 773.294  15
   3  -7   3 1219.46 262.594  16
  -3   7  -3 1227.54 204.989  20
   3  -7   3 1321.67 261.615   3
   3  -7   3 1132.85 210.367  21
  -3   7  -3 1151.87 247.265  13
  -3   7  -3 960.587 184.489   5
  -3   7  -3 1559.02 287.344  19
  -3   7  -3 1174.93 260.128  18
  -3   7  -3 1317.90 277.995  17
  -3   7  -3 1551.98 300.013  15
   3  -7   4 182.279 87.2539   3
   3  -7   4 274.473 100.190  14
  -3   7  -4 188.513 122.638  23
  -3   7  -4 373.899 139.641  18
  -3   7  -4 208.232 120.016  19
  -3   7  -4 232.125 98.7867   5
  -3   7  -4 441.887 170.469  13
  -3   7  -4 283.845 154.259  17
   3  -7   4 459.404 205.802  16
  -3   7  -4 258.853 104.980  20
   3  -7   5 184.659 122.863   3
   3  -7   5 99.5612 72.6310  14
  -3   7  -5 82.3293 106.664  13
  -3   7  -5 206.279 125.148  17
  -3   7  -5 193.550 132.603  23
  -3   7  -5 87.6596 84.2543  20
  -3   7  -5 11.6644 80.3388  19
  -3   7  -5 213.501 125.727  18
   3  -7   5 221.867 123.494  16
  -3   7  -5 139.586 69.9133   5
   3  -7   6 474.593 167.402   3
   3  -7   6 420.404 118.380  14
  -3   7  -6 348.276 131.762  20
  -3   7  -6 297.066 152.580  17
  -3   7  -6 452.144 159.212   5
  -3   7  -6 415.941 160.698  18
  -3   7  -6 366.109 139.881  23
   3  -7   6 317.827 152.001  16
  -3   7  -6 391.081 159.758  19
  -3   7  -6 597.545 192.836  13
   3  -7   7 1360.12 233.119  14
  -3   7  -7 1864.13 345.277  13
  -3   7  -7 1777.17 326.145  23
  -3   7  -7 1983.41 304.419  20
  -3   7  -7 1889.75 338.052  19
  -3   7  -7 1843.03 291.374   5
  -3   7  -7 2024.34 364.173  18
  -3   7  -7 2018.60 370.171  17
   3  -7   7 1521.34 324.301  16
   3  -7   7 2359.51 344.257   4
   3  -7   7 2148.27 361.340   3
  -3   6   6 242.885 95.7630  11
   3  -6  -6 296.861 133.387   3
   3  -6  -6 494.907 165.165  16
   3  -6  -5 698.073 198.312  16
   3  -6  -5 695.303 210.539   3
  -3   6   5 665.225 139.458  11
   3  -6  -4 645.251 192.330   3
   3  -6  -4 1118.61 230.294  16
  -3   6   4 972.979 161.383  11
   3  -6  -3 1912.44 297.236   3
   3  -6  -3 2258.49 243.672  10
  -3   6   3 2695.86 261.931  11
   3  -6  -3 2094.72 313.355  16
   3  -6  -2 8281.07 609.925  16
   3  -6  -2 8493.24 599.731   3
  -3   6   2 7442.81 525.358  13
  -3   6   2 10169.8 498.888  11
  -3   6   2 7728.53 538.921  18
  -3   6   2 7376.92 519.990  19
   3  -6  -2 9503.44 500.948  10
   3  -6  -2 7380.09 474.893  21
  -3   6   2 7795.97 544.882  17
  -3   6   2 7133.82 415.914   1
  -3   6   2 7193.73 545.875  15
  -3   6   1 662.245 154.106  13
   3  -6  -1 555.204 130.511  21
  -3   6   1 461.020 145.378  19
   3  -6  -1 624.669 127.255  10
  -3   6   1 638.580 162.808  18
   3  -6  -1 1019.64 211.191   3
  -3   6   1 254.877 108.048  17
  -3   6   1 675.097 130.817  11
   3  -6  -1 466.061 150.216  16
  -3   6   1 409.062 133.259  15
   3  -6   0 4478.34 423.486   3
   3  -6   0 3643.94 333.613  21
  -3   6   0 4818.82 339.441  11
   3  -6   0 3825.35 309.275  10
  -3   6   0 3801.86 394.150  18
  -3   6   0 3578.00 382.418  13
  -3   6   0 3730.25 391.173  17
   3  -6   0 3456.00 379.095  16
  -3   6   0 3910.76 420.662  15
  -3   6   0 3711.90 380.128  19
  -3   6  -1-15.5417 60.9245  18
   3  -6   1-23.8772 42.6059  21
  -3   6  -1 3.38021 43.5488   5
   3  -6   1 98.8613 79.5936   3
  -3   6  -1-17.3239 63.1140  13
  -3   6  -1 4.79338 88.4250  17
  -3   6  -1 93.0228 93.0784  19
  -3   6  -1 16.3784 37.9703  20
   3  -6   1-18.7758 73.3497  16
  -3   6  -1-7.30882 53.7975  11
  -3   6  -1 25.5632 71.0759  15
  -3   6  -2 1214.86 193.275   5
   3  -6   2 938.838 179.234  21
   3  -6   2 885.024 200.091   3
  -3   6  -2 856.737 146.004  20
  -3   6  -2 1069.53 208.350  19
  -3   6  -2 1347.62 243.787  17
   3  -6   2 1306.16 239.357  16
  -3   6  -2 1197.21 225.642  13
  -3   6  -2 1101.09 220.925  18
  -3   6  -2 1549.90 279.902  15
   3  -6   3 3512.04 386.910   3
  -3   6  -3 3175.93 387.826  13
   3  -6   3 2778.21 310.701  21
  -3   6  -3 3042.17 311.093   5
  -3   6  -3 3198.25 370.892  19
  -3   6  -3 3460.60 398.893  18
  -3   6  -3 3419.63 409.205  17
  -3   6  -3 3262.09 305.294  20
   3  -6   3 3349.81 392.004  16
  -3   6  -3 3544.46 419.371  15
   3  -6   4 8056.78 604.741   3
   3  -6   4 6454.77 446.383  14
  -3   6  -4 6462.05 460.534  20
  -3   6  -4 6839.02 566.206  23
  -3   6  -4 7286.47 492.431   5
  -3   6  -4 7672.00 594.221  19
  -3   6  -4 7264.50 588.731  18
  -3   6  -4 7463.98 612.250  17
  -3   6  -4 7431.24 603.042  13
   3  -6   4 7025.84 587.852  16
   3  -6   5 5423.06 411.805  14
  -3   6  -5 5622.37 534.842  13
  -3   6  -5 5022.08 495.066  23
   3  -6   5 6578.71 562.968   3
   3  -6   5 5564.85 537.460  16
  -3   6  -5 5229.85 497.236  19
  -3   6  -5 5829.88 535.543  18
  -3   6  -5 6123.53 465.067   5
  -3   6  -5 5591.41 545.226  17
  -3   6  -5 5209.68 436.625  20
  -3   6  -6 548.005 144.495   5
   3  -6   6 364.342 139.402   3
  -3   6  -6 412.534 153.231  23
  -3   6  -6 585.971 184.751  13
  -3   6  -6 233.365 110.398  20
   3  -6   6 513.260 135.093  14
  -3   6  -6 263.458 132.444  19
  -3   6  -6 472.215 167.026  18
  -3   6  -6 514.746 172.334  17
   3  -6   6 315.375 147.612  16
  -3   6  -7 71.5895 82.1853  13
  -3   6  -7 70.3231 85.9312   5
   3  -6   7-79.1707 67.8228  14
  -3   6  -7 148.325 108.036  19
  -3   6  -7 155.648 92.3029  17
  -3   6  -7-30.6103 67.8307  20
  -3   6  -7 104.430 86.7295  23
   3  -6   7-67.8848 91.3015  16
  -3   6  -7-115.606 98.1494  18
   3  -6   7 106.123 85.5604   4
  -3   6  -8 577.502 188.296  18
   3  -6   8 540.167 137.070  14
  -3   6  -8 543.833 164.070   5
  -3   6  -8 573.669 174.608  20
  -3   6  -8 542.966 180.466  19
  -3   6  -8 851.027 218.564  23
  -3   6  -8 571.592 188.762  13
  -3   6  -8 919.912 241.613  17
   3  -6   8 562.800 180.683   4
   3  -5  -7 1660.76 301.039   3
  -3   5   7 1654.33 243.252  11
  -3   5   6 311.417 98.7098  11
   3  -5  -6 308.035 133.951   3
   3  -5  -6 164.970 86.7282  16
   3  -5  -5 604.750 175.921   3
  -3   5   5 577.792 123.783  11
   3  -5  -5 579.601 158.274  16
   3  -5  -4 1132.65 215.345   3
  -3   5   4 1450.61 186.566  11
   3  -5  -4 1246.17 171.593  10
   3  -5  -4 1479.01 244.431  16
   3  -5  -3 481.799 153.369   3
  -3   5   3 364.817 95.7882  11
  -3   5   3 310.512 75.9110   1
   3  -5  -3 474.123 136.664  16
   3  -5  -3 384.746 94.5504  10
   3  -5  -2-85.7392 70.7888   3
  -3   5   2-6.38705 55.6558  13
   3  -5  -2-1.06421 34.7975  21
  -3   5   2 34.4195 47.7557  11
  -3   5   2-43.1022 38.6890   1
  -3   5   2 29.2132 53.3104  19
   3  -5  -2 3.43676 41.3217  10
  -3   5   2 16.7061 57.2051  18
  -3   5   2 77.9123 66.8278  17
   3  -5  -2-54.1278 67.1157  16
  -3   5   2-0.44481 60.3617  15
   3  -5  -1 7765.53 520.660   3
  -3   5   1 7080.99 479.312  13
   3  -5  -1 6855.43 422.317  21
   3  -5  -1 7778.94 410.393  10
  -3   5   1 6397.90 452.905  19
  -3   5   1 6607.46 467.031  18
  -3   5   1 7063.45 485.348  17
  -3   5   1 8469.93 426.084  11
   3  -5  -1 6823.26 504.954  16
  -3   5   1 6096.73 470.988  15
   3  -5   0 334.893 127.773   3
  -3   5   0 406.180 79.6506  20
   3  -5   0 535.941 118.981  21
  -3   5   0 533.239 146.692  13
  -3   5   0 316.405 105.095  19
   3  -5   0 634.632 116.811  10
  -3   5   0 410.909 127.063  18
  -3   5   0 370.720 114.294  17
   3  -5   0 477.928 135.059  16
  -3   5   0 562.669 109.214  11
  -3   5   0 383.211 123.184  15
   3  -5   1 1611.28 239.325   3
   3  -5   1 1264.52 191.362  21
  -3   5  -1 1371.13 179.094   5
  -3   5  -1 1437.86 178.534  11
  -3   5  -1 1267.26 154.183  20
  -3   5  -1 1241.45 215.309  13
  -3   5  -1 1337.20 217.730  19
  -3   5  -1 1279.30 209.938  18
  -3   5  -1 1633.25 244.267  17
   3  -5   1 1764.01 256.632  16
  -3   5  -1 1276.03 225.584  15
  -3   5  -2 689.435 164.932  13
   3  -5   2 1204.38 203.134   3
  -3   5  -2 804.114 133.984  20
  -3   5  -2 669.781 140.183   5
  -3   5  -2 876.500 175.717  19
   3  -5   2 927.102 161.985  21
  -3   5  -2 692.232 170.789  18
  -3   5  -2 612.573 153.688  17
   3  -5   2 612.163 156.992  16
  -3   5  -2 950.928 210.127  15
  -3   5  -3 544.095 120.712   5
  -3   5  -3 420.584 135.653  13
   3  -5   3 537.620 143.997   3
  -3   5  -3 422.870 107.766  20
  -3   5  -3 369.115 127.658  19
  -3   5  -3 592.103 157.631  18
  -3   5  -3 405.155 133.636  17
   3  -5   3 688.843 173.122  16
   3  -5   4 3833.14 389.117   3
   3  -5   4 3266.07 292.063  14
  -3   5  -4 3079.43 355.643  13
  -3   5  -4 3075.30 299.946   5
  -3   5  -4 3061.54 293.977  20
  -3   5  -4 3457.54 367.465  19
  -3   5  -4 3216.03 360.538  18
  -3   5  -4 3172.52 356.753  23
  -3   5  -4 3129.51 367.303  17
   3  -5   4 2992.98 360.018  16
   3  -5   5 201.612 103.541   3
   3  -5   5 232.845 93.4509  14
  -3   5  -5 181.811 97.8458  13
  -3   5  -5 164.756 79.0051  20
  -3   5  -5 241.258 98.2876   5
  -3   5  -5 220.411 102.658  19
  -3   5  -5 292.204 128.176  18
  -3   5  -5 127.292 99.9042  17
  -3   5  -5 194.173 94.0785  23
   3  -5   5 257.871 118.686  16
  -3   5  -5 286.953 82.5360   8
   3  -5   6 11396.1 724.487   3
   3  -5   6 9819.65 549.691  14
  -3   5  -6 10547.9 693.537  23
   3  -5   6 8985.33 847.446   1
  -3   5  -6 11164.3 725.609  13
  -3   5  -6 11045.4 733.457  17
  -3   5  -6 10444.9 617.499  20
  -3   5  -6 10643.3 688.970  19
  -3   5  -6 10143.9 594.489   5
  -3   5  -6 11221.8 716.288  18
   3  -5   6 10055.8 712.412  16
  -3   5  -6 9528.45 474.392   8
   3  -5   7 418.475 115.103  14
  -3   5  -7 243.984 120.957  17
  -3   5  -7 487.239 155.672  23
  -3   5  -7 401.066 124.934   5
  -3   5  -7 526.363 142.410  20
  -3   5  -7 276.713 138.417  13
  -3   5  -7 260.638 119.826  19
   3  -5   7 77.8641 169.139   1
  -3   5  -7 416.122 151.546  18
   3  -5   7 256.016 133.149  16
  -3   5  -7 394.657 107.071   8
   3  -5   7 446.358 143.650   4
   3  -5   8 1707.03 240.094  14
  -3   5  -8 2509.48 351.301  23
  -3   5  -8 2450.07 322.261  20
  -3   5  -8 2553.01 321.325   5
  -3   5  -8 2264.35 333.737  18
  -3   5  -8 2312.50 341.995  13
  -3   5  -8 2074.23 330.009  17
   3  -5   8 1811.42 402.091   1
  -3   5  -8 1821.77 234.344   8
   3  -5   8 1824.31 328.096  16
  -3   5  -8 2222.67 327.082  19
   3  -5   8 2111.01 296.508   4
   3  -5   9 985.415 190.253  14
  -3   5  -9 918.558 207.796  20
  -3   5  -9 1086.90 220.927   5
  -3   5  -9 866.109 229.822  13
  -3   5  -9 944.876 226.669  18
   3  -5   9 577.354 256.910   1
  -3   5  -9 974.094 226.351  23
  -3   5  -9 1089.02 240.277  19
  -3   5  -9 903.886 175.093   8
   3  -5   9 1200.42 228.639   4
  -3   5  -9 967.492 239.554  17
  -3   4   8 767.425 160.313   7
   3  -4  -8 1469.87 290.504   3
  -3   4   8 1196.88 209.220  11
  -3   4   7 259.688 106.477   7
   3  -4  -7 95.5571 93.1156   3
  -3   4   7 316.082 98.7345  11
  -3   4   6 158.491 77.6901   7
   3  -4  -6 116.445 90.9850   3
  -3   4   6 13.9929 45.3442  11
   3  -4  -6-50.8353 68.6406  16
  -3   4   5-19.0019 38.6855   7
   3  -4  -5-33.8237 62.9014   3
   3  -4  -5-35.1592 51.4613  10
  -3   4   5-27.6289 52.4226  11
   3  -4  -5 15.4431 70.8214  16
  -3   4   4 23.9373 38.3705   7
  -3   4   4 25.7778 48.5116  11
   3  -4  -4 19.1860 40.7230  10
   3  -4  -4 36.8846 55.1102  16
   3  -4  -4 31.6569 69.4455   3
  -3   4   3 2267.66 184.505   7
   3  -4  -3 2587.18 220.077  10
  -3   4   3 2847.56 230.983  11
   3  -4  -3 2582.66 291.752   3
  -3   4   3 1696.91 198.965   9
  -3   4   3 2175.57 174.058   1
   3  -4  -3 2398.54 279.112  16
  -3   4   2 4992.28 251.013   7
  -3   4   2 5113.39 353.486  13
   3  -4  -2 5159.23 319.875  21
   3  -4  -2 5701.92 320.781  10
  -3   4   2 5314.12 286.167   1
  -3   4   2 6632.57 344.791  11
   3  -4  -2 6389.25 442.249   3
  -3   4   2 5158.15 346.226  19
  -3   4   2 4180.08 293.100   9
  -3   4   2 5486.46 367.619  17
   3  -4  -2 5980.09 435.434  16
  -3   4   2 5068.61 369.499  15
  -3   4   2 4953.24 346.971  18
   3  -4  -1 1700.97 167.706  10
   3  -4  -1 1913.65 236.229   3
   3  -4  -1 1220.02 160.527  21
  -3   4   1 1409.27 195.407  13
  -3   4   1 1682.61 173.175  11
  -3   4   1 1190.60 175.734  18
  -3   4   1 1288.01 188.161  17
  -3   4   1 1153.03 136.201   9
  -3   4   1 1425.12 186.459  19
   3  -4  -1 1453.19 217.191  16
  -3   4   1 1413.32 200.437  15
   3  -4   0 4412.24 352.839   3
   3  -4   0 3674.17 282.669  21
  -3   4   0 4710.15 286.066  11
  -3   4   0 3959.73 231.400  20
  -3   4   0 3764.75 314.476  19
   3  -4   0 4282.61 270.553  10
  -3   4   0 3564.50 313.387  18
  -3   4   0 3739.98 321.444  13
  -3   4   0 3430.41 219.270   9
  -3   4   0 3859.74 329.213  17
   3  -4   0 4070.05 354.771  16
  -3   4   0 3647.17 332.940  15
   3  -4   1 6009.42 419.411   3
   3  -4   1 6112.10 375.730  21
  -3   4  -1 6506.57 438.694  13
  -3   4  -1 5943.12 316.045  20
  -3   4  -1 6906.57 360.771  11
  -3   4  -1 5796.57 409.729  19
  -3   4  -1 5902.77 420.796  18
  -3   4  -1 5365.49 249.520   9
  -3   4  -1 6494.93 445.140  17
  -3   4  -1 5985.80 402.359   2
   3  -4   1 6374.19 451.617  16
  -3   4  -1 6931.65 380.133   5
  -3   4  -1 6153.80 450.190  15
   3  -4   2 10347.4 565.558   3
  -3   4  -2 9309.54 522.450   2
  -3   4  -2 10427.4 581.578  13
   3  -4   2 9574.89 494.964  21
  -3   4  -2 9851.40 451.029  20
  -3   4  -2 11160.6 512.657   5
  -3   4  -2 9788.81 553.197  19
  -3   4  -2 10013.4 564.056  18
  -3   4  -2 9795.61 572.348  17
  -3   4  -2 9946.08 324.694   8
   3  -4   2 9875.21 583.453  16
  -3   4  -2 9310.53 576.914  15
  -3   4  -3 461.794 104.260   5
   3  -4   3 736.384 157.070   3
  -3   4  -3 541.702 137.427   2
  -3   4  -3 584.373 149.275  18
   3  -4   3 419.931 84.7400   6
  -3   4  -3 560.849 140.125  13
  -3   4  -3 567.238 111.699  20
  -3   4  -3 462.355 127.043  17
  -3   4  -3 513.260 140.097  19
   3  -4   3 558.428 143.282  16
  -3   4  -3 567.147 85.1146   8
   3  -4   4 3413.17 342.525   3
   3  -4   4 3145.92 269.337  14
   3  -4   4 2652.76 200.291   6
  -3   4  -4 3000.99 323.842  13
   3  -4   4 2203.97 364.193   1
  -3   4  -4 3142.76 279.273   5
  -3   4  -4 3068.66 310.190   2
  -3   4  -4 3084.85 276.394  20
  -3   4  -4 3397.70 338.408  19
  -3   4  -4 2926.01 322.089  18
  -3   4  -4 3174.34 338.797  17
  -3   4  -4 3106.28 211.566   8
  -3   4  -4 3268.26 333.186  23
   3  -4   4 3550.23 375.007  16
   3  -4   5-12.9075 82.0515   3
  -3   4  -5 42.8972 60.3538  23
  -3   4  -5 123.178 69.8361  13
  -3   4  -5 73.4894 67.9474  20
  -3   4  -5 0.58423 52.4780   2
  -3   4  -5 154.356 80.4608   5
  -3   4  -5 0.63178 62.2344  19
  -3   4  -5 99.1643 72.5661  18
   3  -4   5-47.0462 94.7768  16
  -3   4  -5 71.7318 67.4541  17
   3  -4   5 37.8795 42.7368  14
   3  -4   5 54.7067 91.5315   1
  -3   4  -5 12.8238 38.5836   8
  -3   4  -6 4659.50 429.717  13
  -3   4  -6 4426.88 412.961  23
  -3   4  -6 4490.42 304.932   8
  -3   4  -6 4135.37 356.676  20
  -3   4  -6 4509.49 363.624   5
  -3   4  -6 3995.16 389.477  19
  -3   4  -6 4170.43 404.371  18
   3  -4   6 3964.15 522.393   1
  -3   4  -6 4082.60 414.201  17
   3  -4   6 4138.94 329.378  14
  -3   4  -6 4334.80 393.307   2
   3  -4   6 4425.50 453.925  16
   3  -4   6 4896.93 444.617   3
   3  -4   7-14.7190 90.0702   1
   3  -4   7 33.4779 48.2689  14
  -3   4  -7 14.2672 77.8348  18
  -3   4  -7-12.2813 69.6694  17
  -3   4  -7-44.8708 48.3406  20
  -3   4  -7 26.2103 50.1770   5
  -3   4  -7-44.2677 73.3342  19
  -3   4  -7 19.2379 72.9777  23
  -3   4  -7-15.9890 47.1464  13
   3  -4   7-72.9729 83.0545  16
  -3   4  -7 42.1545 73.3494   8
   3  -4   7-25.4751 82.4926   4
  -3   4  -8 456.098 134.480   5
   3  -4   8 237.738 94.2992  14
  -3   4  -8 335.756 130.318  18
  -3   4  -8 315.006 116.447  20
  -3   4  -8 320.318 125.786  19
  -3   4  -8 100.791 76.2910  13
  -3   4  -8 304.650 126.527  17
   3  -4   8 603.077 186.833  16
  -3   4  -8 228.184 109.161  23
   3  -4   8 224.672 161.701   1
  -3   4  -8 408.355 115.523   8
   3  -4   8 329.477 113.887   4
  -3   4  -9 136.202 94.0006  13
   3  -4   9 106.337 71.4588  14
  -3   4  -9 195.306 108.787  20
  -3   4  -9 63.0688 77.8141  19
   3  -4   9 189.967 156.626   1
  -3   4  -9 65.5242 91.5835   5
  -3   4  -9-24.4188 58.0419  23
  -3   4  -9 120.951 86.4480  18
  -3   4  -9 193.115 114.464  17
   3  -4   9-44.4535 68.1234   4
  -3   4  -9 182.228 93.9613   8
   3  -4  10 1254.65 209.087  14
   3  -4  10 1103.85 327.148   1
  -3   4 -10 1427.17 261.573  20
  -3   4 -10 1733.32 269.612   5
  -3   4 -10 1493.53 258.899  23
  -3   4 -10 1303.68 248.209  18
  -3   4 -10 1530.88 269.785  19
  -3   4 -10 1991.09 316.326  17
   3  -4  10 1708.81 253.773   4
  -3   4 -10 1641.33 250.858   8
  -3   3   8 1100.73 193.617   7
   3  -3  -8 1690.82 294.489   3
  -3   3   8 1650.70 234.466  11
  -3   3   7 26.6166 55.4766   7
  -3   3   7 119.431 69.0847  11
   3  -3  -7 15.2422 65.1776   3
  -3   3   6 296.787 89.3799   7
   3  -3  -6 327.209 124.968   3
  -3   3   6 285.966 89.7703  11
  -3   3   5 1231.44 163.073   7
   3  -3  -5 1138.16 207.538   3
   3  -3  -5 1367.44 169.044  10
  -3   3   5 1415.55 174.789  11
   3  -3  -5 1133.54 189.734  16
  -3   3   4 8506.47 406.228   7
   3  -3  -4 9180.63 547.214   3
  -3   3   4 9340.69 429.382  11
   3  -3  -4 9238.00 416.428  10
   3  -3  -4 7942.64 482.452  16
  -3   3   3 18695.3 591.031   7
   3  -3  -3 19889.8 797.389   3
  -3   3   3 21464.4 649.374  11
  -3   3   3 16306.3 496.917   1
   3  -3  -3 20323.5 622.101  10
  -3   3   3 14750.4 631.006   9
   3  -3  -3 19563.1 770.360  16
  -3   3   2 4881.38 242.308   7
  -3   3   2 4105.15 274.977  13
   3  -3  -2 4997.37 362.725   3
   3  -3  -2 4269.67 254.715  21
   3  -3  -2 4476.56 253.566  10
  -3   3   2 4260.66 223.145   1
  -3   3   2 4828.19 274.122  11
  -3   3   2 4341.33 277.008  19
  -3   3   2 4145.49 275.637  18
  -3   3   2 4188.06 279.451   9
  -3   3   2 4315.51 284.158  17
   3  -3  -2 4272.42 337.802  16
  -3   3   2 3744.95 276.980  15
   3  -3  -1 6598.83 403.454   3
  -3   3   1 5565.18 332.663  19
   3  -3  -1 5913.18 314.797  21
  -3   3   1 5049.61 211.855  20
   3  -3  -1 6059.74 286.923  10
  -3   3   1 5703.93 238.769   7
  -3   3   1 6904.22 321.412  11
  -3   3   1 5886.91 347.070  13
  -3   3   1 5653.81 338.666  18
  -3   3   1 5530.63 297.101   9
  -3   3   1 6026.15 356.079  17
  -3   3   1 6071.51 343.944   2
   3  -3  -1 5457.66 378.508  16
  -3   3   1 5840.15 366.563  15
   3  -3   0 1541.01 143.528  10
  -3   3   0 1416.61 182.683  13
  -3   3   0 1732.36 158.037  11
  -3   3   0 1487.89 128.194  20
  -3   3   0 1435.55 182.910  18
  -3   3   0 1437.97 132.983   9
  -3   3   0 1501.63 187.037  17
   3  -3   0 1711.77 205.582   3
  -3   3   0 1766.84 189.126   2
   3  -3   0 1558.16 205.700  16
  -3   3   0 1674.31 203.369  15
   3  -3   0 1513.06 165.860  21
  -3   3   0 1570.27 186.561  19
  -3   3  -1 1245.33 85.1248   8
   3  -3   1 1287.08 181.046   3
  -3   3  -1 1298.20 176.797  13
   3  -3   1 1231.54 155.926  21
  -3   3  -1 1505.72 157.837   5
  -3   3  -1 1375.29 141.258  11
  -3   3  -1 1381.90 139.210  20
  -3   3  -1 989.302 158.739  19
  -3   3  -1 1408.67 185.534  18
  -3   3  -1 1319.47 111.428   9
  -3   3  -1 1219.54 175.128  17
  -3   3  -1 1380.50 177.009   2
   3  -3   1 1210.10 186.779  16
  -3   3  -1 1126.02 175.795  15
   3  -3   2 3215.64 400.457   1
   3  -3   2 4622.52 344.875   3
  -3   3  -2 4578.81 205.819   8
  -3   3  -2 4264.81 182.279   9
  -3   3  -2 4364.32 341.663  13
  -3   3  -2 4673.46 295.528   5
  -3   3  -2 4938.70 285.053  20
  -3   3  -2 4175.70 324.547  19
  -3   3  -2 4610.91 343.066  18
  -3   3  -2 4764.59 359.692  17
  -3   3  -2 4311.63 319.931   2
   3  -3   2 4696.27 369.212  16
   3  -3   3 115.000 19.4776   7
   3  -3   3 315.888 99.3957   3
   3  -3   3 194.647 76.1797  14
  -3   3  -3 229.475 94.6578  13
  -3   3  -3 277.682 101.915  23
   3  -3   3 154.996 53.9965   6
  -3   3  -3 217.411 94.2777   2
  -3   3  -3 337.727 84.8180  20
   3  -3   3 272.497 140.297   1
  -3   3  -3 231.492 94.3281  19
  -3   3  -3 297.367 65.8577   8
  -3   3  -3 220.797 90.9982  18
  -3   3  -3 184.051 32.0016   9
  -3   3  -3 152.022 87.8944  17
   3  -3   3 283.743 108.535  16
  -3   3  -3 216.253 72.2049   5
   3  -3   4 1575.80 220.691   3
  -3   3  -4 1651.09 189.064  20
   3  -3   4 1727.03 183.577  14
   3  -3   4 1457.29 271.160   1
  -3   3  -4 1472.25 207.627  19
  -3   3  -4 1571.93 217.588  13
  -3   3  -4 1648.81 216.028  23
  -3   3  -4 1674.90 192.605   5
  -3   3  -4 1682.84 229.063  17
  -3   3  -4 1687.18 223.652  18
  -3   3  -4 1915.17 222.715   2
   3  -3   4 1804.77 246.654  16
  -3   3  -4 1855.00 159.522   8
   3  -3   4 1659.64 150.756   6
   3  -3   5 7134.06 396.496  14
  -3   3  -5 6873.03 467.881  23
   3  -3   5 5979.38 560.909   1
  -3   3  -5 7484.13 502.477  17
  -3   3  -5 6865.18 475.552  13
  -3   3  -5 6998.73 467.861  19
  -3   3  -5 7307.69 427.274  20
  -3   3  -5 6717.35 398.180   5
  -3   3  -5 6806.96 441.634   2
   3  -3   5 6958.28 516.785  16
  -3   3  -5 6732.53 341.060   8
  -3   3  -5 6268.33 449.427  18
   3  -3   5 6972.44 483.977   3
   3  -3   6 11430.7 529.071  14
   3  -3   6 9870.66 749.280   1
  -3   3  -6 10971.7 631.230  13
  -3   3  -6 11458.1 627.816  23
  -3   3  -6 11164.7 568.084  20
  -3   3  -6 10305.7 524.597   5
  -3   3  -6 10600.2 610.159  18
  -3   3  -6 10785.3 582.818   2
  -3   3  -6 10455.1 627.722  17
   3  -3   6 10639.7 690.096  16
  -3   3  -6 10508.2 468.855   8
  -3   3  -6 10243.5 595.471  19
  -3   3  -7 750.721 145.771   5
   3  -3   7 439.355 184.231   1
   3  -3   7 704.460 134.892  14
  -3   3  -7 565.179 146.185  13
  -3   3  -7 827.247 163.559   2
  -3   3  -7 753.455 156.576  20
  -3   3  -7 657.327 156.370  19
  -3   3  -7 528.902 134.797  18
  -3   3  -7 609.912 153.642  17
  -3   3  -7 682.142 151.902  23
   3  -3   7 660.791 200.170  16
  -3   3  -7 644.540 122.379   8
   3  -3   7 705.111 151.433   4
  -3   3  -8 764.460 168.816   2
   3  -3   8 372.641 199.345   1
  -3   3  -8 488.324 126.978   5
   3  -3   8 434.270 111.012  14
  -3   3  -8 429.088 137.265  13
  -3   3  -8 592.135 155.145  18
  -3   3  -8 234.230 102.380  19
  -3   3  -8 347.203 115.128  20
  -3   3  -8 408.272 126.811  23
  -3   3  -8 476.481 142.466  17
   3  -3   8 543.746 174.860  16
  -3   3  -8 497.933 126.153   8
   3  -3   8 526.865 142.316   4
  -3   3  -9 942.484 200.478  17
   3  -3   9 1203.53 189.424  14
   3  -3   9 1143.40 295.997   1
   3  -3   9 899.577 179.313   4
  -3   3  -9 954.865 193.853  19
  -3   3  -9 1216.34 205.963   5
  -3   3  -9 1160.64 212.735  20
  -3   3  -9 944.952 196.278  18
  -3   3  -9 1016.92 198.705  23
   3  -3   9 1193.88 259.512  16
  -3   3  -9 1102.46 219.645  13
  -3   3  -9 1088.82 184.328   8
   3  -3  10 440.288 123.041  15
  -3   3 -10 412.440 138.379  19
  -3   3 -10 401.886 129.239  21
   3  -3  10 337.906 106.958  14
   3  -3  10 387.448 198.534   1
   3  -3  10 462.979 143.562   4
  -3   3 -10 299.752 108.317  20
  -3   3 -10 376.112 118.882   5
  -3   3 -10 488.423 149.928  18
  -3   3 -10 250.369 120.878  17
  -3   3 -10 318.579 110.021  23
  -3   3 -10 381.520 121.092   8
   3  -3  11 337.501 194.019   1
  -3   3 -11 335.169 122.527  20
  -3   3 -11 510.836 149.849   8
   3  -2  -9 1888.10 323.944   3
  -3   2   9 1415.76 230.350   7
  -3   2   9 2304.13 292.174  11
  -3   2   8 11.1466 44.2110   7
  -3   2   8 57.2348 61.3722  11
   3  -2  -8 55.9875 82.0854   3
  -3   2   7 1219.26 186.235   7
  -3   2   7 1665.63 213.638  11
   3  -2  -7 1253.19 231.992   3
  -3   2   6 64.6295 54.8893   7
  -3   2   6 170.370 75.5609  11
   3  -2  -6 441.410 136.430   3
   3  -2  -6 340.881 87.4679  10
  -3   2   5 6224.14 364.927   7
   3  -2  -5 6583.65 459.004   3
  -3   2   5 6961.61 378.966  11
   3  -2  -5 6549.81 353.018  10
   3  -2  -5 5599.86 379.016  16
  -3   2   4 1068.18 138.151   7
  -3   2   4 1041.64 130.664  11
   3  -2  -4 956.186 123.085  10
   3  -2  -4 1210.33 183.697   3
   3  -2  -4 786.805 89.7045   8
   3  -2  -4 933.095 146.853  16
  -3   2   4 917.641 153.390   9
  -3   2   3 1612.62 152.156   7
   3  -2  -3 1821.43 215.087   3
  -3   2   3 1151.99 106.663  13
  -3   2   3 1268.51 94.3048   1
  -3   2   3 1198.14 105.766  19
  -3   2   3 1413.19 144.513  11
   3  -2  -3 1653.82 146.146  10
  -3   2   3 1231.55 108.055  18
  -3   2   3 1196.15 155.020   9
  -3   2   3 1179.81 108.698  17
  -3   2   3 1347.35 112.049  23
   3  -2  -3 1291.56 168.506  16
  -3   2   2 71.5319 36.1824  18
   3  -2  -2 44.4566 34.8579  10
  -3   2   2 25.2014 17.1609   1
  -3   2   2 66.4327 36.7652   2
   3  -2  -2 92.0093 74.5654   3
  -3   2   2 39.1361 25.2209   7
  -3   2   2 29.9517 34.2888  19
  -3   2   2 49.2347 34.1151  11
  -3   2   2 157.334 55.7464   9
  -3   2   2 80.4040 36.6843  17
  -3   2   2 77.9429 38.7691  13
   3  -2  -2 74.9865 54.4586  16
   3  -2  -1 44321.3 1147.26   3
  -3   2   1 42998.4 1023.30   9
   3  -2  -1 44266.4 939.240  10
  -3   2   1 42303.7 1031.28  18
  -3   2   1 41570.4 1033.40  13
  -3   2   1 41450.0 1038.04  17
  -3   2   1 42393.4 1023.88  19
  -3   2   1 43207.8 1044.11   2
   3  -2  -1 44431.1 1182.17  16
  -3   2   1 42651.4 920.711   7
   3  -2   0 6848.87 294.123  14
   3  -2   0 7162.04 375.005   3
  -3   2   0 7467.89 364.989  13
  -3   2   0 6641.89 266.162  20
  -3   2   0 7373.37 354.016  19
   3  -2   0 7433.98 281.904  10
  -3   2   0 7360.80 357.269  23
  -3   2   0 7865.07 368.547  18
  -3   2   0 7032.42 292.997   9
  -3   2   0 7893.22 315.382  11
  -3   2   0 7324.63 368.160  17
  -3   2   0 6933.61 345.735   2
   3  -2   0 7099.33 402.561  16
   3  -2   1 12528.5 521.845   3
   3  -2   1 12572.2 437.935  14
  -3   2  -1 13251.5 532.207  13
  -3   2  -1 13381.3 526.153  23
  -3   2  -1 14779.1 449.592  20
  -3   2  -1 13508.9 436.515  11
   3  -2   1 10682.6 620.997   1
  -3   2  -1 11840.1 371.852   9
  -3   2  -1 13308.6 536.562  17
  -3   2  -1 13013.1 519.790  18
  -3   2  -1 12438.2 495.155   2
  -3   2  -1 12289.6 347.608   8
   3  -2   1 12998.4 571.415  16
  -3   2  -1 12570.6 510.159  19
  -3   2  -2 172.462 63.1193  19
   3  -2   2 343.526 74.8752  14
  -3   2  -2 333.646 71.6863   5
   3  -2   2 252.506 77.0182   3
  -3   2  -2 297.473 80.2038  23
  -3   2  -2 414.475 96.8429  13
  -3   2  -2 278.882 69.7402   2
   3  -2   2 342.412 74.5062   6
  -3   2  -2 305.366 68.1101  20
  -3   2  -2 392.718 96.1784  18
  -3   2  -2 263.781 83.5230  17
  -3   2  -2 308.764 46.0456   9
   3  -2   2 488.319 133.399   1
   3  -2   2 357.886 103.700  16
  -3   2  -2 226.732 47.1055   8
   3  -2   3 90.2477 64.8518   3
   3  -2   3-51.9439 69.9169   1
   3  -2   3 76.9160 50.0663  14
  -3   2  -3 98.4546 61.6127  19
  -3   2  -3 26.1647 41.1976   2
  -3   2  -3 9.69944 30.8538   5
   3  -2   3 19.6372 26.4560   6
  -3   2  -3 79.3560 48.8930  20
  -3   2  -3-52.4142 56.5141  17
  -3   2  -3 54.8865 47.9177  23
  -3   2  -3 22.5317 40.6207  13
  -3   2  -3-53.1182 52.7185  18
  -3   2  -3 50.8931 21.8568   9
   3  -2   3 30.8490 59.2537  16
  -3   2  -3 127.448 51.3930   8
   3  -2   4 25641.0 892.468   3
   3  -2   4 22809.4 595.819   7
   3  -2   4 25354.8 741.718  14
  -3   2  -4 25857.9 877.687  13
   3  -2   4 23419.4 995.525   1
  -3   2  -4 26591.1 788.177  20
  -3   2  -4 24985.0 856.774  18
  -3   2  -4 24413.6 839.849  19
  -3   2  -4 24898.9 751.519   5
  -3   2  -4 24523.6 873.053  17
  -3   2  -4 23458.6 542.438   9
  -3   2  -4 22860.7 783.672   2
   3  -2   4 24474.0 676.102   6
  -3   2  -4 24404.3 844.103  23
   3  -2   4 24906.4 949.066  16
  -3   2  -4 24784.3 669.128   8
   3  -2   5 581.488 80.5005   7
   3  -2   5 681.935 144.775   3
   3  -2   5 684.960 114.633  14
  -3   2  -5 594.516 120.600   2
   3  -2   5 658.087 69.7907  12
  -3   2  -5 530.921 102.810   5
  -3   2  -5 847.143 148.301  19
   3  -2   5 484.492 77.9254   6
   3  -2   5 639.810 153.398  16
  -3   2  -5 676.777 120.398  20
   3  -2   5 637.931 172.697   1
  -3   2  -5 631.636 133.801  23
  -3   2  -5 498.473 128.849  17
  -3   2  -5 695.733 140.876  18
  -3   2  -5 557.773 98.9251   8
  -3   2  -5 669.292 139.003  13
   3  -2   6 1335.42 135.098   7
   3  -2   6 1717.89 186.189  14
  -3   2  -6 1556.78 209.831  23
   3  -2   6 1365.08 101.386  12
   3  -2   6 1192.41 219.322  16
  -3   2  -6 1434.56 200.878  19
  -3   2  -6 1473.18 214.505  17
  -3   2  -6 1686.15 202.668  20
  -3   2  -6 1191.92 159.666   5
  -3   2  -6 1521.51 168.329   8
   3  -2   6 1434.36 251.886   1
  -3   2  -6 1395.88 201.164  18
  -3   2  -6 1483.35 194.618   2
  -3   2  -6 1244.26 196.146  13
   3  -2   7 98.5527 60.3037   7
   3  -2   7 165.914 59.2759  14
  -3   2  -7 142.872 68.1107  23
  -3   2  -7 170.067 80.7148   2
  -3   2  -7 179.945 75.1724  20
   3  -2   7-4.29491 84.9807   1
  -3   2  -7 62.7367 55.5402  19
  -3   2  -7 159.435 77.9661   5
  -3   2  -7 188.756 74.3856  18
  -3   2  -7 78.1198 81.7813  13
   3  -2   7 135.872 96.8950  16
  -3   2  -7 43.6320 52.9672  17
  -3   2  -7 215.109 85.8041   8
   3  -2   7 190.446 76.9291   4
   3  -2   8 21.1841 32.8287   7
   3  -2   8 97.0179 66.7967  14
  -3   2  -8 28.9248 54.9251   2
  -3   2  -8-61.3897 66.2267  20
  -3   2  -8-8.01416 41.5562  19
   3  -2   8-22.0497 87.8794   1
  -3   2  -8-2.64832 38.3482   5
  -3   2  -8-23.0738 49.2472  18
  -3   2  -8 56.6414 58.7816  23
  -3   2  -8 15.7415 48.3822  17
   3  -2   8-243.704 121.397  16
   3  -2   8 40.5347 49.6985   4
  -3   2  -8-10.7396 66.9628   8
   3  -2   9 55.8917 56.2777  15
   3  -2   9 4.10141 40.5088   7
  -3   2  -9 42.3397 70.9019   2
   3  -2   9 78.4372 53.5320  14
  -3   2  -9 47.5145 60.7270   5
  -3   2  -9 83.3139 63.3356  21
  -3   2  -9 14.7235 44.2935  20
  -3   2  -9 50.4435 61.2673  19
  -3   2  -9 2.67891 53.7999  18
  -3   2  -9-2.31299 45.4141  17
   3  -2   9 126.263 117.092   1
  -3   2  -9 50.9393 65.7448  23
   3  -2   9 47.3198 59.7548   4
  -3   2  -9-0.12772 60.2264   8
  -3   2 -10 6408.56 470.180   8
   3  -2  10 8332.68 497.701  14
   3  -2  10 6949.04 696.590   1
  -3   2 -10 6740.17 504.428  19
  -3   2 -10 7398.32 525.288  23
  -3   2 -10 5897.93 482.167  20
  -3   2 -10 6827.11 503.764  21
   3  -2  10 7332.92 492.985   4
  -3   2 -10 7420.73 535.282  18
  -3   2 -10 7202.63 542.003  17
   3  -2  10 7862.20 490.678  15
   3  -2  11 5216.11 639.873   1
  -3   2 -11 4026.58 412.742  20
  -3   2 -11 4294.91 408.259   8
  -3   1   9 51.0762 64.2338   7
  -3   1   9 19.9731 64.6641   4
  -3   1   9 143.330 82.8906  11
   3  -1  -9 209.798 140.884   3
  -3   1   8-100.188 71.5868   7
   3  -1  -8 121.939 77.6767   3
  -3   1   8 54.2549 56.7920  11
  -3   1   8 91.3329 90.6352   4
   3  -1  -7 517.714 150.715   3
  -3   1   7 424.288 122.678   7
  -3   1   7 476.983 114.744  11
   3  -1  -7 724.801 141.132  10
  -3   1   7 735.405 158.212   4
   3  -1  -7 326.686 83.7977   8
  -3   1   6 585.940 121.344   7
   3  -1  -6 468.313 137.998   3
  -3   1   6 435.739 97.8704  11
   3  -1  -6 436.453 91.2663   5
   3  -1  -6 608.240 114.644  10
  -3   1   6 347.274 110.175   9
  -3   1   6 499.300 127.311   4
   3  -1  -6 421.407 83.0128   8
  -3   1   5 775.530 126.881   7
   3  -1  -5 802.554 156.098   3
  -3   1   5 823.898 128.783  11
  -3   1   5 494.513 123.039   9
   3  -1  -5 705.158 106.385  10
  -3   1   5 865.185 141.773   4
   3  -1  -5 640.802 110.233  16
   3  -1  -5 581.489 97.1025   8
  -3   1   4 218.856 68.5967   7
   3  -1  -4 253.667 66.4495  10
   3  -1  -4 297.826 95.4979   3
  -3   1   4 311.497 92.1842   4
  -3   1   4 156.370 65.5992   9
  -3   1   4 318.491 75.8097  11
   3  -1  -4 287.316 72.7453  16
  -3   1   3 1232.04 131.593   7
   3  -1  -3 1217.59 118.653  10
  -3   1   3 1040.29 142.725   9
   3  -1  -3 1080.16 148.725   3
  -3   1   3 1392.58 134.214  11
  -3   1   3 871.832 55.4770   1
  -3   1   3 1224.74 95.4425   2
   3  -1  -3 1468.54 155.875  16
  -3   1   2 2437.52 167.121   7
   3  -1  -2 2108.71 105.746  14
   3  -1  -2 2243.30 206.301   3
  -3   1   2 2018.87 119.239  23
  -3   1   2 1969.51 121.108  13
  -3   1   2 2046.31 119.691  19
  -3   1   2 2428.06 163.648  11
  -3   1   2 2095.96 97.9233   1
  -3   1   2 1940.67 121.658  17
  -3   1   2 2170.50 183.361   9
   3  -1  -2 2209.58 139.000  10
  -3   1   2 2014.90 120.630  18
  -3   1   2 2332.48 151.922   2
   3  -1  -2 2302.41 198.653  16
   3  -1  -1 146930. 2744.58   3
   3  -1  -1 144855. 2511.90  14
   3  -1  -1 147379. 2494.29  10
  -3   1   1 147660. 2650.40   9
  -3   1   1 143205. 2585.10  13
  -3   1   1 140055. 2578.56  23
  -3   1   1 144657. 2611.48   2
  -3   1   1 151739. 2587.91  11
  -3   1   1 142159. 2578.63  18
  -3   1   1 140875. 2592.03  17
  -3   1   1 142937. 2576.63  19
   3  -1  -1 145456. 2762.51  16
  -3   1   1 143286. 2564.15   7
  -3   1   0 47473.8 1057.73  23
   3  -1   0 47109.4 1168.64  16
   3  -1   0 46397.1 1098.96   3
  -3   1   0 47937.4 1071.70  13
  -3   1   0 47298.1 1056.61  19
   3  -1   0 48811.5 988.144  14
  -3   1   0 50044.0 996.058  11
  -3   1   0 47988.6 1063.75  18
  -3   1   0 47654.7 1012.35   9
  -3   1   0 48355.1 1085.04  17
  -3   1   0 46425.6 1041.18   2
  -3   1   0 49182.3 963.135  20
   3  -1   0 46493.7 913.471  10
  -3   1  -1 1255.77 133.268  23
   3  -1   1 956.212 121.573   3
   3  -1   1 1004.49 99.7327  14
  -3   1  -1 1091.26 126.088  13
   3  -1   1 934.039 154.777   1
  -3   1  -1 1234.12 108.394  20
  -3   1  -1 1093.26 98.4789  11
  -3   1  -1 1212.16 130.811  19
  -3   1  -1 1110.18 126.516  18
  -3   1  -1 981.188 88.3330   9
  -3   1  -1 1051.51 128.606  17
  -3   1  -1 1015.42 113.040   2
   3  -1   1 1118.67 126.960   6
  -3   1  -1 967.470 82.5953   8
   3  -1   1 963.599 137.378  16
   3  -1   2 42708.4 1001.84   6
   3  -1   2 38862.4 1037.64   3
   3  -1   2 41023.5 949.631  14
   3  -1   2 39295.4 1168.97   1
  -3   1  -2 41760.6 1060.17  13
  -3   1  -2 42431.7 1059.78  18
  -3   1  -2 40906.1 1071.13  17
  -3   1  -2 46977.5 993.938  20
  -3   1  -2 38464.9 972.661   2
  -3   1  -2 41956.5 1049.36  19
  -3   1  -2 40876.6 857.368   9
  -3   1  -2 46457.6 995.620   5
   3  -1   2 41988.6 1162.86  16
  -3   1  -2 43165.9 1061.60  23
   3  -1   3 7781.73 399.050   3
   3  -1   3 7696.37 327.617  14
   3  -1   3 7757.12 454.170   1
  -3   1  -3 7221.87 378.132  13
  -3   1  -3 7409.18 378.640  23
   3  -1   3 7295.52 327.919   6
  -3   1  -3 7592.72 395.023  17
  -3   1  -3 8460.36 358.257  20
  -3   1  -3 7636.62 380.479  19
  -3   1  -3 7679.85 384.336  18
  -3   1  -3 8394.80 343.993   5
  -3   1  -3 7223.56 342.201   2
  -3   1  -3 7567.22 257.576   9
   3  -1   3 7823.56 451.677  16
  -3   1  -3 8309.60 310.358   8
  -3   1  -4 180.674 58.1686   2
   3  -1   4 119.335 56.6741   3
   3  -1   4 243.700 100.883   1
   3  -1   4 183.073 59.6531  14
   3  -1   4 189.495 50.1407   6
  -3   1  -4 190.832 62.7338  20
  -3   1  -4 95.1388 46.3029  18
  -3   1  -4 179.207 55.0589   5
  -3   1  -4 171.206 60.4541   8
  -3   1  -4 153.031 60.9373  19
  -3   1  -4 198.815 75.2743  17
  -3   1  -4 132.214 60.8262  13
  -3   1  -4 111.852 53.1032  23
   3  -1   4 202.691 85.9463  16
   3  -1   5 1699.00 157.359   7
   3  -1   5 1799.97 175.765  14
   3  -1   5 1759.88 234.509   1
   3  -1   5 1629.75 140.851   6
  -3   1  -5 1741.61 204.314  13
  -3   1  -5 1635.19 196.016  23
  -3   1  -5 1773.46 184.800  20
  -3   1  -5 1809.25 167.657   5
  -3   1  -5 1554.20 195.581  18
  -3   1  -5 1756.13 181.035   2
   3  -1   5 1801.80 247.655  16
  -3   1  -5 1936.70 175.021   8
  -3   1  -5 1632.76 205.424  17
  -3   1  -5 1837.60 204.795  19
   3  -1   6 70232.2 1521.69   7
   3  -1   6 68621.9 1858.20   1
   3  -1   6 72188.7 1570.79  14
   3  -1   6 67192.1 1396.14   6
  -3   1  -6 69779.7 1721.56  13
  -3   1  -6 68248.8 1536.74   8
   3  -1   6 69137.3 1355.64  12
  -3   1  -6 72385.6 1655.40  20
  -3   1  -6 66810.9 1523.39   5
  -3   1  -6 67637.6 1682.88  18
  -3   1  -6 68581.3 1677.77  23
  -3   1  -6 68206.4 1670.85  19
  -3   1  -6 68676.6 1606.02   2
  -3   1  -6 67822.9 1706.49  17
   3  -1   6 70054.5 1551.06   4
   3  -1   6 73660.0 1993.29  16
  -3   1  -7 1914.28 210.871   2
   3  -1   7 1531.13 172.740   7
   3  -1   7 1532.50 179.922  14
   3  -1   7 1447.89 244.633   1
  -3   1  -7 1807.53 217.774  21
  -3   1  -7 1488.31 199.181  23
   3  -1   7 1499.95 171.513   4
  -3   1  -7 1582.45 207.508  19
  -3   1  -7 1810.96 215.864  20
  -3   1  -7 1339.12 159.377   5
  -3   1  -7 1460.60 202.661  18
   3  -1   7 1454.18 125.240  12
  -3   1  -7 1752.55 226.512  17
   3  -1   7 1526.98 270.238  16
  -3   1  -7 2061.38 205.249   8
   3  -1   7 1543.01 186.647  15
   3  -1   8 933.980 147.306  15
   3  -1   8 461.185 111.705   7
   3  -1   8 564.367 169.179   1
  -3   1  -8 688.281 126.065   5
   3  -1   8 672.815 125.621  14
  -3   1  -8 461.092 113.639   2
  -3   1  -8 728.929 143.372  23
  -3   1  -8 538.738 126.518  20
  -3   1  -8 630.153 132.057  21
  -3   1  -8 756.974 150.689  18
  -3   1  -8 592.374 135.951  17
  -3   1  -8 488.356 121.899  19
   3  -1   8 434.390 73.2676  12
   3  -1   8 528.976 112.260   4
  -3   1  -8 868.434 152.354   8
   3  -1   9 623.385 138.372  15
   3  -1   9 456.064 113.127   7
   3  -1   9 641.049 126.444  14
  -3   1  -9 465.727 121.353  23
  -3   1  -9 645.344 141.066   2
  -3   1  -9 669.558 145.186  20
   3  -1   9 548.511 180.084   1
  -3   1  -9 729.997 152.521  19
  -3   1  -9 618.907 125.591   5
  -3   1  -9 535.349 133.654  18
  -3   1  -9 495.886 138.411  17
   3  -1   9 653.780 128.507   4
  -3   1  -9 420.346 121.551  21
  -3   1  -9 548.701 133.934   8
   3  -1  10 247.680 84.6279  15
  -3   1 -10 181.957 89.4367  23
   3  -1  10 192.938 86.4278   7
   3  -1  10 250.113 92.6246  14
  -3   1 -10 196.239 88.7641  19
  -3   1 -10 176.445 73.3280  21
  -3   1 -10 177.933 91.6923  20
  -3   1 -10 216.406 94.1367  18
  -3   1 -10 261.015 100.223  17
   3  -1  10 324.067 162.467   1
  -3   1 -10 139.890 103.573   8
   3  -1  11 232.736 87.0996   7
   3  -1  11 157.162 133.433   1
  -3   1 -11 455.811 131.716  20
  -3   1 -11 93.5103 103.349   8
   3  -1  12 3621.02 356.243   7
  -3   1 -12 4226.96 415.703  20
   3  -1  12 3916.80 564.638   1
  -3   1 -12 4314.27 423.126   8
  -3   0   9 584.146 145.681   7
  -3   0   9 810.573 176.366   4
   3   0  -9 383.888 114.076   8
  -3   0   8 355.349 98.0658   7
  -3   0   8 234.570 92.9424  11
  -3   0   8 332.540 131.280   4
   3   0  -8 234.893 83.6166   8
  -3   0   7 15.4331 46.9472   7
  -3   0   7 0.11782 43.4839  11
   3   0  -7 18.3958 34.0594   5
   3   0  -7 70.6122 58.1755  10
  -3   0   7 77.2323 55.1317   9
  -3   0   7 200.601 101.586   4
   3   0  -7-21.5103 54.2653   8
  -3   0   6 2630.44 247.487   7
   3   0  -6 2801.17 242.275  10
  -3   0   6 2987.40 256.939  11
   3   0  -6 2682.51 226.816   5
  -3   0   6 3170.51 285.333   4
   3   0  -6 2557.19 210.956   8
  -3   0   5 16540.4 614.433   7
  -3   0   5 16865.3 601.927  11
   3   0  -5 16473.0 566.057  10
  -3   0   5 15959.5 624.904   4
   3   0  -5 14473.6 504.070   8
  -3   0   4 101.597 49.9564   7
  -3   0   4 83.8614 44.8344  11
   3   0  -4 32.6265 23.0233  20
   3   0  -4 12.6868 32.3780  10
  -3   0   4 85.5972 48.5332   9
  -3   0   4 52.0154 54.9101   4
   3   0  -4 43.5069 32.8318  16
  -3   0   3 7307.17 330.388   7
   3   0  -3 7118.72 363.943   3
   3   0  -3 7248.89 279.998  10
   3   0  -3 6632.84 301.145  16
  -3   0   3 6798.69 305.847  11
  -3   0   3 6732.27 351.746   9
  -3   0   3 7413.19 353.363   4
   3   0  -3 5834.72 233.025  20
  -3   0   3 6306.38 206.672   2
  -3   0   2 46603.1 866.290   7
   3   0  -2 47097.6 939.797   3
  -3   0   2 47006.0 827.613  11
   3   0  -2 45910.6 736.952  10
  -3   0   2 45644.7 720.383   2
  -3   0   2 45808.9 912.939   9
  -3   0   2 46543.0 923.168   4
   3   0  -2 45645.8 880.391  16
   3   0  -1 993.747 69.2918  14
   3   0  -1 1012.91 111.122   3
  -3   0   1 1049.55 80.7293  17
  -3   0   1 1170.18 80.0788  23
  -3   0   1 905.047 83.5657  11
   3   0  -1 988.756 64.1224  10
  -3   0   1 967.778 75.2798  18
  -3   0   1 1032.49 84.5282   2
  -3   0   1 992.354 110.078   4
  -3   0   1 1064.72 105.939   9
  -3   0   1 1194.60 81.3324  21
  -3   0   1 931.565 73.3218  19
   3   0  -1 983.601 116.524  16
   3   0  -1 976.740 69.4575  15
  -3   0   1 973.058 95.9537   7
   3   0   0 12329.7 401.017   3
   3   0   0 13034.7 473.133  16
   3   0   0 12935.7 433.899   1
  -3   0   0 13546.6 391.898   9
   3   0   0 13084.7 341.035  14
  -3   0   0 12309.1 338.195  11
  -3   0   0 12529.4 367.646  19
   3   0   0 13358.4 466.524   6
   3   0   0 11426.0 248.421  10
  -3   0   0 12527.2 370.257  18
  -3   0   0 13070.9 367.074   2
  -3   0   0 13186.5 371.560  23
  -3   0   0 12701.2 380.441  17
  -3   0  -1 48488.6 1031.31  23
   3   0   1 47097.7 1091.31   1
  -3   0  -1 47592.5 1029.26  19
   3   0   1 47808.8 974.534  14
  -3   0  -1 48277.5 1052.74  13
  -3   0  -1 46858.3 925.275  11
   3   0   1 50795.5 1111.86   6
  -3   0  -1 48183.6 1034.22  18
  -3   0  -1 48362.8 989.984   2
  -3   0  -1 48029.8 1048.11  17
  -3   0  -1 47889.1 978.586   9
  -3   0  -1 48466.8 956.168   8
   3   0   1 50628.9 1185.14  16
   3   0   2 8743.63 358.259   3
   3   0   2 8936.58 388.144   1
   3   0   2 9277.31 323.620  14
  -3   0  -2 9473.41 371.619  13
  -3   0  -2 9016.33 320.972   2
  -3   0  -2 9647.18 368.327  18
  -3   0  -2 9381.85 372.523  17
  -3   0  -2 8919.48 299.076   9
   3   0   2 9154.09 438.177  16
  -3   0  -2 9396.40 362.028  19
   3   0   2 9460.13 376.400   6
  -3   0  -2 10927.2 355.426  20
  -3   0  -2 10522.9 324.660   8
  -3   0  -2 9266.73 357.673  23
   3   0   3 14613.0 545.847   1
   3   0   3 14046.5 455.882  14
  -3   0  -3 15529.5 533.533  13
  -3   0  -3 15118.2 519.004  18
  -3   0  -3 14600.4 506.776  23
  -3   0  -3 17205.6 505.445  20
  -3   0  -3 16266.3 457.138   5
  -3   0  -3 15593.3 535.659  17
  -3   0  -3 13673.3 497.445  19
  -3   0  -3 14076.6 450.190   2
   3   0   3 15794.0 524.838   6
   3   0   3 15109.5 625.088  16
  -3   0  -3 16228.9 462.847   8
   3   0   3 13919.5 511.153   3
   3   0   4 6958.12 381.128   1
   3   0   4 7434.23 321.954  14
  -3   0  -4 7679.05 308.316   5
   3   0   4 7190.81 321.491   6
  -3   0  -4 7021.01 308.763   2
  -3   0  -4 8086.22 352.207  20
  -3   0  -4 7438.28 357.595  19
  -3   0  -4 6990.02 350.551  18
  -3   0  -4 7202.36 364.682  17
  -3   0  -4 8046.38 328.317   8
  -3   0  -4 7432.05 355.136  23
   3   0   4 7384.93 456.029  16
   3   0   5 16.9348 29.6231  15
   3   0   5 13.1561 46.8964   7
   3   0   5 69.3836 47.0456  14
  -3   0  -5 19.3860 27.9943   2
  -3   0  -5 6.76656 29.6184  23
  -3   0  -5 63.5716 44.1934  20
   3   0   5 50.6585 34.1266   6
  -3   0  -5 26.3738 25.7254   5
  -3   0  -5 18.3284 40.5441  19
  -3   0  -5 11.4754 34.4803  21
  -3   0  -5 38.0333 37.4188  17
  -3   0  -5 6.85100 29.8448  18
   3   0   5 28.2674 42.8522   1
   3   0   5 3.92890 82.3306  16
  -3   0  -5 126.434 61.1838   8
   3   0   6 474.490 104.073  15
  -3   0  -6 624.328 124.991  17
   3   0   6 425.362 80.9825   6
   3   0   6 451.094 103.629   7
   3   0   6 577.401 107.461  14
  -3   0  -6 629.122 120.660  20
  -3   0  -6 633.009 128.500  23
   3   0   6 691.768 91.0185  12
  -3   0  -6 501.976 115.711  21
   3   0   6 511.992 130.949   1
  -3   0  -6 449.723 86.2657   5
  -3   0  -6 669.725 125.154  19
  -3   0  -6 675.677 110.836   2
  -3   0  -6 614.843 125.237  18
  -3   0  -6 458.169 104.709   8
   3   0   6 670.307 98.8621   4
   3   0   6 722.992 180.883  16
   3   0   7 20566.8 855.153   1
   3   0   7 20421.7 717.941   7
   3   0   7 22252.8 702.787  14
   3   0   7 18632.3 598.344   6
  -3   0  -7 21166.8 749.196  21
   3   0   7 19805.6 582.055  12
  -3   0  -7 21579.6 741.469  20
  -3   0  -7 17992.6 610.080   5
  -3   0  -7 20856.8 754.316  19
  -3   0  -7 20265.4 755.745  18
  -3   0  -7 20982.3 780.949  17
  -3   0  -7 20695.2 697.465   2
   3   0   7 20324.1 638.908   4
  -3   0  -7 20634.1 703.804   8
   3   0   7 21240.4 705.409  15
  -3   0  -7 21341.1 745.618  23
   3   0   8 42432.9 1197.87   7
   3   0   8 44874.5 1133.36   4
  -3   0  -8 47571.4 1267.15  23
  -3   0  -8 44652.2 1208.53   2
  -3   0  -8 48828.9 1277.93  21
   3   0   8 41131.6 1020.66  12
  -3   0  -8 44456.4 1255.59  18
  -3   0  -8 44780.7 1268.73  17
  -3   0  -8 39168.5 1189.91  20
  -3   0  -8 37731.6 1057.55   5
   3   0   8 44552.5 1443.31   1
  -3   0  -8 45841.4 1260.98  19
   3   0   8 48076.5 1198.85  14
   3   0   8 47718.2 1204.64  15
  -3   0  -8 43991.8 1201.35   8
   3   0   9 64.3722 52.6883  15
   3   0   9 126.734 80.4388   7
   3   0   9 84.1076 58.0895  14
  -3   0  -9 171.141 76.9223  23
  -3   0  -9 244.690 85.7825  17
   3   0   9 192.003 65.1121  12
  -3   0  -9 119.789 64.8243  21
  -3   0  -9 90.3580 62.7577  19
  -3   0  -9 169.752 81.7523  20
  -3   0  -9 169.053 67.6946  18
  -3   0  -9 135.164 98.5880   8
   3   0   9 71.5808 101.577   1
   3   0  10 215.196 128.044   1
  -3   0 -10 339.553 101.540  23
   3   0  10 342.500 106.276  15
  -3   0 -10 154.375 79.2159  18
   3   0  10 287.677 105.228   7
   3   0  10 275.057 86.9672  14
  -3   0 -10 55.4121 59.7230  20
  -3   0 -10 281.502 103.475  19
  -3   0 -10 162.688 73.5459  17
  -3   0 -10 252.994 96.0723  21
   3   0  10 297.249 79.6802  12
  -3   0 -10 223.565 104.392   8
   3   0  11 520.476 134.324   7
   3   0  11 566.397 189.884   1
  -3   0 -11 475.684 131.242  20
  -3   0 -11 636.779 163.361   8
   3   0  12 283.305 109.126   7
   3   0  12 252.224 147.664   1
  -3   0 -12 558.721 156.519   8
  -3  -1   9 211.430 92.8582   7
  -3  -1   9 340.542 129.193   4
   3   1  -9 152.066 70.9857   8
  -3  -1   8 172.093 86.2634   7
  -3  -1   8 292.610 123.797   4
   3   1  -8 345.090 106.901   8
  -3  -1   7-18.3730 45.0227   7
   3   1  -7 11.2332 28.9328   5
  -3  -1   7 23.8475 45.5605  11
  -3  -1   7 0.26124 56.1446   9
  -3  -1   7 39.2724 65.8272   4
   3   1  -7-47.0889 48.9612   8
  -3  -1   6 488.265 108.356   7
   3   1  -6 315.096 89.7485   6
  -3  -1   6 540.343 112.351  11
   3   1  -6 436.836 95.9633   5
  -3  -1   6 399.729 101.647   9
  -3  -1   6 444.743 111.039   4
   3   1  -6 356.331 87.4545   8
  -3  -1   5 1064.48 144.918   7
   3   1  -5 1136.46 152.093   6
  -3  -1   5 1018.40 137.709  11
   3   1  -5 951.353 115.864  20
   3   1  -5 1097.47 139.510   5
  -3  -1   5 938.420 143.062   9
  -3  -1   5 1042.18 152.582   4
  -3  -1   4 4766.47 281.045   7
  -3  -1   4 4142.42 260.297  11
   3   1  -4 4139.11 234.429  20
  -3  -1   4 4195.50 287.378   4
  -3  -1   4 3863.34 276.014   9
   3   1  -4 4622.19 296.609   6
  -3  -1   3 6202.31 302.839   7
   3   1  -3 6978.84 348.975   6
   3   1  -3 5701.57 266.957  20
  -3  -1   3 6439.48 293.534  11
  -3  -1   3 5942.04 311.172   9
  -3  -1   3 6546.13 192.483   2
  -3  -1   3 6338.23 328.163   4
   3   1  -3 5405.79 218.158  16
   3   1  -2 336.645 30.7418  13
   3   1  -2 332.416 32.8710  14
  -3  -1   2 490.546 51.4150   2
  -3  -1   2 417.934 32.4508  23
  -3  -1   2 404.701 31.5354  21
   3   1  -2 429.978 84.6081   6
  -3  -1   2 390.505 30.5651  19
  -3  -1   2 437.317 66.1167  11
   3   1  -2 324.064 31.1587  17
  -3  -1   2 466.446 83.1350   4
  -3  -1   2 462.297 78.2743   9
   3   1  -2 468.315 60.9790  16
   3   1  -2 329.818 31.8433  15
  -3  -1   2 372.961 31.2070  22
  -3  -1   2 689.787 90.8739   7
   3   1  -1 29207.4 592.062  14
   3   1  -1 27111.7 653.516   3
  -3  -1   1 28441.0 580.540  23
  -3  -1   1 28173.3 584.286  22
   3   1  -1 28918.2 772.192   6
  -3  -1   1 28435.8 577.728  19
  -3  -1   1 28242.5 577.519  18
  -3  -1   1 28861.2 693.345   9
  -3  -1   1 28355.1 583.801  21
  -3  -1   1 28758.0 705.983   4
  -3  -1   1 29812.8 612.196   2
   3   1  -1 28809.2 582.826  13
   3   1  -1 27765.1 675.707  16
  -3  -1   1 26408.5 623.315  11
   3   1  -1 29319.6 591.379  15
   3   1   0 3345.63 154.887   3
   3   1   0 3834.97 231.703   6
  -3  -1   0 3830.81 165.431   2
  -3  -1   0 3923.14 164.966  18
  -3  -1   0 3572.90 158.834  19
  -3  -1   0 3370.83 140.846  11
   3   1   0 3797.93 160.899  14
  -3  -1   0 3552.93 182.154   4
  -3  -1   0 3696.29 184.368   9
   3   1   0 3494.93 208.635  16
  -3  -1   0 3972.92 167.106  17
  -3  -1   0 3694.95 162.756  21
   3   1   0 3653.47 146.017   1
   3   1   0 3785.95 160.166  15
  -3  -1   0 3632.89 159.014  23
   3   1   1-7.49709 20.0932   3
   3   1   1 14.1976 20.9791  15
   3   1   1 9.10815 30.5430   6
  -3  -1  -1 12.1261 14.2327  23
  -3  -1  -1 26.1299 16.3795   2
   3   1   1 16.3882 14.5962  14
   3   1   1-12.3734 18.9797   1
  -3  -1  -1 21.5885 11.6044  11
  -3  -1  -1 8.22603 18.0338   9
  -3  -1  -1 9.67255 17.3981  19
  -3  -1  -1 19.4228 19.9250  18
  -3  -1  -1 4.09636 16.5812  21
  -3  -1  -1 3.35133 18.9823  17
   3   1   1 40.6253 37.9854  16
   3   1   2 17498.5 478.334  14
  -3  -1  -2 18967.3 520.377  17
  -3  -1  -2 19044.0 512.911  19
  -3  -1  -2 16955.8 368.872  11
  -3  -1  -2 18513.5 507.426  23
  -3  -1  -2 19436.4 481.623   2
  -3  -1  -2 19386.8 517.578  21
  -3  -1  -2 18716.8 512.170  18
   3   1   2 19302.3 639.005  16
  -3  -1  -2 20551.3 499.506   8
   3   1   2 17086.3 481.404   1
   3   1   2 21004.7 608.981   6
   3   1   2 18298.2 485.617  15
   3   1   2 16633.3 466.603   3
   3   1   3 146875. 2717.40   6
  -3  -1  -3 141708. 2654.63  23
   3   1   3 137866. 2598.58  14
  -3  -1  -3 143641. 2658.91  21
  -3  -1  -3 161051. 2660.45  20
  -3  -1  -3 147032. 2681.87  17
  -3  -1  -3 143327. 2659.68  19
  -3  -1  -3 144744. 2662.90  18
  -3  -1  -3 154986. 2601.56   2
   3   1   3 139451. 2885.26  16
  -3  -1  -3 163027. 2645.36   8
   3   1   3 137416. 2640.80   1
   3   1   3 139632. 2607.50  15
   3   1   4 18195.1 534.885  14
  -3  -1  -4 18513.7 515.696   2
   3   1   4 18410.5 582.969   6
  -3  -1  -4 19099.5 578.984  23
  -3  -1  -4 18825.7 577.757  21
  -3  -1  -4 18716.9 579.577  18
  -3  -1  -4 18512.3 573.472  19
   3   1   4 18045.0 734.640  16
  -3  -1  -4 19957.1 556.970   8
  -3  -1  -4 18870.0 594.122  17
   3   1   4 17624.7 573.217   1
  -3  -1  -4 19163.2 561.668  20
   3   1   4 18188.2 540.304  15
  -3  -1  -5 4294.62 266.003  23
   3   1   5 4077.40 290.340   7
   3   1   5 4332.68 248.261  14
   3   1   5 4157.59 255.985   6
  -3  -1  -5 4486.99 205.677   5
  -3  -1  -5 4434.12 273.593  21
  -3  -1  -5 4324.60 277.100  17
  -3  -1  -5 4544.46 269.641  20
  -3  -1  -5 4498.38 230.252   2
  -3  -1  -5 4636.33 273.614  19
  -3  -1  -5 4881.91 282.018  18
   3   1   5 4409.66 280.703   1
   3   1   5 3850.88 182.644   4
  -3  -1  -5 4917.51 267.018   8
   3   1   5 4389.11 252.497  15
  -3  -1  -6 6739.20 371.879  21
   3   1   6 6697.15 387.318   7
   3   1   6 7048.14 339.118  14
   3   1   6 6287.28 330.254   6
  -3  -1  -6 7529.89 373.869  19
  -3  -1  -6 6983.04 364.847  23
   3   1   6 6709.59 300.325  12
  -3  -1  -6 6131.17 266.275   5
  -3  -1  -6 7263.49 355.170  20
  -3  -1  -6 7314.99 373.004  18
  -3  -1  -6 7493.60 322.883   2
   3   1   6 5848.74 256.943   4
  -3  -1  -6 6791.66 371.075  17
  -3  -1  -6 6815.69 345.409   8
   3   1   6 6630.87 398.916   1
   3   1   6 6504.85 333.128  15
  -3  -1  -7 65.9370 36.8021   2
   3   1   7-10.9580 42.2688  15
   3   1   7 27.8808 52.0406   7
   3   1   7 36.2133 34.6119  14
  -3  -1  -7-23.2124 43.2369  23
   3   1   7-16.6588 69.9604   1
   3   1   7 44.7510 28.3966  12
  -3  -1  -7 3.27560 32.7447  21
  -3  -1  -7-6.45920 35.7230  20
  -3  -1  -7 0.30091 23.0768   5
  -3  -1  -7 13.8169 40.6371  19
  -3  -1  -7 41.0486 39.5199  18
  -3  -1  -7 19.1249 33.0137  17
   3   1   7 75.3657 54.5916   6
   3   1   7 28.0027 25.3586   4
  -3  -1  -7 114.655 72.5050   8
   3   1   8 44013.6 1266.40   7
   3   1   8 47612.8 1214.46  14
  -3  -1  -8 37134.0 1141.48  20
  -3  -1  -8 48567.9 1265.40  18
   3   1   8 44101.5 1087.94  12
  -3  -1  -8 48331.8 1255.32  23
  -3  -1  -8 46096.3 1262.08  21
  -3  -1  -8 50024.6 1266.60  19
  -3  -1  -8 46658.7 1272.94  17
  -3  -1  -8 50640.8 1193.58   2
   3   1   8 42988.9 1067.06   4
  -3  -1  -8 44737.5 1211.58   8
   3   1   8 47980.6 1213.39  15
   3   1   8 46820.3 1397.34   1
   3   1   9 970.622 152.973  15
   3   1   9 676.780 142.066   7
   3   1   9 695.997 127.310  14
  -3  -1  -9 623.607 139.349  18
  -3  -1  -9 735.842 137.225  23
  -3  -1  -9 768.243 140.415  21
   3   1   9 450.859 93.8918  12
  -3  -1  -9 562.250 125.388  20
  -3  -1  -9 860.815 148.354  19
   3   1   9 446.939 145.308   1
  -3  -1  -9 640.067 141.495  17
  -3  -1  -9 774.971 146.123   8
   3   1  10 1103.63 175.021  15
  -3  -1 -10 897.568 161.231  21
   3   1  10 500.222 126.189   7
   3   1  10 1197.91 175.814  14
   3   1  10 794.979 125.693  12
  -3  -1 -10 412.415 107.224  20
  -3  -1 -10 928.554 169.421  19
  -3  -1 -10 900.944 163.882  18
   3   1  10 716.726 194.106   1
  -3  -1 -10 980.942 167.073  23
  -3  -1 -10 967.352 180.099   8
   3   1  11 35.9461 56.7473   7
   3   1  11 16.2965 46.2378  12
  -3  -1 -11 73.8410 69.5094   8
   3   1  12 344.175 109.145   7
  -3  -1 -12 451.209 134.552   8
   3   1  12 563.451 132.393  12
  -3  -2   9 1075.38 197.297   7
  -3  -2   9 1011.67 208.193   4
   3   2  -9 669.633 147.547   8
  -3  -2   8 3116.70 308.196   7
   3   2  -8 3015.28 289.830   5
  -3  -2   8 3914.74 373.328   4
   3   2  -8 2894.94 281.098   8
  -3  -2   7 289.847 91.2670   7
   3   2  -7 214.483 69.8869   5
  -3  -2   7 115.944 65.5487   9
  -3  -2   7 242.740 99.9325   4
   3   2  -7 199.054 79.5297   8
  -3  -2   6 5736.51 357.989   7
   3   2  -6 4877.07 314.887  20
   3   2  -6 5098.99 335.850   5
  -3  -2   6 4219.14 322.827   9
  -3  -2   6 5637.13 386.139   4
   3   2  -6 5245.46 323.295   8
  -3  -2   5 4712.99 299.954   7
   3   2  -5 3917.29 274.968   6
   3   2  -5 3657.12 261.993  20
   3   2  -5 4199.69 281.722   5
  -3  -2   5 3419.73 268.882   9
  -3  -2   5 4895.86 337.712   4
  -3  -2   4 866.578 117.452   7
  -3  -2   4 870.962 119.391  11
   3   2  -4 863.062 119.620  20
   3   2  -4 789.569 113.053   5
   3   2  -4 788.143 115.617   6
  -3  -2   4 662.259 64.1137   2
  -3  -2   4 816.751 117.272   9
  -3  -2   4 901.794 137.863   4
  -3  -2   3 17226.9 522.827   7
   3   2  -3 15734.6 522.826  20
   3   2  -3 12704.8 344.360  13
  -3  -2   3 14612.9 335.093  21
  -3  -2   3 17218.7 514.305  11
  -3  -2   3 15731.7 397.400   2
   3   2  -3 13206.1 343.866  19
   3   2  -3 17891.3 530.278   5
   3   2  -3 12814.4 344.948  18
  -3  -2   3 16991.6 523.290   9
   3   2  -3 12936.9 348.872  17
  -3  -2   3 18486.2 591.486   4
   3   2  -3 16646.6 549.469   6
   3   2  -3 12839.8 358.422  15
   3   2  -2 31087.1 697.848  14
  -3  -2   2 33126.3 653.357  23
   3   2  -2 35457.6 852.501   6
  -3  -2   2 32631.6 652.847  22
  -3  -2   2 33172.4 650.809  21
  -3  -2   2 34159.7 761.949  11
  -3  -2   2 35967.6 726.133   2
   3   2  -2 31164.3 689.999  15
   3   2  -2 31437.2 678.012  18
  -3  -2   2 34779.4 788.844   9
   3   2  -2 31099.5 675.821  17
  -3  -2   2 35966.7 850.606   4
   3   2  -2 31269.9 673.814  13
  -3  -2   2 34015.3 786.595   7
   3   2  -1 24575.3 565.397  13
  -3  -2   1 23485.4 546.463  22
   3   2  -1 25463.8 697.423   6
  -3  -2   1 23020.7 563.688  11
   3   2  -1 24078.6 576.833  15
  -3  -2   1 25956.6 597.914   2
   3   2  -1 23419.5 459.165   1
  -3  -2   1 24154.0 548.045  21
  -3  -2   1 24735.2 610.110   9
  -3  -2   1 24838.3 638.638   4
   3   2  -1 23764.5 580.210  14
  -3  -2   1 24123.9 540.840  19
  -3  -2   1 24159.2 546.195  23
   3   2  -1 23984.3 568.147  17
  -3  -2   0 16541.9 442.249   2
   3   2   0 13842.1 313.350   3
   3   2   0 15570.6 421.277  13
  -3  -2   0 15915.5 418.609  23
  -3  -2   0 16263.6 422.472  21
  -3  -2   0 14334.6 367.347  11
   3   2   0 15851.0 434.833  14
   3   2   0 17676.1 550.380   6
  -3  -2   0 16051.9 415.782  19
   3   2   0 15649.4 430.936  15
   3   2   0 15885.2 346.280   1
  -3  -2   0 16309.0 438.123   9
  -3  -2   0 15530.8 430.653   4
  -3  -2   0 16140.3 424.445  22
  -3  -2   0 16194.2 414.955  18
   3   2   1 3607.70 227.684   6
   3   2   1 3382.45 180.237  14
  -3  -2  -1 3396.37 177.365  21
  -3  -2  -1 3551.17 178.758   2
  -3  -2  -1 3681.69 182.839  23
   3   2   1 3456.65 177.175  13
  -3  -2  -1 3228.03 109.697  11
  -3  -2  -1 3452.70 176.189  19
  -3  -2  -1 3094.76 123.754  10
  -3  -2  -1 3562.00 181.886  22
  -3  -2  -1 3646.82 179.166  18
   3   2   1 3403.52 141.198   1
  -3  -2  -1 3362.03 148.026   4
  -3  -2  -1 3536.83 176.665   9
   3   2   1 3480.78 180.679  15
   3   2   2 10.6686 18.8353  15
  -3  -2  -2 23.6108 16.4501   2
   3   2   2 12.7004 20.5059  14
  -3  -2  -2 16.6048 19.1909  22
  -3  -2  -2 45.9945 24.8088  23
   3   2   2 29.3324 26.9975   6
  -3  -2  -2 21.1647 18.3204  18
  -3  -2  -2 50.8089 21.8849  10
  -3  -2  -2-3.52108 18.9957  19
   3   2   2 30.3079 19.3673  13
  -3  -2  -2 22.0179 18.6181  21
  -3  -2  -2 53.6934 25.7199   8
   3   2   2 17.6478 13.9157   1
  -3  -2  -3 1502.47 133.604  22
  -3  -2  -3 1622.03 127.227   8
   3   2   3 1389.18 124.284  14
   3   2   3 1311.65 142.180   6
  -3  -2  -3 1381.68 126.428  23
   3   2   3 1549.48 131.323  13
  -3  -2  -3 1285.94 123.283  21
  -3  -2  -3 1385.14 126.485  19
  -3  -2  -3 1440.01 112.945   2
  -3  -2  -3 1477.48 128.565  18
  -3  -2  -3 1264.35 103.194  10
   3   2   3 1430.21 113.884   1
   3   2   3 1300.87 120.403  15
   3   2   4 52596.8 1151.58  14
   3   2   4 53152.1 1244.63   6
  -3  -2  -4 53800.7 1171.47  23
  -3  -2  -4 51946.8 1174.33  21
  -3  -2  -4 52281.5 1137.10  20
  -3  -2  -4 49605.7 1080.71   2
  -3  -2  -4 53869.0 1179.56  18
  -3  -2  -4 53335.1 1171.88  19
   3   2   4 50660.2 1123.71   1
   3   2   4 52133.1 1151.60  15
   3   2   5 18.6045 27.0651  15
  -3  -2  -5 19.0046 21.4572   2
   3   2   5 39.2721 39.8653   1
   3   2   5-28.6639 36.6933  14
   3   2   5 20.0587 38.6970   6
  -3  -2  -5-1.66947 25.3462  23
  -3  -2  -5 13.6883 38.9553   8
  -3  -2  -5-8.68014 25.1947  20
  -3  -2  -5 9.48794 25.0720  19
  -3  -2  -5 63.1266 40.8149  18
  -3  -2  -5 20.0103 26.1919  21
   3   2   5 23.6180 13.5497   4
   3   2   6 233.821 68.1853  15
   3   2   6 290.558 83.2342   6
  -3  -2  -6 315.245 64.5132   2
   3   2   6 256.863 93.6065   7
   3   2   6 263.208 67.2709  14
  -3  -2  -6 287.197 72.8952  23
   3   2   6 274.090 65.7831  12
  -3  -2  -6 148.369 60.8413  20
  -3  -2  -6 238.451 68.2814  19
  -3  -2  -6 277.436 68.9198  18
   3   2   6 309.636 81.4142   1
  -3  -2  -6 387.907 88.2343   8
  -3  -2  -6 250.101 67.9681  21
   3   2   6 182.473 35.6543   4
   3   2   7 273.590 81.7436  15
   3   2   7 261.647 93.6743   7
   3   2   7 525.753 111.080   1
   3   2   7 313.015 82.0621  14
  -3  -2  -7 343.160 74.6902   2
  -3  -2  -7 404.509 92.9326  22
   3   2   7 376.548 93.8527  13
   3   2   7 360.287 72.4492  12
  -3  -2  -7 446.245 99.4794  21
  -3  -2  -7 247.614 73.4944  20
  -3  -2  -7 434.693 95.2210  18
  -3  -2  -7 327.874 90.0480  19
  -3  -2  -7 305.521 84.6426  23
   3   2   7 275.631 51.1778   4
  -3  -2  -7 413.342 95.7117   8
   3   2   8 4691.12 359.796   7
   3   2   8 4610.59 317.642  14
  -3  -2  -8 4956.40 340.802  22
   3   2   8 4370.14 275.749  12
  -3  -2  -8 3600.02 268.455  20
  -3  -2  -8 4527.93 324.993  19
  -3  -2  -8 4482.67 324.486  18
   3   2   8 5279.83 335.534  13
  -3  -2  -8 4585.40 281.998   2
  -3  -2  -8 5065.33 336.465  21
  -3  -2  -8 4692.01 327.428  23
  -3  -2  -8 5127.62 334.516   8
   3   2   8 4941.30 374.170   1
   3   2   8 4850.16 327.773  15
   3   2   9 4564.84 332.014  13
  -3  -2  -9 4477.73 334.710  23
   3   2   9 4012.87 345.190   7
   3   2   9 4150.36 319.641  14
  -3  -2  -9 3860.54 325.362  19
  -3  -2  -9 4615.40 344.575  22
  -3  -2  -9 3398.26 272.257  20
   3   2   9 4485.81 292.383  12
  -3  -2  -9 4014.37 326.564  18
  -3  -2  -9 3879.63 313.660   8
   3   2   9 4789.50 341.961  15
   3   2   9 3656.09 356.298   1
  -3  -2  -9 4858.42 349.811  21
   3   2  10 56.7140 58.5743  15
   3   2  10-23.3041 57.9374   7
   3   2  10-23.5082 39.8327  14
  -3  -2 -10 15.2831 58.9641   8
   3   2  10-49.5689 47.5000  13
   3   2  10-139.034 91.2517   1
   3   2  10-5.06873 43.7835  12
   3   2  11 3756.30 433.197   1
   3   2  11 3433.37 355.013   7
   3   2  11 3346.93 289.115  12
  -3  -2 -11 3904.41 388.340  10
  -3  -2 -11 3174.83 326.484   8
   3   2  12 932.316 247.454   1
   3   2  12 860.710 187.149   7
  -3  -2 -12 1182.60 232.326  10
   3   2  12 961.569 168.118  12
  -3  -2 -12 1123.71 211.360   8
  -3  -3   9 1263.05 206.890   7
  -3  -3   9 1439.02 246.468   4
   3   3  -9 805.914 168.503   8
  -3  -3   8 4499.73 362.146   7
   3   3  -8 4378.83 354.922   8
   3   3  -8 5163.82 401.077   5
  -3  -3   8 5528.07 448.418   4
  -3  -3   7 369.602 98.4819   7
   3   3  -7 331.129 106.840   5
  -3  -3   7 294.170 94.8472   9
  -3  -3   7 502.052 134.141   4
   3   3  -7 419.984 108.989   8
  -3  -3   6 48.0166 39.1671   9
  -3  -3   6 326.158 86.0901   7
   3   3  -6 297.714 86.6856  20
   3   3  -6 293.520 89.1676   5
  -3  -3   6 414.043 114.282   4
   3   3  -6 230.125 80.3894   8
  -3  -3   5 10538.3 461.031   7
   3   3  -5 9643.66 475.254  20
  -3  -3   5 11121.0 543.222   4
   3   3  -5 9840.39 471.787   5
  -3  -3   4 78.6990 35.1487  21
  -3  -3   4 144.278 52.4196   7
   3   3  -4 105.958 48.1665   6
   3   3  -4 104.382 48.1095  20
   3   3  -4 113.430 49.9154   5
  -3  -3   4 133.294 48.6921   9
  -3  -3   4 99.0853 70.3247   4
  -3  -3   4 148.850 45.9928   2
  -3  -3   3 1720.78 126.241  21
  -3  -3   3 1544.66 139.673   2
   3   3  -3 1837.10 167.797   5
   3   3  -3 1515.93 133.979  18
   3   3  -3 1407.85 129.988  13
   3   3  -3 1360.43 129.292  17
  -3  -3   3 1898.86 184.957   4
  -3  -3   3 1809.05 151.309   9
   3   3  -3 1645.12 155.937   6
   3   3  -3 1462.05 165.508  20
   3   3  -3 1528.31 143.827  15
  -3  -3   3 1816.58 157.810   7
   3   3  -2 1872.02 160.748  14
   3   3  -2 2149.85 159.690  17
   3   3  -2 1927.61 153.077  18
   3   3  -2 2219.72 185.341   6
  -3  -3   2 2057.69 166.772   2
   3   3  -2 2213.40 169.871   5
   3   3  -2 2087.70 166.240  15
  -3  -3   2 2044.16 148.836   9
  -3  -3   2 2280.53 186.008   4
  -3  -3   2 2068.04 139.136  21
  -3  -3   2 2073.82 141.025  23
   3   3  -2 1940.04 152.303  13
   3   3  -1 3844.26 214.817  13
   3   3  -1 4317.71 170.191   1
   3   3  -1 3756.83 230.455  14
  -3  -3   1 4348.43 210.797  23
   3   3  -1 4320.61 249.548   6
  -3  -3   1 4032.95 206.666  22
  -3  -3   1 4071.93 203.608  21
  -3  -3   1 4129.54 201.336  19
  -3  -3   1 3939.95 231.128   2
   3   3  -1 4161.93 218.303   5
  -3  -3   1 4319.69 234.705   4
  -3  -3   1 4236.80 205.981   9
   3   3  -1 3806.21 215.453  17
   3   3  -1 4093.84 232.813  15
   3   3   0 60151.6 1282.82  14
  -3  -3   0 59128.7 1222.37  23
  -3  -3   0 60499.6 1217.77   4
   3   3   0 61799.4 1331.89   6
  -3  -3   0 59300.4 1174.92  10
  -3  -3   0 58000.6 1219.06  21
  -3  -3   0 58490.7 1211.36  19
  -3  -3   0 60772.9 1286.74   2
   3   3   0 62667.9 1148.94   1
  -3  -3   0 63211.6 1200.01   9
   3   3   0 60137.5 1256.55  17
   3   3   0 60185.9 1250.56  13
  -3  -3   0 59260.2 1229.99  22
   3   3   0 59570.7 1272.99  15
   3   3   1 25024.0 668.621  14
   3   3   1 24971.0 644.363  13
  -3  -3  -1 24306.2 621.963  19
   3   3   1 25380.2 713.171   6
  -3  -3  -1 24662.7 632.427  23
  -3  -3  -1 24113.7 631.778  22
   3   3   1 24789.3 564.413   1
  -3  -3  -1 24524.6 662.326   2
  -3  -3  -1 24329.8 628.900  21
  -3  -3  -1 22500.0 558.728  10
  -3  -3  -1 23011.1 549.019   4
   3   3   1 24764.5 661.918  15
   3   3   2 27158.1 719.997  14
   3   3   2 29042.5 790.358   6
  -3  -3  -2 27128.6 695.074  19
  -3  -3  -2 28403.8 714.169   2
  -3  -3  -2 26713.8 631.922  10
  -3  -3  -2 27622.5 698.758  18
   3   3   2 28342.5 635.127   1
  -3  -3  -2 27337.9 707.732  22
  -3  -3  -2 24723.9 533.834   4
   3   3   2 26972.5 697.733  13
  -3  -3  -2 27045.0 700.204  23
  -3  -3  -2 27807.9 637.927   8
  -3  -3  -2 27565.8 704.737  21
   3   3   2 27181.3 717.655  15
   3   3   3 7162.19 329.239  14
   3   3   3 7367.74 324.878  13
   3   3   3 7354.28 282.085   1
   3   3   3 7807.26 385.456   6
  -3  -3  -3 7783.07 336.092  23
  -3  -3  -3 7736.12 331.012  19
  -3  -3  -3 7496.14 316.946   2
  -3  -3  -3 7106.79 291.282  10
  -3  -3  -3 7168.63 319.164  18
  -3  -3  -3 8248.95 305.746   8
  -3  -3  -3 7411.49 332.996  22
  -3  -3  -3 7536.91 333.279  21
   3   3   3 7382.49 332.983  15
  -3  -3  -4 2214.45 179.213  23
   3   3   4 1870.97 166.632  13
   3   3   4 1834.33 165.984  14
   3   3   4 2064.54 196.202   6
  -3  -3  -4 1987.44 172.244  21
  -3  -3  -4 2218.91 182.955  22
   3   3   4 2135.46 93.5779  11
  -3  -3  -4 2048.04 159.688  10
  -3  -3  -4 2064.57 154.343   2
  -3  -3  -4 2080.63 174.092  18
  -3  -3  -4 2018.27 171.724  19
  -3  -3  -4 2547.29 172.475   8
   3   3   4 2091.22 153.392   1
   3   3   4 2077.81 176.319  15
   3   3   5 91685.8 1931.17  14
   3   3   5 90996.6 2002.84   6
  -3  -3  -5 87458.1 1876.50  10
  -3  -3  -5 97561.7 1935.92  22
  -3  -3  -5 94946.2 1920.28  23
  -3  -3  -5 95738.3 1932.18  21
   3   3   5 89737.9 1671.61  11
  -3  -3  -5 93544.4 1911.27  19
   3   3   5 94061.7 1852.25  12
   3   3   5 96455.4 1917.23  13
  -3  -3  -5 93229.0 1800.74   2
  -3  -3  -5 93227.5 1915.64  18
   3   3   5 94914.6 1856.28   1
  -3  -3  -5 102235. 1877.23   8
   3   3   5 98843.3 1943.76  15
   3   3   6 83.3280 56.8804  15
   3   3   6 29.8037 34.0782   1
  -3  -3  -6 70.2684 36.9197   2
   3   3   6 45.2045 41.1655  14
   3   3   6 123.245 86.7337   7
  -3  -3  -6 72.0842 55.5591  18
  -3  -3  -6 76.6509 52.1408  22
  -3  -3  -6 136.429 61.8919  19
   3   3   6 110.205 54.0266  12
   3   3   6 119.868 74.9300   6
  -3  -3  -6 52.7672 46.7588  10
   3   3   6 16.7373 30.3014  13
  -3  -3  -6 68.9098 51.9396  21
  -3  -3  -6 86.9510 53.5046   8
  -3  -3  -6 113.758 59.4652  23
   3   3   7 741.794 126.107  15
   3   3   7 982.927 168.065   7
   3   3   7 760.276 129.710  14
  -3  -3  -7 819.424 129.402  19
  -3  -3  -7 661.681 121.800  22
   3   3   7 1241.33 142.676  12
  -3  -3  -7 975.453 127.685   2
  -3  -3  -7 743.322 126.793  18
  -3  -3  -7 817.711 135.012  10
  -3  -3  -7 745.384 122.259  21
  -3  -3  -7 783.220 127.494  23
  -3  -3  -7 1103.25 150.062   8
   3   3   7 834.075 133.015  13
   3   3   7 924.112 138.286   1
   3   3   8 664.254 122.664  15
  -3  -3  -8 543.776 117.143  22
   3   3   8 632.540 141.197   7
   3   3   8 504.195 112.003  14
   3   3   8 513.528 122.426   1
  -3  -3  -8 527.513 109.773  23
  -3  -3  -8 607.723 118.878  21
   3   3   8 481.539 104.080  13
   3   3   8 551.211 103.511  12
  -3  -3  -8 542.469 109.492  19
  -3  -3  -8 595.590 119.263  18
  -3  -3  -8 652.983 102.100   2
  -3  -3  -8 547.342 127.563  10
  -3  -3  -8 689.211 125.130   8
   3   3   9 312.664 100.755  15
  -3  -3  -9 356.262 96.3560  23
   3   3   9 260.591 118.658   7
   3   3   9 288.114 95.1897  14
   3   3   9 401.856 104.069  12
   3   3   9 201.056 85.3948   1
  -3  -3  -9 233.380 85.5372  22
  -3  -3  -9 278.445 89.3673  21
  -3  -3  -9 265.252 96.8694  19
  -3  -3  -9 256.722 94.1178  18
   3   3   9 189.296 72.0553  13
  -3  -3  -9 324.121 114.109  10
  -3  -3  -9 264.594 95.1673   8
   3   3  10 300.040 96.9464   7
  -3  -3 -10 269.103 103.187   8
   3   3  10 346.693 116.375   1
   3   3  10 296.808 85.2012  12
  -3  -3 -10 216.356 102.789  10
   3   3  11 770.523 182.226   7
   3   3  11 694.441 188.724   1
  -3  -3 -11 816.818 183.569  10
   3   3  11 505.300 133.928  12
  -3  -3 -11 564.704 149.916   8
   3   3  12 2968.23 354.739   7
   3   3  12 3786.82 341.206  12
  -3  -3 -12 4145.56 433.948  10
  -3  -3 -12 2914.20 330.273   8
   3   3  12 3925.75 469.028   1
   3   4  -9 2166.40 285.211   5
  -3  -4   9 3073.77 368.753   4
   3   4  -9 2175.83 274.435   8
  -3  -4   9 2078.73 257.585   7
  -3  -4   8 67.3594 58.6620   7
   3   4  -8 17.0670 52.7909   5
  -3  -4   8 55.3936 87.0171   4
   3   4  -8 107.837 76.9595   8
  -3  -4   7 1099.63 167.004   7
   3   4  -7 1231.84 191.783   5
   3   4  -7 1220.59 194.085  20
  -3  -4   7 694.101 131.521   9
  -3  -4   7 1435.79 230.754   4
   3   4  -7 1173.68 176.271   8
   3   4  -6 48.4304 39.0254   5
  -3  -4   6-24.0213 46.4310   7
  -3  -4   6 75.6384 35.8038   9
   3   4  -6-42.6773 70.3638  20
  -3  -4   6 36.7587 82.2614   4
   3   4  -6 21.9772 40.6415   8
   3   4  -5 9883.42 493.162   5
   3   4  -5 9494.47 511.033  20
  -3  -4   5 8646.42 419.299   9
  -3  -4   5 11189.9 560.812   4
  -3  -4   5 10300.9 458.554   7
   3   4  -4 36111.7 994.334   5
  -3  -4   4 32765.1 836.116  21
   3   4  -4 32115.3 833.961   6
  -3  -4   4 32946.9 870.991   9
   3   4  -4 33970.4 1027.48  20
  -3  -4   4 29703.0 898.439   2
   3   4  -4 33395.8 908.440  19
   3   4  -4 33076.7 924.887  13
   3   4  -4 32263.7 914.304  18
   3   4  -4 33263.2 929.525  17
  -3  -4   4 37506.4 1061.73   4
   3   4  -4 33138.6 961.755  15
  -3  -4   4 36034.5 917.794   7
   3   4  -3 1197.58 143.749  13
  -3  -4   3 1118.82 122.539  21
   3   4  -3 1051.51 135.335  18
  -3  -4   3 1412.07 138.634  23
   3   4  -3 1171.59 147.860   5
  -3  -4   3 1067.83 115.855   9
   3   4  -3 1166.52 129.763   6
   3   4  -3 1001.46 150.689  20
  -3  -4   3 1127.86 145.601   2
   3   4  -3 958.203 129.702  17
  -3  -4   3 942.568 140.909   4
   3   4  -3 963.119 137.411  15
  -3  -4   2 1706.34 149.354  21
   3   4  -2 1444.00 170.248  14
  -3  -4   2 1713.32 151.564  23
   3   4  -2 1749.50 154.815   6
   3   4  -2 1554.05 176.525  20
  -3  -4   2 2009.41 193.579   2
   3   4  -2 1769.94 165.303   5
   3   4  -2 1609.97 165.626  18
  -3  -4   2 1610.03 128.975   9
   3   4  -2 1687.32 170.258  17
  -3  -4   2 1941.70 181.752   4
   3   4  -2 1571.28 162.680  13
  -3  -4   2 1152.32 67.5036  16
   3   4  -2 1681.24 176.335  15
   3   4  -1 900.271 114.928   6
   3   4  -1 717.218 122.146  14
  -3  -4   1 637.604 92.2794  23
   3   4  -1 889.640 127.748  15
  -3  -4   1 709.750 98.1727  22
   3   4  -1 762.418 85.6654   1
  -3  -4   1 911.909 131.209   2
   3   4  -1 935.115 109.761   5
   3   4  -1 683.549 105.917  13
   3   4  -1 702.763 109.692  17
   3   4  -1 543.589 95.6305  18
  -3  -4   1 764.851 84.7540   9
  -3  -4   1 840.709 105.280  21
  -3  -4   1 708.476 103.832   4
  -3  -4   0 71718.1 1507.62  22
   3   4   0 70889.2 1599.91  14
  -3  -4   0 70863.1 1492.93  21
   3   4   0 78832.6 1569.96   6
  -3  -4   0 72067.7 1607.61   2
  -3  -4   0 72596.6 1489.41  19
   3   4   0 74170.8 1413.20   1
   3   4   0 71801.8 1442.97   5
   3   4   0 71790.7 1550.46  17
   3   4   0 72538.2 1541.80  13
  -3  -4   0 74686.0 1401.63   9
  -3  -4   0 70979.4 1459.67  10
  -3  -4   0 69020.7 1449.75   4
  -3  -4   0 71447.9 1500.35  23
   3   4   0 71505.1 1583.65  15
  -3  -4   0 70693.2 1326.17   3
  -3  -4  -1 5357.96 196.914   3
   3   4   1 5518.95 320.214  14
   3   4   1 5850.04 317.483   6
  -3  -4  -1 5511.57 283.444  23
  -3  -4  -1 5088.85 276.173  22
  -3  -4  -1 5424.76 280.288  21
   3   4   1 5307.65 293.559  13
  -3  -4  -1 5533.01 317.280   2
   3   4   1 5524.11 237.677   5
   3   4   1 5798.08 251.656   1
  -3  -4  -1 5311.85 254.550  10
   3   4   1 5557.88 302.401  17
  -3  -4  -1 5314.36 229.269   4
  -3  -4  -1 5639.58 280.360  19
   3   4   1 5472.63 311.378  15
   3   4   2 11137.5 460.384  14
  -3  -4  -2 10297.4 321.428   3
  -3  -4  -2 11053.1 424.752  21
   3   4   2 10718.6 467.014   6
  -3  -4  -2 10825.8 421.267  23
  -3  -4  -2 10743.8 423.571  22
   3   4   2 10723.0 432.727  13
   3   4   2 10508.8 322.763   5
  -3  -4  -2 10696.7 411.574  19
  -3  -4  -2 10732.8 383.968  10
   3   4   2 10748.3 370.439   1
  -3  -4  -2 11390.9 459.145   2
   3   4   2 11011.5 441.720  17
  -3  -4  -2 10594.8 306.208   4
   3   4   2 10654.4 451.084  15
  -3  -4  -3 15975.0 546.128  22
   3   4   3 16178.7 572.118  14
  -3  -4  -3 15526.3 452.024   3
   3   4   3 15654.8 595.916   6
  -3  -4  -3 15656.4 535.227  23
   3   4   3 16110.7 547.930  13
   3   4   3 14836.7 376.493   5
   3   4   3 14890.4 325.257  11
  -3  -4  -3 15435.2 524.853  19
  -3  -4  -3 15353.7 545.764   2
  -3  -4  -3 16041.9 504.121  10
   3   4   3 16259.7 487.226   1
  -3  -4  -3 15508.6 535.294  21
  -3  -4  -3 14730.3 343.513   4
  -3  -4  -3 16053.7 459.029   8
   3   4   3 15796.8 555.663  17
   3   4   3 15569.2 561.585  15
   3   4   4 7686.51 384.125  14
   3   4   4 8165.97 429.396   6
   3   4   4 7909.92 387.661  15
  -3  -4  -4 7302.64 353.849  19
  -3  -4  -4 7648.61 366.436  23
   3   4   4 7233.14 199.609   5
  -3  -4  -4 7836.59 362.948   2
  -3  -4  -4 7633.91 349.210  10
  -3  -4  -4 8400.29 377.655  18
   3   4   4 7825.12 370.175  13
   3   4   4 8240.63 336.220   1
  -3  -4  -4 7460.40 361.755  21
   3   4   4 7287.90 211.706  11
  -3  -4  -4 8310.99 320.094   8
  -3  -4  -4 7715.06 370.952  22
  -3  -4  -5-1.32681 22.5237   2
   3   4   5 7.23955 33.5854  15
   3   4   5-9.82248 48.8842   6
   3   4   5 34.0188 43.5225  14
   3   4   5 22.5889 14.0449  11
   3   4   5 28.6771 37.7628  12
  -3  -4  -5 11.8490 29.7734  22
   3   4   5 40.5470 38.6952  13
  -3  -4  -5-29.0076 39.3981  10
  -3  -4  -5 14.4410 34.7877  19
  -3  -4  -5-2.77444 29.9715  18
  -3  -4  -5-4.49772 25.8644  23
   3   4   5 6.99976 33.2931   1
  -3  -4  -5-21.3869 28.2788   8
  -3  -4  -5 6.01748 36.1280  21
   3   4   6 27.2154 41.3975  15
  -3  -4  -6 6.79640 21.7853   2
   3   4   6 75.6087 48.0677  14
   3   4   6 78.9911 51.0073  12
  -3  -4  -6 6.34859 42.2455  21
   3   4   6 33.7583 59.0397   7
  -3  -4  -6-26.2626 43.4570  22
   3   4   6-38.8743 53.5334   6
  -3  -4  -6 33.4890 56.1966  10
  -3  -4  -6 52.7549 35.1457  23
   3   4   6-27.9107 36.7033  13
   3   4   6 23.2853 16.5837  11
  -3  -4  -6 11.6366 36.0761  19
  -3  -4  -6-14.1539 39.4400  18
   3   4   6 2.89882 34.1683   1
  -3  -4  -6-42.5181 53.5477   8
   3   4   7 1294.23 175.302  14
  -3  -4  -7 1572.02 181.227  19
   3   4   7 1404.04 211.552   7
   3   4   7 1432.34 178.713  13
   3   4   7 1443.51 160.946  12
  -3  -4  -7 1535.79 182.273  23
  -3  -4  -7 1316.62 172.386  22
  -3  -4  -7 1453.48 178.433  21
   3   4   7 1361.75 127.733  11
  -3  -4  -7 1396.68 146.258   2
  -3  -4  -7 1340.36 170.639  18
  -3  -4  -7 1259.23 174.765  10
   3   4   7 1347.61 166.522   1
  -3  -4  -7 1360.30 163.802   8
   3   4   7 1273.25 176.944  15
   3   4   8 4890.21 395.111   7
   3   4   8 4700.74 346.264  14
  -3  -4  -8 4588.51 334.186  23
  -3  -4  -8 5018.28 354.047  22
   3   4   8 4449.23 330.301  13
  -3  -4  -8 4153.68 333.025  10
  -3  -4  -8 4919.28 344.316  21
   3   4   8 4401.11 262.260  11
  -3  -4  -8 4690.00 331.516  19
  -3  -4  -8 5044.18 350.222  18
   3   4   8 4493.45 304.159  12
   3   4   8 5014.24 343.737   1
  -3  -4  -8 4736.69 310.553   8
   3   4   8 4355.38 338.191  15
   3   4   9 2011.69 260.640   7
   3   4   9 1830.25 228.452  14
   3   4   9 1918.88 223.325  13
  -3  -4  -9 1848.23 221.951  21
  -3  -4  -9 2160.17 233.640  19
  -3  -4  -9 2302.99 246.805  22
  -3  -4  -9 1915.17 227.969  18
  -3  -4  -9 2224.00 261.823  10
   3   4   9 1903.23 204.095  12
   3   4   9 2057.48 240.188   1
  -3  -4  -9 1950.97 213.792   8
  -3  -4  -9 2027.31 230.209  23
   3   4   9 2029.25 240.839  15
   3   4  10 21.1497 61.3698   7
   3   4  10 11.0539 47.2037  12
   3   4  10 33.2641 74.8212   1
  -3  -4 -10-66.1673 59.4945  10
  -3  -4 -10-3.63570 62.1896   8
   3   4  11 67.1618 64.3991   7
  -3  -4 -11 84.0703 78.1551  10
   3   4  11 114.271 93.7589   1
   3   4  11 41.4678 58.8970  12
  -3  -4 -11 26.3486 73.3698   8
   3   4  12 485.425 161.139   7
  -3  -4 -12 910.547 211.330  10
   3   4  12 758.459 161.898  12
  -3  -4 -12 578.663 143.781   8
   3   5  -8 2857.29 332.981  20
  -3  -5   8 3423.22 382.641   4
   3   5  -8 3661.89 365.226   5
   3   5  -8 2898.15 304.579   8
  -3  -5   8 2596.74 267.893   7
   3   5  -7 293.589 111.219  20
   3   5  -7 141.212 80.1360   5
  -3  -5   7 183.841 85.2097   4
   3   5  -7 205.153 82.5372   8
  -3  -5   7 159.225 70.9741   7
  -3  -5   6 218.190 71.7913   7
   3   5  -6 255.462 96.3034  20
   3   5  -6 287.467 89.3561   5
  -3  -5   6 454.625 124.152   4
   3   5  -6 264.235 86.5100   8
   3   5  -5 23.2497 57.0811  20
   3   5  -5 38.5952 42.5577   5
  -3  -5   5 47.5703 34.5828   9
  -3  -5   5-75.6447 53.7898   2
  -3  -5   5-0.77794 61.4299   4
   3   5  -4 30825.7 977.555  13
  -3  -5   4 30716.4 876.333  21
  -3  -5   4 27655.3 940.090   2
  -3  -5   4 35037.9 1052.98   4
   3   5  -4 31389.5 962.146  19
  -3  -5   4 30438.5 813.783   9
   3   5  -4 29799.7 963.982  18
   3   5  -4 31368.8 1042.06  20
   3   5  -4 30486.5 979.998  17
   3   5  -4 32045.3 978.389   5
   3   5  -4 31484.8 1031.19  15
   3   5  -3 702.972 102.466   6
  -3  -5   3 868.081 126.810  23
   3   5  -3 834.840 148.516  20
   3   5  -3 710.932 132.000  13
   3   5  -3 641.821 126.591  17
   3   5  -3 923.437 133.100   5
   3   5  -3 681.434 131.268  18
  -3  -5   3 699.355 90.4612   9
  -3  -5   3 698.464 112.183  21
  -3  -5   3 531.074 119.541   2
  -3  -5   3 883.674 143.479   4
   3   5  -3 725.308 133.883  15
   3   5  -2 9871.85 482.001  18
   3   5  -2 9911.68 515.685  14
   3   5  -2 10684.7 416.744   6
  -3  -5   2 10306.0 443.840  23
  -3  -5   2 10217.7 345.847   9
  -3  -5   2 9900.97 432.615  21
   3   5  -2 9639.93 492.546  20
  -3  -5   2 9594.78 495.834   2
   3   5  -2 10632.8 454.067   5
   3   5  -2 9561.87 476.673  13
   3   5  -2 9924.09 486.529  17
  -3  -5   2 10319.5 461.032   4
  -3  -5   2 9251.80 313.698  16
   3   5  -2 9144.41 489.262  15
   3   5  -1 12336.4 583.800  14
  -3  -5   1 12028.2 489.312  23
   3   5  -1 13329.4 491.699   6
  -3  -5   1 12321.3 496.025  22
   3   5  -1 11922.1 531.860  13
  -3  -5   1 11968.1 561.903   2
   3   5  -1 13183.4 451.101   1
   3   5  -1 12803.9 479.619   5
   3   5  -1 12019.3 535.036  18
  -3  -5   1 13331.3 395.592   9
   3   5  -1 12921.3 554.422  17
  -3  -5   1 13867.0 507.010   4
  -3  -5   1 12206.1 402.020  16
  -3  -5   1 12812.2 496.809  21
   3   5  -1 12444.9 572.448  15
  -3  -5   1 12234.3 428.222   3
  -3  -5   0 15220.0 464.019   3
   3   5   0 14183.7 619.506  14
  -3  -5   0 14327.7 535.660  21
   3   5   0 14919.7 549.819   6
   3   5   0 14457.4 580.355  13
  -3  -5   0 14594.5 546.606  22
  -3  -5   0 14421.1 616.695   2
   3   5   0 15415.9 493.924   1
   3   5   0 14781.3 495.922   5
  -3  -5   0 15098.3 525.822  10
  -3  -5   0 14342.1 540.645  23
  -3  -5   0 15855.8 444.165   9
   3   5   0 14520.4 587.897  17
  -3  -5   0 14896.3 503.621   4
   3   5   0 14212.5 606.951  15
  -3  -5  -1 18399.6 516.873   3
   3   5   1 16828.2 684.892  14
   3   5   1 18574.6 643.542   6
  -3  -5  -1 18444.9 627.338  23
  -3  -5  -1 16941.1 612.296  22
  -3  -5  -1 17867.2 616.039  21
  -3  -5  -1 17962.6 695.690   2
  -3  -5  -1 17687.5 606.730  19
   3   5   1 17951.1 528.982   5
  -3  -5  -1 18239.7 577.146  10
   3   5   1 18210.9 664.485  17
   3   5   1 18707.3 559.348   1
  -3  -5  -1 18051.8 529.942   4
   3   5   1 17281.2 643.451  13
   3   5   1 17471.0 676.922  15
   3   5   2 182.425 68.2717  15
   3   5   2 283.287 81.3045  13
   3   5   2 279.284 88.8291  14
  -3  -5  -2 298.197 73.4901  19
  -3  -5  -2 249.554 71.0679  23
  -3  -5  -2 291.182 59.2084   3
   3   5   2 280.553 88.3174   6
   3   5   2 317.784 63.9732   1
  -3  -5  -2 246.117 59.9011  10
   3   5   2 273.026 51.4379   5
  -3  -5  -2 224.187 72.3974  22
   3   5   2 204.449 70.2811  17
  -3  -5  -2 250.597 80.3884   2
  -3  -5  -2 240.715 52.1201   4
  -3  -5  -2 362.298 83.8443  21
   3   5   3 559.540 123.905  15
  -3  -5  -3 432.905 90.5688  19
   3   5   3 481.315 110.624  14
  -3  -5  -3 498.465 101.060  23
  -3  -5  -3 420.898 78.2152   3
   3   5   3 506.600 105.188  13
  -3  -5  -3 433.570 94.1292  22
   3   5   3 500.013 55.4353  11
   3   5   3 600.653 93.0232   1
  -3  -5  -3 355.294 82.3566  21
   3   5   3 422.279 56.6203   5
   3   5   3 586.352 116.161  17
   3   5   3 425.834 103.508   6
  -3  -5  -3 486.320 109.637   2
  -3  -5  -3 516.866 93.1876  10
   3   5   4 4425.03 324.678  14
  -3  -5  -4 4901.57 277.048   3
   3   5   4 4427.59 301.383  13
   3   5   4 4928.46 357.725   6
  -3  -5  -4 4312.75 291.790  23
   3   5   4 4530.01 176.274  11
   3   5   4 4220.97 162.227   5
  -3  -5  -4 4650.18 297.362  19
   3   5   4 4540.96 309.572  17
  -3  -5  -4 4706.40 301.476  21
  -3  -5  -4 5043.10 298.221  10
   3   5   4 4780.87 271.970   1
  -3  -5  -4 4528.59 228.761   8
  -3  -5  -4 4717.47 304.572  22
  -3  -5  -4 4744.70 308.076   2
   3   5   4 4646.61 323.361  15
   3   5   5 3259.51 268.560  13
   3   5   5 3097.73 277.117  14
  -3  -5  -5 3315.84 247.245   3
   3   5   5 3025.98 290.464   6
  -3  -5  -5 3484.08 269.243  23
  -3  -5  -5 3168.84 260.445  22
  -3  -5  -5 3363.39 262.869  21
   3   5   5 3790.04 244.047  12
   3   5   5 3295.75 161.609  11
  -3  -5  -5 3517.70 265.312  19
  -3  -5  -5 3116.70 244.595   2
  -3  -5  -5 3519.16 265.800  10
   3   5   5 2842.63 255.244  17
  -3  -5  -5 3833.18 220.446   8
   3   5   5 3367.15 283.725  15
   3   5   5 3448.33 237.915   1
   3   5   6 6009.28 431.910   7
   3   5   6 5195.92 371.389  14
   3   5   6 5584.90 358.343  13
  -3  -5  -6 5570.48 357.985  22
  -3  -5  -6 5767.23 364.586  21
   3   5   6 6041.61 332.712  12
   3   5   6 5623.52 366.222  17
  -3  -5  -6 5642.86 354.728  19
  -3  -5  -6 5642.50 319.942   2
  -3  -5  -6 6044.83 364.434  10
   3   5   6 6115.24 337.203   1
  -3  -5  -6 5846.30 364.637  23
  -3  -5  -6 6317.00 302.726   8
   3   5   6 5368.16 368.454  15
   3   5   6 5799.24 248.124  11
   3   5   7 28.9297 47.7153  15
  -3  -5  -7 50.5656 29.4295   2
   3   5   7 131.923 61.4775  14
   3   5   7-21.0447 55.1693   7
  -3  -5  -7 74.7081 52.2012  23
  -3  -5  -7 64.6067 48.7288  22
   3   5   7 34.9881 43.1985  13
  -3  -5  -7-7.54168 37.0587  19
  -3  -5  -7 40.4731 39.2420  21
   3   5   7 87.5118 56.6673  12
   3   5   7 33.5050 24.4886  11
  -3  -5  -7 78.3760 57.0495  10
   3   5   7 91.1335 60.2343  17
   3   5   7 101.783 56.2658   1
  -3  -5  -7 129.717 58.5038   8
   3   5   8 8599.71 537.593   7
   3   5   8 7330.87 478.787  14
  -3  -5  -8 7550.83 456.244  22
   3   5   8 7433.01 449.646  13
  -3  -5  -8 8152.99 460.457  19
   3   5   8 7940.90 362.411  11
  -3  -5  -8 8285.18 470.190  21
   3   5   8 7718.95 463.795  17
  -3  -5  -8 8585.22 497.076  10
   3   5   8 8361.90 450.670   1
  -3  -5  -8 7675.78 398.747   8
  -3  -5  -8 8303.26 473.770  23
   3   5   8 7260.71 466.773  15
   3   5   8 8376.28 428.997  12
   3   5   9 7399.41 516.007   7
   3   5   9 7202.28 490.422  14
  -3  -5  -9 8663.88 497.170  23
  -3  -5  -9 8017.71 510.605  10
  -3  -5  -9 7969.20 480.087  21
  -3  -5  -9 7699.68 476.029  22
  -3  -5  -9 8391.41 483.029  19
   3   5   9 6700.25 449.732  13
   3   5   9 6921.19 464.824  17
   3   5   9 8403.00 452.459  12
   3   5   9 8114.65 474.103   1
  -3  -5  -9 7217.03 407.061   8
   3   5   9 6960.95 477.148  15
   3   5  10-117.666 83.6316   7
   3   5  10-7.03497 43.0709   1
   3   5  10 128.518 57.7994  12
  -3  -5 -10 5.14171 64.2672  10
   3   5  11-12.5446 71.3009   7
   3   5  11 128.490 88.3955   1
   3   5  11 105.937 71.1021  12
  -3  -5 -11 217.422 107.014  10
   3   6  -8 253.411 106.490  20
   3   6  -8 352.508 125.946   5
  -3  -6   8 303.163 123.737   4
   3   6  -8 210.431 98.1135   8
   3   6  -7 772.186 178.708  20
   3   6  -7 1178.63 203.284   5
  -3  -6   7 1422.47 244.059   4
   3   6  -7 777.572 144.687   8
   3   6  -6 688.391 166.169  20
   3   6  -6 539.188 136.265   5
  -3  -6   6 588.475 144.093   4
   3   6  -6 536.885 125.429   8
   3   6  -5-33.8579 69.9369  20
   3   6  -5-9.79967 64.7226   5
  -3  -6   5-96.5067 65.9547   2
  -3  -6   5 4.84842 81.7440   4
   3   6  -5 93.9833 55.5742   8
   3   6  -4-17.1722 53.3887  20
  -3  -6   4 42.6914 44.8631  21
   3   6  -4 32.6300 49.8308  19
   3   6  -4-8.73470 45.9920  13
   3   6  -4-12.5452 38.3820   5
   3   6  -4 67.1155 63.0086  18
   3   6  -4 76.4992 62.0360  17
  -3  -6   4 10.0427 48.7334   2
  -3  -6   4-50.3131 68.4896   4
   3   6  -4-9.36756 54.5562  15
   3   6  -3 29861.5 1045.01  17
   3   6  -3 30791.3 975.516   5
  -3  -6   3 31156.4 941.078  21
   3   6  -3 31495.4 1066.46  20
   3   6  -3 31534.6 1063.27  13
   3   6  -3 30772.7 1049.77  18
  -3  -6   3 31673.4 759.501   9
  -3  -6   3 28649.3 1035.49   2
   3   6  -3 30686.2 1105.95  15
   3   6  -2 25597.0 983.115  14
   3   6  -2 27275.3 770.315   6
  -3  -6   2 26027.9 849.042  23
  -3  -6   2 26931.1 850.660  21
   3   6  -2 27896.5 860.354   5
   3   6  -2 26657.0 938.128  20
  -3  -6   2 25818.2 955.631   2
   3   6  -2 26352.3 938.431  18
  -3  -6   2 26527.0 648.284   9
   3   6  -2 25766.9 935.236  17
  -3  -6   2 29564.6 886.435   4
  -3  -6   2 24418.9 692.430  16
   3   6  -2 25860.7 932.291  13
   3   6  -2 26248.4 980.700  15
   3   6  -1 1591.79 231.891  14
   3   6  -1 1900.43 184.975   6
  -3  -6   1 1683.55 223.953   2
   3   6  -1 1547.46 207.353  13
  -3  -6   1 1727.94 190.632  23
  -3  -6   1 1570.44 179.475  21
   3   6  -1 1822.63 176.288   1
   3   6  -1 1764.87 209.581  20
   3   6  -1 1864.12 184.336   5
   3   6  -1 1835.66 224.923  18
  -3  -6   1 1980.26 137.905   9
   3   6  -1 1767.15 219.427  17
  -3  -6   1 1646.67 176.483   4
  -3  -6   1 1895.43 163.190  16
   3   6  -1 1596.72 221.154  15
  -3  -6   1 1661.56 169.456   3
  -3  -6   0 10546.4 430.414   3
   3   6   0 9118.79 550.541  14
   3   6   0 10060.7 464.012   6
  -3  -6   0 10125.8 484.025  23
   3   6   0 9843.59 520.241  13
  -3  -6   0 10036.6 481.176  22
  -3  -6   0 9964.03 475.470  21
   3   6   0 10589.8 436.832   1
   3   6   0 10298.3 431.437   5
  -3  -6   0 10609.4 471.741  10
   3   6   0 9561.79 518.045  18
  -3  -6   0 10217.2 357.506   9
   3   6   0 9774.80 525.171  17
  -3  -6   0 11257.1 457.597   4
  -3  -6   0 9879.76 425.555  16
   3   6   0 10204.0 557.668  15
  -3  -6   0 9633.49 539.477   2
  -3  -6  -1 9226.29 395.646   3
  -3  -6  -1 9545.84 468.800  22
   3   6   1 9128.10 532.045  14
   3   6   1 9216.73 461.974   6
   3   6   1 9106.08 491.926  13
  -3  -6  -1 8447.97 497.514   2
  -3  -6  -1 9669.35 464.479  21
   3   6   1 8905.82 379.841   5
   3   6   1 9068.71 401.858   1
   3   6   1 9550.87 507.208  17
  -3  -6  -1 10076.2 408.415   4
  -3  -6  -1 8910.51 453.975  23
   3   6   1 9300.87 523.772  15
  -3  -6  -1 9105.36 429.878  10
   3   6   2 2048.44 246.929  14
  -3  -6  -2 2258.53 187.291   3
   3   6   2 2432.65 241.310   6
  -3  -6  -2 2285.74 225.175  23
  -3  -6  -2 2007.97 192.300  10
   3   6   2 1671.88 207.939  13
  -3  -6  -2 2191.10 221.647  22
  -3  -6  -2 1917.02 232.869   2
  -3  -6  -2 1937.25 200.534  19
  -3  -6  -2 2145.37 216.156  21
   3   6   2 2202.90 191.291   1
   3   6   2 2087.03 161.129   5
   3   6   2 1987.58 226.973  17
   3   6   2 2394.67 257.032  15
   3   6   3 119.970 73.3180  15
  -3  -6  -3 105.289 54.7113   3
   3   6   3 41.3651 50.7960  14
   3   6   3 63.7087 32.2154  11
  -3  -6  -3 93.4333 62.8661  22
   3   6   3-27.2726 51.5516   6
   3   6   3 23.8137 40.1444   1
  -3  -6  -3 161.343 68.6589  19
  -3  -6  -3 96.1598 59.1080  23
   3   6   3 92.7315 35.4916   5
  -3  -6  -3 61.2347 54.2521  10
   3   6   3 72.3128 77.6097  17
  -3  -6  -3 47.8997 47.3102  21
   3   6   3 59.9377 45.5716  13
  -3  -6  -3 45.8663 51.5776   2
   3   6   4 22599.0 572.674   5
   3   6   4 24207.2 921.689  14
  -3  -6  -4 26077.3 793.744   3
  -3  -6  -4 25233.6 846.838  23
   3   6   4 28917.0 758.008  12
  -3  -6  -4 25793.5 862.693  22
   3   6   4 26617.7 782.974   1
  -3  -6  -4 23912.7 826.494  21
  -3  -6  -4 23152.2 836.126   2
   3   6   4 25627.3 598.008  11
  -3  -6  -4 26536.0 824.875  10
   3   6   4 23613.9 863.300  17
  -3  -6  -4 24952.9 828.658  19
   3   6   4 23542.0 896.300  15
   3   6   4 23890.5 860.906  13
   3   6   5 53093.0 1521.97  14
   3   6   5 57601.5 1564.24   7
  -3  -6  -5 56384.8 1392.19   3
  -3  -6  -5 56873.3 1447.58  22
  -3  -6  -5 54955.5 1426.18  23
  -3  -6  -5 54468.5 1417.24  21
   3   6   5 62608.7 1330.75  12
   3   6   5 54318.0 1109.01  11
  -3  -6  -5 55567.2 1417.26  19
  -3  -6  -5 50136.6 1361.08   2
  -3  -6  -5 58297.7 1415.94  10
   3   6   5 60667.7 1359.37   1
   3   6   5 53104.3 1453.00  17
  -3  -6  -5 52210.9 1161.23   8
   3   6   5 54680.2 1451.14  13
   3   6   5 50963.4 1477.20  15
   3   6   6 4326.67 369.218  14
   3   6   6 5126.74 394.846   7
  -3  -6  -6 4354.82 328.762   3
  -3  -6  -6 4250.44 329.813  23
  -3  -6  -6 4645.27 345.817  22
  -3  -6  -6 4175.12 327.233  21
   3   6   6 4723.05 301.450  12
  -3  -6  -6 3941.50 315.343  19
  -3  -6  -6 4017.61 296.502   2
   3   6   6 4477.49 224.941  11
  -3  -6  -6 4610.86 341.469  10
   3   6   6 4529.02 305.072   1
   3   6   6 4194.07 346.225  17
  -3  -6  -6 4672.89 254.092   8
   3   6   6 4599.08 352.169  13
   3   6   6 4119.98 353.363  15
   3   6   7 909.027 169.652  15
  -3  -6  -7 1088.82 168.479  21
  -3  -6  -7 978.364 166.670  22
   3   6   7 806.055 162.920  14
   3   6   7 1047.83 186.375   7
   3   6   7 852.719 156.202  13
  -3  -6  -7 1041.30 168.450   3
   3   6   7 932.627 141.007   1
   3   6   7 1065.19 151.078  12
   3   6   7 783.578 103.237  11
  -3  -6  -7 955.586 138.807   2
  -3  -6  -7 1080.50 170.148  23
  -3  -6  -7 811.708 151.664  19
  -3  -6  -7 934.272 161.867  10
   3   6   7 932.776 164.661  17
  -3  -6  -7 842.059 115.587   8
   3   6   8 26.9992 52.3916  15
   3   6   8-55.6734 64.1820  14
   3   6   8 6.24335 65.7463   7
  -3  -6  -8-40.5296 53.7852  23
   3   6   8 110.392 68.8335  13
  -3  -6  -8-67.9047 54.2659  21
   3   6   8 10.5816 42.7953  12
  -3  -6  -8 154.503 83.5985  10
  -3  -6  -8-149.187 69.8556  19
   3   6   8-41.1298 45.2890  17
  -3  -6  -8 13.9801 52.9508  22
   3   6   8-65.3796 53.3233   1
  -3  -6  -8-27.9503 84.1542   3
   3   6   9 20.1859 54.9920  15
   3   6   9 70.9286 55.3105   1
   3   6   9 47.5862 66.7794   7
   3   6   9-39.7837 58.4677  14
   3   6   9 86.2442 65.2869  13
  -3  -6  -9-48.5001 63.5406   3
  -3  -6  -9-5.09996 65.2050  10
   3   6   9 37.8140 50.8079  17
   3   6   9 33.9128 48.6504  12
   3   6  10 553.413 134.822   1
   3   6  10 321.517 122.751   7
  -3  -6 -10 491.621 151.765   3
   3   6  10 484.319 127.771  12
  -3  -6 -10 481.087 142.664  10
   3   6  11 31.6900 66.4665   7
   3   6  11 393.328 141.218   1
   3   6  11 424.678 114.767  12
  -3  -6 -11 468.533 157.489   3
  -3  -6 -11 608.303 169.872  10
   3   7  -7 6902.89 560.524  20
   3   7  -7 6807.12 533.723   5
  -3  -7   7 6825.09 549.138   4
   3   7  -7 5560.79 427.138   8
   3   7  -6 3393.29 377.126  20
   3   7  -6 3714.60 372.317   5
  -3  -7   6 4149.95 405.060   4
   3   7  -6 3183.63 301.343   8
  -3  -7   5 232.453 82.7429  21
   3   7  -5 223.504 103.195  20
   3   7  -5 419.545 126.183   5
  -3  -7   5 331.240 115.968   2
  -3  -7   5 238.833 96.7762   4
   3   7  -5 245.786 83.7470   8
   3   7  -4 2475.57 309.617  13
  -3  -7   4 2537.15 261.051  21
   3   7  -4 2603.92 280.064   5
   3   7  -4 2943.27 327.197  20
  -3  -7   4 2465.43 303.531   2
   3   7  -4 3010.41 325.626  19
   3   7  -4 2518.47 309.275  18
   3   7  -4 2325.90 301.677  17
  -3  -7   4 2964.44 306.964   4
   3   7  -4 2861.62 351.694  15
  -3  -7   3 2498.27 253.976  21
   3   7  -3 2296.97 293.577  13
   3   7  -3 2676.79 299.276  20
  -3  -7   3 2003.46 272.427   2
   3   7  -3 2343.27 251.259   5
   3   7  -3 2691.30 299.745  19
   3   7  -3 2599.83 300.748  18
   3   7  -3 2317.81 286.824  17
  -3  -7   3 2862.40 280.147   4
   3   7  -3 2354.63 310.035  15
   3   7  -2 79.5495 76.9647  14
   3   7  -2-7.76987 37.9336   5
  -3  -7   2-29.8818 43.6053  23
  -3  -7   2 159.481 80.0202  21
   3   7  -2 49.1662 51.1252  20
   3   7  -2 23.2121 78.1545  17
   3   7  -2 110.422 84.3498  13
   3   7  -2 8.85925 60.5113  18
  -3  -7   2 40.0976 78.0147   2
  -3  -7   2 42.4411 39.6419   4
  -3  -7   2 32.7964 38.9845   3
   3   7  -2 101.447 66.5378  15
   3   7  -1 5693.79 435.934  13
   3   7  -1 5774.52 474.796  14
   3   7  -1 5990.27 355.285   6
  -3  -7   1 5720.57 391.334  23
  -3  -7   1 5733.28 387.795  21
   3   7  -1 5671.47 350.746   1
   3   7  -1 6111.14 370.268   5
   3   7  -1 5587.21 435.717  18
  -3  -7   1 6750.55 392.287   4
  -3  -7   1 5952.53 456.676   2
   3   7  -1 5900.31 449.709  17
  -3  -7   1 5680.50 331.671  16
   3   7  -1 5432.93 453.861  15
   3   7  -1 5919.06 420.590  20
  -3  -7   1 6099.81 370.688   3
   3   7   0 97.9777 90.4911  14
  -3  -7   0 104.103 57.8663  23
  -3  -7   0 183.650 67.9730   3
   3   7   0 82.5520 56.2910  20
   3   7   0 122.973 58.2272   1
   3   7   0 65.6281 69.7696  13
  -3  -7   0 98.6222 53.2906  21
  -3  -7   0 83.7083 44.3519  10
   3   7   0 126.375 58.2992   5
   3   7   0 56.5409 57.3249  18
   3   7   0 72.3358 48.3524   6
   3   7   0 283.299 116.629  17
  -3  -7   0 83.7945 38.1973   9
  -3  -7   0 96.2148 75.6475   2
  -3  -7   0 69.3875 51.2333  16
  -3  -7   0 134.922 68.6877   4
   3   7   0 53.8998 70.9191  15
   3   7   1-110.629 103.669  14
   3   7   1 10.8035 44.0357   6
   3   7   1 20.8631 41.4581   1
  -3  -7  -1 8.70543 47.8155  23
  -3  -7  -1 32.0413 42.6522  21
  -3  -7  -1 11.1983 39.2986   3
   3   7   1-0.54592 49.8441  13
  -3  -7  -1 33.1159 61.6645  10
   3   7   1 9.83691 34.8676   5
   3   7   1-52.2524 62.6184  18
   3   7   1 33.3659 46.8563  17
  -3  -7  -1 26.5219 39.0780  22
  -3  -7  -1-42.1829 62.1676   2
  -3  -7  -1-14.0136 39.2574  16
  -3  -7  -1-14.4688 34.9324   4
   3   7   1 46.2892 66.8224  15
   3   7   2 1009.46 186.289  14
  -3  -7  -2 992.942 157.983  21
  -3  -7  -2 639.080 119.963   3
   3   7   2 808.953 158.461  13
   3   7   2 1062.32 146.087   1
   3   7   2 828.503 115.163   5
  -3  -7  -2 1155.93 157.467  10
  -3  -7  -2 898.986 154.454  23
   3   7   2 1022.16 183.047  18
   3   7   2 979.698 178.031  17
  -3  -7  -2 949.842 158.280  22
  -3  -7  -2 718.661 153.904   2
   3   7   2 905.801 171.397  15
   3   7   3 1916.55 269.295  14
   3   7   3 2186.39 255.385  13
  -3  -7  -3 1995.53 231.453  22
  -3  -7  -3 2190.65 238.848  21
   3   7   3 1870.52 163.103   5
  -3  -7  -3 1819.50 238.444   2
   3   7   3 2431.52 222.948   1
  -3  -7  -3 2291.05 245.955  23
  -3  -7  -3 2034.05 207.128   3
   3   7   3 2294.73 266.146  17
   3   7   3 2310.82 169.315  11
   3   7   3 2204.75 179.778  12
   3   7   3 1698.62 243.303  15
  -3  -7  -3 2609.22 245.767  10
   3   7   4 331.248 120.507  14
  -3  -7  -4 227.332 84.4941  22
  -3  -7  -4 107.402 64.9105  21
   3   7   4 231.110 88.0323  13
  -3  -7  -4 374.095 95.8491   3
   3   7   4 174.279 55.2253  12
   3   7   4 172.338 51.8306  11
  -3  -7  -4 175.015 73.4586  19
  -3  -7  -4 351.195 104.703  10
  -3  -7  -4 316.492 104.455  23
   3   7   4 239.056 97.3491  17
   3   7   4 175.388 69.9339   1
  -3  -7  -4 106.395 61.3876   2
   3   7   4 198.963 105.202  15
   3   7   5 19.2424 52.7680  14
   3   7   5-6.80698 63.2017   7
  -3  -7  -5-24.0976 45.2733  23
   3   7   5-7.71848 39.6071  13
  -3  -7  -5 16.9608 47.5573  21
   3   7   5-21.7747 44.1914  12
   3   7   5 6.07809 26.4324  11
   3   7   5-0.66675 50.6711   1
  -3  -7  -5-18.9874 54.3279  10
  -3  -7  -5 99.4061 68.6635   3
  -3  -7  -5 60.8682 60.4476  22
   3   7   5-24.0188 52.4691  17
  -3  -7  -5-25.5732 46.1509  19
  -3  -7  -5 38.6225 50.5819   2
   3   7   5 43.8721 58.4238  15
   3   7   6 4114.58 391.518  14
   3   7   6 4772.12 398.384   7
  -3  -7  -6 4728.24 365.798   3
   3   7   6 3921.76 351.333  13
  -3  -7  -6 4382.80 363.091  22
  -3  -7  -6 4304.48 354.633  21
   3   7   6 4946.19 314.834  12
  -3  -7  -6 4670.06 364.889  19
  -3  -7  -6 5015.20 375.920  10
   3   7   6 4812.23 329.834   1
  -3  -7  -6 3687.09 309.937   2
   3   7   6 4349.06 380.796  17
  -3  -7  -6 4073.82 348.221  23
   3   7   6 3913.38 371.312  15
   3   7   7 19.7301 52.5449  15
   3   7   7 20.8153 76.8539  14
   3   7   7-33.8139 63.0177   7
   3   7   7 50.3490 57.4467  13
  -3  -7  -7-47.9836 50.7388  21
  -3  -7  -7-113.798 74.2497   3
   3   7   7 75.4952 53.9793  12
  -3  -7  -7 41.1287 58.5886  10
  -3  -7  -7-14.6782 56.6862  22
  -3  -7  -7 44.3868 47.9147  19
  -3  -7  -7 9.67709 41.5143  23
   3   7   7 11.5019 47.6506   1
   3   7   7 74.7747 55.5959  17
  -3  -7  -7 58.5603 56.6611   2
   3   7   8 676.594 163.486  15
   3   7   8 721.564 183.655  14
   3   7   8 732.768 164.873   7
  -3  -7  -8 688.337 152.305  23
   3   7   8 1112.83 165.553  12
  -3  -7  -8 518.123 134.609  21
  -3  -7  -8 692.011 146.777  19
  -3  -7  -8 490.429 128.857  22
  -3  -7  -8 784.986 166.599   3
  -3  -7  -8 782.879 159.232  10
   3   7   8 521.818 139.551  17
   3   7   8 643.314 135.609   1
   3   7   8 655.320 155.250  13
   3   7   9-42.8098 89.2912   7
   3   7   9 74.9504 77.1444  12
  -3  -7  -9 99.1581 81.6377   3
  -3  -7  -9 128.139 92.2675  10
   3   7   9 101.926 56.0747   1
   3   7  10 123.963 85.2057   1
   3   7  10 7.14235 60.1541   7
   3   7  10 17.7613 72.8278  12
  -3  -7 -10-1.25941 56.0091   3
  -3  -7 -10 32.7247 65.5564  10
   3   8  -6 258.608 114.369  20
   3   8  -6 259.594 106.549   5
  -3  -8   6 546.997 161.199   4
   3   8  -6 175.752 64.1872   8
   3   8  -5 150.527 99.7986  13
  -3  -8   5 15.3943 57.0583   2
   3   8  -5 80.0590 80.2963  20
   3   8  -5 0.20029 58.6606  19
   3   8  -5 173.099 102.900   5
   3   8  -5 174.914 124.630  18
   3   8  -5-86.6317 80.8436  17
  -3  -8   5 90.7879 78.2583  21
  -3  -8   5 0.51940 51.0671   4
   3   8  -5 229.868 95.6151  15
   3   8  -5 130.410 61.5851   8
   3   8  -4 202.333 116.222  13
  -3  -8   4 179.202 87.7703  21
   3   8  -4 155.680 79.5398  20
   3   8  -4 609.542 164.488  19
   3   8  -4 120.884 77.5892   5
   3   8  -4 258.614 104.579  18
   3   8  -4 147.740 97.6963  17
  -3  -8   4 188.140 119.981   2
  -3  -8   4 199.783 86.6821   4
   3   8  -4 433.017 171.462  15
   3   8  -4 245.793 70.3395   8
   3   8  -3 5259.18 477.024  13
  -3  -8   3 5567.75 418.725  21
   3   8  -3 6138.80 483.665  20
  -3  -8   3 4412.85 440.892   2
   3   8  -3 5677.42 424.882   5
   3   8  -3 5910.90 486.482  19
   3   8  -3 6136.01 511.920  18
   3   8  -3 5961.12 508.368  17
  -3  -8   3 6843.95 462.344   4
   3   8  -3 5303.60 510.489  15
   3   8  -2-29.1402 70.4492  14
  -3  -8   2 35.1170 45.9539   3
  -3  -8   2-27.1863 44.6543  23
   3   8  -2-56.9116 71.0245  13
   3   8  -2 139.364 76.7880   5
   3   8  -2 42.0958 61.0174  20
   3   8  -2-183.396 99.8784  18
   3   8  -2 9.40594 88.7521  17
  -3  -8   2-38.4842 52.5226  21
  -3  -8   2 32.7365 65.5662   2
  -3  -8   2 30.6406 55.5620   4
   3   8  -2 104.253 77.4106  15
  -3  -8   1 836.493 186.225   2
   3   8  -1 438.673 153.837  14
  -3  -8   1 852.857 157.499   3
  -3  -8   1 720.979 149.489  23
   3   8  -1 706.704 136.465   1
  -3  -8   1 772.280 154.968  21
   3   8  -1 945.887 198.664  13
   3   8  -1 717.669 171.440  18
   3   8  -1 889.626 155.730   5
   3   8  -1 907.667 174.823  20
   3   8  -1 1076.27 211.503  17
  -3  -8   1 706.706 125.695  16
  -3  -8   1 883.980 154.342   4
   3   8  -1 747.362 178.789  15
   3   8   0 27.4543 59.3100  17
   3   8   0 105.952 69.6118  14
   3   8   0 375.589 115.946  20
  -3  -8   0 261.373 100.745  23
  -3  -8   0 380.992 109.598  21
   3   8   0 328.097 90.0663   5
  -3  -8   0 381.094 103.434  10
   3   8   0 310.366 121.040  18
   3   8   0 263.093 84.3330   1
  -3  -8   0 314.902 100.916   3
   3   8   0 171.764 76.6898  13
  -3  -8   0 131.700 84.3338   2
  -3  -8   0 218.463 73.3439  16
  -3  -8   0 155.408 76.8787   4
   3   8   0 119.029 76.5515  15
   3   8   1 890.143 196.011  14
   3   8   1 795.466 172.026  13
  -3  -8  -1 847.815 159.021  23
  -3  -8  -1 1000.64 156.771   3
   3   8   1 954.310 159.652  20
  -3  -8  -1 889.680 160.656  21
   3   8   1 906.433 140.058   5
   3   8   1 892.023 186.592  18
   3   8   1 948.476 157.445   1
   3   8   1 1140.83 209.214  17
  -3  -8  -1 1096.76 175.560  10
  -3  -8  -1 870.412 193.858   2
  -3  -8  -1 909.488 159.610  16
  -3  -8  -1 945.406 151.319   4
   3   8   1 1255.70 236.053  15
   3   8   2 6920.93 547.470  14
  -3  -8  -2 7112.95 430.835   3
   3   8   2 6551.80 493.635  13
  -3  -8  -2 5989.35 432.777  23
  -3  -8  -2 6612.94 451.548  22
   3   8   2 7955.98 345.319  12
   3   8   2 6530.48 429.022  20
  -3  -8  -2 5973.12 480.390   2
   3   8   2 6677.34 374.344   5
   3   8   2 6877.98 419.005   1
   3   8   2 6362.37 489.612  18
  -3  -8  -2 6922.34 456.949  21
   3   8   2 6152.30 482.036  17
  -3  -8  -2 8084.23 472.449  10
  -3  -8  -2 6735.36 448.678  16
   3   8   2 6884.87 534.100  15
  -3  -8  -3 4528.02 342.767   3
  -3  -8  -3 3948.59 348.376  22
  -3  -8  -3 3715.81 336.523  21
   3   8   3 4297.04 261.028  12
  -3  -8  -3 3785.30 343.238  23
  -3  -8  -3 4069.84 389.903   2
  -3  -8  -3 4496.55 351.494  10
   3   8   3 4185.14 323.931   1
   3   8   3 3712.45 372.645  18
   3   8   3 3398.85 387.052  14
   3   8   3 4576.57 265.089  11
   3   8   3 3622.93 367.661  17
   3   8   3 3474.88 358.364  13
   3   8   3 4058.18 405.082  15
   3   8   4 2673.09 338.370  14
   3   8   4 3017.84 312.935   7
  -3  -8  -4 3343.59 304.769   3
   3   8   4 2718.93 313.881  13
  -3  -8  -4 3222.84 303.627  10
  -3  -8  -4 2930.50 304.389  23
   3   8   4 3483.28 244.663  12
   3   8   4 3570.27 223.075  11
  -3  -8  -4 2966.03 306.495  22
   3   8   4 3556.58 295.741   1
   3   8   4 3070.11 340.214  18
   3   8   4 2670.05 312.672  17
  -3  -8  -4 2162.78 283.098   2
   3   8   4 2859.41 345.158  15
  -3  -8  -4 3280.87 318.123  21
   3   8   5 443.232 151.120  14
   3   8   5 730.760 157.901   7
   3   8   5 639.514 113.391  12
  -3  -8  -5 646.848 140.927  23
  -3  -8  -5 657.149 155.546  22
   3   8   5 529.703 143.657  13
  -3  -8  -5 666.781 142.796   3
  -3  -8  -5 555.142 132.156  21
  -3  -8  -5 430.049 128.203   2
   3   8   5 609.372 127.658   1
   3   8   5 385.821 129.677  18
   3   8   5 442.792 135.582  17
  -3  -8  -5 706.921 152.895  10
   3   8   5 376.042 125.421  15
  -3  -8  -6 1267.54 205.724  22
   3   8   6 1178.58 230.490  14
   3   8   6 1600.02 230.777   7
   3   8   6 1329.33 226.497  17
  -3  -8  -6 1476.79 227.425  23
   3   8   6 1441.27 234.233  13
  -3  -8  -6 1341.26 208.810   3
   3   8   6 1510.87 178.638  12
  -3  -8  -6 1098.77 190.636  21
  -3  -8  -6 1650.12 228.897  10
   3   8   6 1355.87 194.039   1
  -3  -8  -6 1128.36 190.957   2
   3   8   6 1324.06 232.620  15
   3   8   7 14504.4 783.446  13
   3   8   7 17748.8 811.882   7
   3   8   7 14431.8 842.185  14
  -3  -8  -7 17035.7 814.699   3
  -3  -8  -7 16626.0 794.069  23
  -3  -8  -7 16381.8 789.897  22
   3   8   7 19010.4 699.594  12
  -3  -8  -7 16842.7 790.407  21
  -3  -8  -7 17902.5 804.241  10
   3   8   7 16746.0 712.561   1
   3   8   7 14044.4 783.155  17
   3   8   7 14073.4 811.141  15
   3   8   8 315.228 128.694  14
   3   8   8 194.388 87.0132   7
  -3  -8  -8 330.324 113.688  23
   3   8   8 305.483 122.747  13
   3   8   8 310.509 93.2876  12
  -3  -8  -8 254.355 98.2803  21
  -3  -8  -8 326.859 115.523  22
  -3  -8  -8 408.213 143.936   3
  -3  -8  -8 282.838 109.757  10
   3   8   8 261.520 99.2857   1
   3   8   8 187.985 91.2065  17
   3   8   8 347.192 133.728  15
   3   8   9 519.112 133.058  12
   3   8   9 484.556 153.636   7
  -3  -8  -9 651.187 165.432  10
  -3  -8  -9 451.198 147.021   3
   3   8   9 564.055 137.795   1
   3   9  -5 145.374 106.963  13
  -3  -9   5 244.903 103.089  21
   3   9  -5 204.065 109.992  20
   3   9  -5 263.376 143.762  19
   3   9  -5 118.882 59.9426   5
   3   9  -5 190.416 119.908  18
   3   9  -5 450.550 162.675  17
  -3  -9   5 266.262 130.096   2
  -3  -9   5 402.043 136.336   4
   3   9  -5 101.311 105.335  15
   3   9  -5 54.8832 46.3135   8
   3   9  -4 763.645 189.749  20
   3   9  -4 651.010 167.428   5
   3   9  -4 767.886 202.095  19
  -3  -9   4 667.121 162.193  21
   3   9  -4 647.393 184.802  18
   3   9  -4 875.266 225.585  13
   3   9  -4 509.522 171.710  17
  -3  -9   4 584.393 174.295   2
  -3  -9   4 924.802 191.314   4
   3   9  -4 908.427 237.081  15
   3   9  -4 630.289 127.715   8
  -3  -9   3 3516.21 357.699  21
   3   9  -3 3658.14 431.414  13
   3   9  -3 4065.44 419.372  20
  -3  -9   3 3261.72 404.518   2
   3   9  -3 3684.51 369.659   5
   3   9  -3 3409.87 403.144  19
   3   9  -3 4224.09 459.591  18
   3   9  -3 3270.83 408.458  17
  -3  -9   3 4279.00 390.691   4
   3   9  -3 3084.67 262.542   8
   3   9  -3 3673.28 462.863  15
  -3  -9   2 1165.96 198.980  21
   3   9  -2 973.931 170.159   1
   3   9  -2 902.852 191.110  20
   3   9  -2 835.370 168.688   5
   3   9  -2 1067.97 235.777  18
   3   9  -2 976.268 223.263  13
   3   9  -2 968.895 221.009  17
  -3  -9   2 812.694 196.977   2
  -3  -9   2 1359.55 209.375   4
   3   9  -2 1260.83 273.992  15
   3   9  -1 1591.86 303.855  14
  -3  -9   1 1644.57 243.509  23
   3   9  -1 1768.94 293.884  13
  -3  -9   1 1536.68 229.360  21
   3   9  -1 1693.76 255.362  20
   3   9  -1 1774.14 288.552  18
   3   9  -1 1748.76 289.969  17
  -3  -9   1 1864.08 238.706   4
   3   9  -1 1638.17 219.456   1
  -3  -9   1 1714.38 296.404   2
   3   9  -1 1516.92 220.212   5
   3   9  -1 1617.94 296.260  15
   3   9   0 453.335 161.193  14
  -3  -9   0 923.538 178.333  23
   3   9   0 612.444 163.030  13
   3   9   0 746.361 151.075   1
  -3  -9   0 718.773 161.094  21
   3   9   0 606.282 147.743  20
   3   9   0 735.998 148.267   5
  -3  -9   0 801.233 157.382  10
   3   9   0 876.105 206.054  18
   3   9   0 816.284 189.573  17
  -3  -9   0 411.212 149.530   2
  -3  -9   0 587.537 129.327  16
  -3  -9   0 1019.97 175.818   4
   3   9   0 428.400 153.001  15
   3   9   1 782.419 208.680  14
   3   9   1 508.405 159.024  18
   3   9   1 479.845 129.763  20
  -3  -9  -1 514.157 131.956   3
  -3  -9  -1 469.212 129.035  23
   3   9   1 715.838 179.122  13
  -3  -9  -1 551.904 137.043  21
   3   9   1 562.493 132.828   1
   3   9   1 604.297 130.977   5
  -3  -9  -1 822.871 163.807  10
   3   9   1 566.269 172.873  17
  -3  -9  -1 562.004 168.734   2
  -3  -9  -1 677.615 149.059  16
  -3  -9  -1 637.825 144.400   4
   3   9   1 594.741 172.050  15
   3   9   2 202.294 98.5338  14
  -3  -9  -2 323.102 111.892   3
   3   9   2 339.787 130.708  18
  -3  -9  -2 218.394 91.5261  23
   3   9   2 240.353 110.590  13
  -3  -9  -2 278.243 102.383  21
   3   9   2 385.912 116.396   1
   3   9   2 306.854 106.111  20
  -3  -9  -2 319.481 105.799  10
   3   9   2 244.762 117.388  17
   3   9   2 254.287 75.1240  11
  -3  -9  -2 302.098 127.675   2
  -3  -9  -2 266.517 103.294  16
   3   9   2 194.258 102.932  15
   3   9   3 2956.55 393.451  14
  -3  -9  -3 3590.61 338.022   3
  -3  -9  -3 3205.25 338.982  23
  -3  -9  -3 2790.56 313.540  21
   3   9   3 2940.42 361.354  13
  -3  -9  -3 3095.49 334.253  22
   3   9   3 3180.12 305.486  20
  -3  -9  -3 3025.48 358.005   2
   3   9   3 3835.97 266.953  11
   3   9   3 3589.89 326.425   1
   3   9   3 2806.03 354.041  18
  -3  -9  -3 3511.45 333.924  10
   3   9   3 3307.33 383.488  17
  -3  -9  -3 3455.84 355.585  16
   3   9   3 2972.24 381.450  15
   3   9   4 2381.80 351.619  14
  -3  -9  -4 2202.17 268.547   3
  -3  -9  -4 2229.27 283.007  22
   3   9   4 2252.22 310.581  13
  -3  -9  -4 2121.87 280.069  23
   3   9   4 2527.04 211.360  12
   3   9   4 1798.28 223.905  20
  -3  -9  -4 2362.89 276.122  10
   3   9   4 2096.26 248.122   1
  -3  -9  -4 2161.78 296.626  16
   3   9   4 1972.25 298.543  18
   3   9   4 2049.37 300.653  17
  -3  -9  -4 1672.30 260.941   2
  -3  -9  -4 1966.31 264.366  21
   3   9   4 1855.54 301.574  15
   3   9   5 1393.01 270.723  14
  -3  -9  -5 1290.87 217.866  22
   3   9   5 1359.82 243.014  13
  -3  -9  -5 1273.76 219.945  23
  -3  -9  -5 1295.01 210.093   3
  -3  -9  -5 1377.00 220.471  10
   3   9   5 1322.85 245.389  18
   3   9   5 1529.60 215.135   1
   3   9   5 1141.30 224.136  17
   3   9   5 1402.34 169.601  12
  -3  -9  -5 1256.01 225.648   2
  -3  -9  -5 1474.57 230.989  21
   3   9   5 1341.52 255.769  15
   3   9   6 207.109 107.870  14
   3   9   6 300.234 120.788  13
  -3  -9  -6 261.734 98.4686  22
  -3  -9  -6 173.168 95.0798   3
  -3  -9  -6 64.0903 69.3318  21
  -3  -9  -6 161.418 90.4010  10
   3   9   6 259.580 93.8918   1
   3   9   6 179.262 104.766  18
   3   9   6 347.175 92.8900  12
   3   9   6 165.442 87.2057  17
  -3  -9  -6 270.236 101.813  23
  -3  -9  -6 282.819 116.043   2
   3   9   6 107.318 88.9348  15
  -3  -9  -7 95.5536 71.1995  22
  -3  -9  -7 245.180 107.700  10
   3   9   7 145.987 107.073  14
  -3  -9  -7 155.606 90.9532  23
   3   9   7 106.793 51.9676  12
   3   9   7 93.3771 83.0299  18
  -3  -9  -7 23.1417 48.3551  21
   3   9   7 134.801 79.6448   1
   3   9   7 151.567 96.7202  13
  -3  -9  -7 98.0701 81.1973   3
   3   9   7 94.1786 83.5072  17
   3   9   7 129.216 119.069  15
  -3  -9  -8 255.521 108.611  21
   3   9   8-168.681 112.734  14
   3   9   8 273.962 119.324  13
  -3  -9  -8 169.141 79.8030  22
  -3  -9  -8 322.462 129.033   3
   3   9   8 173.629 80.5770  12
   3   9   8 43.6771 69.6480  18
   3   9   8-2.90351 82.4948   1
   3   9   8 74.4092 88.9642  17
  -3  -9  -8 122.254 56.4163  23
  -3  -9  -8 449.658 139.988  10
   3   9   8 377.186 141.526  15
   3  10  -4 895.473 232.044  13
  -3 -10   4 919.000 203.580  21
   3  10  -4 714.157 174.177   1
   3  10  -4 897.107 214.485  20
   3  10  -4 782.059 216.982  19
   3  10  -4 844.684 202.279   5
   3  10  -4 335.804 148.726  18
   3  10  -4 1052.66 259.131  17
  -3 -10   4 782.608 223.421   2
  -3 -10   4 902.807 195.174   4
   3  10  -4 727.036 226.806  15
  -3 -10   3-181.254 100.909  21
   3  10  -3 170.218 132.769  13
   3  10  -3-181.991 105.533  20
   3  10  -3-74.3237 119.814  19
   3  10  -3-46.3189 87.7563  18
   3  10  -3-15.5299 51.9732   1
   3  10  -3-10.8967 114.776  17
   3  10  -3-23.8260 67.3878   5
  -3 -10   3 23.4192 78.7973   2
  -3 -10   3-28.2496 65.8104   4
   3  10  -3-64.5650 146.536  15
   3  10  -2 1376.49 286.323  13
  -3 -10   2 1274.18 229.576  21
   3  10  -2 1647.85 244.600   1
   3  10  -2 1597.73 265.455  20
   3  10  -2 1485.01 284.686  19
   3  10  -2 1569.31 298.573  18
   3  10  -2 1540.03 299.471  17
  -3 -10   2 1607.73 302.862   2
   3  10  -2 1803.89 267.084   5
  -3 -10   2 1938.01 272.371   4
   3  10  -2 1682.49 336.060  15
   3  10  -1 999.700 241.452  13
   3  10  -1 1435.64 227.228   1
  -3 -10   1 1303.75 234.322  21
   3  10  -1 1397.44 243.392  20
   3  10  -1 1283.68 219.117   5
   3  10  -1 1601.87 306.625  18
   3  10  -1 1694.75 309.652  17
  -3 -10   1 994.971 244.753   2
  -3 -10   1 1670.97 242.791   4
   3  10  -1 1361.49 295.663  15
   3  10   0 2278.68 385.114  14
  -3 -10   0 2504.46 301.554  10
  -3 -10   0 2220.28 302.400  23
   3  10   0 1972.75 329.646  13
  -3 -10   0 2654.30 376.968   2
  -3 -10   0 2580.03 317.572  21
   3  10   0 2271.37 302.228  20
   3  10   0 2010.01 260.156   5
   3  10   0 2534.44 292.854   1
   3  10   0 2265.56 353.692  18
   3  10   0 2175.80 349.394  17
  -3 -10   0 3081.20 319.523   4
  -3 -10   0 1991.29 267.075  16
   3  10   0 1822.57 342.930  15
   3  10   1 1671.53 316.953  14
  -3 -10  -1 2241.14 304.240  23
   3  10   1 2452.37 303.853  20
  -3 -10  -1 2386.13 309.728  21
   3  10   1 2599.24 293.638   1
   3  10   1 2360.23 354.123  13
   3  10   1 2548.83 285.182   5
  -3 -10  -1 2536.11 306.674  10
   3  10   1 2625.82 376.996  18
   3  10   1 2487.97 367.843  17
  -3 -10  -1 3306.20 324.470   4
  -3 -10  -1 2332.99 290.312  16
  -3 -10  -1 2291.05 347.979   2
   3  10   1 2160.60 354.365  15
   3  10   2-155.166 121.113  14
  -3 -10  -2 151.258 86.0129  23
   3  10   2 79.9286 65.2812  20
   3  10   2-52.1272 58.2364   1
   3  10   2 18.6022 85.6857  13
  -3 -10  -2-5.98185 45.9941  21
   3  10   2-87.7294 91.4604  18
   3  10   2 96.2981 78.7214  17
  -3 -10  -2 16.0061 54.7603  10
  -3 -10  -2 23.3134 84.1848   2
  -3 -10  -2 5.55626 51.3905  16
   3  10   2 154.724 114.054  15
   3  10   3 2154.06 353.655  14
  -3 -10  -3 1880.93 277.382  23
  -3 -10  -3 2019.90 281.142  21
  -3 -10  -3 1882.83 265.161   3
   3  10   3 1917.68 254.254   1
  -3 -10  -3 2328.30 292.936  10
   3  10   3 1700.78 295.152  18
   3  10   3 2100.35 334.322  17
   3  10   3 1448.31 267.323  13
  -3 -10  -3 2107.86 298.137  16
  -3 -10  -3 1481.83 277.885   2
   3  10   3 1910.20 340.384  15
  -3 -10  -4 3415.23 357.658   3
   3  10   4 2679.56 390.014  14
  -3 -10  -4 2733.54 333.701  21
   3  10   4 2784.56 371.335  13
  -3 -10  -4 2803.84 344.559  23
  -3 -10  -4 3520.49 358.337  10
   3  10   4 2748.70 303.667   1
   3  10   4 2720.55 380.985  17
   3  10   4 2804.91 378.024  18
  -3 -10  -4 3236.77 379.667  16
  -3 -10  -4 2001.18 312.867   2
   3  10   4 2634.41 384.980  15
   3  10   5 267.158 140.589  14
  -3 -10  -5 84.1419 66.4280  21
   3  10   5 189.695 89.7018   1
   3  10   5 263.285 117.316  13
  -3 -10  -5 134.629 81.3935   3
  -3 -10  -5 173.246 82.9573  10
   3  10   5 465.431 162.809  18
   3  10   5 155.721 113.131  17
  -3 -10  -5 66.8493 59.6942  23
  -3 -10  -5 215.805 117.349  16
  -3 -10  -5 53.0244 66.0179   2
   3  10   5 25.6369 76.8060  15
   3  10   6-12.3673 120.486  14
   3  10   6 56.9498 87.8516  13
  -3 -10  -6-202.107 104.370  21
  -3 -10  -6 24.3555 57.9171  10
   3  10   6-65.5900 66.3000   1
   3  10   6-85.4749 83.9129  18
  -3 -10  -6-12.4657 97.5836   3
  -3 -10  -6 35.4053 66.0848  23
   3  10   6 190.777 120.499  17
  -3 -10  -6 5.63600 61.2958  16
  -3 -10  -6 46.0994 64.8370   2
   3  10   6 10.2640 77.3784  15
   3  10   7 479.826 180.178  14
  -3 -10  -7 798.214 194.086  23
   3  10   7 681.080 200.839  13
  -3 -10  -7 616.223 168.543  21
   3  10   7 736.783 144.437  12
  -3 -10  -7 602.625 157.296  10
   3  10   7 554.480 181.798  18
  -3 -10  -7 752.857 195.061   3
   3  10   7 620.979 185.647  17
  -3 -10  -7 801.401 218.416  16
   3  10   7 835.912 173.987   1
   3  10   7 478.042 177.094  15
   3  11  -2 162.640 94.4859   1
  -3 -11   2 129.866 98.2727  21
   3  11  -2-35.8894 71.8554  20
   3  11  -2 147.390 125.520  19
   3  11  -2 101.249 114.645   5
   3  11  -2-109.080 107.566  18
   3  11  -2-6.40429 72.1950  17
   3  11  -2-158.223 121.933  13
  -3 -11   2 99.7556 100.961   2
  -3 -11   2 140.837 92.9476   4
   3  11  -2-131.728 123.171  15
   3  11  -1 10174.9 814.484  13
  -3 -11   1 9973.07 690.749  21
  -3 -11   1 8816.73 747.381   2
   3  11  -1 10294.1 704.082  20
   3  11  -1 10527.5 680.947   5
   3  11  -1 9559.14 768.770  19
   3  11  -1 9675.84 794.615  18
   3  11  -1 9395.91 792.307  17
   3  11  -1 10022.1 643.286   1
  -3 -11   1 12137.6 704.553   4
   3  11  -1 9384.40 829.715  15
  -3 -11   0 472.100 161.432  21
   3  11   0 438.913 146.849  20
   3  11   0 378.821 134.138   5
   3  11   0 401.297 191.324  13
   3  11   0 544.792 167.367  18
   3  11   0 541.429 146.745   1
   3  11   0 668.946 217.063  17
  -3 -11   0 281.414 145.522   2
  -3 -11   0 303.041 127.602   4
   3  11   0 360.307 178.705  15
   3  11   1 1895.44 364.680  14
  -3 -11  -1 1930.73 302.368  23
   3  11   1 1898.67 350.158  13
  -3 -11  -1 2016.59 309.744  21
   3  11   1 1721.83 270.577  20
   3  11   1 1947.96 278.967   1
  -3 -11  -1 2496.28 323.066  10
   3  11   1 2127.67 353.248  18
   3  11   1 2126.44 363.216  17
  -3 -11  -1 1738.00 337.474   2
  -3 -11  -1 1962.50 288.750  16
   3  11   1 1484.48 319.740  15
   3  11   2 19.2091 95.6163  14
  -3 -11  -2 95.9429 69.5747  23
  -3 -11  -2 123.836 82.0805  21
   3  11   2 53.6424 79.0855   1
   3  11   2 110.473 106.008  13
  -3 -11  -2 217.831 105.801  10
   3  11   2 122.786 106.537  18
   3  11   2 255.824 146.305  17
  -3 -11  -2 100.309 103.767   2
  -3 -11  -2-9.62240 54.1060  16
   3  11   2 16.1278 79.7872  15
   3  11   3 1569.64 333.328  14
  -3 -11  -3 1365.91 259.414  23
   3  11   3 1806.05 329.884  13
  -3 -11  -3 1274.46 241.240  21
   3  11   3 1684.37 256.326   1
  -3 -11  -3 1597.22 257.787  10
   3  11   3 1751.11 329.405  18
  -3 -11  -3 1089.31 260.831   2
  -3 -11  -3 1274.39 249.129  16
   3  11   3 1500.80 307.903  17
   3  11   3 1188.17 285.592  15
   3  11   4 919.483 258.949  14
  -3 -11  -4 1085.12 229.647  23
  -3 -11  -4 1169.86 235.728  21
   3  11   4 993.466 199.080   1
   3  11   4 749.154 218.144  18
   3  11   4 844.236 252.359  15
  -3 -11  -4 1270.67 240.257  10
   3  11   4 1015.00 247.855  17
   3  11   4 931.537 245.159  13
  -3 -11  -4 1111.68 240.497  16
  -3 -11  -4 640.066 191.865   2
  -3 -11  -5 60.5317 90.1130  23
   3  11   5-17.2682 77.7916  14
   3  11   5 108.278 101.287  13
  -3 -11  -5-39.6930 71.6814  21
   3  11   5 50.1592 64.7195   1
  -3 -11  -5 65.2574 73.9985  10
   3  11   5 53.3817 84.6778  18
   3  11   5 197.726 125.431  17
  -3 -11  -5 65.3066 66.5597  16
  -3 -11  -5 52.9601 78.4115   2
   3  11   5 5.74595 97.2036  15
   4  -8   1 5214.48 554.077   3
   4  -8   1 3712.48 379.376  14
  -4   8  -1 4487.71 526.733  13
  -4   8  -1 4018.62 487.595  23
  -4   8  -1 5900.67 454.928  11
  -4   8  -1 4150.99 497.598  19
  -4   8  -1 4471.04 519.304  18
  -4   8  -1 4723.22 544.250  17
   4  -8   1 4127.01 526.254  16
  -4   8  -2-19.2688 78.0633  13
   4  -8   2 9.39130 48.3243  14
  -4   8  -2 198.951 131.328  23
   4  -8   2 257.965 144.780   3
  -4   8  -2-65.3498 77.5011  11
  -4   8  -2-157.764 120.137  19
  -4   8  -2-71.4586 102.117  18
  -4   8  -2 164.894 147.058  17
   4  -8   2 123.868 98.7914  16
   4  -8   3-122.399 87.6061  14
  -4   8  -3-187.170 127.134  13
  -4   8  -3 0.54924 54.2233   5
  -4   8  -3 34.6833 57.8399  11
  -4   8  -3-138.586 132.436  19
  -4   8  -3-135.590 118.201  23
  -4   8  -3-153.769 122.536  18
  -4   8  -3-163.411 124.049  17
   4  -8   3-127.611 115.158  16
   4  -8   3 77.5469 103.905   3
   4  -7  -3 3839.03 468.954   3
  -4   7   3 4281.59 370.612  11
   4  -7  -3 3438.60 456.046  16
   4  -7  -2 424.052 170.672   3
  -4   7   2 316.886 102.172  11
   4  -7  -2 265.904 141.863  16
  -4   7   1 177.650 85.3585  11
   4  -7  -1 320.853 164.335  16
   4  -7  -1 234.179 153.467   3
   4  -7   0 2846.20 393.797   3
  -4   7   0 2485.95 356.787  13
  -4   7   0 3070.42 304.600  11
  -4   7   0 2536.41 348.979  19
  -4   7   0 2165.14 336.592  18
  -4   7   0 2421.10 357.774  17
   4  -7   0 2642.00 394.249  16
   4  -7   1-32.0829 56.1481  14
   4  -7   1 14.5920 89.7814   3
  -4   7  -1 155.397 111.451  23
  -4   7  -1 13.1743 78.6906  13
  -4   7  -1 37.1967 60.4901  11
  -4   7  -1-80.5512 86.0047  19
  -4   7  -1 39.9327 74.6054  18
  -4   7  -1-79.2843 88.3897  17
   4  -7   1-22.3783 72.4444  16
   4  -7   2 93.2877 71.9249  14
  -4   7  -2-74.4867 110.824  23
  -4   7  -2-11.5176 92.1583  13
  -4   7  -2-35.3170 55.9664  11
   4  -7   2 27.9519 70.7276  16
  -4   7  -2 121.439 100.772  19
  -4   7  -2 47.7950 98.7292  18
   4  -7   2-33.3127 80.7704   3
  -4   7  -2 85.1852 88.6435  17
   4  -7   3 789.869 173.979  14
   4  -7   3 885.751 224.957   3
  -4   7  -3 901.308 182.770   5
  -4   7  -3 968.201 227.251  13
  -4   7  -3 1200.44 199.953  11
  -4   7  -3 1034.37 239.848  19
  -4   7  -3 1020.20 236.113  23
  -4   7  -3 837.367 218.542  18
  -4   7  -3 873.224 234.057  17
   4  -7   3 981.365 251.909  16
   4  -7   4 5201.67 543.634   3
   4  -7   4 3575.69 371.461  14
  -4   7  -4 4189.27 506.442  13
  -4   7  -4 4696.49 542.986  17
  -4   7  -4 4463.46 418.041   5
  -4   7  -4 4165.25 401.775  20
  -4   7  -4 4297.66 497.516  19
  -4   7  -4 4754.20 522.667  23
  -4   7  -4 4670.05 528.285  18
   4  -7   4 3520.44 474.597  16
   4  -7   5-9.30289 79.0653   3
   4  -7   5-0.69732 57.8970  14
  -4   7  -5 188.746 127.847  13
  -4   7  -5-19.3474 87.6136  23
  -4   7  -5-1.33074 44.4460  20
  -4   7  -5-21.1082 63.8117   5
  -4   7  -5 198.026 122.884  19
  -4   7  -5-178.964 120.372  18
  -4   7  -5 38.3953 81.9014  17
   4  -7   5 180.526 128.636  16
  -4   7  -6 17.8510 67.0040  23
   4  -7   6 165.214 119.067   3
   4  -7   6 44.0008 56.1834  14
  -4   7  -6 140.368 87.7215  20
  -4   7  -6 161.167 87.9126  19
  -4   7  -6 159.307 107.405  13
  -4   7  -6 82.7119 96.7893  18
  -4   7  -6 169.645 101.207  17
   4  -7   6-117.049 108.616  16
  -4   7  -6 218.445 111.776   5
  -4   6   4-34.2687 52.6450  11
   4  -6  -4-136.184 109.234   3
   4  -6  -4-60.8985 78.8391  16
   4  -6  -3 233.426 146.280   3
  -4   6   3 340.969 109.645  11
   4  -6  -3 130.180 103.876  16
   4  -6  -2 779.229 202.995   3
  -4   6   2 630.021 132.105  11
   4  -6  -2 573.617 175.072  16
  -4   6   1-11.9327 69.0860  13
  -4   6   1-57.4691 63.7127  11
  -4   6   1-39.2790 89.2727  19
   4  -6  -1-13.5695 64.6664   3
  -4   6   1-7.47921 51.6971  18
  -4   6   1 45.1572 64.2598  17
   4  -6  -1 5.71890 64.6701  16
  -4   6   0 500.171 140.492  13
  -4   6   0 649.020 172.929  19
  -4   6   0 641.464 170.237  18
  -4   6   0 555.248 168.905  17
   4  -6   0 615.714 177.465  16
   4  -6   0 738.915 186.115   3
  -4   6   0 788.027 146.713  11
  -4   6  -1 126.572 87.5740  13
  -4   6  -1 115.397 69.7794  11
   4  -6   1 190.894 102.766   3
  -4   6  -1 41.6717 92.6600  19
  -4   6  -1 43.8704 74.1219  18
  -4   6  -1 164.754 94.9949  17
   4  -6   1 27.7509 57.7160  16
  -4   6  -2 215.479 96.3267  13
   4  -6   2 323.998 108.432  14
  -4   6  -2 102.981 103.799  23
   4  -6   2 259.945 118.479   3
  -4   6  -2 244.997 91.5050  11
  -4   6  -2 344.085 128.711  19
  -4   6  -2 578.642 173.375  18
  -4   6  -2 418.266 150.608  17
   4  -6   2 240.260 119.342  16
   4  -6   3 3709.75 422.106   3
   4  -6   3 2989.79 309.966  14
  -4   6  -3 3719.04 432.845  13
  -4   6  -3 3788.29 426.553  23
  -4   6  -3 3237.40 329.937   5
  -4   6  -3 3377.55 321.093  20
  -4   6  -3 3850.22 428.214  19
  -4   6  -3 3150.00 392.264  18
  -4   6  -3 3575.55 432.011  17
   4  -6   3 3725.73 443.205  16
  -4   6  -4-8.96329 61.2366   5
   4  -6   4 55.5587 61.1387  14
   4  -6   4 48.0847 80.5519   3
  -4   6  -4 4.53685 68.6301  23
  -4   6  -4-14.1546 96.5577  13
  -4   6  -4 113.325 97.7776  19
  -4   6  -4 36.4460 84.8035  18
  -4   6  -4 8.83286 70.1045  20
  -4   6  -4-45.6244 100.479  17
   4  -6   4 55.6005 77.3934  16
   4  -6   5 8953.00 688.728   3
   4  -6   5 6462.35 480.759  14
  -4   6  -5 7686.77 650.551  13
  -4   6  -5 7683.72 643.645  23
  -4   6  -5 8082.79 557.911   5
  -4   6  -5 7591.89 536.624  20
  -4   6  -5 7905.51 646.000  19
  -4   6  -5 7414.10 634.415  18
  -4   6  -5 9000.57 717.364  17
   4  -6   5 7051.39 649.881  16
  -4   6  -6 955.075 235.438  19
   4  -6   6 651.457 193.404   3
   4  -6   6 883.913 186.900  14
  -4   6  -6 763.067 198.726  18
  -4   6  -6 1190.57 267.369  13
  -4   6  -6 739.013 184.478  20
  -4   6  -6 917.145 191.235   5
  -4   6  -6 724.502 196.998  23
  -4   6  -6 1261.85 279.258  17
   4  -6   6 561.485 199.712  16
   4  -6   7 237.676 107.620  14
  -4   6  -7 157.409 112.869  13
  -4   6  -7 51.2664 58.9219  20
  -4   6  -7 85.0756 79.9195   5
  -4   6  -7 23.1831 78.4697  19
  -4   6  -7-72.5923 85.7527  18
  -4   6  -7 305.131 150.373  23
  -4   6  -7 54.1027 89.7754  17
   4  -6   7-40.0198 144.778  16
   4  -6   7-47.2546 109.276   3
   4  -6   8 24.5653 65.8033  14
  -4   6  -8-90.2846 94.9300  13
  -4   6  -8 109.690 96.7650  23
  -4   6  -8 54.1411 82.0135  18
  -4   6  -8 142.566 96.6452  20
  -4   6  -8 29.9632 68.6289   5
  -4   6  -8 101.458 96.0570  19
  -4   6  -8-130.238 111.387  17
   4  -6   8-31.8266 95.3913  16
   4  -6   8 6.33699 90.0660   4
   4  -5  -6-15.6025 104.668   3
  -4   5   6 263.879 100.836  11
   4  -5  -5 94.0666 93.5115   3
  -4   5   5 188.569 84.7718  11
   4  -5  -5 150.080 118.380  16
   4  -5  -4-41.1707 91.1889   3
  -4   5   4 36.5857 48.6687  11
   4  -5  -4 7.75017 84.3671  16
   4  -5  -3-35.1543 75.7699   3
  -4   5   3-15.0638 47.8715  11
   4  -5  -3-30.4603 70.3079  16
   4  -5  -2 1.66198 72.2362   3
  -4   5   2 45.6250 47.4046  11
   4  -5  -2-110.304 85.2851  16
   4  -5  -1 278.889 136.282   3
  -4   5   1 192.248 95.3552  13
  -4   5   1 236.957 77.7648  11
  -4   5   1 179.511 75.3551  19
  -4   5   1 126.960 76.8783  18
  -4   5   1 265.907 91.6227  17
   4  -5  -1 131.483 62.4128  16
   4  -5   0 4234.11 409.019   3
  -4   5   0 4105.33 388.374  13
  -4   5   0 5006.49 340.056  11
  -4   5   0 3784.90 365.731  19
   4  -5   0 3997.13 295.612  10
  -4   5   0 4244.56 390.799  18
  -4   5   0 4222.26 400.146  17
   4  -5   0 4076.54 427.043  16
   4  -5   1 278.073 92.1915  14
   4  -5   1 477.121 141.145   3
  -4   5  -1 309.156 116.604  23
  -4   5  -1 277.321 86.4292  13
  -4   5  -1 504.282 109.932  11
  -4   5  -1 214.662 104.987  19
  -4   5  -1 293.772 125.414  18
  -4   5  -1 228.026 103.087  17
   4  -5   1 347.796 123.248  16
   4  -5   2 708.864 174.220   3
   4  -5   2 567.502 126.601  14
  -4   5  -2 717.609 170.839  23
  -4   5  -2 552.492 117.001  20
  -4   5  -2 612.879 161.936  13
  -4   5  -2 807.942 184.892  19
  -4   5  -2 878.190 191.192  18
  -4   5  -2 775.270 140.962  11
   4  -5   2 637.654 178.780  16
  -4   5  -2 841.386 194.205  17
   4  -5   3 1198.14 229.705   3
   4  -5   3 707.497 144.621  14
  -4   5  -3 552.230 156.682  23
  -4   5  -3 857.383 186.184  13
   4  -5   3 688.499 130.938   6
  -4   5  -3 639.981 137.718  20
  -4   5  -3 852.010 156.612   5
  -4   5  -3 786.853 186.351  19
  -4   5  -3 863.761 190.173  18
  -4   5  -3 798.393 194.806  17
   4  -5   3 903.826 209.534  16
   4  -5   4 78.0638 53.3019  14
   4  -5   4 173.911 92.3269   3
  -4   5  -4 61.6948 57.6383  20
  -4   5  -4 153.887 106.773  23
  -4   5  -4 228.488 114.450  13
  -4   5  -4 134.992 83.8281   5
  -4   5  -4 103.508 80.4897  19
  -4   5  -4 67.0911 57.3596  18
  -4   5  -4-76.8792 84.7355  17
   4  -5   4 212.327 120.890  16
  -4   5  -5 231.516 98.9901   5
  -4   5  -5 278.190 122.430  19
   4  -5   5 258.656 137.546   3
   4  -5   5 324.570 102.489  14
  -4   5  -5 81.8115 78.6219  13
  -4   5  -5 346.386 138.915  23
  -4   5  -5 489.297 160.778  17
  -4   5  -5 451.447 130.200  20
  -4   5  -5 532.071 163.003  18
   4  -5   5 331.825 148.901  16
   4  -5   6 2577.66 288.504  14
  -4   5  -6 3009.64 388.806  13
  -4   5  -6 2255.54 326.644  23
  -4   5  -6 2491.47 303.219   5
  -4   5  -6 2175.18 284.685  20
  -4   5  -6 2272.04 326.612  19
  -4   5  -6 2447.36 343.964  18
  -4   5  -6 2667.66 370.834  17
   4  -5   6 2265.88 358.817  16
   4  -5   6 2803.75 368.067   3
   4  -5   7 262.384 113.204  14
  -4   5  -7 243.699 95.0863  23
  -4   5  -7 274.568 122.445  20
  -4   5  -7 330.562 117.646   5
  -4   5  -7 150.053 87.1048  19
   4  -5   7 315.211 196.620   1
  -4   5  -7 260.193 128.030  18
  -4   5  -7 225.451 143.826  17
  -4   5  -7 390.783 157.360  13
   4  -5   7 378.165 166.686  16
   4  -5   7 185.831 120.356   3
   4  -5   8 41.5191 58.1113  14
  -4   5  -8 277.523 129.675  23
  -4   5  -8 70.4865 80.9349  20
  -4   5  -8 183.529 79.6275   5
  -4   5  -8 161.482 120.061  19
   4  -5   8 3.87344 118.559   1
  -4   5  -8 106.661 96.4991  17
  -4   5  -8 77.0489 84.9766  13
   4  -5   8 76.7843 95.1490  16
  -4   5  -8 212.960 105.459  18
  -4   5  -8 311.691 113.325   8
   4  -5   8 284.698 123.082   4
  -4   5  -9 1288.81 269.253  23
  -4   5  -9 1171.19 260.517  19
  -4   5  -9 1544.74 303.803  13
   4  -5   9 1457.53 236.080  14
  -4   5  -9 1145.64 261.206  18
  -4   5  -9 1619.88 284.066  20
  -4   5  -9 1256.66 237.822   5
  -4   5  -9 1073.29 253.831  17
   4  -5   9 1226.83 304.670  16
   4  -5   9 872.090 336.035   1
  -4   5  -9 1526.63 234.424   8
   4  -5   9 1357.74 250.109   4
   4  -4  -6 4443.12 479.417   3
  -4   4   6 4972.00 407.784  11
  -4   4   5 664.606 139.959  11
   4  -4  -5 746.633 191.317   3
   4  -4  -5 537.471 155.157  16
   4  -4  -4 4982.87 461.848   3
  -4   4   4 5475.09 377.647  11
   4  -4  -4 4481.38 431.261  16
   4  -4  -3 1073.91 216.917   3
  -4   4   3 865.961 141.668  11
  -4   4   3 666.696 136.851   9
   4  -4  -3 900.934 194.656  16
   4  -4  -2 1941.02 263.316   3
  -4   4   2 1809.78 191.231  11
  -4   4   2 1409.40 179.535   9
   4  -4  -2 1473.18 238.677  16
   4  -4  -1 784.222 122.695  14
  -4   4   1 898.645 157.827  23
  -4   4   1 774.302 148.847  13
   4  -4  -1 1160.14 205.952   3
  -4   4   1 1390.97 167.123  11
  -4   4   1 1016.56 166.846  19
   4  -4  -1 926.520 129.708  10
  -4   4   1 830.634 148.392  18
  -4   4   1 792.044 127.712   9
  -4   4   1 1163.49 184.172  17
   4  -4  -1 1233.72 214.599  16
   4  -4   0 4771.06 401.327   3
   4  -4   0 4450.81 301.641  14
  -4   4   0 4646.07 375.802  13
  -4   4   0 4844.28 380.855  23
  -4   4   0 5562.00 333.183  11
  -4   4   0 4727.11 369.161  19
   4  -4   0 4747.24 290.809  10
  -4   4   0 4674.62 375.375  18
  -4   4   0 3901.84 262.329   9
  -4   4   0 4365.14 372.021  17
   4  -4   0 4259.05 406.952  16
   4  -4   1 8754.96 548.500   3
   4  -4   1 7945.33 422.161  14
  -4   4  -1 8068.74 514.244  23
  -4   4  -1 7399.14 371.320  20
  -4   4  -1 9747.35 447.786  11
  -4   4  -1 8067.38 513.216  19
  -4   4  -1 8349.78 528.997  18
  -4   4  -1 7015.17 329.487   9
  -4   4  -1 8591.18 544.477  17
  -4   4  -1 8399.90 530.477  13
  -4   4  -1 8224.08 505.216   2
   4  -4   1 8131.80 568.013  16
   4  -4   2 127.545 64.8066  14
   4  -4   2 164.094 78.8159   6
  -4   4  -2 108.416 85.0730  23
  -4   4  -2 243.765 102.499  13
   4  -4   2-32.2418 82.2987   3
  -4   4  -2 101.489 90.2346   2
  -4   4  -2 164.503 65.3535  20
  -4   4  -2 111.265 55.2030  11
  -4   4  -2 187.385 89.7089  19
  -4   4  -2 128.267 74.0030  18
  -4   4  -2 121.982 85.4608  17
   4  -4   2 145.019 107.916  16
   4  -4   3 10201.3 608.639   3
  -4   4  -3 9769.16 600.339  23
   4  -4   3 9131.92 480.231  14
  -4   4  -3 10029.1 616.065  13
  -4   4  -3 9565.88 487.660  20
  -4   4  -3 9245.62 582.899  19
  -4   4  -3 10065.1 613.513  18
  -4   4  -3 9227.13 603.626  17
   4  -4   3 9600.80 475.629   6
  -4   4  -3 9091.68 560.795   2
  -4   4  -3 11113.3 536.626   5
   4  -4   3 9151.30 631.348  16
   4  -4   4 14.4137 46.9227  14
   4  -4   4 74.1045 81.1789   3
  -4   4  -4 80.8759 65.1571  23
  -4   4  -4 145.193 67.7701   5
   4  -4   4 60.2227 43.3856   6
  -4   4  -4 74.3980 67.3376   2
  -4   4  -4 46.0022 74.8389  13
  -4   4  -4 147.142 81.9819  20
  -4   4  -4 112.713 82.9614  19
  -4   4  -4 69.7290 72.6988  18
  -4   4  -4 216.970 103.262  17
   4  -4   4 101.561 81.7001  16
  -4   4  -4 13.8849 32.4974   8
   4  -4   5 1254.47 186.946  14
   4  -4   5 1388.63 238.356   3
  -4   4  -5 1247.21 220.811   2
  -4   4  -5 1173.59 188.060  20
  -4   4  -5 1131.16 181.518   5
  -4   4  -5 1048.66 208.570  19
  -4   4  -5 1271.53 224.643  23
  -4   4  -5 869.866 189.604  18
  -4   4  -5 1190.79 227.690  17
   4  -4   5 837.893 252.152   1
  -4   4  -5 1324.13 153.022   8
  -4   4  -5 1043.69 205.249  13
   4  -4   5 1235.24 246.778  16
  -4   4  -6 727.041 185.705  13
   4  -4   6 858.085 199.790   3
   4  -4   6 627.532 139.426  14
  -4   4  -6 855.165 193.969  23
  -4   4  -6 802.858 179.596  19
  -4   4  -6 806.486 177.845   2
  -4   4  -6 708.622 157.302  20
  -4   4  -6 749.958 150.186   5
   4  -4   6 876.451 260.480   1
  -4   4  -6 1007.02 217.625  17
  -4   4  -6 647.155 164.377  18
   4  -4   6 903.694 221.026  16
  -4   4  -6 697.508 128.524   8
   4  -4   7 54.5028 106.462   1
  -4   4  -7 262.950 113.307  23
   4  -4   7 143.081 61.3238  14
  -4   4  -7 153.675 84.3360  20
  -4   4  -7 228.925 98.7595   5
  -4   4  -7 179.892 98.7957  19
  -4   4  -7 226.685 113.844  18
  -4   4  -7 255.515 127.082  13
  -4   4  -7 313.729 134.480  17
   4  -4   7 245.709 151.252  16
  -4   4  -7 242.991 119.631   2
  -4   4  -7 208.093 92.0173   8
   4  -4   8-186.322 157.871   1
   4  -4   8 132.228 71.6808  14
  -4   4  -8 90.9644 69.0927  23
  -4   4  -8 24.5180 67.3608  13
  -4   4  -8 152.412 85.8878   5
  -4   4  -8-23.3034 55.0131  19
  -4   4  -8-82.8502 89.6000  18
  -4   4  -8 105.610 95.1906  17
  -4   4  -8-75.8309 78.2511   2
   4  -4   8-43.9524 128.349  16
  -4   4  -8 83.8756 73.9141  20
  -4   4  -8 114.562 83.8403   8
   4  -4   8 154.198 86.0641   4
   4  -4   9-103.133 149.544   1
   4  -4   9-71.7158 73.3936  14
  -4   4  -9-46.3535 86.6426  19
  -4   4  -9-60.3911 72.7514  23
  -4   4  -9-24.9370 58.8848  18
  -4   4  -9-178.087 100.664  20
  -4   4  -9-241.266 105.281   5
  -4   4  -9 24.1374 63.6796  17
  -4   4  -9-116.095 93.1926  13
   4  -4   9 82.7225 110.153  16
  -4   4  -9 33.0216 70.4119   8
   4  -4   9-70.9308 82.1574   4
  -4   4 -10 1014.49 226.147  23
   4  -4  10 695.007 167.827  14
   4  -4  10 542.483 221.919   1
  -4   4 -10 864.806 204.983  20
  -4   4 -10 902.983 227.218  17
  -4   4 -10 635.095 161.337   5
  -4   4 -10 828.330 212.985  19
  -4   4 -10 782.108 209.394  18
   4  -4  10 925.740 198.113   4
  -4   4 -10 1073.73 203.919   8
  -4   3   7 185.045 83.4579   7
  -4   3   7-7.96949 48.3057  11
   4  -3  -7 74.8318 86.7876   3
  -4   3   6 497.164 119.413   7
   4  -3  -6 412.196 138.849   3
  -4   3   6 333.462 109.309  11
  -4   3   5 1.56729 44.2320   7
   4  -3  -5 88.2467 71.2576   3
  -4   3   5 56.2037 51.8236  11
  -4   3   5-36.1902 47.6235   9
  -4   3   4 71.9182 48.5241   7
   4  -3  -4 115.677 89.5437   3
  -4   3   4 158.650 79.0009   9
   4  -3  -4 199.417 91.1011  16
  -4   3   4 181.215 71.8513  11
   4  -3  -3 411.258 116.766   3
  -4   3   3 320.060 76.7992   7
  -4   3   3 333.934 84.4875  11
  -4   3   3 326.027 93.0049   9
   4  -3  -3 431.169 123.267  16
   4  -3  -2 2873.03 296.472   3
  -4   3   2 2997.18 230.945  11
  -4   3   2 2287.61 223.393   9
   4  -3  -2 2583.47 292.110  16
  -4   3   2 2589.80 191.276   7
   4  -3  -1 316.221 75.7638  14
   4  -3  -1 488.761 131.500   3
  -4   3   1 457.371 103.172  23
  -4   3   1 550.552 114.934  13
  -4   3   1 417.803 97.6438   2
  -4   3   1 487.430 92.6274  11
  -4   3   1 358.926 90.5053  19
   4  -3  -1 402.342 82.1428  10
  -4   3   1 422.555 100.688  18
  -4   3   1 499.570 101.234   9
  -4   3   1 304.209 89.9925  17
   4  -3  -1 486.204 136.347  16
   4  -3   0 1762.27 225.417   3
   4  -3   0 1592.32 163.797  14
  -4   3   0 1606.44 198.352  13
  -4   3   0 1602.30 198.107  23
  -4   3   0 1464.20 134.262  20
  -4   3   0 1873.54 173.188  11
   4  -3   0 1506.34 143.623  10
  -4   3   0 1630.65 160.297   9
  -4   3   0 1430.97 189.403  17
  -4   3   0 1646.21 197.485   2
  -4   3   0 1685.70 197.792  19
   4  -3   0 1718.61 236.927  16
  -4   3   0 1508.63 191.534  18
   4  -3   1 2645.74 271.391   3
   4  -3   1 2319.93 202.264  14
  -4   3  -1 2273.15 246.550  13
  -4   3  -1 1975.46 229.081  23
  -4   3  -1 2140.74 181.512  20
  -4   3  -1 2665.55 208.403  11
  -4   3  -1 2321.85 244.394  19
  -4   3  -1 2205.06 240.832  18
  -4   3  -1 2445.10 179.228   9
  -4   3  -1 2406.37 259.042  17
  -4   3  -1 2270.33 237.856   2
   4  -3   1 2770.14 304.288  16
   4  -3   2 12879.0 632.826   3
   4  -3   2 12347.9 519.645  14
  -4   3  -2 12681.8 624.768  13
  -4   3  -2 12741.4 622.842  23
   4  -3   2 11988.6 540.078   6
  -4   3  -2 12401.5 502.153  20
  -4   3  -2 13604.7 512.074  11
  -4   3  -2 12356.1 608.416  19
  -4   3  -2 12210.0 610.527  18
  -4   3  -2 12393.2 402.903   9
  -4   3  -2 11914.5 618.068  17
  -4   3  -2 11890.7 582.447   2
  -4   3  -2 13206.3 399.395   8
   4  -3   2 12907.3 690.509  16
   4  -3   3 6334.01 444.698   3
   4  -3   3 6248.32 365.214  14
  -4   3  -3 6135.09 439.505  13
  -4   3  -3 6261.51 436.988  23
   4  -3   3 5160.49 532.031   1
   4  -3   3 5921.81 352.962   6
  -4   3  -3 6481.82 370.567  20
  -4   3  -3 5851.74 422.661  19
  -4   3  -3 5628.91 421.629  18
  -4   3  -3 5755.22 234.004   9
  -4   3  -3 6229.08 452.426  17
  -4   3  -3 5758.92 405.036   2
   4  -3   3 6138.88 483.383  16
  -4   3  -3 6941.12 304.963   8
  -4   3  -3 7167.38 395.890   5
   4  -3   4 149.688 76.3824  14
   4  -3   4 146.969 89.6188   3
  -4   3  -4 84.1952 51.5992   2
  -4   3  -4 146.507 80.1876  19
  -4   3  -4 51.8657 62.5328  13
  -4   3  -4 102.137 51.5928   5
   4  -3   4 125.675 62.8092   6
  -4   3  -4 175.402 83.4210  23
  -4   3  -4 120.712 69.5724  20
  -4   3  -4 77.3678 58.0222  18
  -4   3  -4 152.613 82.3626  17
   4  -3   4 45.5467 60.9370  16
  -4   3  -4 67.1543 41.9690   8
   4  -3   4-27.3411 89.4630   1
   4  -3   5 289.522 114.211   3
   4  -3   5 225.192 84.9327  14
  -4   3  -5 75.5860 62.6311   2
  -4   3  -5 318.911 108.164  23
  -4   3  -5 287.785 103.756  13
   4  -3   5 119.288 55.1450   6
  -4   3  -5 247.404 90.6130  20
  -4   3  -5 127.271 65.2851   5
  -4   3  -5 233.259 90.9641  19
   4  -3   5 6.22064 111.172   1
  -4   3  -5 280.186 96.1333  18
  -4   3  -5 284.512 115.020  17
   4  -3   5 171.099 116.236  16
  -4   3  -5 236.097 72.7527   8
  -4   3  -6 166.262 100.134  13
   4  -3   6 161.738 115.145   3
   4  -3   6 104.801 62.0125  14
  -4   3  -6-11.8557 65.8028  23
  -4   3  -6 66.9241 65.6223   2
  -4   3  -6 27.9801 58.2379  20
  -4   3  -6 14.8296 54.3613  19
  -4   3  -6 161.039 74.1122   5
  -4   3  -6 82.1297 75.2574  18
  -4   3  -6-58.0212 69.2171  17
   4  -3   6 25.5686 91.3410   1
   4  -3   6 34.8519 88.7349  16
  -4   3  -6 66.9138 54.7005   8
   4  -3   7 2543.15 264.747  14
  -4   3  -7 2432.74 311.033  13
  -4   3  -7 2379.14 299.235  23
  -4   3  -7 2372.17 259.420   5
  -4   3  -7 2493.22 284.613  20
  -4   3  -7 2378.06 308.133  18
  -4   3  -7 2335.20 315.083  17
   4  -3   7 1517.79 344.280   1
  -4   3  -7 2424.09 289.937   2
  -4   3  -7 2452.65 304.902  19
   4  -3   7 2524.12 368.774  16
  -4   3  -7 2630.31 249.219   8
   4  -3   8 1754.86 227.617  14
   4  -3   8 1216.60 312.533   1
  -4   3  -8 1416.83 239.614  23
  -4   3  -8 1645.57 256.219   2
  -4   3  -8 1679.43 228.405   5
  -4   3  -8 1918.00 264.916  20
  -4   3  -8 1638.10 257.829  19
  -4   3  -8 1516.93 251.814  13
  -4   3  -8 1514.88 255.088  18
  -4   3  -8 1641.80 267.934  17
  -4   3  -8 1501.77 205.967   8
   4  -3   8 1108.49 284.838  16
   4  -3   8 1681.97 234.769   4
   4  -3   9 6719.16 472.039  14
   4  -3   9 6066.11 697.366   1
  -4   3  -9 7070.02 552.481  23
  -4   3  -9 6966.98 490.097   5
  -4   3  -9 6519.50 520.411  20
  -4   3  -9 5904.92 511.688  19
  -4   3  -9 7206.38 568.804  18
  -4   3  -9 7478.04 598.962  17
   4  -3   9 8238.51 530.886   4
  -4   3  -9 7850.05 583.023   2
   4  -3   9 8463.21 741.927  16
  -4   3  -9 6817.39 472.339   8
   4  -3  10 6806.87 494.743  14
  -4   3 -10 6692.70 548.515  23
  -4   3 -10 6211.70 555.983  17
  -4   3 -10 6864.60 561.081  19
  -4   3 -10 6766.65 554.092  21
  -4   3 -10 6171.73 479.931   5
  -4   3 -10 6481.80 538.174  20
   4  -3  10 6619.12 758.765   1
  -4   3 -10 7948.02 605.565   2
   4  -3  10 7260.43 718.032  16
  -4   3 -10 5768.04 464.801   8
  -4   3 -10 6696.22 561.307  18
   4  -3  10 7126.91 514.541  15
  -4   3 -11 1662.84 288.410  20
   4  -3  11 1649.44 249.667  14
  -4   3 -11 1667.53 282.290  23
  -4   3 -11 1891.50 296.010  21
   4  -3  11 991.861 320.900   1
  -4   3 -11 1640.60 300.459  17
  -4   3 -11 1645.49 284.668  18
  -4   3 -11 1647.38 284.547  19
  -4   3 -11 1808.62 272.177   8
   4  -3  11 2103.18 284.225  15
  -4   2   8-6.03016 64.6004   7
   4  -2  -8 27.5127 86.5554   3
  -4   2   8 50.0465 59.4918  11
  -4   2   7 229.082 91.3279   7
   4  -2  -7 178.607 89.5940   3
  -4   2   7 252.944 93.0162  11
  -4   2   6 50.4245 50.8126   7
   4  -2  -6 157.898 108.800   3
  -4   2   6 30.1611 43.1693  11
  -4   2   6 108.781 63.0100   9
  -4   2   5-81.6375 54.0691   7
   4  -2  -5-7.03754 53.7435   3
  -4   2   5 14.0287 33.1134  11
  -4   2   5-19.7537 60.5347   9
  -4   2   4 283.521 79.7768   7
   4  -2  -4 210.081 102.308   3
  -4   2   4 312.470 84.2788  11
  -4   2   4 403.232 112.343   9
   4  -2  -4 312.874 102.519  16
   4  -2  -3 2073.03 242.999   3
  -4   2   3 2245.83 197.517  11
  -4   2   3 1922.20 212.169   9
   4  -2  -3 1693.45 212.134  16
  -4   2   3 1704.80 169.106   7
   4  -2  -2 88527.5 1997.79   3
  -4   2   2 77229.8 1656.02  23
  -4   2   2 96534.7 1790.44  11
  -4   2   2 77571.0 1655.25  19
   4  -2  -2 92729.3 1663.31  10
  -4   2   2 76323.3 1658.90  18
  -4   2   2 80140.4 1839.57   9
  -4   2   2 76445.6 1676.79  17
  -4   2   2 84497.9 1762.01   2
   4  -2  -2 82696.9 1983.69  16
  -4   2   2 89807.0 1720.87   7
   4  -2  -1 23898.7 816.204   3
   4  -2  -1 20642.6 599.171  14
  -4   2   1 21315.8 686.457  13
  -4   2   1 21404.8 679.005  23
  -4   2   1 25607.0 684.010  11
  -4   2   1 21167.5 679.093  18
  -4   2   1 21302.8 692.073   9
  -4   2   1 22853.4 721.218   2
   4  -2  -1 23219.7 589.898  10
  -4   2   1 20405.1 683.655  17
   4  -2  -1 22923.6 840.703  16
  -4   2   1 20730.2 666.924  19
   4  -2   0 8302.72 445.057   3
   4  -2   0 8295.83 350.861  14
  -4   2   0 8506.54 417.163  13
  -4   2   0 8118.50 405.133  23
  -4   2   0 7946.43 315.376  20
  -4   2   0 8620.64 356.409  11
  -4   2   0 7605.27 390.518  19
   4  -2   0 7956.19 302.347  10
  -4   2   0 7840.89 400.899  18
  -4   2   0 7697.71 345.473   9
  -4   2   0 8017.60 414.248  17
   4  -2   0 8053.74 485.122  16
  -4   2   0 8263.35 414.437   2
   4  -2   1 1325.70 178.197   3
   4  -2   1 1545.13 152.405  14
  -4   2  -1 1574.57 183.928  13
  -4   2  -1 1496.38 177.747  23
   4  -2   1 1397.15 176.016   6
  -4   2  -1 1474.07 142.058  20
  -4   2  -1 1427.15 138.193  11
  -4   2  -1 1472.05 176.619  19
  -4   2  -1 1432.61 174.638  18
  -4   2  -1 1410.46 130.018   9
  -4   2  -1 1602.12 188.089  17
  -4   2  -1 1370.57 167.516   2
   4  -2   1 1241.00 195.799  16
   4  -2   2 60.7647 47.6369   3
   4  -2   2 70.7489 46.5019  14
  -4   2  -2 88.2570 52.2120  13
  -4   2  -2 119.248 61.9621  23
   4  -2   2 105.787 80.6973   1
  -4   2  -2 149.573 59.4906  20
   4  -2   2 194.581 71.6897   6
  -4   2  -2 84.0263 37.3683  11
  -4   2  -2 150.704 66.1095   2
  -4   2  -2 16.6466 41.8289  19
  -4   2  -2 65.1090 40.6248  18
  -4   2  -2 121.353 71.9912  17
  -4   2  -2 131.278 36.0961   9
   4  -2   2 111.564 77.4279  16
  -4   2  -2 86.1116 38.7775   8
  -4   2  -3 2021.23 190.084   5
   4  -2   3 1677.35 212.540   3
   4  -2   3 1640.25 168.256  14
  -4   2  -3 1700.99 210.363  13
  -4   2  -3 1642.01 203.738  23
   4  -2   3 1578.69 260.643   1
   4  -2   3 1726.80 180.494   6
  -4   2  -3 2125.09 196.075  20
  -4   2  -3 1748.99 207.219  19
  -4   2  -3 1702.28 207.870  18
  -4   2  -3 1573.34 209.266  17
  -4   2  -3 1739.89 124.385   9
  -4   2  -3 1488.60 188.012   2
   4  -2   3 1984.28 259.707  16
  -4   2  -3 2114.28 166.329   8
  -4   2  -4 1027.33 172.260  13
  -4   2  -4 938.774 137.252   5
   4  -2   4 932.555 138.257  14
   4  -2   4 1174.48 192.986   3
  -4   2  -4 913.626 161.336  23
  -4   2  -4 689.761 134.013   2
  -4   2  -4 904.935 138.904  20
  -4   2  -4 983.587 166.192  19
  -4   2  -4 957.914 164.169  18
  -4   2  -4 877.171 86.6193   9
   4  -2   4 791.686 122.942   6
  -4   2  -4 1087.61 184.923  17
  -4   2  -4 1166.87 131.061   8
   4  -2   4 834.506 182.223  16
   4  -2   4 637.534 169.293   1
   4  -2   5 15979.1 520.798   7
   4  -2   5 17867.1 653.494  14
  -4   2  -5 16658.6 732.868  23
   4  -2   5 15829.0 882.140   1
  -4   2  -5 16941.6 756.247  13
   4  -2   5 17506.0 619.132   6
  -4   2  -5 17625.6 652.599   5
  -4   2  -5 17937.4 691.926  20
  -4   2  -5 16977.0 736.495  19
  -4   2  -5 16585.3 739.894  18
  -4   2  -5 17442.7 775.529  17
  -4   2  -5 16401.2 453.672   9
  -4   2  -5 15341.7 674.143   2
   4  -2   5 16165.3 849.003  16
  -4   2  -5 18234.0 598.638   8
   4  -2   5 17221.7 772.509   3
   4  -2   6 10920.5 421.629   7
  -4   2  -6 10742.5 594.280  23
   4  -2   6 11999.7 544.525  14
   4  -2   6 11373.3 769.181   1
  -4   2  -6 11085.9 624.456  13
  -4   2  -6 10755.9 516.171   5
  -4   2  -6 11829.0 578.851  20
  -4   2  -6 11104.2 604.090  19
  -4   2  -6 11247.4 615.960  18
  -4   2  -6 10894.6 627.869  17
   4  -2   6 12224.5 755.193  16
  -4   2  -6 10404.5 563.858   2
  -4   2  -6 12031.5 503.746   8
   4  -2   7 229.188 84.4519  14
  -4   2  -7 157.574 78.0583  13
  -4   2  -7 108.158 77.7797   2
  -4   2  -7 206.983 90.3068  23
  -4   2  -7 72.3564 63.9428  20
  -4   2  -7 57.8770 49.0952   5
  -4   2  -7 226.056 92.7772  19
   4  -2   7 46.8376 96.2569   1
  -4   2  -7 144.591 83.1991  18
  -4   2  -7 176.622 91.0504  17
   4  -2   7 173.184 130.008  16
  -4   2  -7 217.784 91.0966   8
   4  -2   8 357.070 103.880  14
  -4   2  -8 534.034 136.685  20
  -4   2  -8 380.415 123.101  19
  -4   2  -8 274.711 100.607   2
   4  -2   8 220.211 139.799   1
  -4   2  -8 685.573 160.614  18
  -4   2  -8 360.818 135.879  17
  -4   2  -8 761.418 167.066  23
   4  -2   8 539.124 173.850  16
  -4   2  -8 258.949 88.9191   5
  -4   2  -8 501.406 121.617   8
   4  -2   8 433.786 116.517   4
   4  -2   9 297.783 99.4451  15
   4  -2   9 406.571 118.894  14
  -4   2  -9 276.487 109.013  23
  -4   2  -9 255.705 93.7376  21
  -4   2  -9 336.751 114.180  20
  -4   2  -9 271.693 95.8470   5
  -4   2  -9 353.580 121.058  19
  -4   2  -9 534.318 147.813  18
   4  -2   9 336.947 166.525   1
  -4   2  -9 206.382 103.010  17
  -4   2  -9 410.013 124.738   2
   4  -2   9 21.3839 78.0474  16
  -4   2  -9 359.333 118.115   8
   4  -2   9 115.123 74.9842   4
   4  -2  10-120.873 75.0019  15
   4  -2  10 135.003 87.4833  14
  -4   2 -10-70.7739 80.0959   5
  -4   2 -10 61.0996 72.8048  21
  -4   2 -10 21.7782 54.0452   2
  -4   2 -10 31.0547 56.5862  20
  -4   2 -10 101.990 85.6589  19
  -4   2 -10 27.3193 56.3405  18
  -4   2 -10-113.403 81.1052  17
   4  -2  10 61.3085 112.828   1
  -4   2 -10 63.0382 70.5092  23
  -4   2 -10 289.683 119.185   8
  -4   2 -11 4023.83 413.877  23
   4  -2  11 3901.52 375.356  14
  -4   2 -11 3561.95 393.487  19
  -4   2 -11 4064.02 418.280  21
  -4   2 -11 3574.59 398.513  20
  -4   2 -11 4317.91 438.078  18
  -4   2 -11 4066.83 440.576  17
  -4   2 -11 3490.83 370.408   8
   4  -2  11 3762.28 567.449   1
   4  -2  11 4257.26 396.022  15
  -4   1   8 209.965 82.0306   7
   4  -1  -8 8.03466 63.3283   3
  -4   1   8 289.921 109.319  11
  -4   1   7 862.470 164.181   7
   4  -1  -7 695.669 169.968   3
  -4   1   7 970.096 174.639  11
  -4   1   7 658.284 165.361   9
  -4   1   6 2786.10 269.806   7
   4  -1  -6 2985.41 340.213   3
  -4   1   6 3222.47 290.264  11
  -4   1   6 2214.71 281.368   9
  -4   1   5 3669.53 292.075   7
   4  -1  -5 3396.79 336.239   3
  -4   1   5 3689.17 290.206  11
  -4   1   4 162.053 64.2776   7
  -4   1   4 117.637 50.9131  11
   4  -1  -4 112.074 72.2846   3
  -4   1   4 132.968 66.5454   9
   4  -1  -4 112.999 58.8966  16
  -4   1   3 9134.35 412.640   7
   4  -1  -3 9663.27 502.119   3
  -4   1   3 9593.07 411.637  11
   4  -1  -3 9867.44 358.242  10
   4  -1  -3 8833.00 457.805  16
   4  -1  -2 3666.97 286.390   3
  -4   1   2 3234.16 165.169  23
  -4   1   2 3156.17 162.756  21
   4  -1  -2 4081.68 193.204  10
  -4   1   2 3239.90 170.003  18
  -4   1   2 3249.06 167.862  19
  -4   1   2 3736.80 267.870   9
  -4   1   2 3790.48 226.989   2
  -4   1   2 3860.40 232.169  11
   4  -1  -2 3718.59 289.126  16
  -4   1   2 3248.88 174.432  17
  -4   1   2 3411.68 225.727   7
   4  -1  -1 2988.01 241.415   3
   4  -1  -1 2641.26 159.875  14
  -4   1   1 2401.99 172.553  13
  -4   1   1 2678.97 209.070   9
  -4   1   1 2706.73 180.662  11
  -4   1   1 2603.29 175.744  19
  -4   1   1 2569.88 174.204  23
   4  -1  -1 2766.00 139.948  10
  -4   1   1 2479.30 171.984  18
  -4   1   1 2423.11 176.181  17
  -4   1   1 2971.22 204.955   2
   4  -1  -1 2560.16 242.939  16
   4  -1   0 12226.8 505.176   3
   4  -1   0 13491.9 426.445  14
  -4   1   0 13036.8 474.955  13
  -4   1   0 12973.0 463.669  23
   4  -1   0 14031.1 569.739   6
  -4   1   0 13444.8 426.217  11
  -4   1   0 13132.9 465.413  19
  -4   1   0 13400.1 484.924  17
   4  -1   0 12362.3 336.279  10
  -4   1   0 12909.7 466.410  18
  -4   1   0 12801.4 450.582   9
  -4   1   0 12647.7 468.075   2
   4  -1   0 12721.8 576.485  16
   4  -1   1 1325.57 159.807   3
   4  -1   1 1627.88 182.483   6
   4  -1   1 1646.92 143.398  14
  -4   1  -1 1760.85 175.531  13
   4  -1   1 1361.98 207.070   1
  -4   1  -1 1545.74 163.947  23
  -4   1  -1 1664.45 140.801  20
  -4   1  -1 1765.04 137.000  11
  -4   1  -1 1801.31 176.488  18
  -4   1  -1 1491.03 130.482   9
  -4   1  -1 1573.88 168.727  17
  -4   1  -1 1658.15 162.501   2
   4  -1   1 1516.03 198.305  16
  -4   1  -1 1599.36 163.319  19
   4  -1   2 4111.36 291.633   3
   4  -1   2 4852.14 263.066  14
  -4   1  -2 4154.17 221.767  11
   4  -1   2 4398.74 371.225   1
  -4   1  -2 4479.16 300.118  13
  -4   1  -2 4728.20 301.709  23
  -4   1  -2 5121.70 273.230  20
  -4   1  -2 4823.82 302.935  19
  -4   1  -2 4638.02 301.278  18
  -4   1  -2 4534.00 307.830  17
  -4   1  -2 4519.77 274.045   2
  -4   1  -2 4581.59 222.946   9
  -4   1  -2 4723.34 227.501   8
   4  -1   2 4777.82 364.648  16
   4  -1   2 4607.23 299.512   6
   4  -1   3 5213.11 347.203   3
   4  -1   3 5389.17 295.208  14
   4  -1   3 5149.13 408.297   1
  -4   1  -3 5325.96 348.720  13
   4  -1   3 5638.95 325.018   6
  -4   1  -3 6377.49 323.034  20
  -4   1  -3 5495.07 340.745  23
  -4   1  -3 5774.04 352.965  18
  -4   1  -3 5369.40 351.954  17
  -4   1  -3 5191.06 306.569   2
  -4   1  -3 5245.40 234.175   9
   4  -1   3 4997.82 396.196  16
  -4   1  -3 6213.77 283.406   8
  -4   1  -3 5214.12 332.990  19
   4  -1   4 7599.60 371.618  14
   4  -1   4 7741.63 516.638   1
  -4   1  -4 8096.90 449.862  13
  -4   1  -4 7970.38 369.986   5
  -4   1  -4 9030.53 416.213  20
  -4   1  -4 7447.04 419.118  19
  -4   1  -4 7882.84 432.236  23
  -4   1  -4 7409.74 423.624  18
  -4   1  -4 7804.31 447.528  17
  -4   1  -4 6686.28 370.735   2
  -4   1  -4 7470.70 288.118   9
   4  -1   4 8017.70 399.561   6
   4  -1   4 7696.60 523.898  16
  -4   1  -4 8684.15 362.288   8
   4  -1   4 7550.16 445.119   3
   4  -1   5 16770.6 610.286   7
   4  -1   5 21317.1 689.735  14
   4  -1   5 18245.0 849.070   1
  -4   1  -5 19901.5 774.158  13
   4  -1   5 19607.9 649.026   6
  -4   1  -5 19641.4 745.972  23
  -4   1  -5 20985.5 715.691  20
  -4   1  -5 20025.7 652.800   5
  -4   1  -5 19623.0 747.530  19
  -4   1  -5 18692.8 743.148  18
  -4   1  -5 18902.1 766.106  17
  -4   1  -5 17077.3 655.674   2
   4  -1   5 19321.4 899.899  16
  -4   1  -5 20319.3 639.311   8
   4  -1   5 17842.3 749.554   3
   4  -1   6 28965.0 856.831   7
   4  -1   6 32260.9 929.877  14
   4  -1   6 28801.3 1158.31   1
  -4   1  -6 29792.5 998.792  23
  -4   1  -6 31205.4 1055.52  13
   4  -1   6 29703.3 838.159   6
   4  -1   6 31940.6 1244.56  16
  -4   1  -6 29511.0 874.942   5
  -4   1  -6 32401.3 982.898  20
  -4   1  -6 28835.5 990.545  19
  -4   1  -6 30353.2 1021.81  18
  -4   1  -6 30893.2 1053.08  17
  -4   1  -6 27300.4 920.507   2
  -4   1  -6 30811.5 881.133   8
   4  -1   7 74293.0 1708.41   7
   4  -1   7 82168.5 1811.01  14
   4  -1   7 75952.5 2178.92   1
  -4   1  -7 78495.9 1917.95  23
   4  -1   7 75677.7 1537.55  12
  -4   1  -7 70763.4 1708.08   5
  -4   1  -7 75471.4 1854.02  20
   4  -1   7 81119.1 2306.96  16
  -4   1  -7 78585.8 1925.74  19
  -4   1  -7 78615.8 1945.29  18
  -4   1  -7 77881.4 1967.17  17
  -4   1  -7 73192.9 1840.40   2
  -4   1  -7 78148.2 1909.70  21
   4  -1   7 76450.1 1749.58   4
  -4   1  -7 78371.5 1763.60   8
   4  -1   7 82988.0 1838.56  15
   4  -1   8 3664.79 292.651   7
  -4   1  -8 3834.47 349.927  23
   4  -1   8 4558.81 340.191  14
   4  -1   8 4191.21 452.823   1
  -4   1  -8 4108.50 362.247  21
  -4   1  -8 3703.81 289.389   5
  -4   1  -8 3753.82 334.600  20
  -4   1  -8 3758.71 352.991  19
  -4   1  -8 4240.06 395.799  17
  -4   1  -8 4309.92 355.446   2
   4  -1   8 3986.08 302.959   4
   4  -1   8 4421.10 489.452  16
  -4   1  -8 4502.77 336.806   8
  -4   1  -8 3880.63 361.443  18
   4  -1   8 4283.67 339.710  15
   4  -1   9-1.40862 39.5611  15
   4  -1   9-46.3851 47.5693   7
   4  -1   9-8.25502 39.0234  14
  -4   1  -9 110.432 68.9013  23
  -4   1  -9-60.6719 61.5044   2
   4  -1   9-138.340 109.672   1
  -4   1  -9-76.7376 59.7448  21
  -4   1  -9 7.89678 43.0634  20
  -4   1  -9-20.4673 37.7261   5
  -4   1  -9 115.583 74.7128  19
  -4   1  -9-80.4177 67.4178  17
  -4   1  -9-63.3413 57.4527  18
  -4   1  -9 36.3306 84.4894   8
  -4   1 -10 453.948 130.754  23
   4  -1  10 606.739 137.883  15
  -4   1 -10 464.200 133.568  21
   4  -1  10 479.846 116.947   7
   4  -1  10 688.149 151.291  14
  -4   1 -10 503.898 140.477  19
   4  -1  10 362.215 145.141   1
  -4   1 -10 612.523 146.429  20
  -4   1 -10 569.350 151.475  18
  -4   1 -10 389.892 141.655  17
  -4   1 -10 658.635 157.142   8
  -4   1 -11 2603.63 322.820  18
   4  -1  11 2743.14 460.321   1
   4  -1  11 2933.27 314.083  14
  -4   1 -11 2635.39 323.704  21
  -4   1 -11 2234.75 297.972  20
  -4   1 -11 2935.83 339.953  19
  -4   1 -11 2666.43 336.067  17
  -4   1 -11 2504.25 312.966  23
  -4   1 -11 2477.21 302.650   8
   4  -1  11 3091.95 327.705  15
  -4   1 -12 143.965 100.132  20
   4  -1  12 82.5023 112.385   1
  -4   1 -12 326.012 141.401   8
  -4   0   8 57.9993 55.8806   7
   4   0  -8-90.8035 83.2466   3
  -4   0   8-10.4985 56.3130  11
  -4   0   8 25.8374 90.7683   4
  -4   0   7 161.653 77.2906  11
  -4   0   7 33.8954 53.5472   7
   4   0  -7 52.2827 65.1304   6
   4   0  -7-28.4612 66.2654   3
  -4   0   7 65.8973 51.8732   9
  -4   0   7 71.6906 80.2100   4
   4   0  -7 72.6788 43.4883   8
  -4   0   6 1434.06 193.503   7
   4   0  -6 1829.63 252.466   3
  -4   0   6 1702.33 206.789  11
  -4   0   6 1170.97 194.173   9
   4   0  -6 1722.87 197.834   5
   4   0  -6 1722.09 238.520   6
  -4   0   6 1856.54 235.258   4
   4   0  -6 1416.83 164.901   8
  -4   0   5 12243.8 548.990   7
   4   0  -5 13464.6 646.698   3
  -4   0   5 13077.7 597.423   4
  -4   0   5 13458.5 566.132  11
  -4   0   4 7212.57 379.799   7
   4   0  -4 6968.64 426.147   3
  -4   0   4 7212.07 373.023  11
  -4   0   4 5700.21 393.064   9
  -4   0   4 6816.19 404.491   4
   4   0  -3 5867.90 359.086   3
   4   0  -3 5836.99 252.789  10
  -4   0   3 5039.38 338.605   9
  -4   0   3 5592.61 338.283   4
   4   0  -3 5126.07 304.814  16
  -4   0   3 5743.05 300.432  11
  -4   0   3 5361.95 306.238   7
   4   0  -2 222.212 33.1592  15
   4   0  -2 188.153 66.8293   3
   4   0  -2 233.654 70.6492  16
  -4   0   2 155.980 27.4414  21
  -4   0   2 213.890 59.6731   7
   4   0  -2 192.658 30.0493  13
   4   0  -2 210.460 32.0731  14
  -4   0   2 318.088 56.4101   2
  -4   0   2 190.019 29.4897  23
   4   0  -2 247.637 86.7368   6
  -4   0   2 149.689 26.6293  19
  -4   0   2 204.967 30.5908  18
   4   0  -2 309.637 47.9669  10
  -4   0   2 245.655 73.8847   9
  -4   0   2 202.349 30.9358  22
  -4   0   2 261.113 61.5792  11
  -4   0   2 355.130 84.7186   4
   4   0  -1 1775.35 113.652  14
   4   0  -1 1475.82 156.854   3
  -4   0   1 1533.27 112.338  23
  -4   0   1 1572.88 116.118  21
  -4   0   1 1715.56 134.300  11
  -4   0   1 1630.01 114.938  19
  -4   0   1 1692.61 133.007   2
  -4   0   1 1819.98 161.821   9
   4   0  -1 1632.24 82.9485  10
  -4   0   1 1565.15 113.922  18
   4   0  -1 1762.28 194.429   6
  -4   0   1 1545.90 114.689  17
   4   0  -1 1702.12 177.027  16
   4   0  -1 1777.52 114.964  15
   4   0   0 12618.7 463.546   3
   4   0   0 14283.4 409.051  14
  -4   0   0 14033.2 435.342  18
  -4   0   0 14255.6 432.701  23
  -4   0   0 13944.4 431.084  21
  -4   0   0 14088.7 462.083   9
  -4   0   0 13014.7 397.532  11
  -4   0   0 14241.8 434.834  19
  -4   0   0 13571.0 432.858   2
  -4   0   0 14518.8 446.145  17
   4   0   0 14646.3 567.025   6
   4   0   0 13665.6 561.739  16
   4   0   0 11551.3 491.869   1
   4   0   0 14297.8 415.670  15
   4   0   1 2020.90 171.085   3
   4   0   1 2077.17 145.795  14
   4   0   1 2185.91 207.658   1
  -4   0  -1 2009.78 160.793  23
  -4   0  -1 2170.46 163.355  21
  -4   0  -1 2022.03 128.550  11
  -4   0  -1 2070.69 164.125  19
  -4   0  -1 1996.62 165.827  17
  -4   0  -1 2123.86 167.061  18
  -4   0  -1 2132.00 156.571   2
  -4   0  -1 2094.56 151.403   9
   4   0   1 2069.32 197.611   6
   4   0   1 2162.13 220.888  16
   4   0   1 2383.90 158.101  15
   4   0   2 10420.5 434.914   3
   4   0   2 11648.5 510.387   1
   4   0   2 11648.8 406.605  14
  -4   0  -2 11355.3 441.941  23
   4   0   2 11714.4 488.538   6
  -4   0  -2 13397.8 438.674  20
  -4   0  -2 11222.8 443.034  19
  -4   0  -2 11759.6 452.777  18
  -4   0  -2 11305.6 407.583   2
  -4   0  -2 11454.8 456.062  17
  -4   0  -2 11555.5 382.473   9
  -4   0  -2 10907.7 342.018  11
  -4   0  -2 12654.8 395.648   8
   4   0   2 11507.9 555.612  16
   4   0   3 69510.9 1608.20   3
   4   0   3 71976.1 1712.95   1
   4   0   3 73457.1 1521.55  14
  -4   0  -3 71790.0 1594.41  23
   4   0   3 76023.9 1655.27   6
  -4   0  -3 83460.8 1581.66  20
  -4   0  -3 71359.0 1593.42  19
  -4   0  -3 71961.5 1601.70  18
  -4   0  -3 68655.6 1501.38   2
  -4   0  -3 72801.9 1623.83  17
  -4   0  -3 71872.8 1436.60   9
   4   0   3 73029.4 1826.10  16
  -4   0  -3 81505.8 1517.09   8
   4   0   4 600.049 100.376  15
   4   0   4 886.261 116.419  14
   4   0   4 627.467 116.700   3
  -4   0  -4 777.015 121.914  21
   4   0   4 636.412 109.490   6
  -4   0  -4 792.278 117.075  20
  -4   0  -4 710.719 118.088  19
  -4   0  -4 527.479 106.920  18
  -4   0  -4 691.797 103.913   2
  -4   0  -4 823.078 131.027  17
  -4   0  -4 769.259 121.297  23
   4   0   4 641.569 125.069   1
   4   0   4 616.420 144.871  16
  -4   0  -4 689.863 100.464   8
   4   0   5 11781.5 587.495   1
   4   0   5 12831.2 497.371  14
  -4   0  -5 12468.9 541.987  19
   4   0   5 12874.8 509.440   6
  -4   0  -5 12220.4 534.723  23
  -4   0  -5 13077.3 461.573   5
  -4   0  -5 13207.2 528.024  20
  -4   0  -5 12064.6 533.769  21
  -4   0  -5 12668.3 549.294  18
  -4   0  -5 10851.2 459.477   2
  -4   0  -5 12489.0 553.949  17
   4   0   5 13002.9 704.752  16
  -4   0  -5 13370.5 494.753   8
   4   0   5 12562.6 501.151  15
   4   0   6 8715.05 532.527   1
   4   0   6 8978.82 464.107   7
   4   0   6 10461.2 459.859  14
   4   0   6 9084.94 426.313   6
  -4   0  -6 9651.42 485.913  23
  -4   0  -6 9866.48 499.647  18
  -4   0  -6 9560.60 405.707   5
  -4   0  -6 10068.2 494.953  21
  -4   0  -6 10571.8 488.068  20
  -4   0  -6 9702.24 491.060  19
  -4   0  -6 10268.5 519.096  17
  -4   0  -6 9240.68 438.967   2
   4   0   6 10455.9 673.068  16
  -4   0  -6 10604.2 456.190   8
   4   0   6 10580.0 470.364  15
   4   0   7 38033.6 1319.98   1
  -4   0  -7 42611.3 1196.01  23
   4   0   7 37467.3 1109.17   7
   4   0   7 41805.6 1110.93  14
  -4   0  -7 41054.1 1188.89  19
   4   0   7 38961.5 1008.21   4
   4   0   7 38057.2 1025.13   6
  -4   0  -7 41621.1 1184.79  21
   4   0   7 38977.8 949.000  12
  -4   0  -7 39712.4 1146.35  20
  -4   0  -7 35757.1 988.281   5
  -4   0  -7 40444.6 1191.07  18
  -4   0  -7 41355.2 1207.22  17
  -4   0  -7 38684.7 1091.51   2
   4   0   7 40754.7 1478.83  16
  -4   0  -7 40913.8 1102.27   8
   4   0   7 41908.3 1121.24  15
   4   0   8 40.2412 47.3741  15
  -4   0  -8-14.7098 45.1695  17
   4   0   8 15.7688 42.7974   7
   4   0   8 50.8919 40.1956  14
  -4   0  -8 73.3891 62.2235   2
   4   0   8 21.1448 50.7744  12
  -4   0  -8-16.6321 41.1987  21
  -4   0  -8-4.41722 33.3226   5
  -4   0  -8 55.8648 61.2695  19
  -4   0  -8 19.8642 51.6244  20
  -4   0  -8 87.8530 63.6585  18
  -4   0  -8 66.0443 64.0068  23
   4   0   8 49.9478 77.4726   1
   4   0   8 45.8373 43.5595   4
  -4   0  -8 157.377 92.8832   8
  -4   0  -9 43.0127 40.4124  21
   4   0   9 108.460 75.6823  15
   4   0   9 74.4728 47.2609   7
   4   0   9 77.4069 55.0314  14
  -4   0  -9 1.62114 38.5196  19
  -4   0  -9-48.0158 53.7064   2
   4   0   9 8.39630 32.6850  12
  -4   0  -9 43.4151 56.8473  20
  -4   0  -9 1.78652 54.0985  18
  -4   0  -9 13.2903 45.8609  17
  -4   0  -9-14.2731 47.3174  23
  -4   0  -9 194.624 100.051   8
   4   0   9-50.7629 77.7515   1
   4   0  10-47.7037 54.9571  15
   4   0  10 45.3558 102.456   1
   4   0  10 62.6210 57.6130   7
   4   0  10 44.4436 47.7203  14
  -4   0 -10 62.2194 59.6366  19
  -4   0 -10 7.49948 41.4033  21
  -4   0 -10 19.3425 41.2609  20
  -4   0 -10 11.1373 44.8518  18
  -4   0 -10 48.9297 52.9332  23
  -4   0 -10 10.6921 43.6052  17
  -4   0 -10-35.4902 74.4818   8
   4   0  11 196.052 78.6032  15
   4   0  11 112.720 73.3755   7
   4   0  11 63.5481 86.2668   1
   4   0  11 76.3344 66.4709  14
  -4   0 -11 239.824 101.629  23
  -4   0 -11 158.388 77.7990  21
  -4   0 -11 182.780 93.9536  19
  -4   0 -11 236.750 97.4647  18
  -4   0 -11 110.781 58.4841  20
  -4   0 -11 121.125 76.2169  17
  -4   0 -11 236.591 124.130   8
   4   0  12 1253.58 212.734   7
   4   0  12 1841.58 368.225   1
  -4   0 -12 1538.66 242.504  20
  -4   0 -12 1583.90 262.524   8
  -4  -1   8 1662.15 233.784   7
   4   1  -8 1287.58 190.378   8
  -4  -1   7 14.0274 45.2417   7
  -4  -1   7 121.997 67.7432  11
   4   1  -7 101.504 63.3256   5
  -4  -1   7-71.1653 83.6697   9
  -4  -1   7-55.7284 91.2286   4
   4   1  -7 79.8886 57.1277   8
  -4  -1   6 1272.31 180.594   7
   4   1  -6 1058.20 178.800   6
  -4  -1   6 1343.06 183.401  11
   4   1  -6 1464.28 187.307   5
  -4  -1   6 1059.93 181.923   9
  -4  -1   6 1473.26 212.751   4
   4   1  -6 1148.53 152.562   8
  -4  -1   5 561.717 109.616   7
   4   1  -5 521.906 118.665   6
  -4  -1   5 632.908 118.928  11
   4   1  -5 581.639 111.577   5
  -4  -1   5 461.774 114.628   9
  -4  -1   5 646.929 136.078   4
  -4  -1   4 393.345 88.2410   7
   4   1  -4 378.499 104.924   6
  -4  -1   4 267.910 73.9474  11
  -4  -1   4 291.834 89.6279   9
  -4  -1   4 408.820 110.675   4
   4   1  -4 357.667 92.6748   3
  -4  -1   3 798.850 114.651   7
   4   1  -3 478.863 104.288   6
   4   1  -3 583.946 107.214   3
   4   1  -3 477.764 80.6342  20
  -4  -1   3 689.014 99.8788  11
  -4  -1   3 786.301 71.5097   2
  -4  -1   3 602.214 111.788   9
  -4  -1   3 805.634 128.045   4
   4   1  -2 6786.11 203.138  14
   4   1  -2 7418.80 348.429   3
  -4  -1   2 6557.10 188.032  23
  -4  -1   2 7577.16 312.279  11
  -4  -1   2 6315.96 184.349  19
  -4  -1   2 6588.43 188.075  22
   4   1  -2 6170.88 189.510  13
   4   1  -2 7905.64 243.042  10
  -4  -1   2 8795.89 276.052   2
  -4  -1   2 6480.39 186.553  21
  -4  -1   2 7369.22 354.966   9
  -4  -1   2 8192.02 375.443   4
   4   1  -2 6459.79 195.141  17
   4   1  -2 7615.67 410.510   6
   4   1  -2 7157.07 319.436  16
   4   1  -2 6453.80 197.137  15
  -4  -1   2 7360.59 333.304   7
   4   1  -1 839.391 79.3454  14
   4   1  -1 817.068 104.979   3
  -4  -1   1 674.763 70.4040  23
   4   1  -1 825.120 78.6890  13
  -4  -1   1 742.862 73.1934  22
  -4  -1   1 672.106 70.5396  21
   4   1  -1 692.828 120.253   6
   4   1  -1 641.041 45.7877  10
  -4  -1   1 854.421 76.8272  18
  -4  -1   1 886.696 87.0089   2
  -4  -1   1 778.923 105.411   9
  -4  -1   1 728.809 71.2978  19
  -4  -1   1 731.448 83.1922  11
  -4  -1   1 692.759 101.919   4
   4   1  -1 780.374 109.390  16
   4   1  -1 928.067 82.7741  15
  -4  -1   0 462.436 57.5779  11
   4   1   0 618.642 73.5952  14
  -4  -1   0 504.161 66.2031  23
   4   1   0 406.851 64.6669   3
   4   1   0 498.974 102.202   6
  -4  -1   0 496.570 66.3805  19
  -4  -1   0 471.484 65.0800  18
  -4  -1   0 619.807 75.4444   2
  -4  -1   0 566.125 71.2588  17
  -4  -1   0 503.357 78.5835   9
  -4  -1   0 378.643 69.6154   4
  -4  -1   0 548.610 70.2504  21
   4   1   0 555.067 98.7081  16
   4   1   0 437.653 61.7683  15
   4   1   0 517.251 70.9943   1
   4   1   1 18648.5 529.326   3
   4   1   1 21911.5 552.457  14
  -4  -1  -1 20668.0 564.376  21
   4   1   1 20785.7 685.349   6
  -4  -1  -1 20929.2 563.943  23
  -4  -1  -1 18408.0 453.704  11
  -4  -1  -1 20944.7 561.387  19
  -4  -1  -1 21241.1 564.453  18
  -4  -1  -1 22091.3 558.167   2
  -4  -1  -1 21633.1 571.537  17
  -4  -1  -1 21042.5 571.634   9
   4   1   1 19574.6 683.356  16
   4   1   1 20882.5 551.326  15
   4   1   1 20510.6 574.138   1
   4   1   2 61622.4 1331.74   3
   4   1   2 68200.9 1342.56  14
  -4  -1  -2 65353.1 1373.82  23
   4   1   2 72330.6 1543.51   6
  -4  -1  -2 65576.4 1378.97  21
  -4  -1  -2 68170.4 1334.96   2
  -4  -1  -2 61560.1 1177.65  11
  -4  -1  -2 65072.9 1373.44  19
  -4  -1  -2 65675.5 1378.09  18
  -4  -1  -2 66947.4 1389.89  17
  -4  -1  -2 67175.7 1328.74   9
  -4  -1  -2 70131.9 1330.35   8
   4   1   2 64371.9 1575.75  16
   4   1   2 66973.0 1347.49  15
   4   1   2 64256.4 1380.37   1
   4   1   3 15059.0 483.565  14
  -4  -1  -3 15006.7 515.348  21
  -4  -1  -3 14546.8 504.654  23
  -4  -1  -3 16183.9 509.780  20
  -4  -1  -3 15125.6 513.456  19
  -4  -1  -3 14616.4 509.686  18
  -4  -1  -3 14270.0 456.941   2
  -4  -1  -3 15659.8 529.519  17
   4   1   3 14361.8 643.361  16
  -4  -1  -3 16551.4 491.208   8
   4   1   3 16127.3 590.479   6
   4   1   3 15134.4 488.689  15
   4   1   3 13696.9 504.361   1
   4   1   3 12912.4 471.534   3
   4   1   4 13975.7 489.418  14
   4   1   4 13931.6 553.011   6
  -4  -1  -4 14150.5 521.093  23
  -4  -1  -4 14867.9 510.366  20
  -4  -1  -4 14121.6 520.939  19
  -4  -1  -4 13917.4 516.675  21
  -4  -1  -4 14259.2 526.255  18
  -4  -1  -4 13755.1 461.651   2
  -4  -1  -4 14070.0 531.249  17
   4   1   4 13493.6 668.711  16
   4   1   4 13782.1 489.675  15
   4   1   4 13261.2 527.088   1
   4   1   5 25807.1 750.602  14
   4   1   5 25524.3 794.764   6
  -4  -1  -5 25693.3 788.204  23
  -4  -1  -5 25972.4 793.652  21
  -4  -1  -5 27490.3 787.508  20
  -4  -1  -5 25813.7 790.524  19
  -4  -1  -5 26712.0 805.888  18
  -4  -1  -5 25332.6 705.729   2
  -4  -1  -5 25191.1 795.166  17
   4   1   5 25214.2 1013.51  16
  -4  -1  -5 27158.9 757.463   8
   4   1   5 26256.9 761.872  15
   4   1   5 24448.4 824.836   1
   4   1   6 1383.11 193.848   7
   4   1   6 1668.02 173.526  14
   4   1   6 1481.45 173.264   6
  -4  -1  -6 1362.23 167.670  23
  -4  -1  -6 1581.79 187.320  21
  -4  -1  -6 1384.71 161.889  20
  -4  -1  -6 1421.26 174.128  19
  -4  -1  -6 1628.93 189.591  18
  -4  -1  -6 1633.94 160.046   2
  -4  -1  -6 1260.87 172.725  17
   4   1   6 1358.79 122.140   4
   4   1   6 1465.15 243.742  16
  -4  -1  -6 1753.41 180.288   8
   4   1   6 1572.02 172.520  15
   4   1   6 1412.33 188.647   1
   4   1   7 2656.30 261.832   7
   4   1   7 3155.34 255.798  14
   4   1   7 2805.08 239.371   6
  -4  -1  -7 2733.29 223.106   2
  -4  -1  -7 2689.43 254.729  23
  -4  -1  -7 2686.57 257.711  21
   4   1   7 2738.68 202.789  12
  -4  -1  -7 2551.84 183.361   5
  -4  -1  -7 3124.08 274.393  19
  -4  -1  -7 2958.88 271.240  18
  -4  -1  -7 2896.83 271.834  17
   4   1   7 2819.30 185.841   4
  -4  -1  -7 2980.40 254.483  20
  -4  -1  -7 3229.73 263.289   8
   4   1   7 2897.99 249.307  15
   4   1   7 2857.52 294.604   1
   4   1   8 12625.2 612.797   7
   4   1   8 13490.3 586.306  14
   4   1   8 11654.6 523.776   6
  -4  -1  -8 12807.2 611.512  23
   4   1   8 12630.2 488.063  12
  -4  -1  -8 10272.6 419.754   5
  -4  -1  -8 12576.1 569.814  20
  -4  -1  -8 12271.5 607.753  19
  -4  -1  -8 12642.9 626.826  18
  -4  -1  -8 12300.9 621.510  17
  -4  -1  -8 13601.7 557.623   2
  -4  -1  -8 13527.6 587.085   8
  -4  -1  -8 12538.2 608.685  21
   4   1   8 13072.5 576.976  15
   4   1   8 12640.9 683.219   1
  -4  -1  -9 2249.78 264.047  18
   4   1   9 1850.27 289.583   1
   4   1   9 2190.31 255.306   7
   4   1   9 2246.64 245.864  14
  -4  -1  -9 2136.30 253.301  23
  -4  -1  -9 2121.95 252.822  21
   4   1   9 2204.41 200.811  12
  -4  -1  -9 1905.59 226.277  20
  -4  -1  -9 2047.44 249.923  19
  -4  -1  -9 2240.40 268.033  17
  -4  -1  -9 2261.22 238.043   2
  -4  -1  -9 2097.63 243.069   8
   4   1   9 2000.22 235.928  15
   4   1  10 133.685 73.7934  15
  -4  -1 -10 109.143 67.9026  23
   4   1  10 108.903 75.1251   7
  -4  -1 -10 351.922 109.619  21
   4   1  10 174.414 89.2781  14
   4   1  10 384.811 87.4707  12
  -4  -1 -10 106.939 59.6588  20
  -4  -1 -10 151.061 79.3138  17
   4   1  10 261.302 129.975   1
  -4  -1 -10 167.360 79.2412  18
  -4  -1 -10 168.249 83.2753  19
  -4  -1 -10 281.295 109.241   8
   4   1  11 6782.24 499.596   7
   4   1  11 8163.59 682.931   1
   4   1  11 8718.30 548.466  14
  -4  -1 -11 8932.20 557.847  23
  -4  -1 -11 8025.19 540.561  21
  -4  -1 -11 5849.24 446.306  20
  -4  -1 -11 9061.59 565.940  19
  -4  -1 -11 8756.92 556.790  18
   4   1  11 7363.36 414.310  12
  -4  -1 -11 6660.03 493.888   8
   4   1  11 9041.45 554.503  15
   4   1  12 1759.84 267.496   7
  -4  -1 -12 2188.01 303.363   8
   4   1  12 2545.72 413.304   1
  -4  -2   8 157.161 92.3601   7
   4   2  -8 112.946 60.0295   5
  -4  -2   8 98.8096 83.9283   9
  -4  -2   8 259.674 115.085   4
   4   2  -8 142.316 84.9753   8
  -4  -2   7-64.0692 59.2506   7
   4   2  -7-6.57693 33.1799   5
  -4  -2   7-48.5499 58.8841   9
  -4  -2   7 6.05734 85.0405   4
   4   2  -7 3.66945 72.4399   8
  -4  -2   6 141.719 70.7345   7
   4   2  -6 199.281 69.2277   5
  -4  -2   6 70.7644 41.0797   9
  -4  -2   6 134.064 70.4510   4
   4   2  -6 122.951 58.7705   8
   4   2  -5 2653.13 253.412   6
  -4  -2   5 2575.76 238.811  11
   4   2  -5 2825.89 244.746   5
  -4  -2   5 2336.04 242.678   9
  -4  -2   5 3095.19 285.450   4
  -4  -2   5 2721.81 245.246   7
  -4  -2   4-21.2277 41.7918   7
   4   2  -4 0.87028 29.7988  20
   4   2  -4 19.2089 35.6397   6
  -4  -2   4 14.5123 29.3468  11
   4   2  -4-85.9946 46.6128   5
  -4  -2   4-100.847 51.8288   9
  -4  -2   4 71.8679 59.2437   4
  -4  -2   3 191.665 51.9703   7
  -4  -2   3 189.096 38.0905   2
   4   2  -3 158.593 67.3564   6
  -4  -2   3 299.406 69.1366  11
   4   2  -3 68.2073 43.1532  20
  -4  -2   3 78.1586 36.7777   9
  -4  -2   3 176.939 69.1279   4
   4   2  -2 286.710 50.5189  14
   4   2  -2 333.650 47.9834  13
  -4  -2   2 377.776 47.4038  21
   4   2  -2 255.358 80.2207   6
  -4  -2   2 371.432 47.2375  22
  -4  -2   2 417.730 49.0561  19
  -4  -2   2 441.239 50.9574  23
  -4  -2   2 449.058 60.8382   2
  -4  -2   2 306.209 65.0696  11
  -4  -2   2 301.903 70.7730   9
   4   2  -2 341.935 50.0132  17
  -4  -2   2 379.295 89.0084   4
   4   2  -2 151.882 35.2733  16
   4   2  -2 341.500 52.9992  15
   4   2  -1 60335.5 1140.77  14
   4   2  -1 62824.2 1380.66   6
  -4  -2   1 62977.7 1137.91   2
   4   2  -1 59057.2 1121.10   3
  -4  -2   1 60389.2 1099.44  23
  -4  -2   1 60340.6 1102.27  22
  -4  -2   1 58407.2 1133.13  11
  -4  -2   1 60193.9 1090.27  19
   4   2  -1 60647.8 1117.94  13
  -4  -2   1 62866.6 1237.35   9
  -4  -2   1 60553.3 1100.33  21
  -4  -2   1 62171.9 1255.71   4
   4   2  -1 60857.1 1131.73  17
   4   2  -1 61005.1 1137.31  15
   4   2   0 2060.96 142.468  13
   4   2   0 1975.42 143.733  14
   4   2   0 1641.54 98.7761   3
  -4  -2   0 1666.11 110.253  11
   4   2   0 2028.98 198.693   6
  -4  -2   0 1964.04 138.470  22
  -4  -2   0 1895.70 134.528  21
  -4  -2   0 1978.21 134.971  19
  -4  -2   0 1778.14 129.135  23
  -4  -2   0 2103.31 140.746   2
  -4  -2   0 1881.26 130.924  18
  -4  -2   0 1839.83 143.427   4
  -4  -2   0 1887.33 149.450   9
   4   2   0 1533.65 147.376  16
   4   2   0 1838.24 100.970   1
   4   2   0 1995.01 142.727  15
   4   2   1 122.928 39.6144  15
  -4  -2  -1 159.385 40.5759   2
   4   2   1 146.203 34.1508   1
   4   2   1 95.9363 37.6770  14
   4   2   1 100.774 24.9169   3
  -4  -2  -1 112.406 39.4914  23
  -4  -2  -1 112.909 39.0694  22
   4   2   1 167.198 62.1800   6
  -4  -2  -1 106.990 35.4945  21
  -4  -2  -1 143.758 26.4526  11
  -4  -2  -1 94.6773 31.2444  19
  -4  -2  -1 100.591 17.5312  10
  -4  -2  -1 173.135 45.5026  18
  -4  -2  -1 116.735 39.0865   9
  -4  -2  -1 113.835 32.2897   4
   4   2   1 161.655 60.0512  16
   4   2   1 135.457 40.8752  13
   4   2   2 23050.5 621.314  14
   4   2   2 24682.1 758.449   6
  -4  -2  -2 22967.1 627.226  21
  -4  -2  -2 23619.3 626.331  19
  -4  -2  -2 21522.7 472.700  10
  -4  -2  -2 23983.2 597.394   2
  -4  -2  -2 23342.7 622.170  18
  -4  -2  -2 23604.5 606.366   9
  -4  -2  -2 22842.3 619.273  23
   4   2   2 24273.5 633.086  13
  -4  -2  -2 23295.4 593.599   8
   4   2   2 21938.5 750.810  16
   4   2   2 22422.2 563.129   1
   4   2   2 23178.2 620.123  15
   4   2   3 8869.64 352.112  14
   4   2   3 8838.72 421.702   6
  -4  -2  -3 8541.03 351.071  23
  -4  -2  -3 8300.33 346.958  19
  -4  -2  -3 8458.23 316.763   2
  -4  -2  -3 8000.15 265.438  10
  -4  -2  -3 8161.90 344.709  18
  -4  -2  -3 9071.09 365.805  17
   4   2   3 8073.09 450.565  16
  -4  -2  -3 8511.23 356.879  21
  -4  -2  -3 9126.51 340.332   8
   4   2   3 8460.48 324.940   1
   4   2   3 8716.41 348.412  15
   4   2   4 70216.5 1482.04  14
  -4  -2  -4 68401.4 1497.48  23
  -4  -2  -4 67603.5 1506.60  21
   4   2   4 72867.0 1614.16   6
  -4  -2  -4 67195.7 1498.03  19
  -4  -2  -4 68139.6 1502.86  18
  -4  -2  -4 61962.5 1356.79  10
  -4  -2  -4 71528.8 1437.46   2
  -4  -2  -4 70491.5 1520.00  17
  -4  -2  -4 79734.4 1500.19   8
   4   2   4 71051.1 1476.81   1
   4   2   4 69446.9 1482.50  15
   4   2   5 11062.6 447.959  14
   4   2   5 11432.1 508.768   6
  -4  -2  -5 11072.3 459.992  23
  -4  -2  -5 11368.4 443.119  20
  -4  -2  -5 10958.3 457.887  19
  -4  -2  -5 11286.4 468.177  18
  -4  -2  -5 11772.3 418.900   2
  -4  -2  -5 11148.9 473.833  17
   4   2   5 9542.26 264.640   4
  -4  -2  -5 11741.2 479.474  21
  -4  -2  -5 12404.2 464.120   8
   4   2   5 11383.2 473.111   1
   4   2   5 11443.1 455.838  15
   4   2   6 1813.47 180.979  14
  -4  -2  -6 1509.59 170.179  19
   4   2   6 1845.03 200.620   6
  -4  -2  -6 2031.80 193.724  23
  -4  -2  -6 1752.02 171.556  20
  -4  -2  -6 1611.37 176.274  18
  -4  -2  -6 2222.61 176.799   2
  -4  -2  -6 1665.59 179.706  17
   4   2   6 1581.72 95.4150   4
  -4  -2  -6 2009.75 188.397   8
  -4  -2  -6 1839.51 188.276  21
   4   2   6 1608.01 184.540   1
   4   2   6 1699.70 176.093  15
   4   2   7 428.837 98.4697  15
   4   2   7 526.563 134.381   7
   4   2   7 382.138 96.4563  14
  -4  -2  -7 295.612 72.7870   2
  -4  -2  -7 305.639 92.4320  21
   4   2   7 257.236 88.4731   1
  -4  -2  -7 224.095 67.5502  20
  -4  -2  -7 291.593 80.3709  19
  -4  -2  -7 302.302 87.7239  18
   4   2   7 301.294 76.8726  12
  -4  -2  -7 265.567 81.6325  17
  -4  -2  -7 335.357 92.3595  23
   4   2   7 196.644 74.0249   6
  -4  -2  -7 410.986 103.328   8
   4   2   8 26.0509 39.0906  15
   4   2   8 8.56899 63.4061   7
   4   2   8 29.0987 48.2298   6
   4   2   8 79.8013 58.3143  14
  -4  -2  -8 6.84547 33.9596   2
   4   2   8 2.29465 39.8013  12
  -4  -2  -8-23.1172 37.0314  21
   4   2   8-14.3520 77.6968   1
  -4  -2  -8-12.2546 61.1464  20
  -4  -2  -8-6.50026 44.8983  19
  -4  -2  -8 12.2974 45.7608  23
  -4  -2  -8-41.1134 54.8594  18
  -4  -2  -8 89.4382 73.2294   8
   4   2   9 5894.01 443.053   7
   4   2   9 6570.79 422.170  14
  -4  -2  -9 6865.24 443.000  22
  -4  -2  -9 5747.81 402.915  21
   4   2   9 5469.34 334.582  12
  -4  -2  -9 5339.74 364.560  20
  -4  -2  -9 6648.70 427.362  19
   4   2   9 6553.39 426.448  13
  -4  -2  -9 6603.62 429.571  18
  -4  -2  -9 6284.10 416.194  23
  -4  -2  -9 6644.35 376.240   2
  -4  -2  -9 6187.26 407.052   8
   4   2   9 6464.61 416.884  15
   4   2   9 5548.90 464.799   1
   4   2  10 170.174 81.0374  15
   4   2  10 345.723 128.523   7
   4   2  10 202.713 90.3498  14
   4   2  10 184.029 49.4295  12
  -4  -2 -10 115.736 67.3901  23
   4   2  10 164.315 76.9124  13
  -4  -2 -10 261.332 84.7677  20
  -4  -2 -10 218.867 86.4955  19
   4   2  10 283.753 121.024   1
  -4  -2 -10 253.802 92.7876  18
  -4  -2 -10 261.338 101.755  22
  -4  -2 -10 108.423 76.9471  21
  -4  -2 -10 273.095 113.221   8
   4   2  11 5373.71 532.227   1
   4   2  11 4706.45 430.693   7
   4   2  11 5489.84 366.152  12
   4   2  11 6185.67 464.627  14
   4   2  11 6538.97 466.258  13
  -4  -2 -11 4120.18 354.769  20
  -4  -2 -11 4675.79 405.629   8
   4   2  11 6760.43 479.420  15
   4   2  12-72.9784 76.7441   7
   4   2  12-170.665 79.0308  12
  -4  -2 -12 47.4016 94.9651  10
   4   2  12-65.4576 95.7446   1
  -4  -2 -12 81.9283 90.6132   8
  -4  -3   8-1.14929 60.5255   7
   4   3  -8-200.311 90.6986   5
  -4  -3   8-24.2757 46.4101   9
  -4  -3   8-25.9595 69.6361   4
   4   3  -8-11.0295 54.9493   8
   4   3  -7 3273.22 313.339   5
  -4  -3   7 1930.31 244.820   9
  -4  -3   7 4059.51 375.655   4
   4   3  -7 2490.15 259.404   8
  -4  -3   7 3136.67 299.570   7
  -4  -3   6 454.563 111.023   7
   4   3  -6 283.106 93.3797   5
  -4  -3   6 330.085 92.5358   9
  -4  -3   6 376.905 118.728   4
   4   3  -6 294.570 92.9107   8
   4   3  -5 14069.5 615.760  20
   4   3  -5 15413.0 636.459   5
  -4  -3   5 13727.0 605.978   9
  -4  -3   5 17837.8 723.336   4
  -4  -3   5 17253.5 651.239   7
  -4  -3   4 28.1499 33.3043   7
   4   3  -4 102.773 60.4112   6
   4   3  -4 77.3012 52.7679  20
   4   3  -4 98.3016 42.8694   5
  -4  -3   4 76.6600 49.3299   9
  -4  -3   4 143.135 71.9628   4
   4   3  -3 1452.93 173.100   6
   4   3  -3 1353.20 167.785  20
  -4  -3   3 1354.37 123.997   2
   4   3  -3 1406.49 157.539   5
  -4  -3   3 1315.20 145.774   9
  -4  -3   3 1718.36 185.275   4
   4   3  -2 9663.91 382.805  14
  -4  -3   2 12169.2 473.708   4
  -4  -3   2 10610.0 345.495  23
   4   3  -2 11656.5 499.624   6
  -4  -3   2 10598.2 344.398  22
  -4  -3   2 10759.0 342.989  21
   4   3  -2 9897.28 364.124  13
  -4  -3   2 11275.4 399.112   2
   4   3  -2 8711.32 239.688   1
   4   3  -2 10393.3 373.673  18
  -4  -3   2 11245.1 419.508   9
   4   3  -2 9947.25 366.442  17
   4   3  -2 9692.92 376.067  15
   4   3  -1 4342.74 248.946  14
  -4  -3   1 4472.48 219.266  23
   4   3  -1 4528.68 301.311   6
  -4  -3   1 4392.36 220.633  22
  -4  -3   1 4430.46 217.211  21
  -4  -3   1 4406.45 213.508  19
   4   3  -1 4209.59 227.990  13
  -4  -3   1 4811.89 248.563   2
   4   3  -1 4416.49 158.987   1
  -4  -3   1 3976.34 233.934   9
  -4  -3   1 4683.38 265.663   4
   4   3  -1 4357.91 234.026  17
   4   3  -1 4336.63 243.671  15
  -4  -3   0 16560.2 501.729  22
   4   3   0 16489.2 533.842  14
   4   3   0 18154.8 639.988   6
   4   3   0 16874.1 518.226  13
  -4  -3   0 16910.0 502.087  23
  -4  -3   0 16207.9 494.809  21
  -4  -3   0 16454.5 489.420  19
  -4  -3   0 17821.7 535.012   2
   4   3   0 17633.2 415.962   1
  -4  -3   0 17836.0 519.574   9
  -4  -3   0 16941.2 508.121   4
   4   3   0 17236.9 527.295  17
   4   3   0 17225.8 538.079  15
   4   3   1 781.197 100.581  14
   4   3   1 870.611 104.709  13
  -4  -3  -1 747.082 94.7946  23
  -4  -3  -1 800.973 99.1961  22
   4   3   1 819.740 129.914   6
  -4  -3  -1 910.782 104.722  21
  -4  -3  -1 742.444 94.6666  19
  -4  -3  -1 772.148 101.349   2
  -4  -3  -1 749.256 70.3129  10
  -4  -3  -1 965.664 105.704  18
   4   3   1 896.538 79.0135   1
  -4  -3  -1 788.644 83.4321   4
  -4  -3  -1 851.801 98.1608   9
   4   3   1 731.518 99.3570  15
   4   3   2 13042.3 465.595  14
  -4  -3  -2 12658.1 435.226   2
   4   3   2 13720.0 544.406   6
  -4  -3  -2 13319.8 464.936  22
  -4  -3  -2 12917.5 455.558  21
  -4  -3  -2 12818.9 446.057  19
  -4  -3  -2 13329.7 457.294  23
  -4  -3  -2 11876.6 356.273  10
  -4  -3  -2 13211.0 449.498  18
   4   3   2 13115.3 455.258  13
  -4  -3  -2 12646.0 339.423   4
   4   3   2 12608.8 381.624   1
   4   3   2 13107.9 466.895  15
   4   3   3 666.676 98.3740  15
   4   3   3 476.531 86.2139  14
  -4  -3  -3 665.445 98.2761  23
  -4  -3  -3 682.336 98.6003  19
  -4  -3  -3 571.907 93.1566  22
  -4  -3  -3 638.309 97.9752  21
  -4  -3  -3 717.007 93.8898   2
  -4  -3  -3 655.977 79.3161  10
  -4  -3  -3 744.808 101.581  18
   4   3   3 571.452 89.8068  13
   4   3   3 638.846 80.2165   1
   4   3   3 817.018 129.629   6
  -4  -3  -3 606.308 83.7779   8
   4   3   4 691.230 108.090  14
  -4  -3  -4 883.988 105.086   2
   4   3   4 808.075 115.478  13
  -4  -3  -4 838.118 119.777  22
  -4  -3  -4 848.791 117.920  21
  -4  -3  -4 784.273 110.598  19
  -4  -3  -4 853.766 100.626  10
  -4  -3  -4 853.166 117.863  18
  -4  -3  -4 759.692 112.719  23
   4   3   4 852.205 141.164   6
   4   3   4 825.380 99.4887   1
  -4  -3  -4 995.331 115.285   8
   4   3   4 781.336 113.964  15
   4   3   5-9.73775 43.7452  15
   4   3   5 14.7456 28.3230   1
  -4  -3  -5-17.8601 37.4086  23
  -4  -3  -5-1.63907 21.9597   2
   4   3   5-24.5112 31.4176  14
   4   3   5-3.45720 50.2025   6
   4   3   5-33.6327 29.5491  13
  -4  -3  -5-23.3587 37.1678  19
  -4  -3  -5 49.9164 40.3539  22
  -4  -3  -5 13.8074 26.2564  18
  -4  -3  -5 10.7179 30.3841  10
  -4  -3  -5-13.7574 39.6289  21
  -4  -3  -5 45.2262 49.5665   8
   4   3   6 4231.15 295.188  14
   4   3   6 3464.53 293.584   6
  -4  -3  -6 3850.58 277.801  23
   4   3   6 4353.51 291.939  13
  -4  -3  -6 4100.20 287.020  21
  -4  -3  -6 4281.95 294.559  22
  -4  -3  -6 4082.05 284.791  19
  -4  -3  -6 4092.81 282.979  18
  -4  -3  -6 3812.19 262.123  10
  -4  -3  -6 4341.55 253.773   2
   4   3   6 3928.79 271.851   1
  -4  -3  -6 4093.50 274.060   8
   4   3   6 4269.37 291.997  15
   4   3   7 207.491 83.4440  15
  -4  -3  -7 181.033 56.7827   2
   4   3   7 101.193 51.2734  12
   4   3   7 180.877 74.9843  14
   4   3   7 99.3065 69.4443   7
   4   3   7 151.816 70.2407   1
  -4  -3  -7 202.432 69.8698  23
   4   3   7 263.108 93.4599   6
  -4  -3  -7 102.169 64.8667  22
   4   3   7 247.116 74.3935  13
  -4  -3  -7 128.375 62.9305  21
  -4  -3  -7 62.7687 47.4275  19
  -4  -3  -7 212.043 73.7754  18
  -4  -3  -7 187.223 74.2118  10
  -4  -3  -7 107.933 67.0954   8
   4   3   8 2614.94 270.436   1
   4   3   8 2662.27 296.887   7
   4   3   8 2459.32 248.222  14
  -4  -3  -8 2908.45 267.681  23
   4   3   8 2408.53 261.482   6
  -4  -3  -8 2486.81 249.815  21
  -4  -3  -8 2633.04 257.601  22
   4   3   8 2716.91 256.214  13
   4   3   8 2458.57 216.357  12
  -4  -3  -8 2866.09 263.712  19
  -4  -3  -8 2787.21 259.509  18
  -4  -3  -8 2405.87 244.909  10
  -4  -3  -8 2289.18 201.777   2
  -4  -3  -8 2543.29 239.517   8
   4   3   8 2525.79 248.996  15
   4   3   9 204.307 76.4904  15
   4   3   9 277.361 102.788   7
   4   3   9 183.588 76.6583  14
  -4  -3  -9 281.506 89.6901  22
  -4  -3  -9 307.317 96.0548  23
   4   3   9 131.449 81.7973   1
   4   3   9 258.476 85.4444  12
  -4  -3  -9 219.926 79.9672  19
  -4  -3  -9 271.220 89.1482  21
  -4  -3  -9 152.026 72.8164  10
   4   3   9 224.708 92.8284  13
  -4  -3  -9 281.093 98.7546  18
  -4  -3  -9 391.278 102.023   8
   4   3  10 992.839 181.336  15
   4   3  10 846.606 181.776   7
   4   3  10 968.729 186.147  14
  -4  -3 -10 723.901 162.884  22
   4   3  10 775.418 161.717  13
  -4  -3 -10 872.137 175.503  23
  -4  -3 -10 651.770 155.481  21
   4   3  10 881.823 144.430  12
   4   3  10 964.192 196.711   1
  -4  -3 -10 1027.78 185.435  19
  -4  -3 -10 888.889 171.476  18
  -4  -3 -10 917.382 177.643  10
  -4  -3 -10 1001.73 169.693   8
   4   3  11-42.6708 71.9523   7
   4   3  11 48.2660 50.4705  12
   4   3  11 36.6606 73.6199   1
  -4  -3 -11 18.4238 70.7182  10
  -4  -3 -11 35.5787 78.7045   8
   4   3  12 87.9910 65.9967   7
   4   3  12 152.579 79.2012  12
   4   3  12 126.390 105.586   1
  -4  -3 -12 109.092 92.3807  10
  -4  -3 -12 66.2547 72.1319   8
  -4  -4   8 129.821 73.1393   7
   4   4  -8 116.427 79.7170   5
  -4  -4   8 69.8550 59.9023   9
  -4  -4   8 17.8884 68.7006   4
   4   4  -8 111.146 59.2523   8
  -4  -4   7-4.52963 63.1536   7
   4   4  -7 72.1342 46.2144   5
  -4  -4   7-23.9851 43.3880   9
  -4  -4   7 101.753 83.8280   4
   4   4  -7 49.6148 47.0709   8
  -4  -4   6 277.969 85.3165   7
   4   4  -6 325.409 104.028  20
   4   4  -6 300.651 99.9579   5
  -4  -4   6 216.249 102.802   4
  -4  -4   6 209.580 75.1840   9
   4   4  -6 231.893 77.4191   8
   4   4  -5 16076.0 707.084  20
   4   4  -5 17497.1 704.086   5
  -4  -4   5 14929.1 627.400   9
  -4  -4   5 17956.6 671.031   7
   4   4  -4 183.181 73.0074   6
   4   4  -4 290.310 96.5428  20
   4   4  -4 461.995 106.331   5
  -4  -4   4 211.527 64.5354   9
  -4  -4   4 209.753 82.3925   4
  -4  -4   4 136.168 47.4491   2
   4   4  -3 235.093 69.7842  14
  -4  -4   3 313.157 64.9988  23
  -4  -4   3 265.097 57.4366  21
   4   4  -3 325.661 79.1025  13
   4   4  -3 288.787 84.1396  20
   4   4  -3 379.687 93.9386   5
   4   4  -3 244.446 65.3983  18
  -4  -4   3 277.532 67.2287   9
   4   4  -3 246.043 64.4117  17
   4   4  -3 223.407 78.4284   6
  -4  -4   3 386.181 97.8879   4
  -4  -4   3 143.867 56.5719   2
   4   4  -3 206.539 65.8192  15
   4   4  -2 67.8176 42.3303  14
  -4  -4   2 22.5419 21.8608  23
  -4  -4   2 66.2762 34.4003  22
   4   4  -2 24.5037 34.0699   6
  -4  -4   2 26.4066 27.0115  21
   4   4  -2-8.01692 33.6635  13
   4   4  -2 5.04614 16.9953   1
   4   4  -2 16.4373 32.6378   5
   4   4  -2 30.3084 35.6578  18
  -4  -4   2 4.51403 23.9890   9
   4   4  -2 56.3136 43.4668  17
  -4  -4   2-0.83160 36.3461   4
  -4  -4   2 18.7582 35.4330   2
   4   4  -2-6.50744 44.1594  15
   4   4  -1 20627.4 690.176  14
   4   4  -1 20142.9 641.074  13
  -4  -4   1 20195.3 609.860  22
  -4  -4   1 20425.8 596.995  19
  -4  -4   1 21027.0 671.605   2
   4   4  -1 20479.6 629.151   5
  -4  -4   1 20269.7 604.579  21
  -4  -4   1 21638.8 603.837   9
   4   4  -1 19480.5 637.579  17
  -4  -4   1 22711.8 671.329   4
  -4  -4   1 20912.8 613.591  23
   4   4  -1 20917.8 706.848   6
   4   4  -1 21885.2 533.245   1
   4   4  -1 19966.9 669.605  15
   4   4   0 145.317 62.4081  15
  -4  -4   0 94.8634 41.3160  23
   4   4   0 104.471 52.9005  14
  -4  -4   0 94.8769 46.4849  22
   4   4   0 90.0903 49.4177   6
   4   4   0 20.7228 32.0310  13
  -4  -4   0 96.5201 43.3743  21
  -4  -4   0 111.150 45.3109  19
   4   4   0 68.8285 26.6388   1
   4   4   0 51.8439 33.8204   5
  -4  -4   0 97.1050 40.2003   9
   4   4   0 83.6648 41.8589  17
  -4  -4   0 94.1213 45.5914   4
  -4  -4   0 175.871 63.6864   2
   4   4   1 25096.6 761.598  14
  -4  -4  -1 24311.0 700.793  23
  -4  -4  -1 24824.0 704.769  21
   4   4   1 25378.2 797.126   6
  -4  -4  -1 23769.1 700.096  22
   4   4   1 25447.4 731.464  13
  -4  -4  -1 24397.6 692.579  19
  -4  -4  -1 25027.1 744.293   2
  -4  -4  -1 24273.7 629.189  10
   4   4   1 25575.6 621.843   1
  -4  -4  -1 25479.8 669.830   9
   4   4   1 25123.2 736.017  17
  -4  -4  -1 25085.6 629.922   4
   4   4   1 24559.9 750.147  15
   4   4   2 37.4750 34.4569  15
  -4  -4  -2 35.4685 32.2469  22
   4   4   2 48.6919 44.0208  14
  -4  -4  -2 15.9686 25.2414  23
  -4  -4  -2 63.3553 33.6851  21
  -4  -4  -2 69.0459 30.5288  19
  -4  -4  -2 93.8274 40.5500  10
   4   4   2 79.8601 35.7698   1
   4   4   2 148.800 65.7269   6
   4   4   2 87.2509 43.2456  13
  -4  -4  -2 89.6792 31.9096   4
  -4  -4  -2 36.2491 14.6079   3
  -4  -4  -2 80.0485 42.8944   2
   4   4   3 4962.08 305.317  14
   4   4   3 5119.35 294.384  13
  -4  -4  -3 4519.32 189.137   3
   4   4   3 5234.87 348.487   6
  -4  -4  -3 4875.32 289.712  22
  -4  -4  -3 4759.82 282.358  23
  -4  -4  -3 4988.40 288.018  21
  -4  -4  -3 5111.08 287.394  19
  -4  -4  -3 5189.84 294.536   2
  -4  -4  -3 5019.28 250.359  10
  -4  -4  -3 5459.94 296.895  18
   4   4   3 5143.42 248.876   1
  -4  -4  -3 4333.05 144.995   4
  -4  -4  -3 5109.87 253.995   8
   4   4   3 4949.18 302.317  15
   4   4   4 6296.50 358.912  14
   4   4   4 7215.96 421.678   6
  -4  -4  -4 6120.95 340.788  22
  -4  -4  -4 6033.06 335.028  23
   4   4   4 6472.51 342.997  13
  -4  -4  -4 6730.36 351.160  21
  -4  -4  -4 6185.87 335.259  19
  -4  -4  -4 6356.73 326.339   2
  -4  -4  -4 6290.60 305.532  10
  -4  -4  -4 5816.96 324.783  18
   4   4   4 6509.98 302.074   1
  -4  -4  -4 6468.04 298.694   8
   4   4   4 6146.04 353.015  15
   4   4   5 21596.9 742.073  14
   4   4   5 22463.4 820.723   6
  -4  -4  -5 21792.0 723.276  23
  -4  -4  -5 22213.5 723.014  19
  -4  -4  -5 22278.5 729.825  21
  -4  -4  -5 20972.7 657.495   2
  -4  -4  -5 21112.9 674.198  10
  -4  -4  -5 21725.9 718.858  18
   4   4   5 22332.8 728.556  13
  -4  -4  -5 22227.9 737.356  22
   4   4   5 22564.5 668.332   1
  -4  -4  -5 22315.6 659.238   8
   4   4   5 21884.0 742.981  15
   4   4   6 9028.99 446.631  13
   4   4   6 8607.92 456.020  14
   4   4   6 8704.59 503.280   6
  -4  -4  -6 9130.82 453.087  23
  -4  -4  -6 8634.57 447.851  22
  -4  -4  -6 9241.23 456.232  21
  -4  -4  -6 8956.09 447.736  19
  -4  -4  -6 8397.80 392.369   2
  -4  -4  -6 9098.76 448.842  18
  -4  -4  -6 7711.93 405.397  10
   4   4   6 9468.02 421.847   1
  -4  -4  -6 9819.54 422.741   8
   4   4   6 9066.35 461.494  15
   4   4   7 750.330 136.412  15
   4   4   7 808.124 134.157   1
  -4  -4  -7 448.738 97.5803   2
   4   4   7 868.684 150.786  14
   4   4   7 1140.53 202.012   7
  -4  -4  -7 724.180 131.211  21
  -4  -4  -7 687.900 127.295  22
   4   4   7 770.905 138.904  13
   4   4   7 845.064 127.362  12
  -4  -4  -7 587.747 118.802  19
  -4  -4  -7 793.104 137.007  18
  -4  -4  -7 587.092 122.928  10
  -4  -4  -7 768.427 130.944  23
   4   4   7 790.726 155.962   6
  -4  -4  -7 738.040 121.732   8
   4   4   8 9485.18 584.409   7
   4   4   8 8685.26 499.109  14
  -4  -4  -8 8439.33 487.514  22
  -4  -4  -8 8850.49 489.969  21
   4   4   8 8576.53 440.211  12
  -4  -4  -8 8719.84 479.688  19
  -4  -4  -8 9114.36 494.843  18
  -4  -4  -8 8862.62 484.244  10
  -4  -4  -8 9389.87 427.761   2
  -4  -4  -8 8674.53 483.463  23
   4   4   8 8067.70 473.862  13
   4   4   8 8262.43 468.926   1
  -4  -4  -8 9299.46 458.377   8
   4   4   8 8717.88 503.165  15
   4   4   9 4067.50 385.810   7
   4   4   9 3793.52 339.161  14
  -4  -4  -9 3883.09 333.236  23
  -4  -4  -9 4190.09 348.262  22
   4   4   9 4156.98 339.533  13
   4   4   9 4110.45 306.178  12
  -4  -4  -9 4328.63 349.855  19
  -4  -4  -9 4081.54 341.250  18
  -4  -4  -9 3595.26 328.022  10
  -4  -4  -9 4086.02 340.585  21
  -4  -4  -9 3957.64 310.092   8
   4   4   9 4007.16 350.499   1
   4   4   9 3975.60 343.336  15
   4   4  10 2040.37 263.875  14
   4   4  10 1734.82 265.795   7
  -4  -4 -10 1795.04 245.540  23
  -4  -4 -10 2380.94 277.380  22
   4   4  10 2061.61 227.512  12
  -4  -4 -10 2275.39 265.284  19
  -4  -4 -10 2237.24 268.259  21
  -4  -4 -10 2097.84 258.318  18
  -4  -4 -10 2056.99 267.942  10
  -4  -4 -10 1750.76 217.511   8
   4   4  10 2348.38 294.344   1
   4   4  10 2037.36 248.046  13
   4   4  10 2289.68 275.966  15
   4   4  11 177.340 110.910   7
   4   4  11 203.952 111.716   1
  -4  -4 -11 54.8768 71.0099  10
   4   4  11 81.7455 64.3415  12
  -4  -4 -11 124.631 83.2078   8
   4   4  12-127.029 94.3939   7
   4   4  12-27.7123 81.5558   1
  -4  -4 -12 20.3456 92.7616  10
   4   4  12 28.1612 49.9324  12
  -4  -4 -12-25.2541 86.7907   8
   4   5  -8 586.140 154.857   5
  -4  -5   8 633.300 181.888   4
   4   5  -8 227.762 95.5982   8
   4   5  -7 250.445 102.408   5
  -4  -5   7 487.268 160.394   4
   4   5  -7 268.796 104.697  20
   4   5  -7 446.922 120.752   8
   4   5  -6 651.755 141.647   5
   4   5  -6 858.215 171.708  20
  -4  -5   6 562.155 114.138   9
  -4  -5   6 791.046 170.492   4
   4   5  -6 694.765 136.017   8
   4   5  -5 1865.66 245.673  20
   4   5  -5 2325.54 253.347   5
  -4  -5   5 1755.14 192.457   9
   4   5  -4 9448.61 539.474  20
   4   5  -4 10173.4 512.461   5
  -4  -5   4 9296.25 426.579   9
   4   5  -3 43279.4 1256.71  14
  -4  -5   3 45972.0 1124.64  23
   4   5  -3 47895.1 1164.14   6
  -4  -5   3 44414.9 1107.52  21
  -4  -5   3 43475.4 1205.59   2
   4   5  -3 46281.3 1026.60   1
   4   5  -3 46458.1 1322.27  20
   4   5  -3 50049.7 1251.73   5
   4   5  -3 43493.1 1205.43  13
   4   5  -3 44629.2 1210.68  18
  -4  -5   3 47218.2 1100.88   9
   4   5  -3 45274.1 1224.44  17
  -4  -5   3 52212.2 1318.39   4
   4   5  -3 43194.1 1248.75  15
  -4  -5   2 53.4906 36.4949  23
   4   5  -2 34.1132 52.4207  14
   4   5  -2 66.4079 48.0000  13
   4   5  -2 99.1972 55.7704   6
   4   5  -2 46.0317 28.0548   1
   4   5  -2 112.115 69.8829  20
  -4  -5   2 56.4259 33.7294  21
   4   5  -2-2.01436 34.3074   5
   4   5  -2 100.363 54.5834  18
  -4  -5   2 67.8693 35.1660   9
   4   5  -2 97.1207 56.6667  17
  -4  -5   2 108.788 59.2247   4
  -4  -5   2 84.0674 60.5919   2
   4   5  -2 40.7981 52.3043  15
   4   5  -1 1825.04 209.242  14
  -4  -5   1 1806.43 171.713  21
   4   5  -1 1872.91 193.089   6
   4   5  -1 1657.37 185.275  13
  -4  -5   1 1999.90 183.772  22
   4   5  -1 1858.37 176.218   5
  -4  -5   1 1636.45 165.612  23
   4   5  -1 1654.86 185.196  18
  -4  -5   1 1800.44 201.232   2
   4   5  -1 1915.86 149.979   1
  -4  -5   1 1819.41 150.853   9
   4   5  -1 1695.63 186.881  17
  -4  -5   1 1764.57 179.229   4
   4   5  -1 1750.32 198.922  15
   4   5   0 953.766 152.605  14
  -4  -5   0 891.396 125.032  23
  -4  -5   0 935.362 130.612  22
   4   5   0 813.187 136.671   6
   4   5   0 739.989 127.316  13
   4   5   0 964.334 117.381   5
  -4  -5   0 944.602 124.136  19
  -4  -5   0 1012.07 152.941   2
   4   5   0 927.731 107.232   1
  -4  -5   0 820.588 110.315  10
  -4  -5   0 1034.53 110.875   9
   4   5   0 857.211 132.270  17
  -4  -5   0 764.018 108.590   4
  -4  -5   0 967.559 128.649  21
   4   5   0 825.924 136.266  15
   4   5   1 5844.20 376.204  14
  -4  -5  -1 6275.30 338.563  23
   4   5   1 6294.77 376.823   6
  -4  -5  -1 5687.36 327.405  22
   4   5   1 6193.78 356.783  13
  -4  -5  -1 6438.06 336.377  19
  -4  -5  -1 6769.15 389.390   2
   4   5   1 6191.06 291.106   5
  -4  -5  -1 6121.95 301.807  10
   4   5   1 6515.18 294.651   1
  -4  -5  -1 6726.06 297.989   9
   4   5   1 6192.54 361.642  17
  -4  -5  -1 6052.12 331.853  21
  -4  -5  -1 6324.24 288.215   4
   4   5   1 6218.80 379.618  15
  -4  -5  -1 5344.02 194.869   3
  -4  -5  -2 1913.54 118.773   3
   4   5   2 1803.34 201.795  14
   4   5   2 1920.36 214.027   6
  -4  -5  -2 1941.20 185.887  23
  -4  -5  -2 1845.27 181.733  21
  -4  -5  -2 1969.04 189.721  22
  -4  -5  -2 2062.06 207.490   2
   4   5   2 1845.42 142.212   5
  -4  -5  -2 1994.36 186.190  19
  -4  -5  -2 1863.18 163.773  10
   4   5   2 1970.77 160.309   1
   4   5   2 1818.01 188.543  13
   4   5   2 2046.26 202.358  17
  -4  -5  -2 1763.52 131.623   4
   4   5   2 1849.75 200.873  15
   4   5   3 34514.5 1004.11  14
  -4  -5  -3 33321.0 767.289   3
   4   5   3 35158.2 1058.06   6
  -4  -5  -3 34332.9 945.962  23
  -4  -5  -3 34544.8 935.230  19
   4   5   3 34251.9 964.150  13
  -4  -5  -3 34212.8 950.554  22
   4   5   3 30785.6 615.932  11
  -4  -5  -3 37069.7 998.233   2
   4   5   3 32357.9 747.799   5
  -4  -5  -3 34205.1 878.823  10
   4   5   3 36895.9 871.515   1
  -4  -5  -3 33757.3 943.562  21
   4   5   3 33502.0 968.674  17
  -4  -5  -3 31757.0 685.695   4
   4   5   3 34048.3 992.017  15
  -4  -5  -4 23951.5 757.095  21
   4   5   4 23324.1 799.648  14
  -4  -5  -4 23529.6 625.908   3
   4   5   4 26497.1 890.443   6
  -4  -5  -4 24547.5 764.065  23
  -4  -5  -4 24866.9 772.971  22
   4   5   4 20250.9 417.042  11
  -4  -5  -4 24510.2 755.206  19
  -4  -5  -4 25313.2 771.475   2
  -4  -5  -4 24131.2 702.676  10
   4   5   4 23780.5 760.310  13
   4   5   4 25347.4 693.809   1
   4   5   4 23826.4 769.493  17
  -4  -5  -4 25741.6 657.184   8
   4   5   4 23519.3 792.271  15
   4   5   4 23502.7 527.563   5
   4   5   5 3347.01 284.420  14
   4   5   5 3445.68 316.334   6
  -4  -5  -5 3334.97 272.152  21
   4   5   5 3280.81 275.130  13
  -4  -5  -5 3413.90 278.155  22
  -4  -5  -5 3388.38 270.434  19
   4   5   5 3177.22 131.016  11
  -4  -5  -5 3245.79 250.625   2
  -4  -5  -5 3326.89 269.912  23
  -4  -5  -5 3579.23 257.148  10
   4   5   5 3612.47 244.744   1
  -4  -5  -5 3514.74 225.054   8
   4   5   5 3340.65 285.197  15
   4   5   6 9.64056 50.1056  15
  -4  -5  -6 17.5752 30.4172   2
   4   5   6 7.62912 41.7509  14
   4   5   6-20.8651 59.1563   6
  -4  -5  -6-162.418 69.5998  22
   4   5   6-51.8250 48.4473  13
  -4  -5  -6-31.1726 43.7144  21
   4   5   6-18.5693 41.2720  12
  -4  -5  -6-20.0241 34.8085  19
  -4  -5  -6 32.6141 32.3993  23
  -4  -5  -6 13.5210 41.6334  18
  -4  -5  -6-31.4156 65.4709  10
   4   5   6 4.95593 35.9336   1
  -4  -5  -6 48.9658 33.6260   8
   4   5   7 1456.72 204.958  14
   4   5   7 1644.74 250.509   7
   4   5   7 1880.87 250.051   6
  -4  -5  -7 1755.36 208.968  23
  -4  -5  -7 1493.00 196.238  22
   4   5   7 1316.71 186.987  13
  -4  -5  -7 1484.05 194.317  21
   4   5   7 1555.38 177.613  12
  -4  -5  -7 1500.93 190.724  19
  -4  -5  -7 1756.10 175.324   2
  -4  -5  -7 1684.13 206.260  18
  -4  -5  -7 1673.83 201.035  10
   4   5   7 1683.69 190.427   1
  -4  -5  -7 1712.81 180.066   8
   4   5   7 1503.65 203.954  15
   4   5   8 3533.31 314.897  13
   4   5   8 3928.53 375.849   7
   4   5   8 3814.79 340.514  14
  -4  -5  -8 3678.83 314.288  21
  -4  -5  -8 4054.54 335.691  22
   4   5   8 3688.05 286.715  12
  -4  -5  -8 3922.82 325.451  23
  -4  -5  -8 3793.16 320.276  19
  -4  -5  -8 3842.79 261.697   2
  -4  -5  -8 3856.46 322.118  18
  -4  -5  -8 3650.20 315.887  10
   4   5   8 3521.48 299.066   1
  -4  -5  -8 3712.59 299.353   8
   4   5   8 3693.30 333.295  15
   4   5   9 63.1434 61.2724  15
   4   5   9 66.1429 62.4060  12
   4   5   9 18.6041 60.0775   1
   4   5   9 20.1941 65.0169   7
   4   5   9-3.63233 49.0282  14
  -4  -5  -9-39.6819 47.6271  23
   4   5   9 18.4128 36.1883  13
  -4  -5  -9 22.6372 41.6442  22
  -4  -5  -9 32.5357 37.2979  21
  -4  -5  -9 8.82936 42.2151  19
  -4  -5  -9 104.767 76.6929  10
  -4  -5  -9 39.6398 55.3188   8
   4   5  10 1195.25 211.160  15
  -4  -5 -10 1368.02 213.241  23
   4   5  10 1309.74 239.210   7
   4   5  10 1133.34 213.413  14
   4   5  10 1134.63 208.474   1
   4   5  10 1309.91 209.884  13
  -4  -5 -10 1224.15 200.995  21
   4   5  10 1402.81 199.174  12
  -4  -5 -10 1250.18 198.071  19
  -4  -5 -10 1144.89 197.033  22
  -4  -5 -10 1246.31 214.641  10
  -4  -5 -10 1028.42 169.597   8
   4   5  11 155.142 118.289   7
   4   5  11 257.104 109.747   1
   4   5  11 35.2163 62.8361  12
  -4  -5 -11 101.612 86.5808  10
  -4  -5 -11 52.1410 69.5881   8
   4   6  -7 1079.34 213.264  20
   4   6  -7 1234.47 222.172   5
  -4  -6   7 771.329 188.382   4
   4   6  -7 1073.07 181.153   8
   4   6  -6 562.506 149.213  20
   4   6  -6 1174.05 203.092   5
  -4  -6   6 1080.50 201.552   4
   4   6  -6 802.746 153.634   8
   4   6  -5 4.74277 43.7621  20
   4   6  -5 39.5608 50.3753   5
  -4  -6   5 159.158 101.023   4
  -4  -6   4 3846.34 326.042   2
   4   6  -4 4386.86 387.090  20
   4   6  -4 4086.66 337.769   5
  -4  -6   4 4104.73 266.084   9
  -4  -6   4 5195.28 394.886   4
   4   6  -3 7627.54 500.638  14
  -4  -6   3 7591.74 410.797  23
  -4  -6   3 7611.41 404.793  21
   4   6  -3 7543.22 361.967   1
   4   6  -3 7678.12 499.372  20
  -4  -6   3 6956.61 451.543   2
   4   6  -3 7422.30 464.337  18
   4   6  -3 7976.62 449.952   5
  -4  -6   3 8045.40 355.707   9
   4   6  -3 7618.79 475.836  17
  -4  -6   3 9091.78 495.268   4
   4   6  -3 7361.46 468.975  13
   4   6  -3 7328.59 490.752  15
   4   6  -2-13.5770 69.2743  13
   4   6  -2 12.5959 57.3131  14
  -4  -6   2 14.2429 39.2331  23
   4   6  -2-79.2770 65.1181   6
   4   6  -2-14.4524 34.3287   1
  -4  -6   2 13.4585 40.5204  21
   4   6  -2-37.4834 57.9651  20
   4   6  -2-16.5597 56.8525   5
   4   6  -2 20.3747 41.0059  18
  -4  -6   2-3.63266 23.1193   9
   4   6  -2 101.916 70.9883  17
  -4  -6   2-48.7774 53.3968   2
  -4  -6   2-64.5403 64.7737   4
   4   6  -2 6.73347 92.4102  15
   4   6  -1 1149.78 188.532  14
   4   6  -1 1290.60 164.080   6
  -4  -6   1 1077.22 148.645  23
   4   6  -1 1255.71 183.607  13
  -4  -6   1 1397.33 172.370  22
  -4  -6   1 1283.49 161.933  21
  -4  -6   1 1435.19 201.440   2
   4   6  -1 1272.69 142.800   1
   4   6  -1 1244.07 155.608   5
   4   6  -1 1219.46 182.937  18
  -4  -6   1 1279.22 127.979   9
   4   6  -1 1638.96 209.806  17
  -4  -6   1 1375.85 166.501   4
  -4  -6   1 1261.82 121.521  16
   4   6  -1 1275.06 191.482  15
   4   6   0 126.675 79.5386  14
   4   6   0 268.292 90.2451   6
  -4  -6   0 299.102 81.2078  22
   4   6   0 168.605 66.2766  13
  -4  -6   0 279.881 74.6072  21
   4   6   0 259.279 67.6768   1
  -4  -6   0 145.850 53.3144  10
   4   6   0 140.480 65.0426  18
   4   6   0 186.602 59.1711   5
  -4  -6   0 269.242 56.6337   9
   4   6   0 160.341 69.9898  17
  -4  -6   0 153.811 86.2675   2
  -4  -6   0 172.443 69.8375  23
  -4  -6   0 203.886 67.0123   4
  -4  -6   0 251.662 54.7567   3
   4   6   0 313.281 97.9711  15
   4   6   1 168.752 97.9069  14
  -4  -6  -1 176.156 47.0979   3
  -4  -6  -1 90.0927 48.3939  23
   4   6   1 76.0589 68.1029   6
  -4  -6  -1 95.2689 55.5395  22
   4   6   1 53.3739 57.5369  13
  -4  -6  -1 156.867 58.2759  21
  -4  -6  -1 109.798 56.6403  19
  -4  -6  -1 132.422 57.6513  10
   4   6   1 97.4491 41.0219   5
   4   6   1 86.1555 50.4445   1
   4   6   1 110.720 49.0637  17
  -4  -6  -1 152.118 46.1603   9
  -4  -6  -1 29.4706 66.7102   2
  -4  -6  -1 44.5810 41.0503   4
   4   6   1 41.3326 55.6775  15
  -4  -6  -2 16385.3 496.699   3
   4   6   2 16047.0 714.897  14
   4   6   2 16234.4 674.768  13
  -4  -6  -2 15715.2 632.097  23
   4   6   2 17097.3 697.476   6
  -4  -6  -2 16429.3 650.941  22
  -4  -6  -2 16389.9 640.130  21
  -4  -6  -2 16881.7 704.381   2
  -4  -6  -2 16457.2 632.307  19
   4   6   2 16234.4 523.195   5
  -4  -6  -2 17099.8 599.409  10
   4   6   2 17634.8 580.479   1
   4   6   2 16148.5 678.857  17
  -4  -6  -2 17056.5 511.511   4
   4   6   2 16502.1 705.020  15
   4   6   3 8140.37 485.723  14
  -4  -6  -3 7541.51 333.342   3
   4   6   3 8330.11 486.645   6
  -4  -6  -3 7757.72 424.734  23
  -4  -6  -3 7771.44 430.110  22
   4   6   3 7809.73 443.954  13
  -4  -6  -3 8152.41 428.606  19
  -4  -6  -3 7951.33 451.592   2
   4   6   3 8101.55 320.424   5
  -4  -6  -3 7930.85 393.201  10
   4   6   3 8297.11 383.751   1
   4   6   3 7505.82 441.760  17
  -4  -6  -3 7549.10 418.931  21
   4   6   3 7737.51 252.797  11
  -4  -6  -3 7661.79 293.093   4
   4   6   3 7768.40 465.833  15
   4   6   4 3917.53 337.723  14
   4   6   4 4015.73 319.620  13
  -4  -6  -4 3771.76 248.154   3
   4   6   4 4109.04 349.614   6
  -4  -6  -4 3832.01 298.642  23
  -4  -6  -4 3744.99 299.676  22
  -4  -6  -4 3787.82 294.727  21
   4   6   4 3827.09 153.927  11
   4   6   4 3752.53 189.064   5
  -4  -6  -4 3757.42 291.164  19
  -4  -6  -4 3947.20 307.648   2
  -4  -6  -4 3574.33 270.468  10
   4   6   4 4849.26 291.169   1
   4   6   4 4161.81 327.700  17
   4   6   4 3818.28 327.566  15
   4   6   5 7287.19 473.032  14
  -4  -6  -5 6612.90 360.026   3
   4   6   5 7394.29 493.940   6
   4   6   5 7245.32 435.081  13
  -4  -6  -5 7347.08 433.145  23
  -4  -6  -5 7365.91 433.455  22
  -4  -6  -5 7283.14 429.224  21
  -4  -6  -5 7317.61 425.238  19
  -4  -6  -5 6923.53 409.222   2
  -4  -6  -5 7187.82 400.926  10
   4   6   5 8123.10 400.644   1
   4   6   5 6894.54 430.092  17
  -4  -6  -5 7314.93 335.992   8
   4   6   5 6928.20 453.125  15
   4   6   6 5246.26 406.995  14
  -4  -6  -6 5002.58 332.076   3
   4   6   6 5438.81 435.039   6
  -4  -6  -6 5267.54 375.581  23
  -4  -6  -6 5495.42 384.879  22
  -4  -6  -6 4871.89 360.482  21
   4   6   6 6080.01 352.967  12
  -4  -6  -6 5671.01 381.856  19
  -4  -6  -6 5200.22 341.649   2
  -4  -6  -6 5588.94 366.565  10
   4   6   6 5886.93 347.792   1
   4   6   6 5400.91 393.058  17
   4   6   6 5179.26 380.795  13
  -4  -6  -6 5631.47 302.629   8
   4   6   6 5215.23 402.914  15
   4   6   7 2354.85 276.556  14
   4   6   7 2880.08 329.809   7
  -4  -6  -7 2237.44 235.735   3
  -4  -6  -7 2429.24 259.339  23
  -4  -6  -7 2940.21 284.973  22
  -4  -6  -7 2564.03 264.707  21
   4   6   7 2650.55 244.169  12
  -4  -6  -7 2492.70 257.352  19
   4   6   7 2448.79 267.953  13
  -4  -6  -7 2724.77 236.770   2
  -4  -6  -7 2444.04 251.430  10
   4   6   7 2735.10 247.934   1
   4   6   7 2632.85 280.775  17
  -4  -6  -7 2767.36 218.239   8
   4   6   7 2452.33 278.933  15
   4   6   8 2285.29 266.142  13
   4   6   8 2460.34 306.189   7
   4   6   8 2338.58 288.332  14
  -4  -6  -8 2285.33 259.648  23
  -4  -6  -8 2309.81 261.858  22
  -4  -6  -8 2340.14 259.885  21
   4   6   8 2670.49 250.802  12
  -4  -6  -8 2481.73 266.414  19
  -4  -6  -8 2327.12 215.976   2
  -4  -6  -8 2369.27 268.622  10
   4   6   8 2221.72 269.810  17
   4   6   8 2938.38 273.138   1
  -4  -6  -8 2487.33 221.063   8
   4   6   8 2239.87 280.570  15
   4   6   9 119.568 87.5987  15
   4   6   9 96.3158 67.7375   1
   4   6   9 107.472 82.8013  14
   4   6   9 70.8462 67.7882   7
  -4  -6  -9 147.271 87.2323  22
   4   6   9 208.375 93.9826  13
  -4  -6  -9 225.831 98.3314  21
   4   6   9-59.4915 61.5378  12
  -4  -6  -9 321.680 101.889  19
  -4  -6  -9 241.281 105.959  10
   4   6   9 139.906 64.9075  17
  -4  -6  -9 238.857 97.5464  23
  -4  -6  -9 208.015 73.8123   8
   4   6  10 1541.41 247.169  15
   4   6  10 1440.71 250.639   7
   4   6  10 1378.42 242.158  14
   4   6  10 1093.74 201.979  13
   4   6  10 1542.12 212.463  12
  -4  -6 -10 1382.31 223.399  23
  -4  -6 -10 1708.83 254.273  10
  -4  -6 -10 1398.51 222.679  19
  -4  -6 -10 1491.04 226.332  22
   4   6  10 1555.22 241.200  17
   4   6  10 1517.91 236.447   1
   4   6  11 854.761 201.389   7
   4   6  11 754.126 185.363   1
   4   6  11 932.991 173.795  12
  -4  -6 -11 1055.46 211.695  10
   4   7  -7 33.7589 66.8692  20
   4   7  -7 50.4262 64.5495   5
  -4  -7   7 67.1723 82.2895   4
   4   7  -7-89.0257 74.2081   8
   4   7  -6 785.923 189.942  20
   4   7  -6 810.490 180.854   5
  -4  -7   6 1262.80 229.606   4
   4   7  -6 711.599 146.463   8
   4   7  -5-50.6234 78.2388  20
   4   7  -5 30.6315 52.4171   5
  -4  -7   5 78.4715 76.5815   4
   4   7  -4 594.533 151.260  20
   4   7  -4 451.957 115.428   5
  -4  -7   4 499.544 136.034   2
  -4  -7   4 680.854 144.548   4
  -4  -7   3 1747.63 214.534  23
   4   7  -3 1694.68 247.046  13
  -4  -7   3 1699.15 204.562  21
   4   7  -3 1768.30 188.213   1
   4   7  -3 1849.21 254.310  20
  -4  -7   3 1746.43 245.971   2
   4   7  -3 1744.62 221.673   5
   4   7  -3 1740.72 248.134  18
   4   7  -3 1906.64 262.042  17
  -4  -7   3 2110.14 245.014   4
   4   7  -3 2107.53 297.065  15
   4   7  -2 2206.27 292.645  14
  -4  -7   2 2257.12 242.014  23
  -4  -7   2 2279.20 239.812  21
   4   7  -2 2498.44 284.866  20
   4   7  -2 2060.81 201.407   1
  -4  -7   2 1719.13 245.114   2
   4   7  -2 2456.59 246.551   5
   4   7  -2 1968.58 259.325  18
   4   7  -2 2391.25 286.430  17
  -4  -7   2 2532.84 253.431   4
   4   7  -2 1958.94 256.602  13
   4   7  -2 2234.87 286.683  15
   4   7  -1 522.506 141.210  14
   4   7  -1 515.622 99.2215   1
   4   7  -1 437.044 108.585   6
   4   7  -1 484.524 128.290  13
  -4  -7   1 607.165 122.526  21
   4   7  -1 481.382 124.023  20
  -4  -7   1 567.579 122.189  23
   4   7  -1 573.070 116.575   5
   4   7  -1 349.474 114.676  18
  -4  -7   1 587.505 86.3443   9
   4   7  -1 501.184 132.209  17
  -4  -7   1 512.404 127.481   2
  -4  -7   1 760.141 130.204   4
   4   7  -1 650.473 160.200  15
   4   7   0 4362.97 397.710  14
   4   7   0 3608.97 297.353   6
   4   7   0 3634.10 337.637  13
  -4  -7   0 4268.79 330.462  22
  -4  -7   0 4115.94 319.138  21
  -4  -7   0 3562.00 349.896   2
   4   7   0 4348.45 293.408   1
   4   7   0 4070.35 288.401   5
  -4  -7   0 4736.81 328.514  10
   4   7   0 4376.08 370.777  18
  -4  -7   0 4733.57 250.640   9
   4   7   0 4006.91 356.508  17
  -4  -7   0 4550.95 304.930   4
  -4  -7   0 3577.77 303.271  23
  -4  -7   0 3503.17 256.567  16
   4   7   0 3852.06 364.669  15
   4   7   1-38.2278 74.8308  14
   4   7   1 77.1305 65.3409   6
  -4  -7  -1-92.1163 46.5881   3
  -4  -7  -1-1.69788 51.7341  22
   4   7   1-26.5627 52.3588  13
  -4  -7  -1-21.2471 34.8621  21
   4   7   1-5.27861 38.4278   1
  -4  -7  -1 56.0252 63.8282  23
  -4  -7  -1 30.8997 41.1636  10
   4   7   1-3.34053 40.5171   5
   4   7   1-6.18752 64.5756  18
   4   7   1-24.9212 62.4036  17
  -4  -7  -1 74.3989 34.7525   9
  -4  -7  -1-3.83413 53.2466   2
  -4  -7  -1 12.8206 31.5822   4
   4   7   1 13.0969 50.6025  15
   4   7   2 153.063 87.9077  14
  -4  -7  -2 287.528 76.3197   3
  -4  -7  -2 443.767 109.340  23
  -4  -7  -2 466.048 106.588  19
  -4  -7  -2 427.284 111.733  22
   4   7   2 445.755 115.514  13
  -4  -7  -2 529.173 119.138  21
   4   7   2 412.186 95.6842   1
   4   7   2 376.933 110.261   6
  -4  -7  -2 420.740 92.7281  10
   4   7   2 296.600 70.9737   5
   4   7   2 305.472 106.277  17
  -4  -7  -2 297.613 112.923   2
  -4  -7  -2 231.005 64.0742   4
   4   7   2 450.342 119.401  15
   4   7   3 477.867 137.706  15
   4   7   3 719.597 166.709  14
  -4  -7  -3 528.921 116.577  23
  -4  -7  -3 382.790 85.4381   3
   4   7   3 649.405 138.346  13
  -4  -7  -3 715.838 133.993  21
  -4  -7  -3 566.096 119.680  19
   4   7   3 510.894 104.061   1
   4   7   3 400.598 75.5420   5
  -4  -7  -3 649.089 122.473  10
   4   7   3 559.713 126.874  17
   4   7   3 624.458 151.468   6
  -4  -7  -3 430.983 127.599   2
  -4  -7  -3 586.716 129.827  22
  -4  -7  -3 553.071 88.0864   4
   4   7   3 403.627 65.7439  11
   4   7   4 766.824 161.337  15
   4   7   4 1059.22 191.968  14
   4   7   4 594.775 150.195   6
  -4  -7  -4 767.371 144.370  22
  -4  -7  -4 546.264 109.260   3
   4   7   4 1026.42 171.189  13
  -4  -7  -4 800.069 140.934  23
  -4  -7  -4 730.282 138.818  19
  -4  -7  -4 867.159 146.553  10
   4   7   4 777.323 125.655   1
   4   7   4 860.791 163.110  17
  -4  -7  -4 701.872 138.029  21
  -4  -7  -4 776.034 154.299   2
   4   7   5 18460.8 858.994  14
  -4  -7  -5 19689.7 714.846   3
   4   7   5 20130.5 891.712   6
  -4  -7  -5 18928.9 781.966  23
  -4  -7  -5 18959.5 788.163  22
  -4  -7  -5 19221.5 774.441  19
  -4  -7  -5 17859.6 757.948   2
  -4  -7  -5 21143.9 774.007  10
   4   7   5 21053.8 732.542   1
   4   7   5 22796.2 723.796  12
   4   7   5 19056.4 820.025  17
  -4  -7  -5 19174.4 780.298  21
   4   7   5 19646.3 818.867  13
   4   7   5 18037.3 834.372  15
   4   7   6 24414.1 1012.84  14
   4   7   6 28669.5 1112.90   7
  -4  -7  -6 25856.6 886.979   3
  -4  -7  -6 25003.4 937.522  23
  -4  -7  -6 25188.6 948.012  22
   4   7   6 29671.5 884.105  12
  -4  -7  -6 25015.5 922.632  19
  -4  -7  -6 23886.6 875.223   2
  -4  -7  -6 27319.4 929.908  10
   4   7   6 28426.3 885.349   1
  -4  -7  -6 24570.6 926.696  21
   4   7   6 24158.1 964.597  17
  -4  -7  -6 26408.9 727.048   8
   4   7   6 23901.9 986.169  15
   4   7   6 24988.1 962.460  13
   4   7   7 1205.16 216.075  15
  -4  -7  -7 794.562 141.874   2
   4   7   7 855.956 182.158  14
  -4  -7  -7 948.413 172.354  22
   4   7   7 1178.91 213.532   7
   4   7   7 1012.71 183.834  13
   4   7   7 896.788 146.620  12
  -4  -7  -7 1014.99 169.343   3
  -4  -7  -7 1053.13 182.539  21
  -4  -7  -7 921.173 168.630  19
  -4  -7  -7 1232.49 197.005  23
  -4  -7  -7 1140.84 181.692  10
   4   7   7 1079.27 168.074   1
   4   7   7 830.168 171.374  17
   4   7   8 209.853 112.127  15
  -4  -7  -8 0.59206 53.6685  23
   4   7   8 218.549 94.5848  13
   4   7   8 98.1075 59.3658  14
   4   7   8 219.909 119.257   7
  -4  -7  -8 88.3659 46.3699  21
  -4  -7  -8 114.785 72.2309   3
   4   7   8 74.6410 51.6965  12
  -4  -7  -8 98.7596 66.3848  19
  -4  -7  -8 144.899 81.3405  10
   4   7   8 48.4431 70.9960  17
  -4  -7  -8 84.5910 62.6140  22
   4   7   8 257.367 90.7381   1
   4   7   9 1079.91 216.416  15
   4   7   9 1002.40 209.676  14
   4   7   9 1503.97 253.777   7
  -4  -7  -9 797.634 169.989  22
   4   7   9 1122.44 205.718  13
  -4  -7  -9 1000.46 191.934  23
  -4  -7  -9 1076.20 195.987  21
   4   7   9 1237.19 186.534  12
  -4  -7  -9 1030.05 194.766   3
  -4  -7  -9 1107.51 198.334  19
  -4  -7  -9 1278.17 216.003  10
   4   7   9 1159.09 211.748  17
   4   7   9 1181.75 196.611   1
   4   7  10 84.2682 50.1634   1
   4   7  10-22.1073 57.3009   7
  -4  -7 -10 103.384 75.2602   3
   4   7  10 78.1047 75.9279  12
  -4  -7 -10-23.4645 83.6954  10
   4   8  -6 451.331 148.960  20
   4   8  -6 275.202 117.553   5
  -4  -8   6 385.996 134.989   4
   4   8  -6 189.816 87.4348   8
   4   8  -5 131.598 84.2149  20
   4   8  -5 171.296 92.2788   5
  -4  -8   5 57.6905 62.3999   4
   4   8  -5 88.9153 72.8531   8
  -4  -8   4 62.3461 44.8754  21
   4   8  -4 292.933 120.855  20
   4   8  -4 392.956 118.800   5
  -4  -8   4 48.1690 60.9173   2
  -4  -8   4 137.225 86.1940   4
  -4  -8   3 1849.39 234.953  21
   4   8  -3 2447.70 312.086  20
   4   8  -3 2106.23 223.157   1
   4   8  -3 2093.31 254.008   5
   4   8  -3 2064.34 298.733  13
   4   8  -3 1859.70 277.821  18
   4   8  -3 2333.26 310.403  17
  -4  -8   3 1959.21 255.533   4
  -4  -8   3 1483.48 245.957   2
   4   8  -3 1709.27 284.368  15
   4   8  -2 90.6561 108.990  14
  -4  -8   2-3.24734 36.7918  23
   4   8  -2 25.3016 49.9079   1
  -4  -8   2-14.6371 38.3255  21
   4   8  -2-24.5077 63.8385  20
   4   8  -2 37.8194 51.6406   5
   4   8  -2 17.8667 57.8631  18
   4   8  -2 23.2488 60.0762  13
   4   8  -2 95.3595 81.0595  17
  -4  -8   2 0.35321 77.9558   2
  -4  -8   2 39.5547 50.6228   4
   4   8  -2 0.20252 71.5181  15
   4   8  -1 5251.96 488.873  14
  -4  -8   1 4867.91 388.204  23
   4   8  -1 5449.74 463.686  13
  -4  -8   1 5134.55 392.175  21
   4   8  -1 5858.81 451.916  20
  -4  -8   1 5419.03 461.656   2
   4   8  -1 5549.80 362.881   1
   4   8  -1 5407.39 377.056   5
   4   8  -1 4938.16 438.160  18
   4   8  -1 5463.79 466.442  17
  -4  -8   1 6007.68 396.582   4
   4   8  -1 5172.73 479.605  15
   4   8   0 1091.28 226.236  14
  -4  -8   0 1059.04 180.981  23
  -4  -8   0 835.719 154.673  21
   4   8   0 793.478 179.583  13
   4   8   0 822.436 169.405  20
   4   8   0 1152.00 161.954   1
  -4  -8   0 952.244 159.933  10
   4   8   0 810.759 136.936   5
   4   8   0 1020.22 196.979  18
   4   8   0 945.836 186.335  17
   4   8   0 908.251 154.058   6
  -4  -8   0 771.763 184.324   2
  -4  -8   0 860.924 138.752  16
  -4  -8   0 1193.07 169.138   4
   4   8   0 790.314 192.659  15
   4   8   1 3834.37 403.892  14
   4   8   1 3864.65 336.830   6
  -4  -8  -1 3942.19 340.086  23
   4   8   1 3592.75 362.765  13
  -4  -8  -1 3491.03 321.782  22
  -4  -8  -1 3470.53 315.963  21
  -4  -8  -1 3483.54 364.989   2
   4   8   1 3964.35 292.403   5
   4   8   1 3874.93 303.118   1
  -4  -8  -1 3984.35 324.937  10
   4   8   1 3357.15 352.343  18
   4   8   1 3398.05 359.538  17
  -4  -8  -1 3912.91 241.310   9
  -4  -8  -1 3970.18 288.325   4
  -4  -8  -1 3389.68 292.048  16
   4   8   1 3877.72 395.705  15
   4   8   2 4644.86 448.336  14
   4   8   2 5775.88 429.110   6
  -4  -8  -2 5713.84 416.470  23
   4   8   2 4906.89 427.134  13
  -4  -8  -2 5468.50 412.896  22
  -4  -8  -2 5135.97 390.888  21
  -4  -8  -2 5064.44 440.921   2
   4   8   2 5344.15 326.912   5
   4   8   2 6029.35 385.712   1
  -4  -8  -2 6175.78 405.666  10
   4   8   2 5302.02 441.874  18
   4   8   2 5546.87 459.221  17
  -4  -8  -2 6010.84 341.299   4
   4   8   2 5401.61 467.085  15
   4   8   3 893.223 196.675  14
   4   8   3 1263.49 212.439   6
  -4  -8  -3 764.299 133.113   3
  -4  -8  -3 902.339 161.974  22
   4   8   3 727.696 165.417  13
   4   8   3 884.090 149.417   1
  -4  -8  -3 798.272 161.794  23
   4   8   3 747.021 111.856   5
  -4  -8  -3 916.428 158.577  10
  -4  -8  -3 760.781 150.580  21
   4   8   3 640.600 144.246  17
  -4  -8  -3 717.370 166.862   2
   4   8   3 703.550 171.176  15
   4   8   4 507.069 162.473  14
  -4  -8  -4 561.577 135.431  23
  -4  -8  -4 478.575 120.241  22
  -4  -8  -4 510.525 111.720   3
   4   8   4 700.218 161.492  13
  -4  -8  -4 494.654 127.026  21
   4   8   4 751.090 120.514  12
  -4  -8  -4 834.002 161.767  19
   4   8   4 495.656 109.704   1
  -4  -8  -4 606.817 126.689  10
   4   8   4 652.669 155.845  17
  -4  -8  -4 521.551 143.842   2
   4   8   4 551.716 154.500  15
   4   8   5 5730.08 495.218  14
  -4  -8  -5 6137.06 404.432   3
  -4  -8  -5 5734.15 432.963  23
   4   8   5 6074.25 467.580  13
  -4  -8  -5 5634.20 433.143  22
   4   8   5 7101.24 385.046  12
  -4  -8  -5 6065.18 435.647  19
  -4  -8  -5 4668.85 395.696   2
  -4  -8  -5 6578.69 441.636  10
   4   8   5 6633.07 408.323   1
  -4  -8  -5 6117.16 442.312  21
   4   8   5 5998.24 474.993  17
   4   8   5 5563.41 475.995  15
   4   8   6 1107.67 217.897  15
   4   8   6 1185.20 232.870  14
   4   8   6 1257.74 234.479   7
  -4  -8  -6 1412.00 217.078  22
   4   8   6 1154.32 210.423  13
   4   8   6 1499.05 184.057  12
  -4  -8  -6 1198.38 197.745  21
  -4  -8  -6 1081.38 189.374  19
  -4  -8  -6 1527.52 212.887  10
  -4  -8  -6 1187.67 206.728  23
   4   8   6 1412.18 194.988   1
   4   8   6 1308.01 225.074  17
  -4  -8  -6 1120.53 182.901   3
  -4  -8  -6 872.623 166.703   2
   4   8   7 511.445 162.652  15
   4   8   7 439.558 146.014  14
   4   8   7 601.995 163.324   7
  -4  -8  -7 447.660 121.814  23
   4   8   7 445.211 121.342  13
  -4  -8  -7 329.834 107.447  21
   4   8   7 584.394 135.491  12
  -4  -8  -7 433.814 124.496  19
  -4  -8  -7 478.351 142.184  22
  -4  -8  -7 455.443 120.232  10
  -4  -8  -7 542.277 140.303   3
   4   8   7 417.234 116.623   1
   4   8   7 622.895 168.249  17
  -4  -8  -7 267.875 98.1733   2
   4   8   8 1719.18 281.625  15
   4   8   8 1683.43 288.155  14
   4   8   8 2063.68 295.838   7
  -4  -8  -8 2200.01 281.840  21
  -4  -8  -8 1876.07 265.121  23
   4   8   8 2077.87 291.979  13
  -4  -8  -8 1969.94 272.282  22
   4   8   8 2496.13 261.702  12
  -4  -8  -8 1806.61 255.159   3
  -4  -8  -8 2196.24 277.343  19
  -4  -8  -8 2209.15 286.037  10
   4   8   8 2210.80 258.622   1
   4   8   8 1607.02 266.061  17
   4   8   9 73.4162 65.9478  15
   4   8   9 137.893 98.9227  14
   4   8   9 215.770 107.222   7
  -4  -8  -9 53.4438 58.4557  22
   4   8   9 70.8769 79.8702  13
  -4  -8  -9 217.750 105.899   3
  -4  -8  -9 12.1548 44.7087  21
  -4  -8  -9 30.0438 58.0078  19
   4   8   9 186.984 86.0634  12
  -4  -8  -9 49.6322 87.4643  10
  -4  -8  -9 97.1862 75.6980  23
   4   8   9 304.346 120.915  17
   4   8   9 197.455 89.5798   1
  -4  -8 -10 19.1633 58.6348   3
   4   8  10-54.6170 74.6693  12
  -4  -8 -10 60.0218 60.5047  10
   4   8  10-50.1896 67.4282   1
   4   9  -5 2449.12 356.588  20
   4   9  -5 2620.54 336.269   5
  -4  -9   5 2659.20 336.562   4
   4   9  -5 1790.85 231.112   8
  -4  -9   4-125.997 77.1384  21
   4   9  -4 27.2535 63.4350  20
   4   9  -4-7.28183 61.1654   5
  -4  -9   4-16.5406 91.3824   2
  -4  -9   4 22.6684 61.7559   4
   4   9  -4-69.5743 61.8263   8
  -4  -9   3 3913.42 368.867  21
   4   9  -3 4364.15 443.701  20
  -4  -9   3 3399.41 404.412   2
   4   9  -3 3744.86 367.539   5
   4   9  -3 4286.72 442.724  19
   4   9  -3 3960.59 439.638  18
   4   9  -3 4331.36 461.575  13
   4   9  -3 3764.40 433.878  17
  -4  -9   3 4193.13 383.535   4
   4   9  -3 3503.53 324.643   1
   4   9  -3 3633.99 453.473  15
   4   9  -2 4967.14 523.192  14
  -4  -9   2 5127.71 427.614  23
   4   9  -2 5568.46 516.582  13
  -4  -9   2 5288.93 428.459  21
   4   9  -2 5447.80 484.656  20
  -4  -9   2 4843.88 473.694   2
   4   9  -2 5325.43 394.700   1
   4   9  -2 5406.97 424.400   5
   4   9  -2 5334.07 503.874  18
   4   9  -2 5988.22 537.401  17
  -4  -9   2 5956.65 443.710   4
   4   9  -2 6042.30 574.631  15
   4   9  -1 219.352 130.132  14
  -4  -9   1-28.6388 48.3998  23
  -4  -9   1 88.4536 77.6173  21
   4   9  -1 109.958 98.7370  13
   4   9  -1 176.622 90.3345   1
   4   9  -1 59.1055 67.0749  20
   4   9  -1 144.879 63.4827   5
   4   9  -1 163.682 100.177  18
   4   9  -1 56.4012 76.4008  17
  -4  -9   1 121.843 91.1924   2
  -4  -9   1 145.375 75.8281   4
   4   9  -1 1.85515 71.8870  15
   4   9   0 919.611 241.290  14
  -4  -9   0 952.266 181.385  23
   4   9   0 919.795 207.954  13
   4   9   0 1061.54 171.513   1
  -4  -9   0 848.242 168.239  21
   4   9   0 1227.61 214.726  20
  -4  -9   0 1220.50 196.524  10
   4   9   0 1079.68 175.077   5
   4   9   0 1008.29 208.275  18
   4   9   0 907.776 205.388  17
  -4  -9   0 936.766 207.684   2
  -4  -9   0 1392.74 192.117   4
   4   9   0 917.521 228.264  15
   4   9   1 426.703 144.807  14
  -4  -9  -1 711.184 154.966  23
  -4  -9  -1 618.393 143.376  21
   4   9   1 595.694 134.283   1
   4   9   1 820.425 168.465  20
  -4  -9  -1 792.244 160.907  10
   4   9   1 417.669 107.082   5
   4   9   1 607.478 168.322  18
   4   9   1 451.590 148.558  17
  -4  -9  -1 243.447 127.373   2
  -4  -9  -1 716.571 139.479  16
   4   9   1 844.608 199.843  13
  -4  -9  -1 811.039 140.387   4
   4   9   1 749.752 198.969  15
   4   9   2-21.6665 62.6512  14
   4   9   2 85.1498 86.3006  13
  -4  -9  -2 22.3007 41.1170  22
  -4  -9  -2 16.8149 54.5291  21
   4   9   2 41.8223 59.8479   1
   4   9   2 35.7063 52.0505  20
   4   9   2 42.3553 40.6940   5
  -4  -9  -2 79.4146 77.3972  10
  -4  -9  -2 60.8952 63.1114  23
   4   9   2 6.76287 71.1268  18
   4   9   2-44.1420 61.3519  17
  -4  -9  -2 107.722 84.9542   2
  -4  -9  -2 86.3628 67.2347  16
   4   9   2 117.312 108.453  15
   4   9   3 1465.40 272.294  14
  -4  -9  -3 1518.88 231.149  23
  -4  -9  -3 1399.00 223.429  22
   4   9   3 1241.74 230.190  13
   4   9   3 1519.84 165.947  12
   4   9   3 1638.27 213.767   1
  -4  -9  -3 1443.43 208.566  10
   4   9   3 1399.49 252.246  18
   4   9   3 1633.12 264.538  17
  -4  -9  -3 1384.68 217.587  21
  -4  -9  -3 1093.55 220.825   2
   4   9   3 1084.00 228.481  15
   4   9   4 2283.55 338.444  14
  -4  -9  -4 2128.15 272.131  21
  -4  -9  -4 2222.71 280.943  23
   4   9   4 2044.90 289.311  13
  -4  -9  -4 1783.96 250.655  22
   4   9   4 2243.52 211.478  12
  -4  -9  -4 2089.97 257.008  10
   4   9   4 1933.63 237.730   1
   4   9   4 1735.33 274.966  18
   4   9   4 2178.86 304.310  17
  -4  -9  -4 1655.84 254.091   2
   4   9   4 1848.03 301.537  15
   4   9   5 126.094 102.422  14
   4   9   5 183.935 104.693   7
  -4  -9  -5-98.6655 71.6493  23
   4   9   5 29.9973 43.5898  12
  -4  -9  -5 82.6023 57.6107  22
   4   9   5 97.0889 99.1300  13
  -4  -9  -5-64.6034 63.7348  21
   4   9   5-8.82249 49.1965   1
  -4  -9  -5 79.4998 67.3696  10
   4   9   5 77.8271 89.8326  18
   4   9   5-102.211 84.5600  17
  -4  -9  -5 189.221 93.0685   2
   4   9   5 40.3958 75.8789  15
   4   9   6 47.6062 80.4947  14
   4   9   6-21.4093 70.6845   7
  -4  -9  -6 133.250 80.1767  21
   4   9   6 124.893 84.2365  13
  -4  -9  -6-15.9536 55.5904   3
   4   9   6-38.2280 67.5895  12
  -4  -9  -6-26.2597 55.0283  23
  -4  -9  -6 135.751 79.7167  10
   4   9   6 15.5086 51.6371   1
  -4  -9  -6 101.731 77.2733  22
   4   9   6 59.7566 67.2792  17
  -4  -9  -6-19.8749 49.9734   2
   4   9   6-25.3054 65.4995  15
   4   9   7 2393.54 320.372   7
  -4  -9  -7 2335.60 293.426   3
  -4  -9  -7 2517.09 301.269  10
   4   9   7 1583.42 293.611  14
  -4  -9  -7 2201.52 296.911  23
   4   9   7 2375.58 327.797  13
  -4  -9  -7 2208.81 296.813  22
  -4  -9  -7 2337.62 299.835  21
   4   9   7 2999.59 276.398  12
  -4  -9  -7 1938.08 258.339   2
   4   9   7 2464.13 278.541   1
   4   9   7 1747.57 285.899  17
   4   9   7 1863.96 306.951  15
   4   9   8 256.954 138.466  14
   4   9   8 383.560 141.113   7
  -4  -9  -8 308.032 119.249  22
  -4  -9  -8 275.736 105.647  23
   4   9   8 227.284 113.625  13
  -4  -9  -8 195.023 94.3206   3
   4   9   8 315.924 104.858  12
  -4  -9  -8 472.113 140.847  10
  -4  -9  -8 89.7768 73.4158  21
   4   9   8 320.620 107.677   1
   4   9   8 381.438 145.938  17
   4   9   8 94.6821 93.5604  15
   4   9   9 148.655 117.176  14
   4   9   9 337.330 130.996   7
  -4  -9  -9 253.374 113.286  23
  -4  -9  -9 510.419 159.506  22
   4   9   9 118.878 93.6713  13
  -4  -9  -9 210.121 99.4507  21
   4   9   9 336.330 105.828  12
  -4  -9  -9 188.181 105.046   3
  -4  -9  -9 314.462 132.832  10
   4   9   9 38.3738 73.1769  17
   4   9   9 466.524 132.921   1
   4   9   9 367.611 152.134  15
  -4 -10   4 373.949 134.166  21
   4  10  -4 346.501 146.399  20
   4  10  -4 483.538 159.602   5
  -4 -10   4 379.206 143.502   2
  -4 -10   4 463.362 153.580   4
   4  10  -4 219.617 83.9748   8
   4  10  -3 1494.41 296.301  13
   4  10  -3 1738.00 247.489   1
  -4 -10   3 2209.55 295.575  21
   4  10  -3 1516.71 275.393  20
   4  10  -3 2323.53 356.738  19
   4  10  -3 1833.19 278.917   5
   4  10  -3 2168.58 351.958  18
   4  10  -3 1965.71 341.124  17
  -4 -10   3 1640.07 296.535   2
   4  10  -3 1804.56 215.259   8
  -4 -10   3 2305.20 300.826   4
   4  10  -3 1721.60 322.776  15
  -4 -10   2 9706.80 634.638  21
   4  10  -2 10414.5 709.417  20
  -4 -10   2 8970.62 697.764   2
   4  10  -2 10700.7 653.239   5
   4  10  -2 10012.3 589.254   1
   4  10  -2 9253.73 728.285  18
   4  10  -2 11053.7 801.157  17
  -4 -10   2 11421.9 654.075   4
   4  10  -2 9438.26 774.818  15
   4  10  -2 9542.18 738.836  13
   4  10  -1 554.761 200.167  14
  -4 -10   1 315.524 124.683  23
   4  10  -1 436.858 154.832  13
  -4 -10   1 548.013 152.748  21
   4  10  -1 581.411 167.535  20
   4  10  -1 550.675 134.242   1
   4  10  -1 361.213 117.335   5
   4  10  -1 623.276 191.494  18
   4  10  -1 604.817 187.461  17
  -4 -10   1 160.671 105.569   2
  -4 -10   1 638.649 147.997   4
   4  10  -1 298.480 160.319  15
   4  10   0 3049.61 434.243  14
  -4 -10   0 2888.95 337.644  23
   4  10   0 2856.36 384.974  13
  -4 -10   0 3086.75 347.845  21
   4  10   0 3373.35 374.487  20
  -4 -10   0 2758.81 375.202   2
   4  10   0 2995.75 315.916   5
   4  10   0 2648.26 294.268   1
   4  10   0 3296.37 410.908  18
   4  10   0 3127.01 409.148  17
  -4 -10   0 3515.42 329.135   4
   4  10   0 2903.62 413.501  15
   4  10   1 695.636 201.337  14
  -4 -10  -1 732.118 167.335  23
   4  10   1 835.825 217.904  13
  -4 -10  -1 834.750 178.591  21
   4  10   1 647.876 148.627   1
   4  10   1 667.751 168.559  20
   4  10   1 904.863 166.329   5
  -4 -10  -1 1044.37 197.570  10
   4  10   1 688.373 189.292  18
   4  10   1 752.150 204.533  17
  -4 -10  -1 817.047 215.416   2
  -4 -10  -1 763.929 160.609  16
  -4 -10  -1 1053.15 172.698   4
   4  10   1 821.650 216.223  15
   4  10   2 137.561 146.041  14
  -4 -10  -2 192.153 106.560  23
   4  10   2-13.8384 87.1166  18
   4  10   2 218.587 112.861  13
  -4 -10  -2 66.0951 82.0774  21
   4  10   2 142.948 82.8578   1
   4  10   2 98.9640 68.7439  20
  -4 -10  -2 90.5443 66.4091  10
   4  10   2 63.2844 87.1535  17
  -4 -10  -2 168.351 120.154   2
  -4 -10  -2 106.918 69.0623  16
   4  10   2 228.169 130.017  15
   4  10   3 3475.82 448.126  14
  -4 -10  -3 4458.36 424.799  23
  -4 -10  -3 3351.03 368.830  22
  -4 -10  -3 3459.18 371.010  21
   4  10   3 3457.50 352.055  20
  -4 -10  -3 3471.47 404.130   2
   4  10   3 4521.03 383.871   1
  -4 -10  -3 4706.76 413.104  10
   4  10   3 4149.68 455.621  18
   4  10   3 3378.66 416.073  17
  -4 -10  -3 4091.63 401.079  16
   4  10   3 4074.99 469.716  15
   4  10   3 3734.93 427.369  13
   4  10   4 286.125 159.921  14
  -4 -10  -4 437.579 137.513  23
   4  10   4 383.427 168.650  13
  -4 -10  -4 602.072 162.548  21
   4  10   4 376.650 114.731   1
   4  10   4 748.449 160.257  20
  -4 -10  -4 453.526 136.557  10
   4  10   4 251.590 127.676  18
   4  10   4 470.936 155.957  17
  -4 -10  -4 483.946 148.552  22
  -4 -10  -4 573.310 158.731  16
  -4 -10  -4 531.541 157.722   2
   4  10   4 515.115 178.470  15
   4  10   5 8294.26 700.662  14
  -4 -10  -5 8598.56 607.826  23
   4  10   5 7836.01 632.161  13
  -4 -10  -5 8466.52 601.503  22
  -4 -10  -5 8544.74 599.229  21
  -4 -10  -5 7581.52 584.036   2
  -4 -10  -5 10425.7 631.763  10
   4  10   5 9571.97 573.189   1
   4  10   5 8038.35 645.480  18
   4  10   5 8489.84 662.330  17
   4  10   5 8224.04 674.634  15
   4  10   6-15.5764 111.558  14
  -4 -10  -6-43.9303 62.3354  22
  -4 -10  -6 20.7735 57.6287  21
   4  10   6 1.97395 48.9513  12
  -4 -10  -6-4.11039 54.6778  23
  -4 -10  -6 12.8547 69.3908  10
   4  10   6 70.9801 66.2514   1
   4  10   6-160.608 104.572  18
   4  10   6-15.3565 67.9903  13
   4  10   6 144.957 98.5028  17
  -4 -10  -6-105.600 81.3778   2
   4  10   6 213.242 130.581  15
   4  10   7 624.535 219.837  14
  -4 -10  -7 528.997 148.357  22
  -4 -10  -7 641.223 167.623  21
  -4 -10  -7 547.000 159.904  23
   4  10   7 729.225 142.489  12
  -4 -10  -7 839.155 185.472  10
   4  10   7 543.320 150.067   1
   4  10   7 680.169 210.287  17
   4  10   7 510.253 177.727  13
   4  10   7 871.111 216.097  18
   4  10   7 615.546 193.622  15
  -4 -11   2 281.368 122.413  21
   4  11  -2 31.4556 74.3152  20
   4  11  -2 86.6539 91.1298  19
   4  11  -2 76.6214 81.3388   5
   4  11  -2-32.6501 83.3755  13
   4  11  -2 323.139 155.352  18
   4  11  -2 43.9836 84.1830  17
   4  11  -2 346.801 123.584   1
  -4 -11   2 59.8587 93.5592   2
  -4 -11   2 77.2752 80.4078   4
   4  11  -2 226.688 112.079  15
   4  11  -1-22.3332 93.7829  13
   4  11  -1 10.4847 57.5526   1
  -4 -11   1-106.062 84.8679  21
   4  11  -1-32.1726 68.9504  20
   4  11  -1-59.7951 103.640   5
   4  11  -1-9.61935 77.1086  18
   4  11  -1 107.704 105.625  17
  -4 -11   1-82.9775 107.052   2
  -4 -11   1-279.801 115.597   4
   4  11  -1 96.9928 115.090  15
   4  11   0 1281.92 296.599  14
  -4 -11   0 1117.76 231.566  23
   4  11   0 941.650 251.871  13
  -4 -11   0 1087.89 227.503  21
   4  11   0 1097.35 205.996   1
   4  11   0 1083.20 225.447  20
   4  11   0 1179.75 215.415   5
   4  11   0 765.753 219.540  18
   4  11   0 1309.27 287.306  17
  -4 -11   0 1018.41 252.335   2
   4  11   0 798.350 255.362  15
   4  11   1 2468.02 422.745  14
  -4 -11  -1 2431.28 331.807  23
   4  11   1 2149.40 364.969  13
  -4 -11  -1 2257.09 322.978  21
   4  11   1 2076.18 304.882  20
   4  11   1 2543.66 307.452   1
  -4 -11  -1 2800.84 335.705  10
   4  11   1 2389.96 376.768  18
   4  11   1 2514.17 399.823  17
  -4 -11  -1 2046.71 348.670   2
   4  11   1 1795.06 342.978  15
   4  11   2-199.470 146.975  14
  -4 -11  -2-32.5555 90.9600  23
   4  11   2 104.806 109.091  13
  -4 -11  -2-121.080 92.6211  21
   4  11   2 28.3088 69.7778   1
   4  11   2-100.343 107.460  20
  -4 -11  -2-24.1354 59.3062  10
   4  11   2-246.581 137.767  18
   4  11   2 32.3931 90.6448  17
  -4 -11  -2-45.1595 128.210   2
  -4 -11  -2-195.608 103.803  16
   4  11   2 44.9543 89.6452  15
   4  11   3-77.8642 100.280  14
  -4 -11  -3 71.0996 57.0993  23
   4  11   3-63.4229 96.7775  13
  -4 -11  -3 97.3522 74.5400  21
   4  11   3 52.4168 65.1777  20
   4  11   3 73.2202 63.1746   1
  -4 -11  -3 35.6891 63.8747  10
   4  11   3 526.199 189.425  18
   4  11   3 303.420 145.533  17
  -4 -11  -3 91.9998 80.5589  16
  -4 -11  -3 111.047 104.965   2
   4  11   3 285.391 147.267  15
   4  11   4 747.732 223.627  14
   4  11   4 1002.46 240.710  13
  -4 -11  -4 1499.16 262.745  23
  -4 -11  -4 1620.33 271.840  21
   4  11   4 1225.93 208.375   1
  -4 -11  -4 1459.29 249.287  10
   4  11   4 1097.85 251.167  18
   4  11   4 1247.75 268.308  17
  -4 -11  -4 1531.78 265.807  16
  -4 -11  -4 1138.93 247.505   2
   4  11   4 926.143 248.366  15
   4  11   5-94.7092 110.683  14
  -4 -11  -5 177.716 101.516  23
  -4 -11  -5 61.5484 78.4933  21
   4  11   5 379.060 131.362   1
  -4 -11  -5 373.272 124.575  10
   4  11   5 55.7348 66.5845  13
   4  11   5 233.656 130.350  18
   4  11   5 264.891 136.163  17
  -4 -11  -5 267.797 128.479  16
  -4 -11  -5 307.580 144.898   2
   4  11   5 141.638 122.447  15
   5  -7   0 242.493 141.933   3
  -5   7   0 149.050 81.8820  11
   5  -7   0 209.176 134.070  16
   5  -7   1 153.543 98.9699  14
   5  -7   1 173.027 114.948   3
  -5   7  -1 120.983 84.8985  23
  -5   7  -1 150.776 98.2193  13
   5  -7   1 276.399 125.062   6
  -5   7  -1 131.465 68.5765  11
  -5   7  -1 116.430 100.031  19
  -5   7  -1 64.3745 82.7284  18
  -5   7  -1-18.2874 74.9212  17
   5  -7   1-4.38186 139.029  16
   5  -7   2-91.1472 73.8969  14
   5  -7   2 147.462 120.474   3
  -5   7  -2 275.031 138.441  13
  -5   7  -2 55.9950 58.3248  11
  -5   7  -2-44.5524 103.122  19
  -5   7  -2-109.934 135.401  18
  -5   7  -2 40.1694 82.7801  17
  -5   7  -2 443.859 160.053  23
   5  -7   2-147.506 131.378  16
   5  -7   3 165.599 88.7436  14
   5  -7   3-65.5797 95.6570   3
  -5   7  -3 194.650 134.267  17
  -5   7  -3-22.6600 48.9240  11
  -5   7  -3 289.371 125.137  18
  -5   7  -3 427.118 167.724  19
  -5   7  -3 62.9628 92.6916  13
  -5   7  -3 57.5469 82.3898  23
   5  -7   3 71.6206 86.4213  16
  -5   7  -4 2328.82 377.009  13
   5  -7   4 1731.65 266.080  14
   5  -7   4 2239.35 373.228   3
  -5   7  -4 2021.48 356.795  23
  -5   7  -4 2085.75 270.247  11
  -5   7  -4 1930.18 347.178  19
  -5   7  -4 2151.59 362.170  18
  -5   7  -4 2138.75 376.660  17
   5  -7   4 2092.42 390.213  16
  -5   6   2-54.9105 50.6567  11
   5  -6  -2 31.1696 81.5515   3
   5  -6  -2 38.3897 83.9169  16
   5  -6  -1 141.288 126.833   3
  -5   6   1 246.037 94.9909  11
   5  -6  -1 89.0993 102.373  16
  -5   6   0 2109.78 246.648  11
   5  -6   0 2038.16 330.745   3
   5  -6   0 1281.47 277.031  16
   5  -6   1 24.5514 51.6038   6
   5  -6   1 107.834 75.4198  14
   5  -6   1 161.163 114.336   3
  -5   6  -1-26.5095 77.7795  23
  -5   6  -1-148.509 101.505  13
  -5   6  -1 60.6204 47.7525  11
  -5   6  -1 31.8840 66.9762  19
  -5   6  -1-159.792 99.5760  18
  -5   6  -1-32.3524 73.9421  17
   5  -6   1 119.445 117.981  16
   5  -6   2 293.405 114.130  14
   5  -6   2 394.547 155.173   3
  -5   6  -2 88.2815 85.6619  23
   5  -6   2 313.304 108.275   6
  -5   6  -2 259.744 93.2034  11
  -5   6  -2 354.203 139.476  19
  -5   6  -2 285.528 126.814  18
  -5   6  -2 80.5930 82.6590  17
  -5   6  -2 122.769 105.106  13
   5  -6   2 294.293 133.487  16
   5  -6   3 1310.56 219.216  14
   5  -6   3 1569.93 286.885   3
  -5   6  -3 1326.88 281.961  13
  -5   6  -3 1744.52 301.151  23
  -5   6  -3 1900.18 242.622  11
  -5   6  -3 1524.38 283.654  19
  -5   6  -3 1897.30 318.991  18
  -5   6  -3 1573.35 305.425  17
   5  -6   3 2096.53 371.262  16
   5  -6   4 1390.86 224.700  14
   5  -6   4 1648.25 304.406   3
  -5   6  -4 1705.04 314.742  13
  -5   6  -4 1581.46 288.775  23
  -5   6  -4 1385.23 222.019  20
  -5   6  -4 1715.97 235.491  11
  -5   6  -4 2166.10 336.838  19
  -5   6  -4 1402.22 281.181  18
  -5   6  -4 1393.48 289.279  17
   5  -6   4 1418.29 300.606  16
   5  -6   5 1708.67 319.986   3
   5  -6   5 1253.84 216.140  14
  -5   6  -5 1460.25 299.543  13
  -5   6  -5 1550.83 304.143  23
  -5   6  -5 1382.26 230.904  20
  -5   6  -5 1332.46 228.578   5
  -5   6  -5 1818.12 324.562  19
  -5   6  -5 1588.72 303.329  18
  -5   6  -5 1903.59 351.157  17
   5  -6   5 1167.08 285.715  16
   5  -6   6 676.910 201.142   3
   5  -6   6 674.282 168.012  14
  -5   6  -6 748.134 221.612  23
  -5   6  -6 530.012 143.122   5
  -5   6  -6 828.663 238.353  13
  -5   6  -6 389.845 160.705  19
  -5   6  -6 401.901 158.324  18
  -5   6  -6 631.415 212.723  17
   5  -6   6 543.766 206.883  16
  -5   6  -6 796.656 190.249  20
   5  -6   7 115.683 98.3248   3
   5  -6   7 73.6632 73.7551  14
  -5   6  -7-7.00177 66.4544  13
  -5   6  -7 334.331 151.845  23
  -5   6  -7 287.545 130.511  20
  -5   6  -7 39.6132 73.9208   5
  -5   6  -7 256.759 137.659  19
  -5   6  -7 3.96765 58.8030  18
  -5   6  -7 52.2012 109.214  17
   5  -6   7 259.882 164.657  16
   5  -5  -4 310.342 150.376   3
  -5   5   4 210.250 89.3239  11
   5  -5  -4 367.675 169.595  16
   5  -5  -3 1829.17 305.391   3
  -5   5   3 2230.34 252.750  11
   5  -5  -3 2166.75 344.166  16
   5  -5  -2 70.0871 74.5235   3
  -5   5   2 9.57080 40.0470  11
   5  -5  -2 16.3803 80.2283  16
   5  -5  -1 4.37109 64.7119   3
  -5   5   1-160.632 74.1863  11
   5  -5  -1-27.9716 79.6090  16
   5  -5   0 1400.35 193.083  14
  -5   5   0 1498.66 246.075  13
  -5   5   0 1438.82 234.626  23
  -5   5   0 1758.14 209.446  11
   5  -5   0 2080.01 306.551   3
  -5   5   0 1491.65 234.172  19
  -5   5   0 1526.76 244.431  18
  -5   5   0 1403.35 239.531  17
   5  -5   0 1814.88 303.009  16
   5  -5   1 292.771 93.6260  14
  -5   5  -1 174.043 95.6152  13
  -5   5  -1 110.016 71.2875  23
   5  -5   1 149.638 97.2394   3
   5  -5   1 364.221 122.872   6
  -5   5  -1 488.840 121.036  11
  -5   5  -1 207.330 98.7995  19
  -5   5  -1 219.955 116.337  18
  -5   5  -1 211.534 99.2849  17
   5  -5   1 172.192 112.594  16
   5  -5   2 1146.36 186.401  14
   5  -5   2 1365.93 254.318   3
  -5   5  -2 1452.02 253.014  13
  -5   5  -2 1351.35 239.812  23
   5  -5   2 1322.77 205.701   6
  -5   5  -2 1535.90 198.818  11
  -5   5  -2 1009.60 203.388  19
  -5   5  -2 1375.47 245.875  18
  -5   5  -2 1250.88 245.523  17
   5  -5   2 1281.09 260.191  16
  -5   5  -3 688.563 186.189  13
   5  -5   3 334.590 105.982  14
   5  -5   3 896.526 201.446   3
  -5   5  -3 867.296 203.011  23
   5  -5   3 553.283 131.334   6
  -5   5  -3 615.670 126.508  11
  -5   5  -3 659.761 138.171  20
  -5   5  -3 675.644 166.490  19
  -5   5  -3 607.338 171.929  18
  -5   5  -3 520.185 162.084  17
   5  -5   3 677.303 194.541  16
   5  -5   4 372.417 116.198  14
   5  -5   4 433.532 155.922   3
  -5   5  -4 380.273 146.471  23
  -5   5  -4 491.182 156.702   2
  -5   5  -4 583.146 143.514  20
  -5   5  -4 499.699 162.226  13
  -5   5  -4 455.085 149.204  19
  -5   5  -4 287.522 94.3161  18
  -5   5  -4 548.502 167.135  17
   5  -5   4 237.917 121.230  16
  -5   5  -5 161.847 108.150  23
   5  -5   5 17.2297 75.5180   3
   5  -5   5 152.889 84.6893  14
  -5   5  -5 277.605 117.742  13
  -5   5  -5 111.568 96.5319   2
  -5   5  -5 102.932 60.9778  20
  -5   5  -5 58.5074 69.4428   5
  -5   5  -5 145.457 103.386  19
  -5   5  -5 1.14206 72.3623  18
  -5   5  -5 213.129 123.009  17
   5  -5   5 214.405 143.763  16
   5  -5   6 1001.40 230.552   3
   5  -5   6 851.438 173.362  14
  -5   5  -6 909.383 232.998  13
  -5   5  -6 1224.56 246.626   2
  -5   5  -6 956.924 198.081  20
  -5   5  -6 588.219 157.014   5
  -5   5  -6 876.081 213.272  19
  -5   5  -6 876.030 217.495  18
  -5   5  -6 840.266 212.243  23
  -5   5  -6 969.189 231.414  17
   5  -5   6 612.864 227.861  16
   5  -5   7 1051.04 243.006   3
   5  -5   7 467.703 129.213  14
  -5   5  -7 651.749 196.996  13
  -5   5  -7 700.564 199.339  23
  -5   5  -7 691.181 181.301  20
  -5   5  -7 512.033 154.149   5
  -5   5  -7 368.650 136.105  19
  -5   5  -7 876.035 224.004  18
  -5   5  -7 556.595 189.734  17
   5  -5   7 618.099 221.921  16
   5  -5   8 634.671 165.932  14
  -5   5  -8 505.348 164.724  23
  -5   5  -8 812.449 199.856  20
  -5   5  -8 434.606 147.458   5
  -5   5  -8 812.076 221.550  19
  -5   5  -8 887.046 230.251  18
  -5   5  -8 537.313 163.623  17
   5  -5   8 636.556 270.460   1
   5  -5   8 725.205 239.136  16
  -5   5  -8 852.859 242.501  13
   5  -4  -5 66.9651 74.8016   3
  -5   4   5 155.686 68.6065  11
   5  -4  -4-15.8048 82.9974   3
  -5   4   4 79.2768 61.4990  11
   5  -4  -3 3971.15 427.279   3
  -5   4   3 4660.46 345.209  11
  -5   4   3 2657.34 295.058   9
   5  -4  -3 3109.97 389.219  16
   5  -4  -2 24.5528 70.5454   3
  -5   4   2-119.116 63.7423  11
  -5   4   2 43.0627 38.3222   9
   5  -4  -2 74.9162 80.1525  16
  -5   4   1 642.285 122.325  11
  -5   4   1 513.230 110.039   9
   5  -4  -1 781.989 186.642  16
   5  -4   0 19.6256 45.8883  14
   5  -4   0 104.340 94.3272   3
  -5   4   0-137.568 74.1404  13
  -5   4   0 7.15402 69.6972  23
  -5   4   0-16.6298 34.4575  11
  -5   4   0-10.7968 57.8358  19
  -5   4   0-89.1114 66.1151  18
  -5   4   0 77.2581 79.5318  17
   5  -4   0 37.7621 61.2394  16
   5  -4   1 1046.39 162.984  14
   5  -4   1 1611.03 231.216   6
  -5   4  -1 1220.65 214.017  13
  -5   4  -1 1439.31 223.665  23
  -5   4  -1 1731.46 194.701  11
  -5   4  -1 1365.54 222.718  19
   5  -4   1 1564.33 246.255   3
  -5   4  -1 1251.22 212.270  18
  -5   4  -1 1438.41 232.475  17
  -5   4  -1 1483.35 230.217   2
   5  -4   1 1661.97 283.408  16
   5  -4   2 9146.28 602.972   3
   5  -4   2 7369.31 447.593  14
  -5   4  -2 8009.01 557.425  13
  -5   4  -2 7579.95 536.897  23
   5  -4   2 8016.50 503.526   6
  -5   4  -2 7883.45 428.517  20
  -5   4  -2 9400.44 465.390  11
  -5   4  -2 8184.26 549.645  19
  -5   4  -2 8614.61 575.101  18
  -5   4  -2 8635.66 590.367  17
  -5   4  -2 8472.60 555.666   2
   5  -4   2 8740.55 655.176  16
   5  -4   3 628.370 131.536  14
  -5   4  -3 839.502 183.157  23
   5  -4   3 800.897 146.868   6
  -5   4  -3 590.785 126.515  20
  -5   4  -3 776.344 132.191  11
  -5   4  -3 877.768 188.997  19
   5  -4   3 980.398 202.031   3
  -5   4  -3 628.811 160.982  13
  -5   4  -3 778.497 176.066  18
  -5   4  -3 1039.87 211.282  17
   5  -4   3 628.839 188.645  16
  -5   4  -3 602.969 157.098   2
   5  -4   4-40.5763 45.6274  14
   5  -4   4-6.56957 72.0598   3
  -5   4  -4 69.2684 79.4476  13
  -5   4  -4-77.8927 66.8800  23
   5  -4   4 3.91840 45.1799   6
  -5   4  -4 22.5067 52.1762   2
  -5   4  -4-45.8062 54.4398  20
  -5   4  -4 51.3037 54.5816  19
  -5   4  -4 15.7189 62.1353  18
  -5   4  -4 50.3958 75.5342  17
   5  -4   4 35.1922 83.4607  16
   5  -4   5 3482.45 396.698   3
   5  -4   5 3104.11 302.973  14
  -5   4  -5 3306.83 384.446  13
  -5   4  -5 3091.20 364.239  23
  -5   4  -5 2977.87 299.466   5
  -5   4  -5 2763.36 295.039  20
  -5   4  -5 3342.53 379.044  19
  -5   4  -5 2937.04 358.381  18
  -5   4  -5 2764.99 365.642  17
  -5   4  -5 3467.69 373.697   2
   5  -4   5 3070.15 422.891  16
   5  -4   5 2415.38 435.539   1
   5  -4   6-274.136 171.658   1
   5  -4   6 10.8116 67.0877   3
   5  -4   6 29.5189 52.4254  14
  -5   4  -6-23.3934 63.7887  23
  -5   4  -6-56.4721 72.5393   2
  -5   4  -6 174.860 99.6630  20
  -5   4  -6 34.9009 46.3526   5
  -5   4  -6-104.084 121.842  19
  -5   4  -6 47.6515 71.7728  18
  -5   4  -6 3.44236 54.1822  13
  -5   4  -6 28.7078 70.0941  17
   5  -4   6-50.2491 111.923  16
   5  -4   7 322.573 124.667  14
  -5   4  -7 111.023 81.0871  13
  -5   4  -7 228.479 117.449  23
  -5   4  -7 237.719 103.475  20
  -5   4  -7 235.047 107.690  19
  -5   4  -7 96.6318 76.5693   5
  -5   4  -7 196.206 108.444  18
   5  -4   7 284.694 251.977   1
  -5   4  -7 232.324 122.357  17
   5  -4   7 357.245 167.121  16
  -5   4  -7 197.443 87.5332   8
   5  -4   7 102.319 90.8092   3
  -5   4  -7 216.504 109.034   2
   5  -4   8 4207.09 389.931  14
  -5   4  -8 4398.21 481.203  13
  -5   4  -8 3647.29 370.242   5
  -5   4  -8 3872.73 436.707  23
  -5   4  -8 3856.97 408.449  20
  -5   4  -8 3826.59 435.055  19
   5  -4   8 2469.88 491.764   1
  -5   4  -8 3676.72 434.519  18
  -5   4  -8 4015.04 471.561  17
  -5   4  -8 4361.02 457.859   2
   5  -4   8 3746.63 526.434  16
  -5   4  -8 3716.49 333.723   8
   5  -4   9 2123.20 288.457  14
  -5   4  -9 2088.80 346.107  13
  -5   4  -9 2382.64 349.312  23
  -5   4  -9 1918.42 277.346   5
   5  -4   9 1547.02 389.882   1
  -5   4  -9 2051.79 310.650  20
  -5   4  -9 2343.29 352.413  19
  -5   4  -9 2150.92 340.421  18
  -5   4  -9 2244.26 358.453  17
  -5   4  -9 2693.37 371.687   2
  -5   4  -9 1930.03 260.699   8
   5  -4   9 1844.61 387.026  16
   5  -4   9 1930.60 284.052   4
  -5   3   6 344.550 108.235   7
  -5   3   6 341.915 113.845  11
  -5   3   5 59.3347 52.8811   7
   5  -3  -5 8.03239 99.1645   3
  -5   3   5 116.376 72.4738  11
  -5   3   5 99.9583 47.4829   9
  -5   3   4 141.595 70.9199  11
  -5   3   4 94.1321 50.0815   9
   5  -3  -3 29387.1 1139.74   3
  -5   3   3 31140.4 944.309  11
   5  -3  -2 5413.78 440.343   3
  -5   3   2 4560.19 356.382   9
   5  -3  -2 5207.36 459.032  16
   5  -3  -1 525.140 135.190   3
  -5   3   1 682.424 138.299   2
  -5   3   1 789.505 125.676  11
  -5   3   1 575.988 116.892   9
   5  -3  -1 918.082 192.407  16
   5  -3   0 4433.77 385.601   3
   5  -3   0 3446.98 261.799  14
  -5   3   0 4037.96 331.794  13
  -5   3   0 3707.31 319.689  23
  -5   3   0 5168.57 310.854  11
  -5   3   0 3893.19 322.473  19
  -5   3   0 3826.43 320.354  18
  -5   3   0 3743.42 278.830   9
  -5   3   0 4026.17 338.107  17
  -5   3   0 4346.51 347.832   2
   5  -3   0 4659.59 432.043  16
  -5   3  -1 332.038 108.051   2
   5  -3   1 379.858 126.267   3
   5  -3   1 333.762 87.4603  14
  -5   3  -1 456.275 117.920  13
  -5   3  -1 426.646 117.287  23
   5  -3   1 464.905 118.179   6
  -5   3  -1 292.447 73.0246  20
  -5   3  -1 495.853 98.6090  11
  -5   3  -1 480.910 116.970  19
  -5   3  -1 448.855 122.460  18
  -5   3  -1 269.805 71.4879   9
  -5   3  -1 386.602 119.947  17
   5  -3   1 257.229 126.821  16
   5  -3   2 2448.80 282.276   3
   5  -3   2 1919.68 207.302  14
  -5   3  -2 2263.89 267.969  13
  -5   3  -2 2165.78 262.334  23
   5  -3   2 1968.01 235.348   6
  -5   3  -2 2168.73 211.797  20
  -5   3  -2 2520.23 216.483  11
  -5   3  -2 1895.18 240.554  19
  -5   3  -2 2266.93 268.583  18
  -5   3  -2 2068.55 171.333   9
  -5   3  -2 2526.24 289.820  17
  -5   3  -2 2101.18 255.557   2
   5  -3   2 2443.91 325.532  16
   5  -3   3 2037.93 215.854  14
  -5   3  -3 1982.23 267.032  13
   5  -3   3 1853.00 222.616   6
   5  -3   3 1550.72 239.524   3
  -5   3  -3 1853.90 253.771  23
  -5   3  -3 1815.64 204.477  20
  -5   3  -3 2036.77 200.372  11
  -5   3  -3 1729.78 242.480  19
   5  -3   3 1366.05 298.677   1
  -5   3  -3 1812.16 249.412  18
  -5   3  -3 1714.28 251.737  17
  -5   3  -3 1539.52 222.713   2
   5  -3   3 2128.46 310.135  16
   5  -3   4 11455.1 665.381   3
   5  -3   4 11506.5 556.366  14
  -5   3  -4 11137.5 656.349  13
  -5   3  -4 11061.9 647.342  23
   5  -3   4 9379.38 789.432   1
  -5   3  -4 11526.0 564.276  20
  -5   3  -4 12281.5 675.865  19
  -5   3  -4 11312.6 657.661  18
  -5   3  -4 11511.8 679.401  17
  -5   3  -4 10764.3 610.429   2
   5  -3   4 11967.8 770.214  16
  -5   3  -4 11982.1 458.083   8
   5  -3   4 11230.6 553.888   6
   5  -3   5 285.954 129.197   3
   5  -3   5 497.699 124.750  14
  -5   3  -5 628.431 162.071  23
  -5   3  -5 560.413 138.099   2
   5  -3   5 335.422 93.4777   6
  -5   3  -5 386.206 103.993  20
  -5   3  -5 585.096 126.881   5
  -5   3  -5 515.665 142.558  19
  -5   3  -5 459.105 142.914  18
  -5   3  -5 301.993 120.826  17
   5  -3   5 609.251 225.039   1
  -5   3  -5 460.379 143.157  13
   5  -3   5 799.917 205.228  16
  -5   3  -5 546.758 102.390   8
  -5   3  -6 98.8019 105.812  23
   5  -3   6 38.1886 96.2287   3
  -5   3  -6 175.868 95.3599  13
   5  -3   6 135.488 87.9673  14
  -5   3  -6 156.606 81.2260  20
  -5   3  -6 48.5857 43.3439   5
  -5   3  -6-0.52550 72.8187  19
   5  -3   6-14.0727 94.0983   1
  -5   3  -6 101.667 67.8330  18
  -5   3  -6 133.370 98.7019  17
  -5   3  -6 166.999 93.9971   2
   5  -3   6 6.41572 68.6465  16
  -5   3  -6 74.8827 51.9648   8
   5  -3   7 204.607 93.6949  14
  -5   3  -7 46.7758 68.4560  13
  -5   3  -7 60.9166 50.9171  23
  -5   3  -7-11.3813 51.3733   2
   5  -3   7-69.4328 106.208   1
  -5   3  -7 88.7730 70.4811  20
  -5   3  -7 79.6269 80.0080  19
  -5   3  -7 0.40861 46.1743   5
  -5   3  -7 12.2624 78.8761  18
  -5   3  -7-65.2119 64.5904  17
   5  -3   7-1.07929 98.3746  16
  -5   3  -7-46.6343 58.1665   8
   5  -3   8 118.181 69.7317  14
  -5   3  -8 53.4260 79.0127  13
  -5   3  -8-37.2061 64.7560   2
   5  -3   8 30.6201 91.9148   1
  -5   3  -8 94.2965 90.8856  20
  -5   3  -8 38.4969 54.2852   5
  -5   3  -8 13.4697 74.3661  23
  -5   3  -8 98.1221 79.8127  19
  -5   3  -8 60.3229 68.1651  18
  -5   3  -8 8.61429 52.4245  17
   5  -3   8 274.194 153.212  16
  -5   3  -8 167.467 88.9405   8
  -5   3  -9 101.247 77.8800  23
   5  -3   9 414.411 124.340  14
   5  -3   9 151.126 132.705   1
  -5   3  -9 159.360 104.010   2
  -5   3  -9 232.619 103.206  20
  -5   3  -9 71.1765 65.4728   5
  -5   3  -9 340.910 139.981  19
  -5   3  -9 296.779 138.419  18
  -5   3  -9 419.228 147.635  17
   5  -3   9 534.083 221.785  16
  -5   3  -9 184.439 99.2895   8
   5  -3   9 103.514 83.7796   4
   5  -3  10 5101.60 447.106  14
   5  -3  10 4989.96 694.494   1
  -5   3 -10 4169.28 402.605   5
  -5   3 -10 4643.52 477.071  23
  -5   3 -10 5022.43 495.323  21
  -5   3 -10 4734.04 471.215  20
  -5   3 -10 4613.73 485.271  18
  -5   3 -10 4925.72 512.988  17
  -5   3 -10 5464.96 524.067   2
   5  -3  10 4697.29 604.228  16
  -5   3 -10 5357.58 449.820   8
   5  -3  10 5661.84 479.937  15
  -5   3 -10 5085.94 503.368  19
  -5   2   6 11.6710 45.4754   7
  -5   2   6 96.9931 67.6726  11
  -5   2   6 97.5406 90.2283   9
  -5   2   5 232.976 85.0599   7
   5  -2  -5 102.967 83.8668   3
  -5   2   5 200.677 82.7226  11
  -5   2   5 264.950 113.355   9
   5  -2  -4 2687.16 320.525   3
  -5   2   4 3082.79 272.809  11
  -5   2   4 1979.51 260.867   9
  -5   2   4 2540.69 243.248   7
   5  -2  -3 388.372 129.967   3
  -5   2   3 416.407 98.4630  11
  -5   2   3 304.469 101.630   9
   5  -2  -3 415.007 117.565  16
   5  -2  -2 97.6539 73.8738   3
  -5   2   2 102.649 50.2580  11
  -5   2   2 117.547 57.1793   9
   5  -2  -2 157.497 74.6386  16
   5  -2  -1 23679.5 886.029   3
  -5   2   1 21816.1 771.333   9
  -5   2   1 22238.7 784.509   2
   5  -2  -1 22157.0 931.063  16
   5  -2   0 3824.64 325.461   3
   5  -2   0 3958.62 255.924  14
  -5   2   0 3569.69 281.367  13
  -5   2   0 3254.48 267.387  23
   5  -2   0 3529.89 324.441   6
  -5   2   0 4392.95 265.455  11
  -5   2   0 3974.62 290.995  19
  -5   2   0 3921.19 294.918  18
  -5   2   0 3960.12 271.670   9
  -5   2   0 3574.43 289.546  17
  -5   2   0 3453.62 289.469   2
   5  -2   0 3656.86 358.524  16
   5  -2   1 2146.59 244.330   3
   5  -2   1 2257.75 196.617  14
  -5   2  -1 2413.85 241.402  13
  -5   2  -1 2197.85 228.641  23
   5  -2   1 2502.28 261.192   6
  -5   2  -1 2431.95 194.093  20
  -5   2  -1 2693.71 204.492  11
  -5   2  -1 2146.84 225.339  19
  -5   2  -1 1868.11 215.441  18
  -5   2  -1 2188.54 186.390   9
  -5   2  -1 1984.58 226.329  17
  -5   2  -1 2085.95 228.692   2
   5  -2   1 2020.39 267.676  16
   5  -2   2 664.053 204.257   1
   5  -2   2 631.476 114.111  14
   5  -2   2 576.193 128.284   3
  -5   2  -2 695.355 135.515  23
  -5   2  -2 577.642 122.491   2
   5  -2   2 618.553 127.750   6
  -5   2  -2 757.961 119.460  20
  -5   2  -2 813.156 112.475  11
  -5   2  -2 727.191 137.704  19
  -5   2  -2 737.883 144.877  18
  -5   2  -2 717.443 97.7012   9
  -5   2  -2 792.853 148.776  17
  -5   2  -2 689.596 90.9707   8
   5  -2   2 872.060 187.668  16
  -5   2  -2 724.187 140.439  13
   5  -2   3 113.303 56.7704  14
   5  -2   3 105.539 69.9317   3
  -5   2  -3 74.4570 54.8134  23
  -5   2  -3 106.897 68.6687   2
   5  -2   3 209.124 83.3381   6
  -5   2  -3 95.8540 68.3386  13
  -5   2  -3 99.2496 54.7916  20
  -5   2  -3 104.801 44.9652  11
  -5   2  -3 88.1019 58.6234  19
  -5   2  -3 98.6463 57.8905  18
  -5   2  -3 85.0718 61.5349  17
  -5   2  -3 73.8242 37.2409   9
   5  -2   3 153.789 115.733   1
   5  -2   3 14.4486 73.9706  16
  -5   2  -3 22.6661 34.2687   8
   5  -2   4 3244.62 324.925   3
   5  -2   4 3306.47 273.199  14
  -5   2  -4 2675.85 294.538  13
  -5   2  -4 2908.82 295.848  23
   5  -2   4 2888.73 265.671   6
   5  -2   4 2228.19 342.863   1
  -5   2  -4 3269.13 275.248  20
  -5   2  -4 3112.73 306.365  19
  -5   2  -4 2914.54 301.464  18
  -5   2  -4 3313.62 328.330  17
  -5   2  -4 2990.59 184.663   9
  -5   2  -4 2375.84 257.279   2
   5  -2   4 2858.69 354.317  16
  -5   2  -4 3098.34 226.484   8
   5  -2   5 19070.4 729.209  14
   5  -2   5 15903.7 964.035   1
  -5   2  -5 18074.8 829.178  13
  -5   2  -5 18327.1 814.959  23
  -5   2  -5 19737.7 722.424   5
  -5   2  -5 20006.1 764.313  20
  -5   2  -5 19303.3 831.691  19
  -5   2  -5 18256.4 824.813  18
   5  -2   5 19293.6 733.721   6
  -5   2  -5 19013.7 855.896  17
  -5   2  -5 17224.8 760.765   2
   5  -2   5 19406.5 996.170  16
  -5   2  -5 20059.3 661.607   8
   5  -2   5 18418.1 844.498   3
   5  -2   6 46570.6 1280.29  14
   5  -2   6 39963.0 1652.38   1
  -5   2  -6 44273.8 1436.54  13
  -5   2  -6 44150.1 1389.03  23
  -5   2  -6 45922.2 1318.52  20
  -5   2  -6 42985.0 1379.38  19
  -5   2  -6 41823.8 1381.04  18
  -5   2  -6 42546.3 1422.27  17
  -5   2  -6 39667.8 1300.73   2
  -5   2  -6 41643.1 1211.23   5
   5  -2   6 46863.8 1672.92  16
  -5   2  -6 45238.3 1169.37   8
   5  -2   6 42386.6 1415.74   3
   5  -2   7 548.205 128.417  14
  -5   2  -7 404.080 129.858  13
  -5   2  -7 447.752 135.098  23
  -5   2  -7 494.143 129.951   2
  -5   2  -7 653.887 151.017  20
  -5   2  -7 477.385 112.956   5
  -5   2  -7 664.496 160.270  19
  -5   2  -7 406.100 132.166  18
  -5   2  -7 599.889 158.342  17
   5  -2   7 507.281 183.204   1
   5  -2   7 577.668 188.302  16
  -5   2  -7 410.697 102.302   8
   5  -2   8 836.408 167.966  15
  -5   2  -8 707.246 171.679  19
   5  -2   8 977.127 171.695  14
  -5   2  -8 731.905 170.575  23
  -5   2  -8 856.517 172.850   2
  -5   2  -8 865.954 176.474  20
  -5   2  -8 551.537 124.101   5
  -5   2  -8 685.686 174.259  18
  -5   2  -8 918.903 200.182  17
   5  -2   8 816.465 231.072   1
   5  -2   8 752.449 238.381  16
  -5   2  -8 828.203 161.506   8
   5  -2   9 1493.13 233.043  15
   5  -2   9 1519.69 229.879  14
  -5   2  -9 1511.26 247.794  23
  -5   2  -9 1589.01 251.538   2
  -5   2  -9 1302.48 233.798  21
  -5   2  -9 1594.80 251.694  20
  -5   2  -9 1948.17 282.946  19
  -5   2  -9 1426.83 209.302   5
  -5   2  -9 1522.77 260.443  18
  -5   2  -9 1790.26 289.421  17
   5  -2   9 1758.19 365.229   1
   5  -2   9 1870.03 373.697  16
  -5   2  -9 1541.65 223.680   8
  -5   2 -10 4890.23 467.133  23
   5  -2  10 5765.11 456.445  14
   5  -2  10 4490.20 613.147   1
  -5   2 -10 4218.84 372.434   5
  -5   2 -10 4214.41 426.769  20
  -5   2 -10 4525.02 454.016  19
  -5   2 -10 4874.06 473.718  18
  -5   2 -10 5109.93 496.065  17
  -5   2 -10 6059.97 520.113   2
   5  -2  10 5367.37 640.037  16
  -5   2 -10 4427.42 404.133   8
  -5   2 -10 5041.52 472.526  21
   5  -2  10 5506.36 453.046  15
   5  -2  11-128.349 83.8510  15
   5  -2  11-39.3723 59.6664  14
  -5   2 -11-36.3871 83.0328  23
  -5   2 -11 191.330 102.796  21
  -5   2 -11 44.0285 73.5266  20
  -5   2 -11 87.1731 71.1672  19
  -5   2 -11 39.3938 66.0685  18
  -5   2 -11-151.102 96.0652  17
   5  -2  11 4.90419 106.158   1
  -5   2 -11 46.0296 86.3450   8
   5  -1  -7-61.0393 86.1671   3
  -5   1   7-5.37884 72.0940   7
   5  -1  -7 0.89711 58.6393   6
  -5   1   7 24.5052 51.1720  11
  -5   1   7 24.5927 54.7838   9
   5  -1  -6 3978.13 422.405   3
  -5   1   6 5402.59 409.892  11
  -5   1   6 3140.16 361.767   9
   5  -1  -6 4530.57 450.801   6
  -5   1   6 4143.80 351.556   7
   5  -1  -5 3136.71 348.857   3
   5  -1  -5 2838.27 343.975   6
  -5   1   5 3367.11 297.388  11
  -5   1   5 2201.52 283.628   9
  -5   1   5 2557.53 258.294   7
  -5   1   4 181.840 68.2158   7
   5  -1  -4 64.9544 74.9409   3
   5  -1  -4 261.748 94.7726   6
  -5   1   4 187.482 71.0630  11
  -5   1   4 58.4933 51.7200   9
   5  -1  -3 5316.81 426.437   6
   5  -1  -3 5619.87 410.568   3
  -5   1   3 5497.57 329.757  11
  -5   1   3 4473.64 354.138   9
   5  -1  -3 4312.26 352.827  16
  -5   1   3 5611.66 335.177   7
   5  -1  -2 133.574 77.9712   3
   5  -1  -2 92.8472 89.4920   6
  -5   1   2 45.0881 36.4481  11
  -5   1   2 149.476 64.9726   9
   5  -1  -2 24.4203 43.4493  16
   5  -1  -1 12627.7 568.973   3
  -5   1   1 10648.0 406.852  23
   5  -1  -1 12037.3 607.465   6
  -5   1   1 10750.6 405.291  21
  -5   1   1 12632.0 458.342  11
  -5   1   1 10658.0 407.939  19
  -5   1   1 10371.9 408.673  18
  -5   1   1 12073.8 507.988   9
  -5   1   1 11006.3 425.828  17
  -5   1   1 11627.0 485.491   2
   5  -1  -1 11767.2 600.494  16
   5  -1   0 1688.49 194.081   3
   5  -1   0 1743.69 152.417  14
  -5   1   0 1391.46 155.221  23
   5  -1   0 1540.85 205.948   6
  -5   1   0 1659.57 149.044  11
  -5   1   0 1503.81 158.312  19
  -5   1   0 1400.43 152.932  18
  -5   1   0 1678.39 171.278   9
  -5   1   0 1822.12 178.326  17
  -5   1   0 1472.12 169.734   2
   5  -1   0 1122.05 186.019  16
   5  -1   1 14584.3 610.000   3
   5  -1   1 16286.8 539.942  14
  -5   1  -1 16012.0 608.877  13
   5  -1   1 15495.3 662.665   6
  -5   1  -1 15367.9 579.155  23
   5  -1   1 12756.7 707.257   1
  -5   1  -1 15257.6 492.865  11
  -5   1  -1 15031.2 579.741  19
  -5   1  -1 15068.4 588.449  18
  -5   1  -1 15554.6 529.615   9
  -5   1  -1 15051.6 599.387  17
  -5   1  -1 14969.9 576.240   2
   5  -1   1 15532.3 737.176  16
   5  -1   2 6030.59 384.568   3
   5  -1   2 7041.00 353.141  14
  -5   1  -2 6561.68 393.664  13
   5  -1   2 5655.95 472.060   1
  -5   1  -2 6553.15 385.700  23
  -5   1  -2 7077.02 348.283  20
  -5   1  -2 6501.68 381.617  19
  -5   1  -2 6522.96 298.086  11
  -5   1  -2 5994.83 371.088  18
  -5   1  -2 6590.56 394.175  17
  -5   1  -2 6684.37 311.409   9
  -5   1  -2 5701.22 348.697   2
  -5   1  -2 6389.80 289.273   8
   5  -1   2 6730.81 484.779  16
   5  -1   2 6210.28 399.227   6
   5  -1   3 112.393 47.7507  14
   5  -1   3 95.0783 55.6765   3
  -5   1  -3 48.3822 44.6814   2
   5  -1   3 86.5820 47.3222   6
  -5   1  -3 99.6931 46.5348  20
  -5   1  -3 41.0522 23.2669  11
  -5   1  -3 110.260 61.1955  19
  -5   1  -3 209.098 76.8295  23
  -5   1  -3 77.4937 55.5286  18
  -5   1  -3 147.943 65.5020  17
  -5   1  -3 75.0627 36.0272   9
  -5   1  -3 156.515 69.0048  13
   5  -1   3 71.1955 83.0899   1
   5  -1   3 47.5875 66.0981  16
  -5   1  -3 138.313 48.4428   8
   5  -1   4 2300.47 253.218   3
   5  -1   4 3125.38 249.941  14
   5  -1   4 2110.77 299.794   1
  -5   1  -4 3005.64 286.410  13
  -5   1  -4 2970.86 276.749  23
   5  -1   4 2849.14 261.673   6
  -5   1  -4 3161.21 256.340  20
  -5   1  -4 2865.88 271.296  19
  -5   1  -4 3396.04 299.922  18
  -5   1  -4 3076.48 292.897  17
  -5   1  -4 2709.32 250.156   2
  -5   1  -4 2961.46 190.646   9
   5  -1   4 2602.08 323.692  16
  -5   1  -4 3236.45 225.525   8
   5  -1   5 358.929 113.047   3
   5  -1   5 679.192 124.993  14
  -5   1  -5 612.665 139.767  13
  -5   1  -5 552.457 125.095  23
   5  -1   5 484.758 112.084   6
   5  -1   5 442.493 150.493   1
  -5   1  -5 488.359 110.107  20
  -5   1  -5 643.324 141.981  19
  -5   1  -5 620.308 133.860  18
  -5   1  -5 517.933 134.190  17
  -5   1  -5 392.575 73.9177   9
  -5   1  -5 494.947 114.463   2
   5  -1   5 625.636 171.734  16
  -5   1  -5 582.637 98.7571   8
  -5   1  -6 61047.0 1469.16   5
   5  -1   6 55274.2 1437.09   7
   5  -1   6 64723.8 1547.50  14
   5  -1   6 59592.9 1906.40   1
   5  -1   6 61223.7 1500.30   6
  -5   1  -6 61674.3 1645.29  23
  -5   1  -6 65523.6 1603.02  20
  -5   1  -6 60403.7 1640.07  19
  -5   1  -6 61112.0 1662.16  18
  -5   1  -6 62831.1 1702.27  17
  -5   1  -6 54408.9 1531.91   2
   5  -1   6 65132.6 2007.05  16
  -5   1  -6 65009.0 1479.31   8
   5  -1   7 1924.31 225.165  14
   5  -1   7 1273.54 168.729   7
  -5   1  -7 1325.85 210.426  23
  -5   1  -7 1591.50 226.691  21
  -5   1  -7 1312.81 172.563   5
  -5   1  -7 1607.48 215.071  20
  -5   1  -7 1246.95 206.434  19
  -5   1  -7 1536.27 229.426  18
   5  -1   7 1741.30 300.837   1
  -5   1  -7 1775.06 248.462  17
  -5   1  -7 1857.55 232.769   2
  -5   1  -7 1673.97 202.041   8
   5  -1   7 1595.00 306.520  16
   5  -1   7 1996.41 231.225  15
   5  -1   8 52.2069 61.3008  15
   5  -1   8 14.8833 62.5127   7
   5  -1   8 91.2764 66.3657  14
  -5   1  -8 76.1304 64.6359  23
  -5   1  -8 56.1459 49.5001   2
   5  -1   8 0.75315 88.5086   1
  -5   1  -8-0.30646 59.4539  21
  -5   1  -8 39.8478 67.6091  20
  -5   1  -8 46.9984 42.2404   5
  -5   1  -8 51.6501 61.8629  19
  -5   1  -8 92.0419 60.0457  18
  -5   1  -8 55.4817 58.7674  17
   5  -1   8-146.068 115.789  16
  -5   1  -8 127.862 87.7357   8
   5  -1   8 8.88369 46.5325   4
   5  -1   9 621.125 144.366  15
   5  -1   9 731.683 156.110  14
  -5   1  -9 558.840 147.328   2
  -5   1  -9 743.910 168.296  23
   5  -1   9 321.555 168.373   1
  -5   1  -9 699.539 168.970  21
  -5   1  -9 675.771 160.842  20
  -5   1  -9 438.914 107.241   5
  -5   1  -9 498.166 139.369  19
  -5   1  -9 661.183 163.866  18
  -5   1  -9 552.269 159.032  17
   5  -1   9 869.483 270.168  16
  -5   1  -9 605.217 144.038   8
   5  -1  10 3094.24 333.639  14
  -5   1 -10 2650.36 332.545  23
  -5   1 -10 2652.97 329.195  21
   5  -1  10 2681.63 434.675   1
  -5   1 -10 2686.45 323.247  20
  -5   1 -10 2822.48 339.358  19
  -5   1 -10 3426.67 376.429  18
  -5   1 -10 2928.91 356.298  17
  -5   1 -10 3440.94 373.113   2
  -5   1 -10 2979.26 321.283   8
   5  -1  10 2868.18 320.060  15
   5  -1  11 205.861 102.414  15
   5  -1  11 215.007 93.5626  14
  -5   1 -11 216.703 95.3820  21
  -5   1 -11 74.3872 70.5384  20
   5  -1  11 221.002 164.613   1
  -5   1 -11 142.647 75.5775  23
  -5   1 -11 247.603 123.154  19
  -5   1 -11 314.268 121.619  18
  -5   1 -11 224.098 108.932  17
  -5   1 -11 164.736 114.402   8
  -5   0   7 495.655 132.456   7
  -5   0   7 470.479 124.562  11
   5   0  -7 384.499 134.688   6
  -5   0   7 649.084 162.072   4
  -5   0   7 523.193 147.302   9
  -5   0   6-22.2399 48.7583   7
   5   0  -6-44.6648 69.3865   3
   5   0  -6-0.92514 54.4319   6
  -5   0   6-132.982 71.0025  11
   5   0  -6 94.4184 61.0078   5
  -5   0   6 14.7210 72.2783   4
  -5   0   6 43.0508 57.6868   9
   5   0  -5 2764.07 308.032   3
   5   0  -5 2833.24 326.050   6
  -5   0   5 3166.13 283.542  11
  -5   0   5 2138.42 269.950   9
  -5   0   5 2440.73 282.733   4
  -5   0   5 2976.89 280.492   7
   5   0  -4 3773.65 332.676   3
   5   0  -4 3344.16 336.670   6
  -5   0   4 3748.63 286.380  11
  -5   0   4 3001.66 296.397   9
  -5   0   4 3568.77 312.694   4
  -5   0   4 3434.53 279.842   7
   5   0  -3 173.187 78.3770   3
   5   0  -3 130.539 85.8676   6
  -5   0   3 53.5771 38.8412  11
  -5   0   3 58.6011 54.2569   9
  -5   0   3 9.79477 43.9872   7
  -5   0   2 88.1065 38.1320   2
   5   0  -2 2.36773 43.3423   3
   5   0  -2 14.6399 44.5674   6
  -5   0   2 48.6367 38.9954  11
  -5   0   2 59.3762 50.2359   9
   5   0  -2-19.8208 54.2804  16
   5   0  -1 7678.43 288.457  14
   5   0  -1 7236.63 387.086   3
  -5   0   1 7022.90 284.674  23
   5   0  -1 7848.03 467.834   6
  -5   0   1 6749.64 281.686  21
  -5   0   1 7469.51 327.953  11
  -5   0   1 7076.93 285.587  19
  -5   0   1 7137.10 289.088  18
  -5   0   1 7289.96 292.293  17
  -5   0   1 7527.97 384.355   9
  -5   0   1 7771.80 341.581   2
   5   0  -1 7144.56 428.250  16
   5   0  -1 8041.03 298.904  15
   5   0   0 332.709 67.6303  15
   5   0   0 424.659 75.1713  14
  -5   0   0 398.823 74.9624  23
   5   0   0 420.549 103.236   3
   5   0   0 361.509 107.679   6
  -5   0   0 335.332 68.1371  21
  -5   0   0 412.808 70.4765  11
  -5   0   0 425.127 78.6907  19
  -5   0   0 455.341 81.5931  18
  -5   0   0 626.851 95.7173   2
  -5   0   0 478.296 83.8669  17
  -5   0   0 570.586 103.228   9
   5   0   0 343.401 105.191  16
   5   0   1 11118.1 480.640   3
   5   0   1 12576.4 440.152  14
   5   0   1 12336.2 573.475   6
   5   0   1 10928.4 565.985   1
  -5   0  -1 12448.6 465.378  23
  -5   0  -1 12093.8 461.578  21
  -5   0  -1 11681.1 387.486  11
  -5   0  -1 12013.1 460.597  19
  -5   0  -1 12171.8 466.728  18
  -5   0  -1 11441.4 442.790   2
  -5   0  -1 12659.4 481.017  17
  -5   0  -1 12467.5 459.652   9
   5   0   1 12177.0 611.615  16
   5   0   1 12629.8 446.844  15
  -5   0  -2 3518.66 254.929  23
   5   0   2 3220.00 250.715   3
   5   0   2 3347.07 226.200  14
   5   0   2 3586.56 321.469   1
   5   0   2 3784.42 300.176   6
  -5   0  -2 3237.66 181.127  11
  -5   0  -2 3682.23 260.227  19
  -5   0  -2 3381.95 249.725  18
  -5   0  -2 3318.80 230.845   2
  -5   0  -2 3788.35 269.174  17
  -5   0  -2 3283.48 216.331   9
  -5   0  -2 3444.30 248.119  21
  -5   0  -2 3705.26 211.022   8
   5   0   2 3515.14 331.034  16
   5   0   2 3806.66 244.523  15
   5   0   3 5628.98 354.056   3
   5   0   3 6050.03 322.207  14
   5   0   3 5691.89 410.792   1
  -5   0  -3 6042.49 350.787  23
   5   0   3 5766.26 375.333   6
  -5   0  -3 6651.06 335.125  20
  -5   0  -3 6049.86 353.804  19
  -5   0  -3 6113.16 351.957  21
  -5   0  -3 5957.56 352.634  18
  -5   0  -3 5145.00 300.213   2
  -5   0  -3 5797.04 358.244  17
  -5   0  -3 5831.56 281.489   9
  -5   0  -3 5934.66 297.400   8
   5   0   3 5814.10 443.697  16
  -5   0  -3 5293.69 240.224  11
   5   0   3 6167.81 329.841  15
   5   0   4 5462.45 424.474   1
   5   0   4 6513.26 350.035  14
  -5   0  -4 6162.76 372.828  23
   5   0   4 6163.65 395.724   6
  -5   0  -4 6070.55 369.877  21
  -5   0  -4 7051.80 367.247  20
  -5   0  -4 5783.67 361.316  19
  -5   0  -4 5875.81 370.391  18
  -5   0  -4 5357.18 318.353   2
  -5   0  -4 6028.56 381.360  17
  -5   0  -4 5632.28 282.281   9
   5   0   4 6224.67 488.943  16
  -5   0  -4 6363.10 318.758   8
   5   0   4 6243.05 347.337  15
   5   0   4 5621.17 371.205   3
   5   0   5 3759.63 358.496   1
   5   0   5 4731.87 306.706  14
   5   0   5 4600.19 329.009   6
  -5   0  -5 4497.91 331.303  23
  -5   0  -5 4915.75 346.424  21
  -5   0  -5 4603.92 313.796  20
  -5   0  -5 4358.16 328.445  19
  -5   0  -5 4221.27 326.702  18
  -5   0  -5 3905.29 279.735   2
  -5   0  -5 4839.54 357.680  17
   5   0   5 4315.01 428.820  16
  -5   0  -5 5313.25 314.647   8
   5   0   5 4553.70 308.842  15
   5   0   5 3999.65 326.556   3
   5   0   6 6635.14 503.992   1
   5   0   6 7234.59 405.786  14
   5   0   6 7106.75 411.370   6
  -5   0  -6 7398.45 447.726  23
  -5   0  -6 7393.74 446.376  21
  -5   0  -6 8019.21 440.285  20
  -5   0  -6 6945.72 435.769  19
  -5   0  -6 7165.47 444.956  18
  -5   0  -6 6991.56 450.300  17
  -5   0  -6 6104.21 374.244   2
   5   0   6 7305.96 588.897  16
  -5   0  -6 7409.89 388.287   8
   5   0   6 7361.83 414.752  15
   5   0   7 22331.6 835.071   7
   5   0   7 22341.7 1017.92   1
   5   0   7 25170.6 850.844  14
   5   0   7 23399.5 811.840   6
  -5   0  -7 23771.8 892.365  23
  -5   0  -7 22004.4 727.044   5
  -5   0  -7 24127.6 866.384  20
  -5   0  -7 24276.8 903.092  19
  -5   0  -7 24922.4 922.259  18
  -5   0  -7 23782.5 918.895  17
  -5   0  -7 22049.4 813.809   2
   5   0   7 25613.4 1193.12  16
  -5   0  -7 24391.6 815.373   8
   5   0   7 25639.5 868.817  15
  -5   0  -7 24402.2 899.747  21
   5   0   8 2652.25 267.509   7
   5   0   8 2771.98 368.866   1
   5   0   8 2726.23 272.350  14
  -5   0  -8 2480.06 283.588  23
  -5   0  -8 2140.17 205.057   5
  -5   0  -8 2547.75 291.668  21
   5   0   8 2445.79 198.305  12
  -5   0  -8 2930.06 292.140  20
  -5   0  -8 2526.56 288.445  19
  -5   0  -8 2687.41 295.221  18
  -5   0  -8 3164.43 321.295  17
  -5   0  -8 2227.38 251.170   2
   5   0   8 2563.90 388.728  16
  -5   0  -8 2417.80 251.320   8
   5   0   8 2610.86 271.058  15
   5   0   9 1377.41 276.976   1
   5   0   9 1578.50 215.239   7
   5   0   9 2135.06 256.185  14
  -5   0  -9 1906.60 256.287  23
  -5   0  -9 1734.41 251.842  21
  -5   0  -9 1368.78 210.225  20
  -5   0  -9 1292.67 163.766   5
  -5   0  -9 1826.40 252.513  19
  -5   0  -9 1806.50 253.628  18
  -5   0  -9 1554.42 238.649  17
  -5   0  -9 1419.92 212.583   2
  -5   0  -9 1707.87 227.480   8
   5   0   9 1825.14 237.021  15
   5   0  10 3524.97 333.709   7
   5   0  10 4582.79 386.884  14
   5   0  10 3494.79 460.533   1
  -5   0 -10 4773.62 419.031  23
  -5   0 -10 3517.31 358.092  20
  -5   0 -10 4012.60 389.330  21
  -5   0 -10 4591.28 415.699  19
  -5   0 -10 4019.26 389.252  18
  -5   0 -10 4345.91 411.407  17
  -5   0 -10 4126.33 383.915   2
  -5   0 -10 3676.94 352.777   8
   5   0  10 4409.48 381.565  15
   5   0  11 1755.74 258.510  15
   5   0  11 2001.44 274.228  14
   5   0  11 1382.87 218.127   7
   5   0  11 1543.46 336.782   1
  -5   0 -11 1886.40 272.760  23
  -5   0 -11 1631.07 254.106  20
  -5   0 -11 1843.09 277.347  21
  -5   0 -11 1605.10 259.837  19
  -5   0 -11 1798.10 272.711  18
  -5   0 -11 1765.53 272.660  17
  -5   0 -11 1298.18 225.647   8
   5   0  12 1469.75 245.457  15
   5   0  12 1326.82 238.962  14
  -5   0 -12 972.812 206.311  20
   5   0  12 734.244 259.279   1
  -5   0 -12 1124.13 222.795  23
  -5   0 -12 966.008 203.076  21
  -5   0 -12 1056.56 215.396  19
  -5   0 -12 1057.43 226.289  18
  -5   0 -12 1283.44 248.266  17
  -5   0 -12 1192.65 232.026   8
  -5  -1   7 565.759 144.522   7
  -5  -1   7 394.515 116.771  11
   5   1  -7 684.171 148.946   5
  -5  -1   7 185.648 83.4351   9
  -5  -1   7 699.742 166.782   4
   5   1  -7 486.777 117.503   8
  -5  -1   6 18.9065 52.2128   7
   5   1  -6-44.1320 58.0952   6
  -5  -1   6 18.9098 44.2814  11
  -5  -1   6 6.20975 46.7769   9
  -5  -1   6 64.8076 72.7997   4
   5   1  -6 60.5739 67.8195   8
  -5  -1   5 1291.11 184.576   7
   5   1  -5 1324.22 216.579   6
   5   1  -5 1605.66 221.558   3
  -5  -1   5 1727.51 208.145  11
  -5  -1   5 991.360 179.979   9
  -5  -1   5 1481.16 213.896   4
  -5  -1   4 484.000 107.863   7
   5   1  -4 492.861 117.072   3
   5   1  -4 617.782 141.631   6
  -5  -1   4 514.648 105.267  11
  -5  -1   4 432.601 105.838   9
  -5  -1   4 447.289 112.707   4
   5   1  -3 2766.03 253.496   3
  -5  -1   3 3061.90 233.410  11
   5   1  -3 2741.60 282.834   6
  -5  -1   3 2393.46 247.357   9
  -5  -1   3 2991.40 268.970   4
   5   1  -2 2748.44 226.875   3
   5   1  -2 2254.13 246.555   6
  -5  -1   2 2365.74 187.204  11
  -5  -1   2 2421.41 163.537   2
  -5  -1   2 2217.45 219.957   9
  -5  -1   2 2468.21 226.450   4
   5   1  -2 2163.70 203.754  16
   5   1  -1 1707.87 131.172  14
   5   1  -1 1607.79 124.469  13
   5   1  -1 1498.56 155.156   3
  -5  -1   1 1434.44 115.505  23
  -5  -1   1 1592.10 120.684  21
  -5  -1   1 1533.42 136.446  11
  -5  -1   1 1482.47 117.500  19
  -5  -1   1 1350.45 112.289  18
  -5  -1   1 1893.39 146.006   2
  -5  -1   1 1684.54 175.678   4
  -5  -1   1 1460.50 161.289   9
  -5  -1   1 1448.90 117.431  22
   5   1  -1 1412.36 173.326  16
   5   1  -1 1379.38 199.078   6
   5   1  -1 1547.02 124.558  15
   5   1   0 2.15669 25.6540  15
  -5  -1   0-2.59373 19.8532   2
   5   1   0 0.19552 23.6364  14
  -5  -1   0 30.9567 30.5746  23
   5   1   0 4.82549 28.6325   3
   5   1   0 35.9773 50.1042   6
  -5  -1   0 30.1286 26.1062  21
  -5  -1   0 9.07199 23.0359  11
  -5  -1   0-26.3330 22.6720  19
  -5  -1   0-30.5753 23.2200  18
  -5  -1   0-9.77891 17.8233  17
  -5  -1   0 13.0428 31.2895   9
   5   1   0 25.1540 33.5150   1
   5   1   0 10.5739 49.1313  16
   5   1   1 6684.42 318.094   3
   5   1   1 7810.35 383.095   1
   5   1   1 7630.63 321.965  14
  -5  -1  -1 7462.31 327.571  23
  -5  -1  -1 7619.47 333.366  21
  -5  -1  -1 6532.82 253.965  11
  -5  -1  -1 7838.77 334.885  19
  -5  -1  -1 7712.28 334.349  18
  -5  -1  -1 8051.31 329.458   2
   5   1   1 7497.84 432.068   6
  -5  -1  -1 7999.20 341.597  17
  -5  -1  -1 7814.51 348.870   9
   5   1   1 6839.98 426.470  16
   5   1   1 8179.79 333.072  15
   5   1   2 102.121 44.1619  15
  -5  -1  -2 169.730 51.7972   2
   5   1   2 184.257 51.7492  14
   5   1   2 169.537 49.5094   3
  -5  -1  -2 172.351 57.9179  21
   5   1   2 153.569 79.8310   6
  -5  -1  -2 139.773 33.1008  11
  -5  -1  -2 118.954 47.8908  19
  -5  -1  -2 105.126 46.7199  18
  -5  -1  -2 87.5957 43.4095  23
  -5  -1  -2 123.791 51.7720  17
   5   1   2 148.522 66.5928   1
  -5  -1  -2 130.526 44.6702   9
   5   1   2 182.302 101.901  16
   5   1   3 101104. 2186.71   1
   5   1   3 107973. 2077.17  14
  -5  -1  -3 106727. 2125.79  23
   5   1   3 112122. 2340.91   6
  -5  -1  -3 106413. 2126.03  21
  -5  -1  -3 94930.6 1839.54  11
  -5  -1  -3 106776. 2125.66  19
  -5  -1  -3 107561. 2134.28  18
  -5  -1  -3 104096. 2038.31   2
  -5  -1  -3 110675. 2158.92  17
  -5  -1  -3 104736. 2016.92   9
  -5  -1  -3 114651. 2055.07   8
   5   1   3 103613. 2425.46  16
   5   1   3 106761. 2082.09  15
   5   1   3 96223.2 2071.24   3
   5   1   4 631.391 105.679  15
   5   1   4 628.786 109.339  14
  -5  -1  -4 450.514 96.9829  23
   5   1   4 525.116 118.852   6
  -5  -1  -4 626.705 109.243  21
  -5  -1  -4 685.172 110.692  20
  -5  -1  -4 614.691 113.780  19
   5   1   4 579.796 123.896   1
  -5  -1  -4 598.551 108.158  18
  -5  -1  -4 656.584 103.903   2
  -5  -1  -4 667.487 119.877  17
   5   1   4 456.082 140.818  16
  -5  -1  -4 645.706 100.781   8
   5   1   5-0.42008 32.2456  15
   5   1   5 55.9506 48.0013  14
  -5  -1  -5 59.8839 42.8668   2
   5   1   5 86.4086 61.4057   6
  -5  -1  -5 42.4960 56.3282  21
  -5  -1  -5 88.9183 41.4540  20
  -5  -1  -5 41.9752 46.1852  19
   5   1   5 36.2894 55.5026   1
  -5  -1  -5 89.3473 53.1112  18
  -5  -1  -5 116.311 60.1436  17
  -5  -1  -5 73.3823 49.3005  23
   5   1   5-43.6520 62.2492  16
  -5  -1  -5 45.0524 53.4849   8
   5   1   6 3373.57 316.057   1
   5   1   6 4127.99 294.178  14
   5   1   6 3679.54 305.446   6
  -5  -1  -6 3479.15 288.330  23
  -5  -1  -6 3649.69 295.955  21
  -5  -1  -6 3819.71 292.061  20
  -5  -1  -6 3492.39 290.366  19
  -5  -1  -6 3306.08 284.261  18
  -5  -1  -6 3456.27 254.363   2
  -5  -1  -6 3807.09 305.181  17
   5   1   6 3558.51 405.845  16
  -5  -1  -6 3783.45 273.047   8
   5   1   6 4072.93 296.351  15
   5   1   7 9164.74 573.939   1
   5   1   7 8970.64 533.479   7
   5   1   7 9899.37 498.292  14
   5   1   7 9396.20 498.346   6
  -5  -1  -7 9423.12 514.717  23
  -5  -1  -7 9995.59 525.922  21
  -5  -1  -7 10796.3 520.298  20
  -5  -1  -7 10422.2 538.409  19
  -5  -1  -7 10220.8 538.614  18
  -5  -1  -7 9071.89 450.575   2
  -5  -1  -7 10201.8 545.465  17
   5   1   7 9682.06 700.579  16
  -5  -1  -7 10072.0 485.712   8
   5   1   7 10450.4 510.849  15
   5   1   8 79.1298 62.5480  15
   5   1   8-45.2753 77.9879   7
   5   1   8 60.8271 50.4364  14
   5   1   8 44.9371 48.9457   6
   5   1   8 29.7188 39.3426  12
  -5  -1  -8-43.3868 57.7000  21
  -5  -1  -8 22.7003 40.6723  20
  -5  -1  -8-14.7519 45.1651  19
  -5  -1  -8 108.324 72.0878  23
  -5  -1  -8 78.5066 59.6833  18
   5   1   8 20.7547 58.6248   1
  -5  -1  -8 130.658 71.7454  17
  -5  -1  -8 82.9906 50.7430   2
  -5  -1  -8 24.0317 56.5546   8
   5   1   9 70.7949 64.9929  15
   5   1   9 62.6565 89.3773   7
  -5  -1  -9 127.400 57.4862   2
   5   1   9 185.630 72.1118  14
   5   1   9 146.591 60.9749  12
  -5  -1  -9 121.470 85.9748  21
  -5  -1  -9 126.883 68.5098  20
  -5  -1  -9 19.7350 45.1165  19
  -5  -1  -9 111.071 76.6689  18
  -5  -1  -9 95.6502 73.9632  17
   5   1   9 150.633 78.5681   1
  -5  -1  -9 89.6003 74.0724  23
  -5  -1  -9 146.598 91.7037   8
   5   1  10 4402.59 397.705   7
   5   1  10 4731.32 501.259   1
   5   1  10 4801.04 395.546  14
  -5  -1 -10 4964.25 416.326  23
  -5  -1 -10 4943.89 423.717  21
   5   1  10 4623.15 313.443  12
  -5  -1 -10 4091.80 371.506  20
  -5  -1 -10 4499.05 401.983  19
  -5  -1 -10 5100.28 429.439  18
  -5  -1 -10 4207.70 414.507  17
  -5  -1 -10 5654.94 425.948   2
  -5  -1 -10 4070.14 366.045   8
   5   1  10 5041.75 409.098  15
   5   1  11-49.3443 59.2543  15
   5   1  11-11.6998 54.5334   7
   5   1  11 73.6429 67.6365  14
  -5  -1 -11 6.03936 43.5319  21
  -5  -1 -11 54.5180 54.8787  20
  -5  -1 -11-19.7268 49.6659  19
  -5  -1 -11 54.8587 61.3437  18
  -5  -1 -11 129.288 81.5840  17
  -5  -1 -11-69.1050 62.7429  23
  -5  -1 -11 43.1589 74.1729   8
   5   1  11 177.105 156.582   1
   5   1  12 593.832 161.111  15
   5   1  12 509.770 216.201   1
   5   1  12 262.870 104.878   7
   5   1  12 328.303 120.465  14
   5   1  12 348.805 129.311  13
  -5  -1 -12 248.356 112.590  20
  -5  -1 -12 309.841 115.213   8
  -5  -2   8 771.644 173.521   7
  -5  -2   8 698.425 174.845   9
  -5  -2   8 1233.72 231.462   4
   5   2  -8 812.402 169.382   8
  -5  -2   7 1116.70 190.067   7
   5   2  -7 1433.43 216.091   5
  -5  -2   7 579.064 150.378   9
  -5  -2   7 1384.86 240.976   4
   5   2  -7 1024.55 171.416   8
  -5  -2   6 958.223 165.685   7
  -5  -2   6 1008.71 170.172  11
   5   2  -6 970.380 171.271   5
  -5  -2   6 759.350 156.257   9
   5   2  -6 838.091 148.636   8
  -5  -2   5 87.9664 57.0169   7
   5   2  -5-71.2071 62.1381   6
  -5  -2   5 34.6049 51.0179  11
   5   2  -5-52.6595 47.3425   5
  -5  -2   5-19.7909 56.5118   9
  -5  -2   5-73.2258 67.9526   4
   5   2  -4 2865.89 262.421   3
   5   2  -4 3186.21 307.227   6
  -5  -2   4 3426.24 268.358  11
  -5  -2   4 2729.52 268.111   9
  -5  -2   4 3857.05 327.830   4
  -5  -2   4 3312.82 272.507   7
   5   2  -3 42.3419 51.4185   6
   5   2  -3-12.1515 39.8613   3
  -5  -2   3 44.4942 33.8234  11
  -5  -2   3 44.2725 45.8030   9
  -5  -2   3 87.5576 70.3235   4
   5   2  -2 3978.98 252.038   3
  -5  -2   2 4130.19 247.374  11
   5   2  -2 3800.00 317.102   6
  -5  -2   2 4871.38 235.349   2
  -5  -2   2 4055.83 280.270   9
  -5  -2   2 4419.67 299.704   4
   5   2  -1 9980.09 358.340  14
   5   2  -1 8806.20 348.369   3
  -5  -2   1 9630.19 329.300  23
   5   2  -1 9394.24 338.601  13
  -5  -2   1 9512.15 330.001  22
  -5  -2   1 9503.53 326.585  21
  -5  -2   1 9241.64 354.022  11
  -5  -2   1 9241.30 320.278  19
   5   2  -1 9737.05 505.597   6
  -5  -2   1 9918.31 330.141  18
  -5  -2   1 10734.1 366.511   2
  -5  -2   1 9337.03 417.082   9
  -5  -2   1 9446.54 419.346   4
   5   2  -1 8015.98 381.647  16
   5   2  -1 10097.3 360.100  15
   5   2   0 3327.29 181.096   3
   5   2   0 3948.11 225.496  14
  -5  -2   0 3596.48 209.592  21
  -5  -2   0 3841.07 212.404  23
   5   2   0 3480.68 293.723   6
   5   2   0 3770.24 216.440  13
  -5  -2   0 3832.39 214.674  22
  -5  -2   0 3254.21 178.588  11
  -5  -2   0 3784.23 210.267  19
  -5  -2   0 3856.38 210.968  18
  -5  -2   0 4221.91 222.243   2
  -5  -2   0 3557.81 230.045   4
  -5  -2   0 3618.03 235.922   9
   5   2   0 3440.95 264.900  16
   5   2   0 4021.25 226.353  15
   5   2   0 3647.22 189.705   1
   5   2   1 735.571 79.2157   3
   5   2   1 761.370 102.196  14
  -5  -2  -1 1020.53 113.747  23
   5   2   1 938.060 111.813  13
  -5  -2  -1 837.229 105.832  22
   5   2   1 959.981 154.819   6
  -5  -2  -1 923.417 109.612  21
  -5  -2  -1 846.258 77.7724  11
  -5  -2  -1 903.880 107.053  19
  -5  -2  -1 996.149 110.382  18
  -5  -2  -1 941.053 105.504   2
  -5  -2  -1 834.868 102.853   4
  -5  -2  -1 824.697 106.110   9
   5   2   1 926.954 144.707  16
   5   2   1 869.042 101.755   1
   5   2   1 958.320 112.822  15
   5   2   2 11947.6 433.327  14
  -5  -2  -2 12266.8 439.965  23
   5   2   2 12538.1 575.857   6
  -5  -2  -2 9813.34 273.078  11
  -5  -2  -2 11342.1 424.977  19
  -5  -2  -2 11945.3 434.189  18
  -5  -2  -2 12541.7 423.939   2
  -5  -2  -2 10890.8 412.652   9
  -5  -2  -2 11537.1 435.845  21
   5   2   2 11784.0 568.570  16
   5   2   2 11867.7 426.492   1
   5   2   2 11867.1 432.927  15
   5   2   2 9977.73 337.191   3
   5   2   3 5209.25 288.095  14
   5   2   3 5896.56 378.320   6
  -5  -2  -3 5068.11 289.328  23
  -5  -2  -3 5210.98 296.550  21
  -5  -2  -3 4379.79 145.294  11
  -5  -2  -3 5126.96 292.594  19
  -5  -2  -3 4984.46 195.458  10
  -5  -2  -3 5431.36 300.463  18
  -5  -2  -3 5461.35 276.350   2
  -5  -2  -3 5804.42 313.215  17
  -5  -2  -3 5227.51 273.852   9
  -5  -2  -3 5408.82 274.912   8
   5   2   3 5096.25 393.369  16
   5   2   3 4983.73 284.011   1
   5   2   3 5202.59 288.118  15
   5   2   4 1033.71 133.158  14
   5   2   4 952.574 151.613   6
  -5  -2  -4 1010.54 135.395  21
  -5  -2  -4 794.746 53.0758  11
  -5  -2  -4 1007.63 135.560  23
  -5  -2  -4 932.866 128.954  19
  -5  -2  -4 926.161 128.172  18
  -5  -2  -4 1022.23 100.605  10
  -5  -2  -4 1112.38 128.002   2
  -5  -2  -4 954.072 132.299  17
  -5  -2  -4 1085.64 127.554   8
   5   2   4 877.875 173.581  16
   5   2   4 971.634 131.448   1
   5   2   4 1058.87 135.620  15
   5   2   5 3451.61 254.645  14
   5   2   5 3318.56 287.694   6
  -5  -2  -5 3312.67 260.047  23
  -5  -2  -5 3340.62 261.373  19
  -5  -2  -5 3384.15 264.347  18
  -5  -2  -5 3606.11 236.575   2
  -5  -2  -5 3265.68 265.538  17
   5   2   5 3548.12 371.908  16
  -5  -2  -5 3854.36 256.046   8
  -5  -2  -5 3341.99 262.223  21
   5   2   5 3015.89 255.203   1
   5   2   5 3321.12 253.050  15
   5   2   6 2479.53 230.687  14
   5   2   6 2407.15 250.408   6
  -5  -2  -6 2545.11 236.062  23
  -5  -2  -6 2405.03 234.041  21
  -5  -2  -6 2648.61 227.269  20
  -5  -2  -6 2653.40 243.571  19
  -5  -2  -6 2874.69 252.996  18
  -5  -2  -6 2084.57 192.343   2
  -5  -2  -6 2861.25 253.519  17
  -5  -2  -6 2982.68 243.783   8
   5   2   6 2466.43 245.348   1
   5   2   6 2693.63 239.826  15
   5   2   7 2114.61 225.085  14
   5   2   7 2045.71 233.261   6
  -5  -2  -7 2002.75 220.268  23
  -5  -2  -7 2120.65 229.019  21
  -5  -2  -7 1809.21 197.903  20
  -5  -2  -7 1877.99 217.392  19
  -5  -2  -7 1999.14 221.132  18
  -5  -2  -7 1907.76 190.454   2
  -5  -2  -7 1949.87 220.611  17
  -5  -2  -7 1988.22 206.033   8
   5   2   7 1791.78 229.232   1
   5   2   7 2209.81 226.036  15
   5   2   8 125.989 58.0429  15
   5   2   8 141.732 79.1362   7
   5   2   8 69.3122 35.2943  14
  -5  -2  -8 146.450 62.0422   2
  -5  -2  -8 81.9673 57.3347  23
   5   2   8 21.4040 56.7624   6
   5   2   8 61.0349 51.4833  12
  -5  -2  -8 47.3337 45.9151  21
  -5  -2  -8 50.5293 42.1895  20
   5   2   8 105.552 55.9703   1
  -5  -2  -8 184.076 66.6984  19
  -5  -2  -8 143.623 53.4629  18
  -5  -2  -8 88.0980 47.1894  17
  -5  -2  -8 129.420 63.7248   8
   5   2   9 643.013 138.153  15
   5   2   9 475.432 103.439  12
  -5  -2  -9 421.287 121.487  23
   5   2   9 678.651 157.523   7
   5   2   9 351.937 112.898  14
  -5  -2  -9 493.661 111.491   2
  -5  -2  -9 483.093 130.867  21
  -5  -2  -9 433.314 116.551  20
   5   2   9 463.095 140.786   1
  -5  -2  -9 631.567 141.649  19
  -5  -2  -9 570.601 137.658  18
  -5  -2  -9 592.582 136.717  17
   5   2   9 437.408 118.640   6
  -5  -2  -9 677.613 140.081   8
   5   2  10 977.374 187.795  15
   5   2  10 832.425 188.237   7
   5   2  10 1196.33 197.681  14
  -5  -2 -10 683.017 167.054  23
  -5  -2 -10 1079.17 198.421  22
   5   2  10 1064.64 187.958  13
  -5  -2 -10 965.232 190.626  21
   5   2  10 810.051 136.713  12
  -5  -2 -10 656.233 147.643  20
  -5  -2 -10 824.479 169.794  19
  -5  -2 -10 801.859 172.452  18
   5   2  10 1084.74 231.741   1
  -5  -2 -10 986.175 176.737   8
   5   2  11 3514.47 441.430   1
   5   2  11 3858.32 394.524   7
   5   2  11 4348.38 412.424  14
  -5  -2 -11 4487.84 419.865  23
   5   2  11 4363.91 407.542  13
  -5  -2 -11 4198.58 419.068  22
  -5  -2 -11 4148.32 414.371  21
   5   2  11 3591.55 301.803  12
  -5  -2 -11 3265.09 329.615  20
  -5  -2 -11 4449.58 419.529  19
  -5  -2 -11 4168.81 399.419  18
  -5  -2 -11 3572.15 355.566   8
   5   2  11 4357.72 408.049  15
   5   2  12 81.1585 77.5259   7
   5   2  12 199.660 90.3364  12
  -5  -2 -12 277.447 106.451  20
  -5  -2 -12 311.218 115.868  10
   5   2  12 356.133 160.122   1
  -5  -2 -12 277.583 133.332   8
   5   3  -7 198.566 85.2542   5
  -5  -3   7-4.37068 46.1208   9
  -5  -3   7 190.159 104.599   4
   5   3  -7 227.563 91.5336   8
  -5  -3   7 84.9530 69.1523   7
   5   3  -6 1737.65 229.113   5
  -5  -3   6 1207.55 196.375   9
  -5  -3   6 1799.55 247.398   4
  -5  -3   6 1874.91 231.837   7
   5   3  -5 1949.78 229.538   5
  -5  -3   5 1726.60 220.210   9
  -5  -3   5 2288.09 266.771   4
   5   3  -4 246.368 84.5834   6
   5   3  -4 157.593 65.4813  20
   5   3  -4 227.008 78.9130   5
  -5  -3   4 239.949 89.4844   9
  -5  -3   4 204.478 75.1708   4
   5   3  -3 258.885 92.3194   6
  -5  -3   3 187.919 64.1293  11
   5   3  -3 1.49745 60.2181  20
   5   3  -3 234.729 77.5540   5
  -5  -3   3 193.399 68.6718   9
  -5  -3   3 102.061 65.8377   4
   5   3  -2 10042.3 517.809   6
  -5  -3   2 9021.41 387.449  11
  -5  -3   2 9699.27 359.444   2
  -5  -3   2 9346.03 431.258   9
  -5  -3   2 10160.6 466.283   4
   5   3  -1 504.245 87.3673  15
  -5  -3   1 462.861 78.0922   2
   5   3  -1 412.902 60.6669   3
   5   3  -1 518.067 90.7598  14
  -5  -3   1 440.072 71.0483  22
   5   3  -1 521.159 84.9742  13
  -5  -3   1 519.629 75.3768  23
   5   3  -1 304.078 99.6465   6
  -5  -3   1 588.899 79.4663  21
  -5  -3   1 501.141 77.2887  11
  -5  -3   1 542.666 77.0202  19
  -5  -3   1 598.735 101.267   9
   5   3  -1 499.961 83.7440  17
  -5  -3   1 411.841 82.3237   4
   5   3   0 807.514 62.7551   3
   5   3   0 1295.23 138.497  14
  -5  -3   0 1327.85 127.382  23
   5   3   0 1566.96 203.610   6
   5   3   0 1229.50 129.158  13
  -5  -3   0 1197.48 122.655  22
  -5  -3   0 1285.77 126.409  21
  -5  -3   0 1172.14 104.717  11
  -5  -3   0 1159.78 116.937  19
  -5  -3   0 1250.78 124.671   2
  -5  -3   0 1239.66 131.931   4
  -5  -3   0 1238.39 134.681   9
   5   3   0 1283.67 94.1506   1
   5   3   0 1202.28 133.665  15
   5   3   1 24561.9 706.442  14
   5   3   1 25899.5 871.770   6
   5   3   1 24357.4 691.697  13
  -5  -3  -1 24336.5 685.475  22
  -5  -3  -1 23407.1 673.459  21
  -5  -3  -1 21657.3 529.953  11
  -5  -3  -1 23327.3 665.350  19
  -5  -3  -1 23895.3 662.777   2
  -5  -3  -1 24110.7 667.717  18
  -5  -3  -1 22930.1 627.511   4
  -5  -3  -1 24482.2 686.845   9
   5   3   1 24115.4 584.185   1
  -5  -3  -1 23328.6 671.973  23
   5   3   1 24093.7 702.180  15
   5   3   2-47.4278 44.4168  15
   5   3   2 25.5436 27.4690   1
  -5  -3  -2 62.6972 44.3644   2
   5   3   2-18.7767 41.2876  14
  -5  -3  -2-14.7018 28.9907  23
  -5  -3  -2-8.94719 22.5185  22
   5   3   2-34.9020 38.2590   6
   5   3   2 47.0012 42.5971  13
  -5  -3  -2-16.5643 26.6427  21
  -5  -3  -2-19.0601 11.6325  11
  -5  -3  -2 0.39175 24.5476  19
  -5  -3  -2-1.60465 14.8374  10
  -5  -3  -2 1.29344 20.7007  18
  -5  -3  -2-19.1822 31.6786   9
  -5  -3  -2-5.20731 22.5655   4
   5   3   3 27358.8 797.352  14
   5   3   3 28461.5 929.345   6
  -5  -3  -3 26493.1 774.784  23
  -5  -3  -3 27831.2 797.345  22
  -5  -3  -3 26952.1 785.004  21
   5   3   3 29009.2 801.093  13
  -5  -3  -3 26630.3 774.390  19
  -5  -3  -3 27942.9 741.311   2
  -5  -3  -3 24322.4 621.007  10
  -5  -3  -3 27961.5 783.622  18
   5   3   3 26858.5 708.430   1
  -5  -3  -3 27813.1 740.772   8
   5   3   3 27877.4 799.786  15
   5   3   4 275.160 79.4556  15
  -5  -3  -4 412.526 87.3493  19
  -5  -3  -4 346.580 71.2220   2
   5   3   4 260.557 62.6605   1
   5   3   4 384.142 87.6323  14
  -5  -3  -4 258.437 72.4124  23
   5   3   4 338.298 97.7651   6
  -5  -3  -4 251.299 69.1700  22
   5   3   4 197.630 59.8880  13
  -5  -3  -4 289.135 73.3825  21
  -5  -3  -4 307.162 77.7705  18
  -5  -3  -4 251.096 60.0259  10
  -5  -3  -4 213.086 61.3111   8
   5   3   5 45.8675 47.2380  15
  -5  -3  -5 62.9156 37.6594   2
   5   3   5 78.0251 47.3699  14
   5   3   5 24.2605 44.1042   1
  -5  -3  -5 37.7555 44.1686  23
  -5  -3  -5 103.638 53.9652  22
   5   3   5 108.936 72.1778   6
   5   3   5 92.9480 56.7165  13
  -5  -3  -5 133.224 56.6492  21
  -5  -3  -5 113.252 54.8348  19
  -5  -3  -5 36.7330 34.1184  18
  -5  -3  -5 137.709 55.9293  10
  -5  -3  -5 98.1505 50.1276   8
   5   3   6 302.625 86.5984  15
   5   3   6 274.058 81.9927   1
  -5  -3  -6 187.544 59.6268   2
   5   3   6 244.529 78.3941  14
  -5  -3  -6 260.306 81.4871  23
   5   3   6 314.207 104.264   6
  -5  -3  -6 183.577 76.6310  22
   5   3   6 258.605 86.8407  13
  -5  -3  -6 184.229 72.5675  21
  -5  -3  -6 156.278 66.9725  19
  -5  -3  -6 320.597 86.1115  18
  -5  -3  -6 208.077 71.5975  10
  -5  -3  -6 401.785 94.3831   8
   5   3   7 8112.32 463.335  14
   5   3   7 7867.47 490.234   6
   5   3   7 8333.91 463.416  13
  -5  -3  -7 8629.79 476.241  22
  -5  -3  -7 8184.26 462.294  21
  -5  -3  -7 8276.02 458.647  23
  -5  -3  -7 8267.61 458.847  19
  -5  -3  -7 8223.85 455.978  18
  -5  -3  -7 7209.31 396.452  10
  -5  -3  -7 8375.30 406.205   2
  -5  -3  -7 9439.23 468.154   8
   5   3   7 7498.68 449.955   1
   5   3   7 8342.17 467.634  15
   5   3   8 2440.62 299.142   7
   5   3   8 2510.81 264.756  14
   5   3   8 2436.64 272.578   6
  -5  -3  -8 2480.96 256.556  23
   5   3   8 2998.16 282.915  13
  -5  -3  -8 2572.63 266.854  22
   5   3   8 2733.76 238.413  12
  -5  -3  -8 2630.34 264.357  19
  -5  -3  -8 2734.29 270.053  18
  -5  -3  -8 2415.30 242.339  10
  -5  -3  -8 2753.29 232.594   2
  -5  -3  -8 2465.30 243.609   8
   5   3   8 2388.71 269.806   1
  -5  -3  -8 2430.56 256.477  21
   5   3   8 2602.29 268.722  15
   5   3   9-45.0985 45.3978  15
   5   3   9 158.117 98.8421   7
   5   3   9 11.4754 49.8286  14
  -5  -3  -9 63.0717 49.8691   2
  -5  -3  -9-35.0754 51.9000  23
   5   3   9-61.8605 53.4538  12
  -5  -3  -9-8.42826 48.5672  22
   5   3   9-33.8764 63.4856  13
   5   3   9-47.1229 63.3479   1
  -5  -3  -9-37.5721 49.8744  21
  -5  -3  -9 35.2887 50.2727  19
   5   3   9 18.4321 64.6429   6
  -5  -3  -9 34.3156 42.8852  18
  -5  -3  -9-30.4231 49.8474  10
  -5  -3  -9-25.8795 80.7416   8
   5   3  10 364.014 112.786  15
   5   3  10 405.888 138.838   7
   5   3  10 357.273 117.136  14
  -5  -3 -10 413.169 116.285  22
   5   3  10 282.042 101.183  13
  -5  -3 -10 391.516 115.164  23
  -5  -3 -10 305.774 109.059  21
   5   3  10 134.459 83.8327   1
  -5  -3 -10 230.729 92.6556  19
  -5  -3 -10 154.450 79.6193  18
  -5  -3 -10 370.990 111.191  10
   5   3  10 263.569 92.5428  12
  -5  -3 -10 297.990 93.7181   8
   5   3  11 716.952 165.347  15
  -5  -3 -11 765.677 168.634  21
   5   3  11 534.874 155.548   7
   5   3  11 887.325 182.995  14
  -5  -3 -11 562.366 146.901  23
   5   3  11 1033.07 169.132  12
   5   3  11 938.316 226.951   1
  -5  -3 -11 822.113 173.494  19
  -5  -3 -11 856.631 180.566  18
  -5  -3 -11 645.304 155.397  10
  -5  -3 -11 922.693 192.757  22
   5   3  11 620.733 168.247  13
  -5  -3 -11 768.357 156.272   8
   5   3  12 1396.41 256.803   7
   5   3  12 1133.91 177.264  12
  -5  -3 -12 1401.91 245.847  10
   5   3  12 1338.28 305.878   1
  -5  -3 -12 922.896 187.736   8
   5   4  -7 155.942 81.5119   5
  -5  -4   7 170.784 82.5107   9
  -5  -4   7 230.088 118.031   4
   5   4  -7 265.573 85.1208   8
   5   4  -6-7.45164 77.2837   5
  -5  -4   6-83.8320 62.1776   9
  -5  -4   6-7.62150 87.3262   4
   5   4  -5 7794.55 492.780  20
   5   4  -5 9468.01 526.623   5
  -5  -4   5 7838.49 468.657   9
  -5  -4   5 9758.33 560.818   4
   5   4  -4 41506.0 1220.59   6
   5   4  -4 38350.4 1200.26  20
   5   4  -4 41754.4 1192.72   5
  -5  -4   4 36111.6 1096.39   9
  -5  -4   4 45184.8 1267.88   4
  -5  -4   3 97.0471 42.5879   2
   5   4  -3 108.980 64.4078   6
   5   4  -3-22.1045 53.6081  20
   5   4  -3 122.288 58.1105   5
  -5  -4   3 127.344 53.3129   9
  -5  -4   3 131.150 55.0105   4
  -5  -4   2 11.4429 33.0486   2
   5   4  -2 49.7427 47.2863  14
  -5  -4   2 43.0015 25.2924  23
  -5  -4   2 31.6903 31.6965  22
   5   4  -2-30.8346 35.4004  13
   5   4  -2 49.0939 51.9489   6
  -5  -4   2 11.8580 21.4859  21
   5   4  -2-5.48598 46.6917   5
   5   4  -2 22.9036 26.5217  18
  -5  -4   2 3.59078 31.5457   9
   5   4  -2 53.2740 37.7357  17
  -5  -4   2-0.18486 60.5985   4
   5   4  -2 63.8226 48.7937  15
   5   4  -1 14016.3 560.324  14
  -5  -4   1 14830.8 499.621  23
   5   4  -1 15861.4 649.288   6
   5   4  -1 14481.5 534.971  13
  -5  -4   1 13544.6 488.817  22
  -5  -4   1 14690.3 497.324  21
  -5  -4   1 14354.9 484.153  19
  -5  -4   1 15719.1 544.689   2
   5   4  -1 13551.3 374.192   1
  -5  -4   1 16142.8 543.786   9
  -5  -4   1 15468.1 562.155   4
   5   4  -1 14072.9 535.719  17
   5   4  -1 14125.0 551.586  15
   5   4   0 2229.02 208.352  14
   5   4   0 2290.49 234.538   6
  -5  -4   0 2186.75 177.988  23
   5   4   0 1905.34 179.869  13
  -5  -4   0 2330.85 183.474  21
  -5  -4   0 2251.14 177.763  19
  -5  -4   0 2638.92 206.985   2
   5   4   0 2557.78 143.837   1
  -5  -4   0 2020.39 173.207   9
  -5  -4   0 2298.35 184.289   4
   5   4   0 2003.76 185.973  17
  -5  -4   0 2121.68 179.578  22
   5   4   0 2234.78 204.334  15
   5   4   1 12552.2 526.028  14
   5   4   1 13233.9 509.105  13
  -5  -4  -1 12741.0 484.561  23
   5   4   1 13778.7 608.061   6
  -5  -4  -1 13585.8 501.813  22
  -5  -4  -1 13679.6 496.874  21
  -5  -4  -1 13349.0 487.004  19
  -5  -4  -1 14176.8 515.387   2
  -5  -4  -1 12229.5 396.049  10
   5   4   1 14220.4 413.454   1
  -5  -4  -1 13900.7 449.840   4
  -5  -4  -1 13661.0 481.955   9
   5   4   1 14224.1 533.429  17
   5   4   1 13513.5 533.651  15
   5   4   2 20.1609 38.6493  15
  -5  -4  -2 111.132 43.9514   2
   5   4   2 216.678 68.0267  14
  -5  -4  -2 78.5627 38.4630  21
   5   4   2 104.577 73.7264   6
   5   4   2 148.067 59.8994  13
  -5  -4  -2 202.592 62.9661  22
  -5  -4  -2 107.833 48.7046  19
  -5  -4  -2 104.557 48.3508  23
  -5  -4  -2 100.732 31.8676  10
  -5  -4  -2 136.328 49.7458  18
  -5  -4  -2 127.395 49.2783   9
   5   4   2 146.771 47.0737   1
  -5  -4  -2 209.570 50.1093   4
   5   4   3 51881.1 1275.30  14
   5   4   3 51521.6 1236.62  13
   5   4   3 54645.9 1425.72   6
  -5  -4  -3 49725.0 1224.17  23
  -5  -4  -3 49756.5 1233.60  22
  -5  -4  -3 51002.1 1232.58  21
  -5  -4  -3 49789.8 1216.28  19
  -5  -4  -3 53425.5 1213.40   2
  -5  -4  -3 47037.1 1071.44  10
  -5  -4  -3 49799.2 1211.33  18
  -5  -4  -3 49034.4 957.879   4
   5   4   3 51000.9 1112.03   1
   5   4   3 49364.8 1254.61  15
   5   4   4 3290.37 258.858  14
   5   4   4 3282.45 299.446   6
  -5  -4  -4 3173.94 247.322  23
  -5  -4  -4 3238.88 254.489  22
  -5  -4  -4 3240.04 251.427  21
   5   4   4 3075.70 244.800  13
  -5  -4  -4 3227.86 247.359  19
  -5  -4  -4 3233.05 230.122   2
  -5  -4  -4 3209.31 208.135  10
  -5  -4  -4 2977.09 237.600  18
   5   4   4 3708.36 234.002   1
  -5  -4  -4 3289.49 221.492   8
   5   4   4 3014.20 246.934  15
   5   4   5 172.559 55.3297   1
   5   4   5 153.481 64.7101  15
  -5  -4  -5 171.742 55.6220   2
  -5  -4  -5 260.939 77.4994  21
   5   4   5 199.333 80.4241  14
  -5  -4  -5 222.261 72.6187  23
   5   4   5 120.978 78.5121   6
  -5  -4  -5 183.584 73.9765  22
   5   4   5 210.605 67.4514  13
  -5  -4  -5 174.332 68.5290  19
  -5  -4  -5 232.273 70.0074  18
  -5  -4  -5 176.777 59.1142  10
  -5  -4  -5 228.248 65.7060   8
   5   4   6 1076.79 163.138  15
   5   4   6 1032.36 159.301  14
   5   4   6 1114.39 165.171  13
   5   4   6 945.432 171.929   6
  -5  -4  -6 1008.55 159.904  22
  -5  -4  -6 1133.76 161.680  21
  -5  -4  -6 767.038 135.970  23
  -5  -4  -6 882.959 144.903  19
  -5  -4  -6 949.322 128.854   2
  -5  -4  -6 892.582 148.161  18
  -5  -4  -6 897.687 134.971  10
   5   4   6 980.277 140.741   1
  -5  -4  -6 1014.25 139.408   8
   5   4   7 1246.83 188.309  14
   5   4   7 1425.36 191.684  13
   5   4   7 1174.55 196.284   6
  -5  -4  -7 1137.72 175.588  22
  -5  -4  -7 1057.37 164.898  21
  -5  -4  -7 1036.83 163.907  19
  -5  -4  -7 1338.75 186.009  23
  -5  -4  -7 1018.73 164.682  18
  -5  -4  -7 1283.45 152.731   2
  -5  -4  -7 1005.24 147.610  10
   5   4   7 1257.38 170.786   1
  -5  -4  -7 1398.31 172.890   8
   5   4   7 1084.37 178.214  15
   5   4   8 6949.43 526.060   7
   5   4   8 7394.29 475.191  14
   5   4   8 6903.40 489.717   6
  -5  -4  -8 7224.04 456.576  23
   5   4   8 7285.11 461.693  13
  -5  -4  -8 7341.13 464.774  22
   5   4   8 6537.94 395.760  12
  -5  -4  -8 6949.51 445.925  19
  -5  -4  -8 7037.41 447.468  18
  -5  -4  -8 6866.23 419.662  10
  -5  -4  -8 8005.05 410.192   2
  -5  -4  -8 7391.56 463.484  21
  -5  -4  -8 8011.06 449.378   8
   5   4   8 7269.40 461.653   1
   5   4   8 7082.94 463.023  15
   5   4   9 11630.4 710.790   7
   5   4   9 11312.4 631.386  14
   5   4   9 10241.9 619.490   6
  -5  -4  -9 11128.3 601.491  23
   5   4   9 11333.4 608.287  13
  -5  -4  -9 12582.3 640.858  22
  -5  -4  -9 12438.8 635.701  21
   5   4   9 12025.4 553.235  12
  -5  -4  -9 11307.4 601.107  19
  -5  -4  -9 11433.1 605.164  18
  -5  -4  -9 10072.1 554.922  10
  -5  -4  -9 11353.4 522.325   2
  -5  -4  -9 12175.8 581.084   8
   5   4   9 11417.5 631.528   1
   5   4   9 10519.6 598.743  15
   5   4  10 1633.11 243.126  15
   5   4  10 2093.35 274.694  14
   5   4  10 1642.67 262.461   7
  -5  -4 -10 1884.99 248.863  23
   5   4  10 1916.02 255.951  13
  -5  -4 -10 2030.10 264.504  22
  -5  -4 -10 1766.22 244.997  21
   5   4  10 1919.34 221.069  12
  -5  -4 -10 1879.69 250.329  19
  -5  -4 -10 1758.46 245.115  18
  -5  -4 -10 1968.05 253.055  10
  -5  -4 -10 1862.27 236.892   8
   5   4  10 1922.98 272.054   1
   5   4  11 1498.35 246.786  15
   5   4  11 928.370 211.165   7
   5   4  11 1280.75 221.703  14
  -5  -4 -11 1215.67 219.663  23
  -5  -4 -11 1344.20 227.746  22
   5   4  11 1198.89 213.137  13
  -5  -4 -11 1261.42 217.828  21
   5   4  11 1144.57 180.810  12
   5   4  11 1123.11 229.758   1
  -5  -4 -11 1294.49 219.794  19
  -5  -4 -11 976.295 196.429  18
  -5  -4 -11 1342.38 219.562  10
  -5  -4 -11 775.738 173.707   8
   5   4  12-3.18686 80.6504   7
   5   4  12 69.3724 52.3084  12
   5   4  12 72.0513 102.769   1
  -5  -4 -12 113.148 89.1770  10
  -5  -4 -12-222.828 106.375   8
   5   5  -7-112.952 76.9587   5
  -5  -5   7 26.3038 90.0352   4
   5   5  -7-134.258 81.3312   8
   5   5  -6 66.9697 47.3351   5
  -5  -5   6 105.059 54.9669   9
  -5  -5   6 41.3749 85.9516   4
   5   5  -5 2241.63 278.116  20
   5   5  -5 2403.84 272.333   5
  -5  -5   5 1799.88 212.363   9
   5   5  -4 4764.37 395.724  20
   5   5  -4 5134.20 374.403   5
  -5  -5   4 4889.01 332.403   9
  -5  -5   4 6139.87 428.949   4
   5   5  -3 3973.67 307.588   6
   5   5  -3 4200.04 353.984  20
  -5  -5   3 3404.49 259.788   2
   5   5  -3 4149.64 320.061   5
  -5  -5   3 3903.64 273.822   9
  -5  -5   3 4873.74 360.838   4
   5   5  -2 3783.29 304.745  14
  -5  -5   2 4391.22 271.733  23
   5   5  -2 4640.03 332.660   6
   5   5  -2 4093.09 298.628  13
  -5  -5   2 4213.97 267.605  22
  -5  -5   2 4158.29 262.567  21
  -5  -5   2 3961.26 287.483   2
   5   5  -2 4740.91 322.741   5
   5   5  -2 3939.13 290.904  18
  -5  -5   2 4448.89 276.659   9
   5   5  -2 3971.71 294.719  17
  -5  -5   2 5151.50 345.274   4
   5   5  -2 3655.54 295.695  15
   5   5  -1 183.999 74.7384  14
  -5  -5   1 150.002 55.5033  23
  -5  -5   1 109.859 46.1770  22
   5   5  -1 173.009 76.6519   6
   5   5  -1 135.253 62.5401  13
  -5  -5   1 131.169 51.3673  21
   5   5  -1 199.424 49.9004   1
   5   5  -1 215.440 63.9335   5
  -5  -5   1 214.881 65.8712   9
   5   5  -1 132.442 61.0510  17
  -5  -5   1 154.036 60.0800   4
  -5  -5   1 211.823 71.8878   2
   5   5  -1 138.581 62.4978  15
   5   5   0 4513.42 335.617  14
   5   5   0 5352.90 364.065   6
  -5  -5   0 4523.75 286.210  23
  -5  -5   0 4708.01 297.608  22
  -5  -5   0 4552.57 281.342  19
  -5  -5   0 5041.12 325.335   2
   5   5   0 4621.97 280.394   5
   5   5   0 4555.40 313.297  13
  -5  -5   0 4395.14 283.099  21
   5   5   0 4914.84 239.056   1
  -5  -5   0 4808.55 273.276   9
   5   5   0 4316.36 307.562  17
  -5  -5   0 4953.49 290.770   4
   5   5   0 4131.04 315.431  15
   5   5   1 133.444 67.7266  15
  -5  -5  -1 76.2881 42.2181  22
   5   5   1 80.3311 62.8365  14
   5   5   1 121.976 70.4733   6
   5   5   1 116.302 54.3970  13
  -5  -5  -1 34.1926 33.2016  21
  -5  -5  -1 111.949 43.0675  19
  -5  -5  -1 72.3214 36.1295  10
   5   5   1 95.3400 38.5963   1
   5   5   1 51.7301 32.5740   5
  -5  -5  -1 29.5080 28.6312   9
   5   5   1 8.77046 35.6177  17
  -5  -5  -1 88.1358 45.8257   4
  -5  -5  -1 111.742 44.0943  23
  -5  -5  -1 91.6322 57.0504   2
   5   5   2 483.920 112.781  15
   5   5   2 615.056 123.013  14
   5   5   2 539.393 117.708   6
  -5  -5  -2 480.622 98.2224  22
  -5  -5  -2 592.463 109.642  23
   5   5   2 411.236 96.2666  13
  -5  -5  -2 602.716 108.445  21
   5   5   2 635.855 89.2825   5
  -5  -5  -2 594.693 103.419  19
  -5  -5  -2 480.682 82.8250  10
   5   5   2 513.054 82.9429   1
   5   5   2 457.401 102.110  17
  -5  -5  -2 581.303 79.2908   4
  -5  -5  -2 467.559 107.878   2
   5   5   3 2672.25 253.108  14
  -5  -5  -3 2105.39 110.965   3
   5   5   3 2953.98 289.285   6
  -5  -5  -3 2543.72 225.415  23
  -5  -5  -3 2669.58 232.243  22
  -5  -5  -3 2569.08 229.419  21
   5   5   3 2621.60 238.383  13
  -5  -5  -3 2556.18 222.003  19
  -5  -5  -3 3067.09 249.595   2
  -5  -5  -3 2485.41 190.811  10
   5   5   3 2639.75 195.038   1
  -5  -5  -3 2537.04 132.752   4
   5   5   3 2413.09 240.600  15
   5   5   4 10601.9 523.201  14
  -5  -5  -4 9896.62 340.916   3
   5   5   4 11195.4 595.288   6
   5   5   4 10446.8 495.051  13
  -5  -5  -4 10400.0 495.964  22
  -5  -5  -4 10824.0 499.386  21
  -5  -5  -4 10750.3 491.575  19
  -5  -5  -4 10353.2 491.059  23
  -5  -5  -4 10967.3 484.359   2
  -5  -5  -4 10644.0 436.428  10
  -5  -5  -4 11322.2 502.621  18
   5   5   4 10677.4 431.120   1
  -5  -5  -4 10770.6 431.690   8
   5   5   4 10947.6 526.372  15
   5   5   5 2943.62 273.447  14
   5   5   5 2714.69 293.065   6
  -5  -5  -5 2280.71 229.269  23
   5   5   5 3008.07 264.194  13
  -5  -5  -5 2658.54 248.817  22
  -5  -5  -5 2412.76 236.148  21
  -5  -5  -5 2355.63 229.728  19
  -5  -5  -5 2571.32 222.430   2
  -5  -5  -5 2516.21 211.917  10
  -5  -5  -5 2524.48 240.464  18
   5   5   5 2555.25 210.127   1
  -5  -5  -5 2575.96 206.947   8
   5   5   5 2733.20 262.005  15
   5   5   6 86.2938 65.7441  15
  -5  -5  -6 5.84007 37.3805   2
   5   5   6 62.9878 55.8874  14
  -5  -5  -6 52.2378 48.5740  23
   5   5   6 115.364 60.3623   6
  -5  -5  -6 31.1706 41.9650  22
  -5  -5  -6 31.7007 36.6952  21
   5   5   6 33.4308 33.3627  13
  -5  -5  -6 63.1562 42.5364  19
  -5  -5  -6 115.987 53.4608  18
  -5  -5  -6 27.5783 59.4431  10
  -5  -5  -6 7.72712 35.9367   8
   5   5   6 22.6407 49.2844   1
   5   5   7 136.465 76.4478  15
   5   5   7 87.8974 41.2562   1
  -5  -5  -7 126.118 58.8148   2
   5   5   7 160.217 89.8694  14
  -5  -5  -7 136.617 39.9408  23
   5   5   7 207.962 106.395   6
  -5  -5  -7 147.617 62.8668  22
   5   5   7 191.270 86.7601  13
   5   5   7 151.758 69.2761  12
  -5  -5  -7 188.646 76.9536  21
  -5  -5  -7 128.673 73.3396  19
  -5  -5  -7 109.236 75.0302  18
  -5  -5  -7 134.888 77.5276  10
  -5  -5  -7 182.996 66.2100   8
   5   5   8 3807.40 396.783   7
   5   5   8 3281.17 327.763  14
   5   5   8 3492.94 362.544   6
  -5  -5  -8 3385.89 318.971  23
   5   5   8 3127.73 313.259  13
  -5  -5  -8 3432.89 320.493  22
  -5  -5  -8 3421.74 319.304  21
   5   5   8 3514.73 287.936  12
  -5  -5  -8 3401.79 315.746  19
  -5  -5  -8 3411.92 310.564  18
  -5  -5  -8 3297.39 294.292  10
  -5  -5  -8 3519.20 266.805   2
   5   5   8 3119.12 289.857   1
  -5  -5  -8 3233.37 271.737   8
   5   5   8 3169.76 321.013  15
   5   5   9 11419.4 721.928   7
   5   5   9 11038.1 639.052  14
  -5  -5  -9 12476.2 651.493  23
  -5  -5  -9 11454.8 638.194  22
  -5  -5  -9 11767.5 636.015  21
   5   5   9 12376.6 581.410  12
  -5  -5  -9 11815.9 628.462  19
  -5  -5  -9 12157.5 637.401  18
  -5  -5  -9 11807.7 618.788  10
  -5  -5  -9 13375.5 561.476   2
   5   5   9 11159.5 626.204  13
   5   5   9 12288.1 638.457   1
  -5  -5  -9 12648.2 586.630   8
   5   5   9 12028.4 659.921  15
   5   5  10 140.039 85.6028  15
   5   5  10 176.076 120.088   7
   5   5  10 168.650 95.2904  14
  -5  -5 -10 46.3738 59.3354  23
  -5  -5 -10 119.291 72.5295  22
   5   5  10 167.235 84.9493  13
  -5  -5 -10 101.059 59.1000  21
   5   5  10 211.009 89.9775  12
  -5  -5 -10 140.032 75.0121  19
   5   5  10 93.5447 83.0080   1
  -5  -5 -10 160.498 86.2648  18
  -5  -5 -10 112.676 80.0618  10
  -5  -5 -10 159.089 87.3415   8
   5   5  11 2728.47 355.977   7
   5   5  11 2551.78 335.930  14
  -5  -5 -11 2810.81 330.771  23
   5   5  11 2528.33 314.583  13
  -5  -5 -11 2845.01 332.298  22
  -5  -5 -11 2885.82 332.864  21
   5   5  11 2519.77 274.536  12
  -5  -5 -11 3030.03 338.249  19
  -5  -5 -11 2574.74 312.496  18
  -5  -5 -11 2381.26 312.031  10
  -5  -5 -11 2610.48 293.247   8
   5   5  11 2564.46 341.498   1
   5   5  11 2482.79 324.901  15
   5   5  12 68.5602 83.6464   7
   5   5  12 73.0892 102.423   1
   5   5  12 141.566 92.6779  12
  -5  -5 -12 175.239 98.8308  10
  -5  -5 -12-20.1231 99.2083   8
   5   6  -7 1059.65 212.576   5
  -5  -6   7 1221.22 236.244   4
   5   6  -7 1073.01 199.925   8
   5   6  -6 94.8547 84.4924  20
   5   6  -6 224.075 81.2412   5
  -5  -6   6-29.6293 61.6366   4
   5   6  -6 128.085 68.2817   8
   5   6  -5 1380.26 232.919  20
   5   6  -5 1724.67 237.514   5
  -5  -6   5 1742.39 255.908   4
   5   6  -4 477.739 136.837  20
   5   6  -4 285.291 95.0786   5
  -5  -6   4 241.733 75.1129   9
  -5  -6   4 364.579 116.656   4
   5   6  -3 208.353 91.5371  20
   5   6  -3 275.629 89.3977   5
  -5  -6   3 242.832 69.7035   9
  -5  -6   3 508.097 129.128   4
  -5  -6   3 291.231 88.3387   2
   5   6  -2 7785.50 503.422  14
   5   6  -2 8733.06 465.372   6
  -5  -6   2 8161.05 420.702  23
   5   6  -2 8238.62 483.391  13
  -5  -6   2 8161.05 417.351  21
   5   6  -2 7737.50 509.278  20
  -5  -6   2 8215.37 471.000   2
   5   6  -2 9124.83 471.920   5
   5   6  -2 8153.64 478.972  18
  -5  -6   2 9082.94 400.097   9
   5   6  -2 7991.44 477.002  17
  -5  -6   2 9999.02 504.257   4
   5   6  -2 7733.99 496.486  15
   5   6  -1 494.911 118.723  14
  -5  -6   1 564.043 111.011  23
  -5  -6   1 525.783 108.204  22
   5   6  -1 467.560 116.419   6
  -5  -6   1 444.076 98.0521  21
   5   6  -1 566.511 91.3480   1
   5   6  -1 545.100 112.020   5
   5   6  -1 555.070 122.489  18
  -5  -6   1 691.054 104.758   9
   5   6  -1 451.107 105.887  17
   5   6  -1 497.731 119.285  13
  -5  -6   1 435.401 96.8929   4
  -5  -6   1 530.261 124.978   2
   5   6  -1 528.627 128.569  15
   5   6   0 4507.16 369.592  14
   5   6   0 4539.90 345.207   6
  -5  -6   0 4183.09 306.152  23
   5   6   0 4405.75 339.549  13
  -5  -6   0 4450.21 319.859  22
  -5  -6   0 4296.31 303.217  19
  -5  -6   0 4647.56 317.325  21
  -5  -6   0 4613.41 352.640   2
   5   6   0 4527.76 293.529   5
   5   6   0 4817.16 269.015   1
  -5  -6   0 4874.23 277.755   9
   5   6   0 4502.69 345.970  17
  -5  -6   0 4700.48 298.008   4
   5   6   0 5001.03 379.310  15
   5   6   1 170.110 78.9153  15
   5   6   1 155.495 61.7392  14
  -5  -6  -1 92.6087 47.9354  23
  -5  -6  -1 280.628 84.0888  22
   5   6   1 90.8700 59.4177   6
   5   6   1 214.817 76.0807  13
  -5  -6  -1 216.568 71.6364  21
  -5  -6  -1 215.802 79.9330  19
   5   6   1 192.090 53.8239   1
  -5  -6  -1 90.6752 47.8171  10
   5   6   1 239.020 67.8064   5
  -5  -6  -1 224.949 62.7208   9
   5   6   1 62.6157 53.6335  17
  -5  -6  -1 129.624 48.3639   4
  -5  -6  -1 72.8541 67.0402   2
   5   6   2-15.2445 75.7570  15
   5   6   2 23.7286 62.4535  14
  -5  -6  -2 69.0242 46.6542  23
   5   6   2 51.1898 58.3837   6
  -5  -6  -2 16.7210 48.9062  22
   5   6   2 73.0423 56.1545  13
  -5  -6  -2 76.2919 34.3760  21
  -5  -6  -2 77.0146 50.5888  19
  -5  -6  -2 68.2908 37.8278  10
   5   6   2 53.7596 44.1560   1
   5   6   2 9.09592 31.9702   5
   5   6   2 86.0701 41.6470  17
  -5  -6  -2 55.2438 35.8712   4
  -5  -6  -2 134.333 78.1062   2
   5   6   3 536.909 124.515  15
   5   6   3 754.575 150.189  14
   5   6   3 822.897 162.770   6
  -5  -6  -3 900.139 146.218  22
   5   6   3 781.840 144.246  13
  -5  -6  -3 778.333 134.285  21
   5   6   3 875.790 104.433   5
  -5  -6  -3 733.508 126.435  19
  -5  -6  -3 841.870 122.175  10
   5   6   3 811.700 117.807   1
  -5  -6  -3 817.116 136.350  23
  -5  -6  -3 811.750 85.9960   4
   5   6   3 654.452 133.505  17
  -5  -6  -3 865.023 152.679   2
   5   6   4 15590.0 711.370  14
  -5  -6  -4 14419.7 477.664   3
   5   6   4 16477.2 758.547   6
  -5  -6  -4 15900.4 657.424  23
  -5  -6  -4 15942.8 663.402  22
  -5  -6  -4 15898.7 656.322  21
  -5  -6  -4 15998.6 648.758  19
   5   6   4 15427.3 474.955   5
  -5  -6  -4 16850.3 678.112   2
  -5  -6  -4 16901.4 607.897  10
   5   6   4 15159.2 667.363  13
   5   6   4 17522.1 599.786   1
   5   6   4 16011.6 687.234  17
   5   6   4 15822.3 708.510  15
   5   6   5 105301. 2458.89  14
  -5  -6  -5 102039. 2109.35   3
   5   6   5 114273. 2590.50   6
  -5  -6  -5 105411. 2356.23  23
   5   6   5 107945. 2396.12  13
  -5  -6  -5 106937. 2368.13  22
  -5  -6  -5 106308. 2357.45  21
  -5  -6  -5 104869. 2335.77  19
  -5  -6  -5 108574. 2333.25   2
  -5  -6  -5 108473. 2264.41  10
   5   6   5 116815. 2259.44   1
   5   6   5 107944. 2409.80  17
  -5  -6  -5 112554. 2171.37   8
   5   6   5 106657. 2443.65  15
   5   6   6 852.634 168.603  15
  -5  -6  -6 948.186 161.219  21
  -5  -6  -6 962.720 147.639   2
   5   6   6 835.606 152.539  13
   5   6   6 777.769 168.500  14
  -5  -6  -6 1253.96 184.774  23
   5   6   6 1093.36 205.443   6
  -5  -6  -6 731.631 117.787   3
  -5  -6  -6 931.688 161.203  19
  -5  -6  -6 1148.68 175.589  22
  -5  -6  -6 978.511 155.387  10
   5   6   6 736.066 145.975  17
  -5  -6  -6 839.738 129.418   8
   5   6   6 934.580 140.548   1
   5   6   7 264.382 96.5015  15
  -5  -6  -7 359.507 93.0154   2
   5   6   7 490.648 129.380  14
  -5  -6  -7 172.892 84.1318  22
   5   6   7 365.537 103.383  13
  -5  -6  -7 363.995 108.635  21
   5   6   7 331.157 89.1638  12
  -5  -6  -7 231.862 88.1502  23
  -5  -6  -7 439.875 110.524  19
   5   6   7 412.766 144.919   6
  -5  -6  -7 363.909 110.016  10
   5   6   7 191.186 84.0666  17
  -5  -6  -7 142.613 64.1962   8
   5   6   7 362.594 92.5672   1
   5   6   8 238.594 102.887  15
  -5  -6  -8 383.349 97.7809   2
   5   6   8 292.849 109.493  14
   5   6   8 310.533 138.831   7
   5   6   8 204.821 104.339   6
  -5  -6  -8 199.664 91.7383  23
  -5  -6  -8 314.642 103.572  22
   5   6   8 394.289 116.140  13
  -5  -6  -8 170.351 75.8503  21
   5   6   8 215.787 82.7631  12
  -5  -6  -8 237.357 86.3401  19
  -5  -6  -8 189.888 88.6272  10
  -5  -6  -8 179.517 70.8195   8
   5   6   8 223.745 90.8933   1
   5   6   9 1336.73 221.099  15
   5   6   9 1391.90 232.075  14
   5   6   9 1556.73 270.539   7
  -5  -6  -9 1321.16 215.518  23
  -5  -6  -9 1200.11 204.918  22
   5   6   9 1379.08 222.850  13
  -5  -6  -9 1272.39 207.385  21
   5   6   9 1480.08 201.852  12
  -5  -6  -9 1224.87 202.834  19
  -5  -6  -9 1340.28 174.212   2
  -5  -6  -9 1487.70 220.722  10
   5   6   9 1492.34 217.054   1
   5   6   9 1252.53 215.557  17
  -5  -6  -9 1334.11 181.398   8
   5   6  10 865.646 196.105  15
   5   6  10 759.737 192.198  14
   5   6  10 1050.76 226.492   7
   5   6  10 848.881 187.922   1
  -5  -6 -10 795.971 174.913  23
  -5  -6 -10 1001.26 192.119  22
   5   6  10 876.449 187.495  13
  -5  -6 -10 732.422 164.470  21
   5   6  10 934.058 164.437  12
  -5  -6 -10 908.855 185.655  19
  -5  -6 -10 841.905 178.285  10
   5   6  10 1104.51 216.894  17
  -5  -6 -10 687.981 135.239   8
   5   6  11 757.472 188.937  15
   5   6  11 692.550 190.676   7
   5   6  11 694.644 189.632  14
   5   6  11 1094.65 215.378   1
   5   6  11 795.236 181.998  13
   5   6  11 1131.65 191.077  12
  -5  -6 -11 904.987 198.694  10
   5   6  11 760.472 186.384  17
  -5  -6 -11 941.676 171.873   8
   5   7  -6 2470.22 339.590  20
   5   7  -6 2291.60 303.506   5
  -5  -7   6 3153.20 366.133   4
   5   7  -6 2336.99 277.644   8
   5   7  -5 1280.54 238.757  20
   5   7  -5 1089.03 200.433   5
  -5  -7   5 1333.46 227.713   4
   5   7  -4 569.169 154.679  20
   5   7  -4 816.733 164.158   5
  -5  -7   4 623.723 152.055   4
   5   7  -3-30.5176 43.9826  20
   5   7  -3-23.4705 47.0843   5
  -5  -7   3 73.0160 52.1642   4
  -5  -7   3-16.4375 49.0046   2
   5   7  -2-123.817 84.1609  14
  -5  -7   2-3.00722 34.8611  23
   5   7  -2 25.6427 63.4844  13
  -5  -7   2 4.67989 45.9478  21
   5   7  -2-3.51502 65.2270  20
   5   7  -2 51.5866 35.2514   5
   5   7  -2 16.6456 49.9445  18
  -5  -7   2-12.4876 30.4798   9
   5   7  -2-3.63771 58.8772  17
  -5  -7   2 85.7546 69.5744   4
  -5  -7   2-39.4491 73.5469   2
   5   7  -2-38.0806 80.2649  15
   5   7  -1 276.478 116.147  14
  -5  -7   1 285.241 83.4211  23
  -5  -7   1 437.105 101.468  22
   5   7  -1 335.082 97.0950   6
   5   7  -1 366.226 108.269  13
  -5  -7   1 299.589 86.4958  21
   5   7  -1 317.380 78.6664   1
   5   7  -1 357.363 96.2860   5
   5   7  -1 284.791 109.221  18
  -5  -7   1 364.586 77.3457   9
   5   7  -1 372.364 119.831  17
  -5  -7   1 441.972 102.563   4
  -5  -7   1 291.433 99.5977   2
   5   7  -1 230.097 101.707  15
  -5  -7   0 2200.46 233.248  21
   5   7   0 2127.16 276.991  14
   5   7   0 2338.62 256.231   6
  -5  -7   0 2230.93 239.116  23
   5   7   0 2523.82 280.954  13
  -5  -7   0 2508.30 251.168  22
  -5  -7   0 2223.49 265.555   2
   5   7   0 2484.50 230.059   5
   5   7   0 2525.01 219.475   1
   5   7   0 2599.94 285.402  18
  -5  -7   0 2817.17 210.088   9
   5   7   0 2634.82 288.309  17
  -5  -7   0 2727.27 235.558   4
   5   7   0 2514.89 295.740  15
   5   7   1 4534.43 407.867  14
   5   7   1 5602.51 408.012   6
  -5  -7  -1 5347.67 373.273  23
   5   7   1 4924.80 390.794  13
  -5  -7  -1 4854.99 359.783  22
  -5  -7  -1 5150.80 363.403  21
  -5  -7  -1 5238.44 362.241  19
  -5  -7  -1 5015.55 397.866   2
   5   7   1 5182.33 318.145   5
  -5  -7  -1 5293.70 342.878  10
   5   7   1 5386.04 323.164   1
  -5  -7  -1 5692.81 307.487   9
   5   7   1 5276.86 408.875  17
  -5  -7  -1 5261.35 313.038   4
   5   7   1 5067.34 417.402  15
   5   7   2 4628.33 410.772  14
   5   7   2 5595.81 418.650   6
  -5  -7  -2 4898.30 362.408  23
   5   7   2 4922.58 393.297  13
  -5  -7  -2 5399.75 384.062  22
  -5  -7  -2 5202.82 369.402  21
  -5  -7  -2 5228.82 366.224  19
  -5  -7  -2 5219.93 398.728   2
   5   7   2 5487.96 310.980   5
  -5  -7  -2 5183.38 336.626  10
   5   7   2 5421.14 331.608   1
   5   7   2 5062.26 399.374  17
  -5  -7  -2 5455.49 292.197   4
   5   7   2 5191.00 423.843  15
   5   7   3 283.791 110.847  15
  -5  -7  -3 465.048 117.862  21
  -5  -7  -3 244.230 82.3868  23
   5   7   3 324.260 111.097  14
   5   7   3 492.849 138.667   6
  -5  -7  -3 529.081 124.895  22
   5   7   3 404.304 115.756  13
  -5  -7  -3 364.241 100.397  19
   5   7   3 421.735 101.030   1
  -5  -7  -3 390.825 94.8986  10
   5   7   3 331.292 72.6135   5
   5   7   3 507.242 131.626  17
  -5  -7  -3 242.871 94.1293   2
   5   7   4 156.110 74.1451  15
   5   7   4 389.275 123.616  14
  -5  -7  -4 541.566 127.394  23
   5   7   4 455.007 135.544   6
  -5  -7  -4 205.724 77.1722  22
   5   7   4 346.973 100.855  13
  -5  -7  -4 348.296 91.8966  21
  -5  -7  -4 437.037 102.216  19
  -5  -7  -4 510.447 105.517  10
   5   7   4 330.375 85.9791   1
   5   7   4 268.235 104.965  17
  -5  -7  -4 225.683 84.8560   2
   5   7   5 195.389 81.4677  15
   5   7   5 400.770 138.936   6
   5   7   5 404.923 119.283  14
  -5  -7  -5 194.370 84.6007  23
  -5  -7  -5 217.295 86.8695  22
   5   7   5 210.777 95.6830  13
  -5  -7  -5 109.289 67.0350  21
  -5  -7  -5 234.192 88.8289  19
  -5  -7  -5 271.736 86.2259  10
   5   7   5 376.704 94.6806   1
   5   7   5 286.751 102.311  17
  -5  -7  -5 379.314 107.790   2
   5   7   6 9119.66 591.604  14
  -5  -7  -6 9177.11 464.333   3
   5   7   6 10544.5 663.167   6
  -5  -7  -6 9661.82 552.954  23
   5   7   6 10194.9 585.621  13
  -5  -7  -6 8703.44 530.808  22
  -5  -7  -6 10069.3 561.263  21
  -5  -7  -6 9911.06 550.240  19
  -5  -7  -6 9411.56 517.740   2
  -5  -7  -6 10071.4 528.215  10
   5   7   6 10691.3 512.792   1
   5   7   6 10001.6 585.371  17
   5   7   6 9656.51 599.565  15
   5   7   7-33.7593 60.2378  15
  -5  -7  -7 63.4127 58.8867   2
   5   7   7 97.3493 80.2063  14
   5   7   7 49.0084 77.3565   7
   5   7   7 149.153 108.876   6
  -5  -7  -7 187.790 63.6633  23
   5   7   7 131.805 80.7176  12
  -5  -7  -7 65.9327 65.1751  22
   5   7   7 79.7671 60.7510  13
  -5  -7  -7 57.6805 50.2518   3
  -5  -7  -7 102.641 68.5389  21
  -5  -7  -7 49.5911 54.0692  19
  -5  -7  -7 96.0814 70.4512  10
   5   7   7 82.7564 64.6307  17
   5   7   7 25.8991 45.4333   1
  -5  -7  -7 10.8500 43.0630   8
   5   7   8 1319.41 236.287  15
   5   7   8 1511.13 251.931  14
   5   7   8 1971.13 312.200   7
  -5  -7  -8 1326.75 215.918  22
   5   7   8 1307.26 216.534  13
  -5  -7  -8 1625.10 236.115  21
   5   7   8 1984.47 226.553  12
  -5  -7  -8 1458.21 205.469   3
  -5  -7  -8 1493.35 225.704  19
  -5  -7  -8 1338.26 186.076   2
  -5  -7  -8 1990.41 248.878  10
   5   7   8 1577.47 243.317  17
   5   7   8 1593.35 215.629   1
  -5  -7  -8 1291.08 214.855  23
  -5  -7  -8 1684.80 188.219   8
   5   7   9 17.2663 66.4409   1
   5   7   9 59.4093 58.9150  15
   5   7   9 201.062 105.171  14
   5   7   9-1.05607 65.2436   7
  -5  -7  -9 164.846 85.2998  23
  -5  -7  -9 148.159 81.1367  22
   5   7   9-2.06755 62.1582  13
  -5  -7  -9 24.2384 45.1780  21
  -5  -7  -9 153.850 80.5493   3
   5   7   9 27.6139 63.5217  12
  -5  -7  -9-47.1330 57.6511  19
  -5  -7  -9-44.1629 63.9570  10
   5   7   9 16.7551 71.2036  17
   5   7  10 1083.72 232.167  15
   5   7  10 1235.20 216.764   1
   5   7  10 1506.74 275.226  14
   5   7  10 1371.03 254.793   7
  -5  -7 -10 1550.53 252.577  22
  -5  -7 -10 1398.20 238.462  23
   5   7  10 1167.67 222.570  13
  -5  -7 -10 1683.35 253.348  21
  -5  -7 -10 1134.57 208.162   3
   5   7  10 1528.05 217.985  12
  -5  -7 -10 1352.87 229.541  19
  -5  -7 -10 1600.37 245.596  10
   5   7  10 1550.03 257.271  17
   5   7  11-272.601 135.666   7
   5   7  11 88.8970 79.6053   1
   5   7  11-93.6292 73.0243  12
  -5  -7 -11-25.5987 61.9605  10
  -5  -7 -11-169.230 96.0251   3
   5   8  -5 325.419 112.870  20
   5   8  -5 397.518 130.612   5
  -5  -8   5 195.274 107.346   4
   5   8  -4 2.68758 50.3615  20
   5   8  -4 74.7870 53.4061   5
  -5  -8   4 159.663 93.9626   4
   5   8  -3 192.508 98.2801  20
   5   8  -3 282.962 102.115   5
  -5  -8   3 321.588 121.798   4
  -5  -8   3 310.416 114.081   2
   5   8  -2 553.927 169.451  14
  -5  -8   2 559.742 134.353  23
   5   8  -2 566.507 147.921  13
  -5  -8   2 533.009 119.555  21
   5   8  -2 632.971 157.694  20
   5   8  -2 745.123 145.667   5
   5   8  -2 476.042 146.734  18
   5   8  -2 611.202 164.526  17
  -5  -8   2 654.047 144.352   4
  -5  -8   2 742.343 168.192   2
   5   8  -2 476.810 144.006  15
   5   8  -1 363.024 143.035  14
  -5  -8   1 220.854 88.2100  23
   5   8  -1 201.297 99.2636  13
  -5  -8   1 345.523 101.752  21
   5   8  -1 285.122 79.9072   1
   5   8  -1 259.133 93.4726  20
   5   8  -1 364.808 97.7457   5
   5   8  -1 410.913 130.001  18
   5   8  -1 292.821 111.663  17
  -5  -8   1 350.047 104.608   4
  -5  -8   1 192.144 98.8228   2
   5   8  -1 298.706 128.257  15
   5   8   0 574.540 166.474  14
  -5  -8   0 837.664 159.994  23
   5   8   0 627.916 138.308   6
  -5  -8   0 603.974 134.651  22
   5   8   0 532.370 146.941  13
  -5  -8   0 767.628 147.412  21
   5   8   0 604.080 118.355   1
   5   8   0 610.746 122.555   5
   5   8   0 723.644 168.944  18
  -5  -8   0 619.223 102.871   9
   5   8   0 569.002 149.649  17
  -5  -8   0 616.514 125.637   4
  -5  -8   0 820.649 180.594   2
   5   8   0 583.530 160.596  15
   5   8   1 901.465 200.020  14
  -5  -8  -1 959.596 167.489  23
   5   8   1 1049.62 183.419   6
  -5  -8  -1 1199.63 186.228  22
   5   8   1 1045.40 197.172  13
  -5  -8  -1 1172.48 183.949  21
   5   8   1 1038.11 152.083   5
   5   8   1 970.429 150.372   1
  -5  -8  -1 1300.80 180.334  10
   5   8   1 1198.15 210.661  18
  -5  -8  -1 1357.87 150.293   9
  -5  -8  -1 1322.23 167.650   4
   5   8   1 1015.45 192.970  17
  -5  -8  -1 868.589 183.813   2
   5   8   1 1362.86 234.477  15
   5   8   2 15382.1 834.976  14
   5   8   2 17498.0 793.003   6
  -5  -8  -2 15512.6 721.962  23
   5   8   2 15629.1 777.424  13
  -5  -8  -2 15057.6 716.964  22
   5   8   2 16270.3 613.977   5
  -5  -8  -2 14575.1 752.114   2
  -5  -8  -2 17691.6 708.136  10
   5   8   2 17631.9 666.931   1
  -5  -8  -2 15108.0 707.283  21
   5   8   2 15537.0 783.128  17
   5   8   2 14484.1 791.278  15
  -5  -8  -3 42.5762 52.4324  23
   5   8   3 80.6502 99.3770  14
  -5  -8  -3-29.3567 49.1440  22
   5   8   3 85.8007 57.1737  13
   5   8   3 1.27892 69.7619   6
  -5  -8  -3 13.1589 45.3538  21
  -5  -8  -3 48.9444 47.9215  19
   5   8   3 12.7803 37.4088   1
  -5  -8  -3-20.2153 55.6546  10
   5   8   3 18.0303 40.2049   5
   5   8   3-8.24159 54.0222  17
  -5  -8  -3 5.61955 58.2958   2
   5   8   3 139.873 93.3112  15
   5   8   4-46.4480 66.9198  15
   5   8   4-65.0394 89.9917  14
   5   8   4 61.7066 82.7710   6
  -5  -8  -4 31.8991 44.5017  22
   5   8   4 111.913 80.2166  13
  -5  -8  -4 0.55735 41.7598  21
  -5  -8  -4 26.9914 44.7560  19
  -5  -8  -4-4.71363 40.6558  10
   5   8   4 95.0447 61.2053   1
   5   8   4 133.526 79.3376  17
  -5  -8  -4-70.0719 56.7951  23
  -5  -8  -4 20.4149 70.3685   2
   5   8   5 2486.94 327.733  14
   5   8   5 3098.81 360.567   6
  -5  -8  -5 2552.88 290.619  23
   5   8   5 2580.68 307.346  13
  -5  -8  -5 2720.75 297.375  22
  -5  -8  -5 2499.17 284.613  21
   5   8   5 3892.91 298.845  12
  -5  -8  -5 2985.11 305.567  19
  -5  -8  -5 2622.40 290.403   2
  -5  -8  -5 2848.52 285.839  10
   5   8   5 3296.53 284.058   1
   5   8   5 2886.18 326.866  17
   5   8   5 2545.61 320.755  15
   5   8   6 6.39805 68.2689  15
   5   8   6 159.416 104.247  14
  -5  -8  -6 77.9475 60.4495  23
   5   8   6 75.0468 76.6873  13
  -5  -8  -6-3.15252 44.4841  21
   5   8   6 14.0739 57.4672  12
  -5  -8  -6 84.8349 52.1749  19
  -5  -8  -6 40.0553 60.9223  22
  -5  -8  -6 49.7064 44.6618  10
   5   8   6-9.20318 39.8792   1
   5   8   6 28.2893 52.7192  17
  -5  -8  -6 44.3730 44.6067   2
   5   8   7 562.313 155.400  15
  -5  -8  -7 321.408 101.684   2
   5   8   7 636.766 169.490  14
   5   8   7 326.400 147.888   7
  -5  -8  -7 341.523 120.720  19
  -5  -8  -7 248.527 103.658  22
   5   8   7 393.798 129.396  13
   5   8   7 509.213 117.950  12
  -5  -8  -7 518.583 138.408  21
  -5  -8  -7 380.110 126.058  23
  -5  -8  -7 439.047 122.383  10
   5   8   7 568.046 128.227   1
   5   8   7 508.046 146.823  17
   5   8   8 280.885 123.455  15
  -5  -8  -8 424.234 111.410   2
   5   8   8 340.237 136.740  14
   5   8   8 635.809 181.759   7
  -5  -8  -8 456.385 139.447  23
  -5  -8  -8 471.785 134.296  22
   5   8   8 346.165 108.979  13
  -5  -8  -8 368.007 126.940  21
   5   8   8 631.484 133.888  12
  -5  -8  -8 588.021 145.236  19
  -5  -8  -8 649.556 154.146  10
   5   8   8 453.504 139.805  17
   5   8   8 420.856 117.782   1
   5   8   9 4014.91 448.674   7
   5   8   9 2784.32 377.237  14
  -5  -8  -9 3394.01 352.917   3
  -5  -8  -9 2793.24 344.172  23
   5   8   9 2791.55 347.891  13
  -5  -8  -9 3205.49 363.316  22
  -5  -8  -9 3492.29 376.007  21
   5   8   9 3976.33 348.143  12
  -5  -8  -9 3042.23 348.346  19
  -5  -8  -9 3300.55 354.700  10
   5   8   9 2847.42 359.462  17
   5   8   9 3594.49 351.429   1
   5   8   9 2930.64 378.747  15
   5   8  10 170.212 105.713  15
   5   8  10-23.7297 53.9429   1
   5   8  10 22.0957 71.8289  14
   5   8  10 131.493 101.365   7
  -5  -8 -10 68.1391 72.8014  23
  -5  -8 -10-12.2261 48.8725  22
   5   8  10 147.868 94.5242  13
  -5  -8 -10-51.8251 61.1449   3
  -5  -8 -10 146.437 85.4371  21
   5   8  10 199.149 78.4872  12
  -5  -8 -10 99.8444 74.6924  19
  -5  -8 -10 28.8508 65.4134  10
   5   8  10 404.150 146.725  17
   5   9  -4 99.8051 81.9393  20
   5   9  -4 203.551 100.838   5
  -5  -9   4 329.157 128.737   4
  -5  -9   4 304.123 119.709   2
  -5  -9   3 10823.3 626.530  21
   5   9  -3 12930.5 795.597  20
  -5  -9   3 9945.10 680.663   2
   5   9  -3 11413.9 661.999   5
  -5  -9   3 12622.2 693.783   4
   5   9  -2 1061.82 249.025  14
  -5  -9   2 1082.73 194.577  23
  -5  -9   2 1145.61 198.315  21
   5   9  -2 945.639 161.231   1
   5   9  -2 907.242 205.102  20
   5   9  -2 952.400 183.775   5
   5   9  -2 991.593 221.510  13
   5   9  -2 839.671 197.585  18
   5   9  -2 887.785 210.472  17
  -5  -9   2 554.019 159.369   2
  -5  -9   2 1368.43 210.494   4
   5   9  -2 725.206 204.804  15
   5   9  -1 7583.79 644.323  14
   5   9  -1 7902.29 608.094  13
  -5  -9   1 7931.11 535.496  23
  -5  -9   1 7801.27 525.928  21
   5   9  -1 9261.96 632.783  20
  -5  -9   1 7607.74 589.596   2
   5   9  -1 8822.43 526.894   5
   5   9  -1 8523.82 487.081   1
   5   9  -1 8175.69 614.183  18
   5   9  -1 8634.23 635.344  17
  -5  -9   1 10115.7 556.668   4
   5   9  -1 8284.61 656.293  15
   5   9   0-23.3895 64.4842  14
  -5  -9   0 119.846 75.3771  23
   5   9   0 32.3435 58.3999  13
  -5  -9   0 46.2675 53.7528  21
   5   9   0 81.4528 61.9945   1
   5   9   0 103.217 71.3789  20
   5   9   0 3.00958 47.6477   5
   5   9   0 43.6169 60.0343  18
   5   9   0 18.0692 56.2392  17
  -5  -9   0 60.5265 82.6627   2
  -5  -9   0-8.89914 56.3350   4
   5   9   0-11.9934 72.0218  15
   5   9   1 370.188 136.537  14
   5   9   1 369.111 116.245   6
  -5  -9  -1 399.691 118.200  23
  -5  -9  -1 218.554 85.9517  22
   5   9   1 137.233 75.4282  13
  -5  -9  -1 169.495 75.1272  21
   5   9   1 248.589 84.6822   1
   5   9   1 406.253 119.120  20
  -5  -9  -1 366.146 109.259  10
   5   9   1 445.594 110.355   5
   5   9   1 260.064 111.911  18
   5   9   1 237.396 107.204  17
  -5  -9  -1 273.649 131.128   2
  -5  -9  -1 341.669 95.1239   4
   5   9   1 167.844 111.071  15
   5   9   2 2830.30 380.637  14
   5   9   2 4171.84 389.163   6
  -5  -9  -2 3657.31 354.823  23
   5   9   2 3277.71 374.507  13
  -5  -9  -2 3818.22 365.903  22
  -5  -9  -2 3467.65 341.611  21
   5   9   2 3542.26 289.325   5
  -5  -9  -2 3203.97 370.498   2
  -5  -9  -2 3910.32 343.809  10
   5   9   2 4002.47 329.421   1
   5   9   2 3524.98 392.706  18
   5   9   2 3584.16 393.002  17
   5   9   2 2800.69 364.527  15
   5   9   3 88.6601 110.531  14
  -5  -9  -3 11.1104 47.0510  23
   5   9   3 66.5288 64.9441   6
  -5  -9  -3 55.7645 66.1848  22
   5   9   3 74.5986 53.2051  13
  -5  -9  -3 77.0319 61.6872  21
   5   9   3 74.2103 59.6790   1
  -5  -9  -3-173.066 83.8758  10
   5   9   3 129.479 78.4444  18
   5   9   3 75.0151 82.6375  17
  -5  -9  -3-78.1224 77.6045   2
   5   9   3 2.70266 69.5033  15
   5   9   4 1226.93 245.381  14
  -5  -9  -4 1177.49 210.556  23
  -5  -9  -4 1082.30 199.696  22
   5   9   4 1085.74 219.731  13
  -5  -9  -4 1149.29 206.061  21
  -5  -9  -4 1191.88 203.824  19
   5   9   4 1286.41 177.936  12
   5   9   4 1306.62 189.743   1
  -5  -9  -4 1443.08 208.512  10
   5   9   4 1063.96 216.334  17
  -5  -9  -4 1068.94 209.085   2
   5   9   4 1411.52 259.385  15
   5   9   5 1440.45 274.244  14
  -5  -9  -5 1385.48 227.449  23
  -5  -9  -5 1408.51 231.778  22
   5   9   5 1113.00 223.093  13
   5   9   5 2078.05 225.823  12
  -5  -9  -5 1473.78 231.925  21
  -5  -9  -5 1258.62 212.615  19
  -5  -9  -5 1965.47 250.109  10
   5   9   5 1328.99 195.083   1
   5   9   5 1092.98 224.663  17
  -5  -9  -5 1213.89 214.424   2
   5   9   5 1162.10 237.057  15
   5   9   6 352.649 153.204  14
  -5  -9  -6 312.458 107.276  23
  -5  -9  -6 317.726 117.107  22
   5   9   6 255.321 131.572  13
  -5  -9  -6 266.921 100.171  21
   5   9   6 417.683 110.812  12
  -5  -9  -6 366.393 117.703  19
  -5  -9  -6 201.610 90.3346  10
   5   9   6 267.650 90.7336   1
   5   9   6 453.479 147.732  17
  -5  -9  -6 199.996 90.9856   2
   5   9   6 192.458 111.394  15
   5   9   7 123.543 106.706  14
   5   9   7-37.6376 77.1370   7
  -5  -9  -7-71.1164 73.5298  22
   5   9   7-59.7502 63.6822  13
  -5  -9  -7-158.281 89.8105  21
   5   9   7-7.43344 52.0639  12
  -5  -9  -7-86.2894 68.9390  19
  -5  -9  -7 79.2618 75.1126  10
   5   9   7 120.970 69.6167   1
   5   9   7 44.8307 76.0976  17
  -5  -9  -7 40.9861 61.2035  23
  -5  -9  -7 45.1143 67.5736   2
   5   9   7-35.8080 70.9880  15
   5   9   8 266.736 136.971  15
  -5  -9  -8 324.739 114.178   2
   5   9   8 299.623 133.407  14
   5   9   8 337.168 136.007   7
  -5  -9  -8 325.598 126.192  23
  -5  -9  -8 389.379 126.834  22
   5   9   8 307.055 137.329  13
  -5  -9  -8 446.616 139.867  21
   5   9   8 443.338 119.394  12
  -5  -9  -8 367.982 131.925  19
  -5  -9  -8 354.022 117.241  10
   5   9   8 296.084 123.635  17
   5   9   8 565.958 140.476   1
   5   9   9 1394.16 271.484  15
   5   9   9 1424.38 298.597  14
   5   9   9 1794.84 307.425   7
  -5  -9  -9 1843.08 287.164  23
  -5  -9  -9 1443.30 253.349  22
   5   9   9 1473.80 272.826  13
  -5  -9  -9 1508.59 255.343  21
   5   9   9 1806.49 239.663  12
  -5  -9  -9 1628.78 263.232  19
  -5  -9  -9 1736.12 272.544  10
   5   9   9 1552.91 290.455  17
   5   9   9 1713.75 250.272   1
  -5 -10   3-10.3766 62.1821  21
   5  10  -3 64.2559 102.049  20
   5  10  -3 92.2875 78.2920   5
  -5 -10   3-92.1588 90.7654   2
  -5 -10   3 67.7878 63.3841   4
  -5 -10   2 353.618 130.617  23
   5  10  -2-23.2242 73.4602  13
  -5 -10   2 399.035 115.458  21
   5  10  -2 158.488 85.3806  20
   5  10  -2 290.950 113.479   5
   5  10  -2 392.732 148.250  18
   5  10  -2 100.502 108.158  17
  -5 -10   2 256.035 112.886   2
  -5 -10   2 328.706 120.957   4
   5  10  -2 316.545 136.818  15
   5  10  -1 45.6296 98.0539  14
  -5 -10   1 79.3914 73.4276  23
   5  10  -1 378.469 158.515  13
  -5 -10   1 206.972 83.3732  21
   5  10  -1 100.952 53.7776   1
   5  10  -1 256.500 125.966  20
   5  10  -1 302.325 108.261   5
   5  10  -1 141.518 88.1230  18
   5  10  -1 55.0097 88.7395  17
  -5 -10   1 76.5267 67.8975   2
  -5 -10   1 82.8837 69.9261   4
   5  10  -1-87.7644 115.510  15
   5  10   0 79.8029 92.9113  14
  -5 -10   0 200.230 99.6764  23
   5  10   0 131.942 96.8697  13
  -5 -10   0-52.9333 66.9628  21
   5  10   0 196.634 87.7419   1
   5  10   0 244.488 102.534  20
   5  10   0 157.251 85.6778   5
   5  10   0 152.988 129.046  18
   5  10   0 152.867 106.021  17
  -5 -10   0 113.630 91.2025   2
  -5 -10   0 194.710 81.5598   4
   5  10   0 132.391 72.1869  15
   5  10   1 81.0656 101.737  14
  -5 -10  -1 28.8749 63.4937  23
   5  10   1 120.296 107.663  13
  -5 -10  -1 115.635 85.5838  21
   5  10   1 73.1412 69.9407   1
   5  10   1-105.239 96.8903  20
  -5 -10  -1 88.3975 62.0019  10
   5  10   1 136.900 78.0807   5
   5  10   1-25.4066 81.4658  18
   5  10   1-27.4039 68.9588  17
  -5 -10  -1 68.7098 76.8793   2
   5  10   1 49.7802 83.1835  15
   5  10   2 2225.31 359.307  14
  -5 -10  -2 1783.09 264.320  23
  -5 -10  -2 2195.58 295.284  22
  -5 -10  -2 2237.31 294.944  21
   5  10   2 1926.29 274.041  20
  -5 -10  -2 2190.28 279.226  10
   5  10   2 2445.80 274.563   1
   5  10   2 2102.73 327.274  13
   5  10   2 2258.73 341.843  18
   5  10   2 2044.42 332.546  17
  -5 -10  -2 2213.31 273.148  16
  -5 -10  -2 2005.53 308.251   2
   5  10   2 2219.23 344.727  15
   5  10   3-21.3684 80.1191  14
  -5 -10  -3 69.9894 71.5568  23
  -5 -10  -3 10.3161 53.0304  22
   5  10   3-67.4792 76.2397  13
  -5 -10  -3 47.3256 63.3840  21
   5  10   3-56.1635 60.7011  20
   5  10   3 62.7904 63.6085   1
  -5 -10  -3-107.720 77.7053  10
   5  10   3-84.8047 75.5151  18
   5  10   3-21.1362 65.7488  17
  -5 -10  -3-24.0857 66.5382  16
  -5 -10  -3 72.0333 71.0975   2
   5  10   3-242.490 129.796  15
   5  10   4 99.4033 99.9370  14
  -5 -10  -4-1.84760 46.0949  22
   5  10   4 59.9729 94.2850  13
  -5 -10  -4 41.5588 64.0801  21
   5  10   4 171.366 79.6537   1
  -5 -10  -4 49.1654 61.8468  10
   5  10   4 80.3745 75.8660  18
   5  10   4 45.9400 84.2459  17
  -5 -10  -4-33.9968 62.2827  23
  -5 -10  -4 307.505 130.818   2
   5  10   4 48.2965 74.2306  15
   5  10   5 630.933 189.012  14
  -5 -10  -5 679.145 175.081  23
   5  10   5 616.199 182.870  13
  -5 -10  -5 668.710 161.309  21
   5  10   5 1074.60 163.321  12
  -5 -10  -5 824.033 184.240  10
   5  10   5 653.147 155.821   1
   5  10   5 997.610 220.112  18
  -5 -10  -5 833.089 185.033  22
   5  10   5 951.655 227.170  17
  -5 -10  -5 680.749 182.514   2
   5  10   5 705.967 194.485  15
   5  10   6 2258.37 372.810  14
  -5 -10  -6 2420.66 326.885  23
   5  10   6 2434.60 353.692  13
  -5 -10  -6 2690.47 340.952  22
  -5 -10  -6 2432.22 325.278  21
   5  10   6 3289.08 295.133  12
  -5 -10  -6 2491.40 321.760   2
  -5 -10  -6 3015.37 341.312  10
   5  10   6 2537.22 371.725  18
   5  10   6 3061.76 319.777   1
   5  10   6 1998.06 323.025  17
   5  10   6 2010.69 340.953  15
   5  10   7 712.864 209.107  14
   5  10   7 1156.77 244.114   7
  -5 -10  -7 980.463 217.118  22
   5  10   7 797.286 201.366  13
  -5 -10  -7 933.076 208.739  21
   5  10   7 1309.59 195.701  12
  -5 -10  -7 994.421 217.973  23
  -5 -10  -7 1048.83 199.989  10
   5  10   7 1093.05 194.968   1
   5  10   7 876.165 218.195  17
  -5 -10  -7 805.825 176.424   2
   5  10   7 823.726 226.522  15
   5  10   8 31.0900 85.1616  14
   5  10   8 74.6551 90.3781   7
  -5 -10  -8 79.8400 76.5530  23
  -5 -10  -8-83.5330 71.2308  22
   5  10   8 26.7066 86.5463  13
  -5 -10  -8-25.8771 51.7630  21
   5  10   8 8.09826 51.3757  12
  -5 -10  -8 143.039 87.3343  10
   5  10   8-170.266 108.650  17
   5  10   8-15.9573 55.5939   1
   5  10   8-249.461 136.023  15
   5  11  -1 230.054 90.1027  14
  -5 -11   1 51.0518 57.3830  23
   5  11  -1 246.372 110.788  13
  -5 -11   1 136.203 91.6380  21
   5  11  -1-84.4601 75.4028   1
   5  11  -1 47.1258 76.6127  20
   5  11  -1 191.474 99.7958   5
   5  11  -1 47.7309 84.6162  18
   5  11  -1 145.889 107.566  17
  -5 -11   1 73.5537 109.208   2
   5  11  -1 24.9453 128.509  15
   5  11   0 806.735 238.113  14
  -5 -11   0 1069.44 218.226  23
   5  11   0 1013.40 261.248  13
  -5 -11   0 1072.14 227.573  21
   5  11   0 1223.75 208.405   1
   5  11   0 1069.72 224.688  20
   5  11   0 1011.19 200.219   5
   5  11   0 522.910 197.272  18
   5  11   0 911.124 242.221  17
  -5 -11   0 886.997 233.713   2
   5  11   0 808.409 239.393  15
   5  11   1 3721.89 502.689  14
  -5 -11  -1 3742.50 412.287  23
   5  11   1 3742.51 474.168  13
  -5 -11  -1 4084.02 425.311  21
   5  11   1 3875.12 422.871  20
  -5 -11  -1 3402.28 442.993   2
   5  11   1 4133.49 392.782   1
  -5 -11  -1 4130.12 410.275  10
   5  11   1 3306.36 446.371  18
   5  11   1 3655.51 471.296  17
   5  11   1 3906.89 503.997  15
   5  11   2 1510.29 320.466  14
  -5 -11  -2 2307.35 321.168  23
   5  11   2 1870.23 324.085  13
  -5 -11  -2 2153.36 307.107  21
   5  11   2 2072.17 307.694  20
  -5 -11  -2 2313.38 302.822  10
   5  11   2 2191.92 277.941   1
   5  11   2 1663.95 303.772  18
   5  11   2 1966.94 342.908  17
  -5 -11  -2 1663.16 298.598   2
   5  11   2 1351.64 291.081  15
   5  11   3 4386.59 543.788  14
  -5 -11  -3 4680.88 460.678  23
   5  11   3 4629.74 512.174  13
  -5 -11  -3 4363.23 442.585  21
   5  11   3 4164.40 422.428  20
  -5 -11  -3 4072.00 458.939   2
  -5 -11  -3 5077.40 453.821  10
   5  11   3 4627.78 413.011   1
   5  11   3 3938.20 475.368  18
   5  11   3 3708.75 464.643  17
  -5 -11  -3 4183.15 421.951  16
   5  11   3 4038.84 505.973  15
   5  11   4-86.0732 103.915  14
  -5 -11  -4 82.6924 80.5191  23
  -5 -11  -4-40.6578 75.7612  22
   5  11   4-164.760 119.984  13
  -5 -11  -4-63.0747 73.2998  21
   5  11   4-39.7702 60.5270  20
   5  11   4 27.7503 61.6398   1
  -5 -11  -4-7.32859 52.3701  10
   5  11   4 54.5500 96.2414  18
   5  11   4 83.6358 99.3929  17
  -5 -11  -4-107.410 86.0449  16
  -5 -11  -4 110.447 103.859   2
   5  11   4 86.1742 86.0513  15
   5  11   5 712.128 215.712  14
  -5 -11  -5 1119.11 232.884  23
  -5 -11  -5 1034.85 212.861  22
   5  11   5 1002.58 237.649  13
  -5 -11  -5 922.999 207.415  21
  -5 -11  -5 1217.79 229.123  10
   5  11   5 927.759 188.172   1
   5  11   5 1255.19 274.747  18
   5  11   5 1383.52 283.423  17
  -5 -11  -5 1102.55 232.718  16
  -5 -11  -5 1074.54 229.368   2
   5  11   5 1334.08 293.706  15
   5  11   6 1135.78 282.215  14
  -5 -11  -6 1462.71 268.170  23
  -5 -11  -6 1419.44 264.920  22
   5  11   6 1031.44 249.920  13
  -5 -11  -6 1445.68 264.763  21
  -5 -11  -6 1839.59 285.090  10
   5  11   6 1700.20 254.409   1
   5  11   6 1257.16 277.668  18
   5  11   6 1154.32 262.591  17
  -5 -11  -6 1258.17 244.548   2
   5  11   6 955.005 255.505  15
   6  -6   1 1008.83 254.694   3
   6  -6   1 621.127 176.423   6
  -6   6  -1 918.672 171.608  11
   6  -6   1 1016.10 276.797  16
   6  -6   2 257.672 103.335  14
   6  -6   2-59.0197 99.8310   3
  -6   6  -2 60.8151 84.1926  13
  -6   6  -2 48.2326 76.9080  23
  -6   6  -2 125.679 82.2593  11
  -6   6  -2-75.0695 79.5392  19
  -6   6  -2-16.9907 63.4958  18
  -6   6  -2 133.838 107.492  17
   6  -6   2 89.4465 105.520  16
   6  -6   3 252.433 116.832  14
   6  -6   3 130.651 98.2971   3
  -6   6  -3 51.4463 104.370  13
  -6   6  -3 199.667 119.651  23
  -6   6  -3 204.047 86.7812  11
  -6   6  -3 74.0919 87.1398  19
  -6   6  -3-129.510 106.488  18
  -6   6  -3-0.54117 69.9007  17
   6  -6   3 36.3369 83.9024  16
   6  -6   4 54.5369 91.3263  14
   6  -6   4 99.6095 122.306   3
  -6   6  -4 20.8224 71.6447  13
  -6   6  -4 17.5203 77.3733  23
  -6   6  -4-5.11289 45.5257  11
  -6   6  -4-38.9200 81.3264  19
  -6   6  -4-1.06857 99.5535  18
  -6   6  -4 218.831 137.342  17
   6  -6   4 175.967 144.363  16
   6  -5  -2 375.709 154.516   3
  -6   5   2 409.258 120.901  11
   6  -5  -2 239.880 131.782   6
   6  -5  -2 335.423 146.510  16
   6  -5  -1-30.3769 80.1150   3
   6  -5  -1 127.238 93.4097   6
  -6   5   1-69.2321 60.2608  11
   6  -5  -1-53.0975 88.8326  16
   6  -5   0 2223.17 320.364   6
   6  -5   0 2277.44 342.135   3
  -6   5   0 2500.64 266.800  11
   6  -5   0 1993.04 362.941  16
   6  -5   1 1166.52 246.000   3
   6  -5   1 1224.04 232.080   6
  -6   5  -1 1567.22 207.725  11
   6  -5   1 980.086 256.829  16
   6  -5   2 263.061 93.1247  14
   6  -5   2 296.387 130.063   3
  -6   5  -2 48.0844 75.2773  13
  -6   5  -2 164.878 113.998  23
   6  -5   2 182.799 87.8421   6
  -6   5  -2 457.801 110.941  11
  -6   5  -2 35.0388 71.2015  19
  -6   5  -2 281.942 127.677  18
  -6   5  -2 293.142 124.132  17
   6  -5   2 367.253 160.571  16
   6  -5   3 244.825 97.3048  14
   6  -5   3 546.318 180.412   3
  -6   5  -3 422.147 152.542  13
  -6   5  -3 378.663 138.586  23
   6  -5   3 310.130 100.334   6
  -6   5  -3 379.938 110.888  11
  -6   5  -3 389.335 138.245  19
  -6   5  -3 443.898 149.590  18
  -6   5  -3 283.079 130.604  17
   6  -5   3 119.336 111.196  16
   6  -5   4 610.618 148.930  14
   6  -5   4 841.805 217.117   3
  -6   5  -4 480.989 163.218  13
  -6   5  -4 817.382 210.090  23
  -6   5  -4 893.464 210.795   2
  -6   5  -4 957.812 164.625  11
  -6   5  -4 680.451 193.495  19
  -6   5  -4 823.453 217.152  18
  -6   5  -4 691.815 203.219  17
   6  -5   4 1040.56 276.470  16
  -6   5  -5 190.964 110.995  13
   6  -5   5 59.3458 70.1345  14
   6  -5   5 224.567 165.529   3
  -6   5  -5 124.084 75.2212  23
  -6   5  -5 160.012 109.426   2
  -6   5  -5 57.2045 51.3647  20
  -6   5  -5 30.2829 43.3456  11
  -6   5  -5-170.544 112.856  19
  -6   5  -5 18.9552 70.5448  18
  -6   5  -5-41.9245 81.3373  17
   6  -5   5 182.429 138.008  16
   6  -5   6 371.134 141.395   3
   6  -5   6 358.485 136.020  14
  -6   5  -6 198.983 91.0459  23
  -6   5  -6 196.969 121.035  13
  -6   5  -6 141.487 136.208   2
  -6   5  -6 359.640 128.591  20
  -6   5  -6 277.779 132.304  19
  -6   5  -6 257.600 147.648  18
  -6   5  -6 405.215 162.324  17
   6  -5   6 152.140 134.721  16
   6  -5   7 1434.84 300.389   3
   6  -5   7 1489.73 241.191  14
  -6   5  -7 1622.35 318.047  13
  -6   5  -7 1390.67 284.621  23
  -6   5  -7 1534.43 263.762  20
  -6   5  -7 1636.87 313.096  19
  -6   5  -7 1439.13 296.115  18
  -6   5  -7 1581.08 324.495  17
   6  -5   7 1260.38 325.304  16
   6  -4  -3 2821.80 388.762   3
  -6   4   3 3194.91 309.056  11
   6  -4  -3 2420.17 359.489   6
   6  -4  -2 768.591 212.579   3
  -6   4   2 820.103 159.809  11
  -6   4   2 291.017 105.071   9
   6  -4  -2 453.712 167.165  16
   6  -4  -2 716.824 193.314   6
   6  -4  -1 120.839 97.6254   3
   6  -4  -1 88.4651 84.7380   6
  -6   4   1-11.4270 38.4469  11
   6  -4  -1 169.377 121.494  16
   6  -4   0 180.305 112.931   6
  -6   4   0 16.9017 46.3167  11
   6  -4   0 92.3603 95.0912   3
   6  -4   0 296.824 139.845  16
   6  -4   1 1192.38 183.634  14
  -6   4  -1 1467.53 235.835  23
  -6   4  -1 1242.13 222.740  13
   6  -4   1 1352.19 230.891   6
  -6   4  -1 1641.55 253.857   2
  -6   4  -1 1796.64 207.618  11
  -6   4  -1 1349.82 225.873  19
   6  -4   1 1566.84 267.504   3
  -6   4  -1 1596.53 243.897  18
  -6   4  -1 1583.03 249.177  17
   6  -4   1 1373.68 275.494  16
   6  -4   2 25.5306 53.9719  14
   6  -4   2-5.53316 68.7750   3
  -6   4  -2 68.4771 52.3126  13
  -6   4  -2 107.909 77.9453  23
   6  -4   2 31.9648 52.0937   6
  -6   4  -2 4.10390 64.6976   2
  -6   4  -2 73.0191 57.7200  11
  -6   4  -2 60.7592 53.4133  19
  -6   4  -2 59.4934 61.5791  18
  -6   4  -2 186.810 111.223  17
   6  -4   2 62.3774 83.7529  16
   6  -4   3 313.799 103.604  14
   6  -4   3 217.264 110.715   3
  -6   4  -3 158.447 101.006  13
  -6   4  -3 44.6431 57.5103  23
   6  -4   3 66.0599 67.4848   6
  -6   4  -3 365.315 125.668   2
  -6   4  -3 228.745 73.0084  11
  -6   4  -3 72.0675 72.9199  19
  -6   4  -3 98.0905 71.9373  18
  -6   4  -3 273.436 107.970  17
   6  -4   3-38.6660 74.9410  16
   6  -4   4 124.324 59.3225  14
   6  -4   4 147.175 104.330   3
  -6   4  -4 207.121 101.569  23
   6  -4   4 129.944 83.3131   6
  -6   4  -4 160.240 102.586   2
  -6   4  -4 101.407 90.8472  13
  -6   4  -4 45.1590 46.4946  20
  -6   4  -4 182.698 72.0437  11
  -6   4  -4 206.645 94.4123  19
  -6   4  -4 65.7956 75.7157  18
  -6   4  -4 135.499 80.2697  17
   6  -4   4 212.343 132.272  16
   6  -4   5-20.0445 53.6988  14
   6  -4   5 70.3728 90.5884   3
  -6   4  -5 68.4817 60.7343  20
  -6   4  -5 124.933 89.9726  13
  -6   4  -5 123.004 84.3751  23
  -6   4  -5 195.173 103.449   2
  -6   4  -5 152.048 80.5636  11
  -6   4  -5 4.61356 79.7374  19
  -6   4  -5-9.30674 64.5217  18
  -6   4  -5 119.580 92.4139  17
   6  -4   5-81.8904 98.4133  16
   6  -4   6 119.217 140.545   1
   6  -4   6 197.771 87.1812   3
   6  -4   6 169.098 85.9158  14
  -6   4  -6 123.737 82.1094  13
  -6   4  -6 277.908 108.111   2
  -6   4  -6 159.806 86.2845  20
  -6   4  -6 161.810 117.503  19
  -6   4  -6 148.935 92.0523  18
  -6   4  -6 192.956 106.752  17
   6  -4   6 48.7878 95.4852  16
  -6   4  -6 395.697 155.020  23
   6  -4   7 39.8524 69.7560   3
   6  -4   7 111.042 81.2973  14
  -6   4  -7 84.6164 75.2679  23
   6  -4   7-14.8197 106.749   1
  -6   4  -7 98.2320 83.4619   2
  -6   4  -7 123.635 112.827  13
  -6   4  -7 69.3519 70.7319  20
  -6   4  -7 153.354 110.592  19
  -6   4  -7-7.14095 60.7338  18
  -6   4  -7-27.3382 68.0071  17
   6  -4   7 320.940 177.570  16
   6  -4   8 85.0698 78.2833  14
  -6   4  -8 278.374 144.996   2
  -6   4  -8 130.749 87.1215   5
  -6   4  -8 95.2188 76.2235  20
  -6   4  -8 115.160 76.5724  19
  -6   4  -8 53.1253 98.0761  18
  -6   4  -8 284.117 135.721  13
  -6   4  -8 65.0474 85.3755  17
  -6   4  -8-8.62980 104.248  23
   6  -4   8 196.082 152.611  16
   6  -4   8-106.579 150.144   1
   6  -3  -4 570.133 178.675   3
   6  -3  -4 978.303 228.320   6
  -6   3   4 952.219 176.297  11
  -6   3   4 507.916 158.218   9
   6  -3  -3 327.594 142.639   3
   6  -3  -3 337.984 130.890   6
  -6   3   3 508.516 125.101  11
  -6   3   3 288.429 104.647   9
   6  -3  -2 7131.53 544.047   3
   6  -3  -2 6219.13 535.116   6
  -6   3   2 7200.34 428.120  11
  -6   3   2 4747.72 393.513   9
   6  -3  -2 5356.41 512.775  16
   6  -3  -1 864.590 189.679   3
   6  -3  -1 694.385 172.692   6
  -6   3   1 615.259 119.995  11
  -6   3   1 540.693 120.522   9
   6  -3  -1 515.103 171.706  16
   6  -3   0-24.7478 81.4474   3
  -6   3   0 62.7630 63.5777   2
   6  -3   0 84.9626 66.4179   6
  -6   3   0 32.6064 36.2263  11
  -6   3   0-78.9381 53.5319   9
   6  -3   0 57.2849 76.4135  16
  -6   3  -1 300.476 98.2435  13
   6  -3   1 281.238 92.2117  14
   6  -3   1 249.383 102.987   3
  -6   3  -1 372.597 111.031  23
  -6   3  -1 72.8821 68.8119   2
   6  -3   1 327.293 113.139   6
  -6   3  -1 366.552 91.6120  11
  -6   3  -1 307.138 100.972  19
  -6   3  -1 239.327 100.675  18
  -6   3  -1 282.721 84.0609   9
  -6   3  -1 315.514 107.036  17
   6  -3   1 73.6629 76.0247  16
   6  -3   2 621.966 123.725  14
   6  -3   2 644.489 159.507   3
  -6   3  -2 719.184 166.961  13
  -6   3  -2 659.803 141.967  23
  -6   3  -2 554.031 146.529   2
   6  -3   2 845.530 170.153   6
  -6   3  -2 805.413 132.499  11
  -6   3  -2 569.656 136.652  19
  -6   3  -2 801.218 165.515  18
  -6   3  -2 690.044 151.765  17
   6  -3   2 768.216 201.428  16
   6  -3   3 623.323 130.068  14
   6  -3   3 714.507 174.236   3
  -6   3  -3 686.237 165.916  13
  -6   3  -3 546.188 144.069  23
  -6   3  -3 697.856 160.542   2
   6  -3   3 536.474 137.604   6
  -6   3  -3 564.290 119.244  20
  -6   3  -3 629.057 118.098  11
  -6   3  -3 597.561 158.860  19
  -6   3  -3 701.622 166.547  18
  -6   3  -3 705.177 177.347  17
   6  -3   3 786.750 213.316  16
   6  -3   4 6653.57 528.174   3
   6  -3   4 6364.73 432.336  14
  -6   3  -4 6735.99 527.326  13
  -6   3  -4 6331.47 498.969  23
   6  -3   4 6628.29 464.558   6
   6  -3   4 5665.40 646.163   1
  -6   3  -4 6941.78 441.857  20
  -6   3  -4 7050.00 398.533  11
  -6   3  -4 7147.59 526.502  19
  -6   3  -4 6064.23 496.960  18
  -6   3  -4 6825.26 536.646  17
  -6   3  -4 6364.88 494.314   2
   6  -3   4 7173.59 634.061  16
   6  -3   5 23543.4 1062.07   3
   6  -3   5 22037.4 872.286  14
  -6   3  -5 22282.7 1029.95  13
  -6   3  -5 22544.2 1004.99  23
   6  -3   5 18732.4 1230.36   1
  -6   3  -5 21180.8 863.856  20
  -6   3  -5 23477.2 1021.89  19
  -6   3  -5 22933.2 1025.42  18
  -6   3  -5 22429.8 1046.87  17
  -6   3  -5 20765.0 955.918   2
   6  -3   5 24290.8 1234.70  16
   6  -3   6 1633.16 228.441  14
   6  -3   6 1464.67 255.756   3
  -6   3  -6 1560.53 278.197  13
  -6   3  -6 1474.12 252.910  23
  -6   3  -6 1439.16 244.499   2
  -6   3  -6 1366.16 216.849  20
  -6   3  -6 1442.09 245.098  19
  -6   3  -6 1666.51 270.120  18
  -6   3  -6 1581.09 271.283  17
  -6   3  -6 1714.06 195.074   8
   6  -3   6 1430.57 315.860  16
   6  -3   6 1168.07 321.477   1
  -6   3  -7 438.784 138.029  13
   6  -3   7 300.795 106.831  14
  -6   3  -7 391.116 145.194  23
  -6   3  -7 405.903 139.968   2
  -6   3  -7 392.088 135.534  20
  -6   3  -7 394.768 157.901  19
  -6   3  -7 297.357 126.661  18
  -6   3  -7 64.4290 75.4263  17
   6  -3   7 474.868 222.523   1
   6  -3   7 480.224 191.972  16
  -6   3  -7 252.875 74.3068   8
   6  -3   7 499.482 180.590   3
   6  -3   8 610.549 150.405  14
  -6   3  -8 500.320 163.758  23
  -6   3  -8 642.425 177.539   2
  -6   3  -8 626.071 151.499   5
  -6   3  -8 434.828 135.599  20
  -6   3  -8 862.706 208.258  19
  -6   3  -8 846.346 208.018  18
   6  -3   8 339.060 142.112   1
  -6   3  -8 799.213 213.615  17
   6  -3   8 585.273 213.932  16
  -6   3  -8 382.915 101.702   8
   6  -3   9 2617.81 322.957  14
  -6   3  -9 2184.49 335.543  23
  -6   3  -9 2398.01 342.588  21
  -6   3  -9 2469.14 302.529   5
  -6   3  -9 2499.06 337.230  20
   6  -3   9 2623.82 510.158   1
  -6   3  -9 2413.64 346.577  19
  -6   3  -9 2431.60 353.143  18
  -6   3  -9 2447.05 363.551  17
  -6   3  -9 2439.95 350.396   2
  -6   3  -9 2297.44 278.560   8
   6  -3   9 2844.71 491.510  16
   6  -3   9 2254.64 311.806  15
   6  -3  10 797.405 189.650  15
   6  -3  10 1061.26 214.187  14
  -6   3 -10 1209.76 258.549   2
  -6   3 -10 1230.32 252.575  21
  -6   3 -10 1353.75 264.026  20
  -6   3 -10 954.328 191.269   5
  -6   3 -10 996.750 233.330  19
   6  -3  10 891.061 333.156   1
  -6   3 -10 1443.46 283.377  18
  -6   3 -10 881.675 231.883  17
  -6   3 -10 882.401 218.411  23
   6  -3  10 1204.06 339.649  16
  -6   3 -10 1031.54 192.045   8
   6  -2  -5 552.701 161.073   3
   6  -2  -5 389.314 159.377   6
  -6   2   5 754.202 161.323  11
  -6   2   5 480.115 146.738   9
   6  -2  -4 561.465 166.125   3
   6  -2  -4 393.543 154.336   6
  -6   2   4 340.025 105.420  11
  -6   2   4 330.304 113.584   9
   6  -2  -3 686.039 172.530   3
   6  -2  -3 545.756 164.871   6
  -6   2   3 966.918 159.791  11
  -6   2   3 638.765 152.602   9
   6  -2  -2 9761.51 601.708   3
   6  -2  -2 8885.14 617.305   6
  -6   2   2 7759.72 501.569   9
   6  -2  -2 9217.30 635.156  16
   6  -2  -1 1300.67 208.530   3
   6  -2  -1 1459.80 241.333   6
  -6   2   1 1437.65 170.934  11
  -6   2   1 1364.06 194.208   9
   6  -2  -1 1476.88 250.868  16
   6  -2   0 124.921 70.6625   3
  -6   2   0 110.059 65.3999   2
   6  -2   0 103.977 72.6038   6
  -6   2   0 240.521 70.9239  11
  -6   2   0 125.050 56.8263   9
   6  -2   0 177.488 87.3080  16
   6  -2   1 2761.04 300.162   3
   6  -2   1 2735.65 241.338  14
  -6   2  -1 2616.17 267.060  13
  -6   2  -1 2733.87 270.652  23
   6  -2   1 2894.08 318.522   6
  -6   2  -1 3281.70 244.437  11
  -6   2  -1 2920.32 276.049  19
  -6   2  -1 2543.08 264.998  18
  -6   2  -1 3168.02 250.952   9
  -6   2  -1 2798.82 280.088  17
  -6   2  -1 2731.03 285.869   2
   6  -2   1 3116.30 378.247  16
   6  -2   2 103.255 64.5933  14
   6  -2   2 49.7343 76.2719   3
  -6   2  -2 59.9585 61.8041  13
  -6   2  -2 39.2878 44.0199  23
  -6   2  -2 80.6604 62.4491   2
   6  -2   2 86.9038 51.2954   6
  -6   2  -2 100.537 50.0236  20
  -6   2  -2 101.479 51.1246  11
  -6   2  -2 249.233 91.4318  19
  -6   2  -2 99.5582 60.0884  18
  -6   2  -2 80.7165 59.8372  17
  -6   2  -2 95.3999 50.2572   9
   6  -2   2 101.037 88.3981  16
   6  -2   3 901.799 141.000  14
   6  -2   3 850.041 167.480   3
  -6   2  -3 851.615 164.821  23
  -6   2  -3 725.679 153.831   2
   6  -2   3 777.437 157.064   6
  -6   2  -3 885.061 139.158  20
  -6   2  -3 674.568 111.056  11
  -6   2  -3 500.440 134.281  19
  -6   2  -3 526.737 134.714  18
  -6   2  -3 755.286 158.945  17
  -6   2  -3 582.606 97.1384   9
   6  -2   3 594.967 204.684   1
  -6   2  -3 642.053 141.256  13
   6  -2   3 652.032 206.090  16
  -6   2  -3 663.226 99.6347   8
   6  -2   4 1760.35 218.915  14
   6  -2   4 1749.71 253.491   3
  -6   2  -4 1647.94 244.874  13
  -6   2  -4 1494.59 227.525  23
   6  -2   4 1815.76 236.194   6
  -6   2  -4 1470.84 192.630  20
  -6   2  -4 1666.41 173.998  11
  -6   2  -4 1693.31 242.135  19
  -6   2  -4 1770.83 249.452  18
  -6   2  -4 1846.27 255.583  17
   6  -2   4 1007.02 265.737   1
  -6   2  -4 1621.27 229.048   2
  -6   2  -4 1951.47 180.314   8
   6  -2   4 2035.11 327.480  16
   6  -2   5 20249.4 785.731  14
  -6   2  -5 18698.0 881.172  13
   6  -2   5 14970.6 1009.71   1
  -6   2  -5 18304.2 841.848  23
   6  -2   5 18080.1 787.362   6
  -6   2  -5 19701.6 786.336  20
  -6   2  -5 18199.5 847.934  19
  -6   2  -5 18268.5 856.580  18
  -6   2  -5 18284.0 876.042  17
  -6   2  -5 17190.3 805.588   2
   6  -2   5 18162.4 1030.82  16
  -6   2  -5 20439.7 679.155   8
   6  -2   5 20012.0 914.956   3
   6  -2   6-59.5567 103.410   1
   6  -2   6 3.09841 88.3571   3
   6  -2   6 102.113 75.0936  14
  -6   2  -6 55.9194 90.4499  13
  -6   2  -6-42.2601 49.5080  23
  -6   2  -6 62.0450 60.1303   2
  -6   2  -6 19.5383 51.7427  20
  -6   2  -6-4.06299 53.9610  19
  -6   2  -6 144.952 90.5742  18
  -6   2  -6 69.6540 87.7265  17
   6  -2   6 44.4900 74.2088  16
  -6   2  -6-12.5720 47.4728   8
   6  -2   7 7.29612 50.2795  14
  -6   2  -7 3.92121 61.5410  23
  -6   2  -7 16.6233 69.3076   2
  -6   2  -7 47.4645 66.1232  20
  -6   2  -7 3.79676 74.4664  19
  -6   2  -7-4.26174 52.2854  18
  -6   2  -7 32.4227 72.6173  17
   6  -2   7-47.3249 90.8315  16
  -6   2  -7 5.72793 45.4667   8
   6  -2   7 179.956 129.475   1
   6  -2   8 117.404 75.5947  15
   6  -2   8 84.9865 54.8585  14
  -6   2  -8 127.920 82.6554  23
  -6   2  -8 111.061 87.1357   2
  -6   2  -8 22.3558 42.8670   5
  -6   2  -8 107.001 75.7154  21
  -6   2  -8 40.3776 68.4473  20
  -6   2  -8 99.1734 81.0366  19
  -6   2  -8 113.226 88.5318  18
  -6   2  -8 220.865 124.536  17
   6  -2   8 271.134 150.900  16
  -6   2  -8 121.477 64.4192   8
   6  -2   8 173.157 140.778   1
   6  -2   9 1009.89 196.867  15
   6  -2   9 1375.04 224.675  14
  -6   2  -9 1259.08 239.847  23
  -6   2  -9 1181.00 229.096   2
  -6   2  -9 970.079 178.362   5
  -6   2  -9 833.877 196.920  21
  -6   2  -9 931.836 206.313  20
  -6   2  -9 1212.14 233.685  19
  -6   2  -9 1166.39 239.352  18
  -6   2  -9 1011.77 228.280  17
   6  -2   9 623.649 226.761  16
  -6   2  -9 1177.06 202.307   8
   6  -2   9 963.016 281.447   1
   6  -2  10 105.932 75.0281  15
   6  -2  10 45.5491 46.2330  14
  -6   2 -10 189.936 104.891  23
  -6   2 -10-9.98935 56.5825   2
  -6   2 -10-14.7266 73.4271   5
  -6   2 -10 27.9491 57.8154  21
  -6   2 -10 128.327 80.5154  20
  -6   2 -10-73.7646 81.3321  19
  -6   2 -10 149.610 115.625  18
  -6   2 -10 298.477 132.785  17
   6  -2  10-121.816 119.145  16
  -6   2 -10 82.4921 97.8811   8
   6  -2  10 250.091 187.143   1
   6  -1  -6 242.300 115.076   6
  -6   1   6 182.802 89.5384  11
  -6   1   6-23.8341 77.5678   9
   6  -1  -5 137.199 102.618   6
  -6   1   5 97.9115 77.9183  11
  -6   1   5 49.7006 63.9011   9
   6  -1  -4 53.6195 86.7680   3
   6  -1  -4 177.401 109.404   6
  -6   1   4 78.4017 58.6359  11
  -6   1   4 32.5270 44.6757   9
   6  -1  -3 725.446 155.444   3
   6  -1  -3 932.568 203.279   6
  -6   1   3 976.020 150.223  11
  -6   1   3 835.485 171.260   9
   6  -1  -2 236.082 91.3200   3
   6  -1  -2 226.892 104.587   6
  -6   1   2 281.813 80.8810  11
  -6   1   2 117.882 67.2997   9
   6  -1  -2 174.945 89.5251  16
   6  -1  -1 552.575 134.023   3
  -6   1   1 403.500 100.831   2
   6  -1  -1 671.536 159.938   6
  -6   1   1 666.143 113.809  11
  -6   1   1 467.885 112.363   9
   6  -1  -1 651.931 164.963  16
   6  -1   0 3466.87 306.756   3
   6  -1   0 3575.97 351.576   6
  -6   1   0 3245.63 242.441  21
  -6   1   0 3403.74 237.347  11
  -6   1   0 3311.63 245.938  19
  -6   1   0 3156.90 243.069  18
  -6   1   0 3366.09 268.227   9
  -6   1   0 3332.07 253.979  17
  -6   1   0 3114.87 270.891   2
  -6   1   0 3267.49 244.567  23
   6  -1   0 3152.17 346.636  16
   6  -1   1 654.957 114.047  15
   6  -1   1 891.272 126.755  14
  -6   1  -1 806.068 132.009  23
  -6   1  -1 745.410 135.453   2
   6  -1   1 715.151 157.870   6
  -6   1  -1 626.987 121.694  21
  -6   1  -1 1025.57 124.409  11
  -6   1  -1 687.305 125.180  19
   6  -1   1 871.401 155.805   3
  -6   1  -1 673.046 122.930  18
  -6   1  -1 656.050 126.147  17
  -6   1  -1 765.380 119.654   9
   6  -1   1 745.753 180.932  16
   6  -1   2 5848.03 403.640   3
   6  -1   2 6717.67 369.671  14
  -6   1  -2 6260.28 391.454  23
   6  -1   2 4471.06 477.525   1
   6  -1   2 6135.63 441.407   6
  -6   1  -2 5871.76 375.794  21
  -6   1  -2 6263.38 310.711  11
  -6   1  -2 5774.29 378.410  19
  -6   1  -2 5653.61 377.814  18
  -6   1  -2 5516.70 380.266  17
  -6   1  -2 6151.34 331.961   9
  -6   1  -2 5811.37 385.118   2
   6  -1   2 6268.47 512.174  16
   6  -1   2 6819.69 376.858  15
  -6   1  -3 11855.4 584.874  23
   6  -1   3 11430.3 595.018   3
   6  -1   3 12258.1 542.376  14
   6  -1   3 9578.07 700.821   1
   6  -1   3 11611.7 611.061   6
  -6   1  -3 12622.9 531.941  20
  -6   1  -3 11766.2 446.251  11
  -6   1  -3 11472.1 581.314  19
  -6   1  -3 11434.7 583.641  18
  -6   1  -3 11890.7 598.329  17
  -6   1  -3 12345.2 468.801   9
  -6   1  -3 10895.6 549.548   2
  -6   1  -3 12015.0 457.347   8
   6  -1   3 12400.4 751.075  16
   6  -1   4 77.1411 57.9049   6
   6  -1   4 8.78432 39.8576  14
   6  -1   4-4.36983 61.6723   3
  -6   1  -4-21.9216 56.2851   2
  -6   1  -4 35.8993 62.3802  23
  -6   1  -4-14.4710 43.5837  20
  -6   1  -4-85.5711 42.5914  11
  -6   1  -4 16.4975 43.5587  19
  -6   1  -4 91.8137 56.8289  18
  -6   1  -4 2.46688 39.1551  17
  -6   1  -4-49.2076 32.4627   9
   6  -1   4 165.720 68.3840   1
   6  -1   4 18.0073 75.2879  16
  -6   1  -4 11.8874 30.3414   8
   6  -1   5 748.417 137.291  15
   6  -1   5 651.760 149.691   3
   6  -1   5 599.013 122.619  14
  -6   1  -5 303.538 98.9065   2
   6  -1   5 783.740 153.973   6
  -6   1  -5 708.343 152.252  21
  -6   1  -5 699.042 149.203  19
   6  -1   5 532.499 181.804   1
  -6   1  -5 485.806 139.891  18
  -6   1  -5 731.226 160.077  17
  -6   1  -5 604.635 92.2045   9
  -6   1  -5 717.280 141.050  20
  -6   1  -5 691.413 147.870  23
   6  -1   5 747.014 202.580  16
  -6   1  -5 699.090 116.841   8
  -6   1  -6 13572.5 697.765  23
   6  -1   6 15771.0 682.897  14
   6  -1   6 12967.3 854.605   1
   6  -1   6 13804.7 653.240   6
  -6   1  -6 13829.1 702.849  21
  -6   1  -6 13991.2 651.281  20
  -6   1  -6 14944.1 731.259  19
  -6   1  -6 14274.4 725.009  18
  -6   1  -6 15253.2 762.904  17
  -6   1  -6 13133.4 483.201   9
  -6   1  -6 12637.3 648.798   2
   6  -1   6 14603.7 918.983  16
  -6   1  -6 15684.2 617.769   8
   6  -1   6 15255.6 681.191  15
   6  -1   6 13201.1 713.244   3
   6  -1   7 21016.4 837.781  14
   6  -1   7 18301.3 1072.01   1
  -6   1  -7 19982.8 901.014  23
  -6   1  -7 20551.7 900.775  21
  -6   1  -7 21133.9 861.341  20
  -6   1  -7 19710.8 895.179  19
  -6   1  -7 19835.7 908.010  18
  -6   1  -7 20416.0 934.063  17
  -6   1  -7 17692.4 820.297   2
   6  -1   7 21513.3 1171.98  16
  -6   1  -7 20639.6 767.226   8
   6  -1   7 21287.7 852.414  15
   6  -1   8 6.88081 45.9084  15
   6  -1   8-13.7600 46.4365  14
  -6   1  -8-48.3085 59.7056  23
  -6   1  -8-160.230 87.4882   2
  -6   1  -8 45.4936 44.1875  21
   6  -1   8-61.2038 115.499   1
  -6   1  -8-8.45394 52.6798  20
  -6   1  -8 44.8670 55.2519  19
  -6   1  -8 17.8073 59.1205  18
  -6   1  -8 15.2404 64.6528  17
   6  -1   8-145.281 122.172  16
  -6   1  -8-93.8492 88.2998   8
   6  -1   9 2387.85 288.393  14
  -6   1  -9 2505.94 321.880  23
  -6   1  -9 2366.21 312.921  21
  -6   1  -9 2041.91 281.174  20
   6  -1   9 2082.59 375.197   1
  -6   1  -9 2479.77 319.408  19
  -6   1  -9 2321.10 314.855  18
  -6   1  -9 2572.60 334.488  17
  -6   1  -9 2228.56 294.309   2
  -6   1  -9 2156.16 261.735   8
   6  -1   9 2257.54 423.299  16
   6  -1   9 2358.69 290.036  15
   6  -1  10 1032.44 201.403  15
   6  -1  10 1254.47 221.568  14
  -6   1 -10 1015.67 211.943   2
  -6   1 -10 1005.16 211.714  23
  -6   1 -10 1080.59 220.113  21
  -6   1 -10 789.073 179.021  20
   6  -1  10 1376.29 341.250   1
  -6   1 -10 1189.02 232.087  19
  -6   1 -10 1292.12 237.674  18
  -6   1 -10 955.539 212.360  17
   6  -1  10 1307.40 325.079  16
  -6   1 -10 975.402 182.792   8
   6  -1  11 701.482 177.343  15
   6  -1  11 738.219 175.366  14
  -6   1 -11 335.117 135.896  23
  -6   1 -11 642.051 189.227   2
  -6   1 -11 412.075 140.899  21
  -6   1 -11 504.497 153.796  20
  -6   1 -11 660.186 182.368  19
   6  -1  11 692.774 257.617   1
  -6   1 -11 581.400 178.010  18
  -6   1 -11 420.124 154.693  17
  -6   1 -11 805.434 183.562   8
   6   0  -6 82.4753 80.2188   6
  -6   0   6 90.9160 59.0049  11
  -6   0   6-49.8298 90.0469   9
   6   0  -5 822.830 200.019   6
  -6   0   5 942.105 168.919  11
  -6   0   5 732.616 175.913   9
   6   0  -4 22.3286 59.7977   6
  -6   0   4-47.8962 49.3413  11
  -6   0   4 50.5783 71.0542   9
   6   0  -3 3723.00 335.150   3
   6   0  -3 4145.64 404.856   6
  -6   0   3 4520.85 317.167  11
  -6   0   3 3245.71 328.452   9
   6   0  -2 126.773 83.6915   6
  -6   0   2 72.0698 44.9451  11
  -6   0   2-22.9841 66.6558   9
   6   0  -2 0.11849 52.8421   3
   6   0  -1 945.251 145.323   3
   6   0  -1 912.108 183.156   6
  -6   0   1 1149.03 135.312  11
  -6   0   1 1084.79 142.490   2
  -6   0   1 954.801 151.906   9
   6   0  -1 817.550 166.381  16
   6   0   0 5115.49 349.780   3
   6   0   0 5540.77 294.255  14
  -6   0   0 5053.21 286.718  23
   6   0   0 5821.60 441.279   6
  -6   0   0 5176.24 292.367  21
  -6   0   0 6050.54 300.767  11
  -6   0   0 5724.79 303.115  19
  -6   0   0 5284.70 293.879  18
  -6   0   0 5559.23 303.864  17
  -6   0   0 6025.60 353.120   9
  -6   0   0 5906.03 337.714   2
   6   0   0 5234.81 421.196  16
   6   0   0 5612.81 299.356  15
   6   0   1 1985.20 213.198   3
   6   0   1 2304.19 192.670  14
  -6   0  -1 2049.17 191.519  23
   6   0   1 1811.49 239.474   6
  -6   0  -1 2097.19 195.829  21
  -6   0  -1 1908.18 153.912  11
  -6   0  -1 1704.22 178.992  19
  -6   0  -1 1993.00 189.567  18
  -6   0  -1 1901.95 187.904  17
  -6   0  -1 1608.53 175.853   2
  -6   0  -1 2028.84 191.872   9
   6   0   1 2001.70 266.601  16
   6   0   1 2131.82 190.079  15
   6   0   2 17428.8 680.408   3
   6   0   2 20201.9 656.359  14
   6   0   2 17120.1 829.242   1
  -6   0  -2 18505.8 666.340  23
   6   0   2 18380.0 786.896   6
  -6   0  -2 18905.3 670.726  21
  -6   0  -2 18375.4 539.125  11
  -6   0  -2 17889.4 660.427  19
  -6   0  -2 19145.2 683.196  18
  -6   0  -2 16287.8 621.155   2
  -6   0  -2 19587.6 695.356  17
  -6   0  -2 19251.1 628.582   9
   6   0   2 17590.3 847.713  16
   6   0   2 19961.3 658.911  15
   6   0   3 6192.07 392.828   3
   6   0   3 6700.23 368.739  14
   6   0   3 6268.09 496.445   1
  -6   0  -3 6274.32 387.190  23
   6   0   3 6884.98 455.901   6
  -6   0  -3 5941.39 272.528  11
  -6   0  -3 6444.28 392.753  19
  -6   0  -3 6068.97 381.131  21
  -6   0  -3 6073.62 388.348  18
  -6   0  -3 5816.24 351.608   2
  -6   0  -3 6452.91 398.276  17
  -6   0  -3 6522.29 334.869   9
  -6   0  -3 6442.99 324.591   8
   6   0   3 6248.24 503.679  16
   6   0   3 6120.66 360.938  15
   6   0   4 2083.74 210.138  14
   6   0   4 1795.48 264.459   1
  -6   0  -4 1856.17 214.003  23
   6   0   4 2025.85 249.390   6
  -6   0  -4 2063.47 225.436  21
  -6   0  -4 2128.40 213.104  20
  -6   0  -4 1689.99 139.997  11
  -6   0  -4 1813.22 215.738  19
  -6   0  -4 1967.98 226.307  18
  -6   0  -4 1737.10 190.303   2
  -6   0  -4 2151.57 242.927  17
  -6   0  -4 1924.92 171.422   9
   6   0   4 2095.19 308.883  16
  -6   0  -4 1909.34 184.137   8
   6   0   4 1915.84 202.482  15
   6   0   4 2121.36 236.624   3
   6   0   5 208.224 76.9806  15
   6   0   5 29.6041 61.1246   1
   6   0   5 154.160 70.8381   3
   6   0   5 242.900 79.1589  14
  -6   0  -5 9.07408 46.9766   2
  -6   0  -5 206.685 88.2066  23
   6   0   5 265.983 92.9963   6
  -6   0  -5 161.233 65.9838  21
  -6   0  -5 134.438 43.9120  20
  -6   0  -5 195.984 85.5699  19
  -6   0  -5 341.370 104.744  18
  -6   0  -5 256.063 93.3606  17
  -6   0  -5 119.714 44.8006   9
   6   0   5 244.843 134.135  16
  -6   0  -5 322.723 84.5490   8
   6   0   6 3829.04 309.608  14
   6   0   6 3210.10 373.203   1
   6   0   6 3565.69 320.589   6
  -6   0  -6 3460.44 320.967  23
  -6   0  -6 3948.31 343.134  21
  -6   0  -6 3977.48 321.116  20
  -6   0  -6 3593.36 327.410  19
  -6   0  -6 3693.55 335.612  18
  -6   0  -6 3923.12 350.906  17
  -6   0  -6 3112.46 279.531   2
  -6   0  -6 3408.08 239.009   9
   6   0   6 3638.47 446.730  16
  -6   0  -6 4091.65 297.895   8
   6   0   6 3522.72 304.328  15
   6   0   7-4.88892 57.7695  15
   6   0   7 116.925 83.0419   1
   6   0   7 25.5964 62.8459  14
  -6   0  -7 38.1648 45.2752   2
   6   0   7 102.659 61.4449   6
  -6   0  -7 33.3060 52.4242  21
  -6   0  -7 110.441 69.6716  20
  -6   0  -7 139.236 84.4145  19
  -6   0  -7 60.7926 57.0694  18
  -6   0  -7 56.2087 64.4404  17
  -6   0  -7 170.671 96.6067  23
   6   0   7 36.3626 101.909  16
  -6   0  -7-18.8991 63.9460   8
   6   0   8 853.428 167.438  15
   6   0   8 763.212 213.493   1
   6   0   8 403.952 118.206   7
   6   0   8 730.955 153.257  14
  -6   0  -8 765.120 151.251   2
  -6   0  -8 875.703 175.453  21
  -6   0  -8 749.174 167.628  19
  -6   0  -8 832.270 172.000  23
  -6   0  -8 887.350 185.640  18
  -6   0  -8 791.275 170.551  17
   6   0   8 645.329 227.491  16
  -6   0  -8 807.680 160.303  20
  -6   0  -8 940.867 156.546   8
   6   0   9 2704.52 289.431   7
   6   0   9 3085.96 321.565  14
   6   0   9 2474.19 384.248   1
  -6   0  -9 2859.10 332.373  23
  -6   0  -9 2703.64 326.658  21
  -6   0  -9 2797.37 312.659  20
  -6   0  -9 2626.20 315.935  19
  -6   0  -9 3030.70 340.523  18
  -6   0  -9 2897.68 338.915  17
  -6   0  -9 2624.59 303.571   2
   6   0   9 2823.69 454.609  16
  -6   0  -9 2697.03 285.766   8
   6   0   9 3141.95 328.905  15
   6   0  10 375.203 126.275  15
   6   0  10 349.052 130.245  14
   6   0  10 526.234 209.967   1
  -6   0 -10 441.069 138.732  23
  -6   0 -10 375.253 125.988   2
  -6   0 -10 419.440 131.115  21
  -6   0 -10 331.237 119.679  20
  -6   0 -10 394.165 131.475  19
  -6   0 -10 517.499 155.964  18
  -6   0 -10 349.378 119.118  17
  -6   0 -10 287.509 103.458   8
   6   0  11 1775.50 273.556  14
  -6   0 -11 1976.44 300.250  23
   6   0  11 1746.40 350.927   1
  -6   0 -11 1379.62 245.426   2
  -6   0 -11 1542.75 273.013  21
  -6   0 -11 1097.36 215.500  20
  -6   0 -11 1738.18 286.723  19
  -6   0 -11 1367.76 253.765  18
  -6   0 -11 1550.81 266.971  17
  -6   0 -11 1617.84 253.491   8
   6   0  11 2289.36 307.696  15
   6   1  -6 487.778 148.227   6
  -6  -1   6 514.964 132.185  11
   6   1  -6 319.633 118.108   5
  -6  -1   6 317.423 124.466   4
  -6  -1   6 526.398 149.418   9
   6   1  -5 650.447 173.604   6
  -6  -1   5 413.425 110.999  11
  -6  -1   5 520.593 147.565   9
  -6  -1   5 419.861 144.702   4
   6   1  -4 612.577 153.973   6
  -6  -1   4 571.664 122.045  11
  -6  -1   4 769.184 164.647   4
  -6  -1   4 429.696 123.146   9
   6   1  -3 93.2264 70.2192   6
  -6  -1   3 24.9121 37.5120  11
  -6  -1   3-9.87191 64.0361   4
  -6  -1   3 9.87223 46.5016   9
   6   1  -2 3641.27 354.616   6
  -6  -1   2 4200.97 273.464  11
  -6  -1   2 3242.40 295.968   9
  -6  -1   1 139.570 48.6417   2
   6   1  -1 45.7856 50.6453   3
   6   1  -1 115.642 67.8133   6
  -6  -1   1 86.0260 47.8820  11
  -6  -1   1 224.640 71.6014   9
   6   1  -1 37.8533 47.3914  16
   6   1   0 9702.69 438.310   3
   6   1   0 11587.4 435.192  14
  -6  -1   0 9886.99 381.694  11
  -6  -1   0 10285.2 401.032  23
   6   1   0 10312.1 581.063   6
  -6  -1   0 10557.8 409.232  21
  -6  -1   0 10531.7 406.465  19
  -6  -1   0 10012.3 400.361  18
  -6  -1   0 10739.4 431.263   2
  -6  -1   0 10174.6 471.051   9
   6   1   0 8761.57 521.783  16
   6   1   0 11505.1 434.262  15
   6   1   1-0.27485 26.2699  15
   6   1   1 27.2566 42.9215   3
   6   1   1 21.1507 33.7027  14
  -6  -1  -1-3.79010 31.1559   2
   6   1   1 4.36869 47.1195   6
  -6  -1  -1-13.3903 24.6559  21
  -6  -1  -1 23.9664 25.6188  11
   6   1   1 80.9408 57.7152   1
  -6  -1  -1 19.4132 26.9220  19
  -6  -1  -1 24.6050 23.5503  18
  -6  -1  -1 23.5654 30.7366  17
  -6  -1  -1 1.02184 28.5072   9
   6   1   1 39.0539 48.4833  16
  -6  -1  -1 30.6295 29.3878  23
   6   1   2 622.390 103.863  15
   6   1   2 770.205 146.916   1
   6   1   2 635.995 104.623  14
  -6  -1  -2 589.104 100.661   2
  -6  -1  -2 659.861 107.824  23
   6   1   2 621.257 138.018   6
  -6  -1  -2 652.985 110.628  21
  -6  -1  -2 557.140 70.2205  11
   6   1   2 522.150 105.775   3
  -6  -1  -2 515.234 100.352  19
  -6  -1  -2 669.444 112.175  18
  -6  -1  -2 650.302 108.921  17
  -6  -1  -2 578.087 98.9895   9
   6   1   2 597.952 153.127  16
   6   1   3 7.91952 29.1777  15
   6   1   3 75.3971 45.9657  14
   6   1   3 26.1273 44.9153   3
  -6  -1  -3 26.8834 41.2348   2
  -6  -1  -3 29.9318 44.9987  21
   6   1   3-13.6878 54.3379   6
  -6  -1  -3 21.9716 22.4586  11
  -6  -1  -3 77.5059 34.9980  19
  -6  -1  -3 39.4835 39.1560  18
  -6  -1  -3 31.8287 36.1410  17
  -6  -1  -3 2.81522 40.4803  23
  -6  -1  -3 79.6565 39.5765   9
   6   1   3 98.3380 80.1911  16
  -6  -1  -3 10.9129 24.5066   8
   6   1   3 11.7708 56.0116   1
   6   1   4 608.793 112.672  15
   6   1   4 531.805 109.625   3
   6   1   4 657.944 116.363  14
  -6  -1  -4 471.716 95.6052   2
  -6  -1  -4 666.160 120.734  23
   6   1   4 580.993 130.502   6
  -6  -1  -4 790.565 131.859  21
  -6  -1  -4 616.595 72.1058  11
  -6  -1  -4 661.676 124.426  19
  -6  -1  -4 771.850 128.589  18
  -6  -1  -4 687.553 129.242  17
  -6  -1  -4 633.339 101.561   9
   6   1   4 469.873 121.237   1
   6   1   4 643.541 170.892  16
  -6  -1  -4 743.169 111.705   8
   6   1   5 1630.79 233.140   1
   6   1   5 1605.40 187.563  14
   6   1   5 1650.61 218.828   6
  -6  -1  -5 1342.22 181.203  23
  -6  -1  -5 1785.81 208.291  21
  -6  -1  -5 1391.18 173.036  20
  -6  -1  -5 1181.11 104.172  11
  -6  -1  -5 1769.47 207.571  19
  -6  -1  -5 1607.78 199.337  18
  -6  -1  -5 1493.19 174.790   2
  -6  -1  -5 1558.83 196.448  17
  -6  -1  -5 1517.36 153.842   9
  -6  -1  -5 1958.07 191.096   8
   6   1   5 1590.82 275.106  16
   6   1   5 1499.78 185.488  15
   6   1   6 7041.39 507.794   1
   6   1   6 8264.20 456.322  14
   6   1   6 7723.78 482.775   6
  -6  -1  -6 7960.19 471.123  23
  -6  -1  -6 8092.94 476.922  21
  -6  -1  -6 7428.32 432.114  20
  -6  -1  -6 7591.54 459.083  19
  -6  -1  -6 7701.41 468.770  18
  -6  -1  -6 7447.94 409.693   2
  -6  -1  -6 7651.15 469.036  17
   6   1   6 8435.18 661.291  16
  -6  -1  -6 8584.15 435.141   8
   6   1   6 8001.19 453.725  15
   6   1   7 32.3143 48.8007  15
   6   1   7-46.3680 65.8514  14
  -6  -1  -7-2.29494 34.8494   2
  -6  -1  -7-24.2175 46.1049  23
   6   1   7-1.57215 49.3758   6
  -6  -1  -7 4.30434 54.3159  21
  -6  -1  -7 23.7986 50.9594  20
  -6  -1  -7 1.03948 44.5546  19
  -6  -1  -7-29.2018 57.9984  18
  -6  -1  -7-13.3207 40.3169  17
   6   1   7 134.082 89.3964   1
   6   1   7-3.73474 105.371  16
  -6  -1  -7 165.817 84.0752   8
   6   1   8 1672.80 220.797  14
   6   1   8 1613.33 243.094   7
   6   1   8 1686.57 224.878   6
  -6  -1  -8 1360.77 208.891  23
  -6  -1  -8 1301.23 207.393  21
  -6  -1  -8 1435.06 204.779  20
  -6  -1  -8 1450.94 220.771  19
  -6  -1  -8 1640.67 238.203  18
  -6  -1  -8 1434.11 221.452  17
  -6  -1  -8 1550.03 205.573   2
   6   1   8 1177.49 232.580   1
  -6  -1  -8 1501.79 198.429   8
   6   1   8 1609.90 223.225  15
   6   1   9 188.453 90.6310  15
   6   1   9 170.684 71.4099   7
   6   1   9 307.657 106.032  14
  -6  -1  -9 134.111 74.0278   2
  -6  -1  -9 353.890 115.114  23
   6   1   9 246.552 81.2695  12
  -6  -1  -9 271.831 120.543  21
  -6  -1  -9 192.233 87.5273  20
  -6  -1  -9 201.021 89.0699  19
  -6  -1  -9 183.348 92.3726  18
  -6  -1  -9 250.315 102.007  17
   6   1   9 453.913 159.020   1
  -6  -1  -9 161.799 90.7444   8
   6   1  10 1510.49 231.100  15
   6   1  10 1012.77 198.671   7
   6   1  10 1452.41 226.716  14
  -6  -1 -10 1215.11 210.479   2
  -6  -1 -10 1422.75 231.911  23
   6   1  10 1378.57 174.548  12
  -6  -1 -10 1338.40 225.905  21
  -6  -1 -10 1083.82 199.890  20
  -6  -1 -10 1496.58 235.665  19
  -6  -1 -10 1459.96 238.565  18
  -6  -1 -10 1135.35 223.474  17
   6   1  10 1309.21 285.838   1
  -6  -1 -10 1280.30 205.626   8
   6   1  11 2139.19 290.700  14
   6   1  11 1755.85 257.961   7
  -6  -1 -11 1573.12 254.921  23
  -6  -1 -11 2219.15 305.965  21
  -6  -1 -11 1559.66 246.776  20
  -6  -1 -11 2292.69 307.096  19
  -6  -1 -11 1732.06 269.532  18
  -6  -1 -11 1847.03 291.936  17
  -6  -1 -11 1810.75 267.860   8
   6   1  11 2149.78 295.124  15
   6   1  11 1684.01 335.864   1
   6   1  12 640.853 179.866  15
   6   1  12 1057.90 288.701   1
   6   1  12 511.761 150.337   7
   6   1  12 647.968 168.145  14
  -6  -1 -12 632.872 170.560  23
  -6  -1 -12 581.394 164.837  21
  -6  -1 -12 492.325 149.103  20
  -6  -1 -12 677.382 183.060  19
  -6  -1 -12 848.095 202.148  18
  -6  -1 -12 362.009 128.606   8
   6   2  -6 13.4637 55.3461   5
  -6  -2   6-28.2286 58.7096   9
  -6  -2   6 35.3726 74.7525   4
   6   2  -6-75.9011 81.6834   8
   6   2  -5 654.604 163.705   6
  -6  -2   5 792.843 148.155  11
   6   2  -5 603.181 141.957   5
  -6  -2   5 399.206 120.001   9
  -6  -2   5 512.373 142.479   4
   6   2  -4-94.6405 73.6344   6
  -6  -2   4-24.1413 35.4009  11
  -6  -2   4 42.9791 53.3748   9
  -6  -2   4 3.83644 61.2067   4
   6   2  -3 6775.87 490.842   6
  -6  -2   3 6505.63 372.786  11
  -6  -2   3 6082.34 419.177   9
  -6  -2   3 6846.24 431.750   4
   6   2  -2 1893.18 252.656   6
  -6  -2   2 1624.11 166.286  11
  -6  -2   2 1510.25 194.589   9
  -6  -2   2 1717.48 206.545   4
   6   2  -1 9881.90 570.106   6
  -6  -2   1 9124.47 387.592  11
  -6  -2   1 10980.5 410.494   2
  -6  -2   1 10233.3 474.901   4
  -6  -2   1 9373.91 467.513   9
   6   2   0 7978.46 362.672  14
  -6  -2   0 7154.11 327.028  23
   6   2   0 6981.22 472.172   6
   6   2   0 7741.77 353.201  13
  -6  -2   0 7457.24 335.481  22
  -6  -2   0 7018.20 326.708  21
  -6  -2   0 6247.55 289.200  11
  -6  -2   0 7135.79 325.687  19
  -6  -2   0 7221.99 325.578  18
  -6  -2   0 7771.44 347.064   2
  -6  -2   0 6714.75 363.367   4
  -6  -2   0 7053.59 386.261   9
   6   2   0 6429.06 413.886  16
   6   2   0 7792.21 355.950  15
   6   2   1 1333.24 155.210   1
   6   2   1 1757.53 170.344  14
  -6  -2  -1 1675.89 160.813  23
   6   2   1 1567.06 218.716   6
  -6  -2  -1 1543.19 157.881  22
   6   2   1 1670.70 166.329  13
  -6  -2  -1 1449.85 151.058  21
  -6  -2  -1 1425.12 117.978  11
  -6  -2  -1 1793.99 164.863  19
  -6  -2  -1 1804.04 163.367  18
  -6  -2  -1 1729.74 159.011   2
  -6  -2  -1 1734.35 173.769   9
   6   2   1 1548.63 214.900  16
   6   2   1 1641.63 164.437  15
   6   2   2 2938.88 226.168  14
  -6  -2  -2 2753.66 215.516  23
   6   2   2 2656.06 287.532   6
  -6  -2  -2 2626.36 214.081  21
  -6  -2  -2 2478.47 136.942  11
  -6  -2  -2 2661.16 211.202  19
  -6  -2  -2 2466.35 203.594  18
  -6  -2  -2 2843.64 208.844   2
  -6  -2  -2 2703.11 213.515   9
   6   2   2 2964.92 304.660  16
   6   2   2 2657.84 218.470  15
   6   2   2 2444.28 214.575   1
   6   2   2 2319.64 173.718   3
   6   2   3 363.332 80.2568  15
  -6  -2  -3 348.544 74.1999   2
   6   2   3 355.219 78.4401  14
  -6  -2  -3 337.287 79.8586  23
   6   2   3 308.475 109.003   6
  -6  -2  -3 469.130 89.9578  21
  -6  -2  -3 300.377 39.3564  11
   6   2   3 242.169 74.5277   1
  -6  -2  -3 386.284 82.0261  19
  -6  -2  -3 419.045 83.6339  18
  -6  -2  -3 457.471 89.7790  17
  -6  -2  -3 502.067 87.4116   9
   6   2   3 423.387 125.668  16
   6   2   3 382.362 76.1900   3
   6   2   4 178.462 63.4538  15
  -6  -2  -4 181.437 61.6114   2
   6   2   4 204.273 72.5258  14
   6   2   4 347.253 111.222   6
  -6  -2  -4 233.229 71.1755  23
  -6  -2  -4 194.004 74.4805  21
   6   2   4 206.718 70.3708   1
  -6  -2  -4 215.072 72.0712  19
  -6  -2  -4 236.062 76.6814  18
  -6  -2  -4 209.719 45.1779  10
  -6  -2  -4 193.894 70.9430  17
  -6  -2  -4 262.618 69.0032   9
   6   2   4 186.890 108.903  16
  -6  -2  -4 194.853 61.4732   8
   6   2   5 3619.55 278.137  14
   6   2   5 3679.52 329.566   6
  -6  -2  -5 3895.10 297.920  23
  -6  -2  -5 3668.96 289.732  19
  -6  -2  -5 3517.74 289.795  21
  -6  -2  -5 3733.38 293.687  18
  -6  -2  -5 3162.44 201.813  10
  -6  -2  -5 3563.24 257.540   2
  -6  -2  -5 3752.84 298.362  17
   6   2   5 3628.39 403.644  16
  -6  -2  -5 4139.78 281.503   8
   6   2   5 3629.26 282.127  15
   6   2   5 3374.33 302.887   1
   6   2   6 4057.47 309.536  14
   6   2   6 3985.01 347.854   6
  -6  -2  -6 3909.10 312.677  23
  -6  -2  -6 3922.45 316.502  21
  -6  -2  -6 3866.07 311.018  19
  -6  -2  -6 4330.24 332.702  18
  -6  -2  -6 3635.31 272.089   2
  -6  -2  -6 4011.88 322.596  17
   6   2   6 3705.15 424.552  16
  -6  -2  -6 4298.16 298.009   8
   6   2   6 3842.93 307.195  15
   6   2   6 3355.89 318.608   1
   6   2   7 12957.1 610.689  14
   6   2   7 12113.1 640.855   6
  -6  -2  -7 13161.6 626.842  21
  -6  -2  -7 12923.7 589.720  20
  -6  -2  -7 12135.4 599.135  19
  -6  -2  -7 11950.1 598.964  18
  -6  -2  -7 12404.2 544.435   2
  -6  -2  -7 12815.8 611.575  23
  -6  -2  -7 12928.1 627.842  17
  -6  -2  -7 13883.3 593.596   8
   6   2   7 13366.6 617.641  15
   6   2   7 11153.7 634.415   1
   6   2   8 2149.61 288.176   7
   6   2   8 2563.14 273.797  14
   6   2   8 2379.48 278.057   6
  -6  -2  -8 2283.65 262.861  23
  -6  -2  -8 2651.03 283.384  21
  -6  -2  -8 2329.91 252.208  20
  -6  -2  -8 2313.40 265.490  19
  -6  -2  -8 2287.77 266.292  18
  -6  -2  -8 2578.66 246.626   2
  -6  -2  -8 2247.64 273.172  17
  -6  -2  -8 2616.67 262.540   8
   6   2   8 2472.50 268.161  15
   6   2   8 2545.53 316.179   1
   6   2   9 270.388 96.9796  15
   6   2   9 35.9902 70.2420   7
   6   2   9 267.984 104.075  14
  -6  -2  -9 238.780 81.8648   2
  -6  -2  -9 175.644 88.5315  23
   6   2   9 239.828 95.5504   6
   6   2   9 253.059 77.5445  12
  -6  -2  -9 371.078 114.180  21
  -6  -2  -9 226.731 93.9144  20
  -6  -2  -9 203.266 75.2128  19
  -6  -2  -9 167.167 71.2450  18
   6   2   9 65.7363 64.1132   1
  -6  -2  -9 160.812 95.7312  17
  -6  -2  -9 209.426 86.3475   8
   6   2  10 2006.33 285.488   7
   6   2  10 2400.47 295.897  14
  -6  -2 -10 1955.54 269.835  23
  -6  -2 -10 2079.10 278.771  21
   6   2  10 1930.17 216.298  12
  -6  -2 -10 1623.29 234.549  20
  -6  -2 -10 1769.59 257.098  19
  -6  -2 -10 2351.56 295.439  18
  -6  -2 -10 2321.37 265.935   2
   6   2  10 1902.01 309.952   1
  -6  -2 -10 1858.59 244.083   8
   6   2  10 2164.37 279.051  15
   6   2  11 4438.12 516.276   1
   6   2  11 4075.95 412.958   7
   6   2  11 4485.65 429.153  14
   6   2  11 4822.89 447.539  13
  -6  -2 -11 4587.15 440.074  22
  -6  -2 -11 4864.21 445.583  21
   6   2  11 4795.22 351.574  12
  -6  -2 -11 3860.89 374.613  20
  -6  -2 -11 4658.47 431.647  19
  -6  -2 -11 4911.74 443.162  18
  -6  -2 -11 4705.90 430.899  23
  -6  -2 -11 4404.13 400.954   8
   6   2  11 4782.11 438.373  15
   6   2  12 1680.26 269.525   7
   6   2  12 2213.99 318.122  14
  -6  -2 -12 2512.51 332.046  23
   6   2  12 2828.60 354.863  13
  -6  -2 -12 2571.90 340.350  22
  -6  -2 -12 2472.47 331.000  21
  -6  -2 -12 1734.57 260.547  20
  -6  -2 -12 2305.31 316.698  19
  -6  -2 -12 2565.49 334.201  18
  -6  -2 -12 2363.02 315.013  10
   6   2  12 2433.74 419.677   1
  -6  -2 -12 2200.74 297.994   8
   6   2  12 2861.72 357.444  15
   6   3  -6 1475.35 227.020   5
  -6  -3   6 1109.78 202.883   9
  -6  -3   6 1807.31 273.476   4
   6   3  -5 22081.5 884.258   5
  -6  -3   5 24296.7 957.466   4
   6   3  -4 1366.88 224.559   6
   6   3  -4 1416.00 201.805   5
  -6  -3   4 1254.19 194.621   9
  -6  -3   4 1487.61 214.112   4
   6   3  -3 5086.06 416.532   6
  -6  -3   3 4987.62 326.055  11
  -6  -3   3 4326.57 336.092   9
  -6  -3   3 5556.09 391.876   4
   6   3  -2 1457.89 216.785   6
  -6  -3   2 1214.14 146.984  11
  -6  -3   2 1638.68 149.824   2
  -6  -3   2 1450.79 181.772   9
  -6  -3   2 1722.52 203.104   4
   6   3  -1 3057.83 316.727   6
  -6  -3   1 2730.04 200.795  11
  -6  -3   1 3662.32 229.745   2
  -6  -3   1 3139.46 253.448   9
  -6  -3   1 3651.37 273.105   4
   6   3   0 8130.97 388.669  14
  -6  -3   0 7085.01 335.256  23
   6   3   0 8207.59 514.058   6
   6   3   0 7733.42 365.521  13
  -6  -3   0 7569.96 347.679  22
  -6  -3   0 7566.68 345.706  21
  -6  -3   0 7134.41 305.237  11
  -6  -3   0 7356.89 335.012  19
  -6  -3   0 7716.48 341.515  18
  -6  -3   0 8337.03 357.922   2
  -6  -3   0 7361.51 370.633   4
  -6  -3   0 7912.85 400.291   9
   6   3   0 7634.93 374.056  15
   6   3   1 37.3862 37.9781  15
  -6  -3  -1 9.04406 25.1314   2
   6   3   1 48.0225 66.2921  14
  -6  -3  -1-7.36722 32.4951  23
   6   3   1 55.8972 30.3756   1
  -6  -3  -1 7.30949 29.8959  22
   6   3   1 48.3588 64.0459   6
   6   3   1-9.54471 27.3327  13
  -6  -3  -1 21.2459 33.5418  21
  -6  -3  -1 30.4905 20.3245  11
  -6  -3  -1 70.3294 40.2871  19
  -6  -3  -1 60.7751 35.3211  18
  -6  -3  -1 37.9294 33.4861   9
   6   3   1-18.9857 38.4829  16
  -6  -3  -1 46.7763 43.4552   4
   6   3   2 2380.29 211.510  14
  -6  -3  -2 2349.21 201.171  23
  -6  -3  -2 2269.77 199.048  22
  -6  -3  -2 2254.85 200.438  21
  -6  -3  -2 2212.11 120.691  11
  -6  -3  -2 2416.43 204.265  19
  -6  -3  -2 2364.60 199.295  18
  -6  -3  -2 2653.23 199.440   2
   6   3   2 2409.35 274.628   6
  -6  -3  -2 2400.21 199.181   9
   6   3   2 2637.88 218.396  13
   6   3   2 2083.41 244.889  16
   6   3   2 2302.65 182.128   1
   6   3   2 2411.59 212.388  15
   6   3   3 20666.6 710.183  14
   6   3   3 22277.1 860.730   6
  -6  -3  -3 20553.6 689.935  23
   6   3   3 21408.7 706.067  13
  -6  -3  -3 20219.8 698.003  22
  -6  -3  -3 20989.3 700.063  21
  -6  -3  -3 19785.6 678.372  19
  -6  -3  -3 17563.4 463.099  10
  -6  -3  -3 20059.3 676.663  18
  -6  -3  -3 23058.0 670.420   2
  -6  -3  -3 20495.2 657.543   9
   6   3   3 20283.3 655.132   1
   6   3   3 20484.6 706.588  15
   6   3   4 931.057 140.233  15
   6   3   4 948.307 139.973  14
  -6  -3  -4 711.793 121.944  23
   6   3   4 851.321 127.226   1
   6   3   4 846.493 165.326   6
  -6  -3  -4 1072.20 149.508  21
  -6  -3  -4 755.495 130.261  22
   6   3   4 846.473 131.754  13
  -6  -3  -4 754.721 124.868  19
  -6  -3  -4 779.887 88.1183  10
  -6  -3  -4 974.165 139.853  18
  -6  -3  -4 909.116 127.924   2
  -6  -3  -4 929.944 125.781   8
   6   3   5 8753.28 460.417  14
   6   3   5 9226.29 545.041   6
  -6  -3  -5 8464.17 446.900  23
   6   3   5 9042.24 470.763  13
  -6  -3  -5 9025.13 469.995  22
  -6  -3  -5 8776.12 462.025  21
  -6  -3  -5 8660.49 454.925  19
  -6  -3  -5 7328.97 337.115  10
  -6  -3  -5 8644.55 454.759  18
  -6  -3  -5 9173.86 431.816   2
  -6  -3  -5 9143.36 426.092   8
   6   3   5 8062.85 431.094   1
   6   3   5 8463.83 452.566  15
   6   3   6 14400.7 633.630  14
   6   3   6 14796.1 712.396   6
  -6  -3  -6 14043.0 618.066  23
   6   3   6 15453.7 652.381  13
  -6  -3  -6 13892.6 627.855  22
  -6  -3  -6 14225.4 628.900  21
  -6  -3  -6 13405.0 608.497  19
  -6  -3  -6 13511.7 611.267  18
  -6  -3  -6 12430.3 499.059  10
  -6  -3  -6 14775.6 564.867   2
  -6  -3  -6 14963.6 585.418   8
   6   3   6 13573.7 620.637   1
   6   3   6 13496.9 614.469  15
   6   3   7 2002.67 231.881  14
   6   3   7 2292.34 282.530   6
  -6  -3  -7 1638.16 210.041  23
  -6  -3  -7 2197.82 245.058  22
  -6  -3  -7 1908.52 227.718  21
   6   3   7 2239.51 246.953  13
  -6  -3  -7 2060.45 235.808  19
  -6  -3  -7 2045.02 232.050  18
  -6  -3  -7 1734.83 184.205  10
  -6  -3  -7 1794.05 194.758   2
  -6  -3  -7 2166.26 224.657   8
   6   3   7 1520.63 207.404   1
   6   3   7 2036.82 237.886  15
   6   3   8 12593.8 639.297  14
   6   3   8 12636.8 680.141   6
  -6  -3  -8 12046.3 619.289  23
   6   3   8 13640.7 663.435  13
  -6  -3  -8 13124.8 661.637  22
  -6  -3  -8 11845.0 623.426  21
  -6  -3  -8 13315.0 651.581  19
  -6  -3  -8 12258.2 626.706  18
  -6  -3  -8 11405.5 541.726  10
  -6  -3  -8 12563.4 558.727   2
  -6  -3  -8 13676.0 627.634   8
   6   3   8 11855.5 652.450   1
   6   3   8 12789.7 642.353  15
   6   3   9 2042.42 259.161  14
   6   3   9 1973.84 290.940   7
   6   3   9 1831.89 251.902   6
  -6  -3  -9 1823.19 245.621  23
   6   3   9 2354.82 278.738  13
  -6  -3  -9 1809.73 247.698  22
  -6  -3  -9 1938.88 256.563  21
   6   3   9 1827.57 212.948  12
  -6  -3  -9 1953.33 253.607  19
  -6  -3  -9 1514.37 224.169  18
  -6  -3  -9 1786.82 220.287  10
  -6  -3  -9 2061.46 226.214   2
  -6  -3  -9 2161.70 254.585   8
   6   3   9 2254.23 277.412  15
   6   3   9 1839.63 275.251   1
   6   3  10 104.940 73.8757  15
   6   3  10 270.313 111.389   7
   6   3  10 115.081 76.2444  14
  -6  -3 -10 222.385 84.9364   2
  -6  -3 -10 304.052 111.861  22
   6   3  10 211.853 92.9065  13
   6   3  10 171.275 77.8196  12
  -6  -3 -10 191.549 87.3786  21
   6   3  10 231.502 126.658   1
  -6  -3 -10 49.0193 54.2105  19
  -6  -3 -10 262.543 104.052  18
  -6  -3 -10 159.703 93.6547  10
  -6  -3 -10-15.6777 44.5654  23
  -6  -3 -10-5.10020 68.0855   8
   6   3  11 7.12906 77.5520  15
   6   3  11-176.173 108.749   7
   6   3  11 35.5146 68.1951  14
  -6  -3 -11-107.968 76.9387  22
   6   3  11 63.1735 66.4175  13
  -6  -3 -11 48.8816 46.2151  21
   6   3  11 170.327 96.2537  12
  -6  -3 -11-84.3404 74.5456  19
   6   3  11 36.7199 79.3863   1
  -6  -3 -11 0.87051 77.3618  18
  -6  -3 -11-38.1489 56.5158  23
  -6  -3 -11 56.3363 54.8095  10
  -6  -3 -11 96.3127 77.3816   8
   6   3  12 103.845 67.6619  15
   6   3  12 106.210 95.8021   7
   6   3  12 234.338 113.599  14
  -6  -3 -12 60.4575 82.5021  23
  -6  -3 -12 162.418 93.3184  22
   6   3  12 84.9091 66.7902  13
  -6  -3 -12 165.697 96.2146  21
   6   3  12 62.3451 61.3104  12
  -6  -3 -12 123.629 82.3443  19
  -6  -3 -12 111.900 80.3635  18
  -6  -3 -12 47.2330 74.4997  10
   6   3  12 152.840 87.8678   1
  -6  -3 -12 256.368 108.755   8
   6   4  -6 2037.32 272.601   5
  -6  -4   6 1716.77 252.474   9
  -6  -4   6 2401.68 309.931   4
   6   4  -5 11101.0 617.351   5
  -6  -4   5 9483.68 569.807   9
   6   4  -4-25.2871 48.6344   6
   6   4  -4 3.77108 37.2419   5
  -6  -4   4-50.4640 45.8802   9
  -6  -4   4 111.022 86.6970   4
   6   4  -3 2867.73 309.899   6
   6   4  -3 2241.84 260.159  20
   6   4  -3 2625.00 268.003   5
  -6  -4   3 3273.51 280.390   9
  -6  -4   3 3371.63 303.366   4
  -6  -4   2 508.239 91.4344   2
   6   4  -2 900.356 172.046   6
   6   4  -2 772.156 138.406   5
  -6  -4   2 778.207 129.746   9
  -6  -4   2 883.974 147.820   4
  -6  -4   1 59.1984 43.1073   2
  -6  -4   1-20.0201 27.7085  23
  -6  -4   1 15.7791 36.3898  22
   6   4  -1-67.4085 70.4198   6
  -6  -4   1 7.70014 26.0097  21
  -6  -4   1-17.0281 22.0976  19
  -6  -4   1 39.3171 42.1788   9
  -6  -4   1 88.1378 56.8693   4
   6   4   0 1826.75 198.595  14
   6   4   0 1988.88 245.309   6
   6   4   0 1916.38 189.766  13
  -6  -4   0 1886.52 175.485  22
  -6  -4   0 2057.99 181.662  21
  -6  -4   0 1996.13 175.611  19
  -6  -4   0 1728.42 167.454  23
  -6  -4   0 2210.51 190.199   2
  -6  -4   0 1960.00 187.712   4
  -6  -4   0 1773.70 181.597   9
   6   4   0 1937.68 194.079  17
   6   4   0 1673.86 187.060  15
   6   4   1 10910.4 498.854  14
  -6  -4  -1 10018.7 438.900  23
   6   4   1 10754.8 580.486   6
   6   4   1 10175.9 465.958  13
  -6  -4  -1 9832.06 443.393  22
  -6  -4  -1 10186.6 442.970  21
  -6  -4  -1 10433.9 439.605  19
  -6  -4  -1 10881.7 445.184   2
  -6  -4  -1 10717.7 424.138   4
  -6  -4  -1 10612.0 451.795   9
   6   4   1 10094.8 360.646   1
   6   4   1 9898.72 477.174  15
   6   4   2 9054.93 450.621  14
   6   4   2 8947.15 532.145   6
  -6  -4  -2 8354.72 409.526  23
   6   4   2 9002.17 436.567  13
  -6  -4  -2 8483.32 418.809  22
  -6  -4  -2 8515.00 413.583  21
  -6  -4  -2 8422.57 406.032  19
  -6  -4  -2 7941.21 283.197  10
  -6  -4  -2 9271.99 411.482   2
  -6  -4  -2 8957.23 415.639  18
  -6  -4  -2 9206.96 351.767   4
  -6  -4  -2 8754.45 403.372   9
   6   4   2 9197.55 356.485   1
   6   4   2 8930.13 450.335  15
   6   4   3 3426.15 275.514  14
   6   4   3 3613.40 334.532   6
  -6  -4  -3 3196.91 252.093  23
   6   4   3 3117.37 258.234  13
  -6  -4  -3 3332.61 262.243  22
  -6  -4  -3 3101.05 251.185  21
  -6  -4  -3 3072.71 246.372  19
  -6  -4  -3 2601.55 165.571  10
  -6  -4  -3 3536.23 246.034   2
  -6  -4  -3 3451.66 258.214  18
  -6  -4  -3 3088.06 235.392   9
   6   4   3 3418.40 223.789   1
   6   4   3 3268.27 269.290  15
   6   4   4 23745.5 821.112  14
   6   4   4 25755.4 974.073   6
  -6  -4  -4 23535.1 793.617  23
   6   4   4 24018.6 806.320  13
  -6  -4  -4 24148.3 808.887  22
  -6  -4  -4 23829.3 800.649  21
  -6  -4  -4 23103.9 783.250  19
  -6  -4  -4 21656.3 626.085  10
  -6  -4  -4 24998.0 748.133   2
  -6  -4  -4 24100.2 792.488  18
   6   4   4 23711.9 718.728   1
  -6  -4  -4 24462.6 738.906   8
   6   4   4 23800.4 818.220  15
   6   4   5 9845.57 512.335  14
   6   4   5 10544.9 602.042   6
  -6  -4  -5 9728.94 491.764  23
   6   4   5 10051.5 502.099  13
  -6  -4  -5 9593.16 495.545  22
  -6  -4  -5 9888.40 499.618  21
  -6  -4  -5 9196.17 479.267  19
  -6  -4  -5 8875.08 389.992  10
  -6  -4  -5 10447.8 451.053   2
  -6  -4  -5 9757.09 488.252  18
  -6  -4  -5 10273.8 454.513   8
   6   4   5 9804.00 455.076   1
   6   4   5 9793.41 505.957  15
   6   4   6 277.229 85.8621  15
  -6  -4  -6 141.544 59.4168   2
   6   4   6 170.973 74.7852  14
   6   4   6 154.078 59.8299   1
  -6  -4  -6 139.386 72.8893  23
   6   4   6 310.432 97.1833   6
  -6  -4  -6 196.782 84.0559  22
   6   4   6 231.385 88.6860  13
  -6  -4  -6 298.757 93.2613  21
  -6  -4  -6 29.1313 39.7827  19
  -6  -4  -6 74.4743 54.0556  18
  -6  -4  -6 66.7756 45.9254  10
  -6  -4  -6 247.793 72.7069   8
   6   4   7 9052.58 523.631  14
   6   4   7 8907.82 577.578   6
  -6  -4  -7 8853.25 504.346  23
   6   4   7 9334.15 522.761  13
  -6  -4  -7 9063.24 517.573  22
  -6  -4  -7 8274.27 495.939  21
  -6  -4  -7 8427.01 491.767  19
  -6  -4  -7 7907.95 480.463  18
  -6  -4  -7 7798.24 419.580  10
  -6  -4  -7 9538.48 459.027   2
  -6  -4  -7 8696.00 456.270   8
   6   4   7 8657.47 494.189   1
   6   4   7 8849.46 514.554  15
   6   4   8 14645.7 711.064  14
   6   4   8 13669.8 740.999   6
   6   4   8 15406.7 713.009  13
  -6  -4  -8 13805.2 684.293  22
  -6  -4  -8 13472.1 674.232  21
  -6  -4  -8 13962.7 682.107  23
  -6  -4  -8 12960.8 653.229  19
  -6  -4  -8 13803.5 670.726  18
  -6  -4  -8 12709.5 585.588  10
  -6  -4  -8 15207.0 619.988   2
  -6  -4  -8 14141.1 619.318   8
   6   4   8 14643.6 705.845   1
   6   4   8 14236.3 694.727  15
   6   4   9 478.346 132.925  15
  -6  -4  -9 370.402 101.107   2
   6   4   9 323.853 114.610  14
   6   4   9 337.172 144.281   7
  -6  -4  -9 361.250 115.532  23
   6   4   9 284.457 120.811   6
  -6  -4  -9 353.836 123.562  22
   6   4   9 258.806 114.162   1
   6   4   9 255.069 92.8288  13
   6   4   9 186.298 72.3175  12
  -6  -4  -9 407.049 123.026  21
  -6  -4  -9 283.216 103.081  19
  -6  -4  -9 205.250 86.3824  18
  -6  -4  -9 352.848 107.629  10
  -6  -4  -9 240.145 91.2746   8
   6   4  10 113.043 78.9124  15
   6   4  10 153.309 130.546   7
   6   4  10 117.863 82.8945  14
  -6  -4 -10 268.974 89.0759   2
  -6  -4 -10 70.4629 67.8690  23
   6   4  10 206.542 101.116   6
  -6  -4 -10 251.384 102.448  22
   6   4  10 296.393 109.010  13
   6   4  10 148.352 103.782   1
  -6  -4 -10 161.792 86.8195  21
   6   4  10 269.220 93.7945  12
  -6  -4 -10 153.058 81.2892  19
  -6  -4 -10 199.193 91.5586  18
  -6  -4 -10 278.220 102.472  10
  -6  -4 -10 79.8950 79.6672   8
   6   4  11 1049.72 212.010  15
   6   4  11 1031.01 223.036   7
   6   4  11 1133.08 224.671  14
  -6  -4 -11 997.604 199.757  22
  -6  -4 -11 920.978 199.017  23
   6   4  11 1072.67 205.336  13
  -6  -4 -11 1095.46 221.443  21
   6   4  11 790.065 162.715  12
   6   4  11 954.781 223.688   1
  -6  -4 -11 955.419 201.928  19
  -6  -4 -11 888.837 194.092  18
  -6  -4 -11 819.237 172.314  10
  -6  -4 -11 1031.93 203.877   8
   6   4  12 832.293 206.503  15
   6   4  12 416.775 146.007   7
   6   4  12 730.320 190.733  14
  -6  -4 -12 673.400 179.614  22
  -6  -4 -12 556.308 155.770  23
   6   4  12 760.450 191.769  13
  -6  -4 -12 941.751 202.340  21
   6   4  12 615.149 143.146  12
   6   4  12 751.541 222.184   1
  -6  -4 -12 785.281 187.883  19
  -6  -4 -12 687.557 178.498  18
  -6  -4 -12 506.206 152.168  10
  -6  -4 -12 401.523 140.103   8
   6   5  -6 93.8197 71.4387   5
  -6  -5   6 58.8091 59.7552   9
  -6  -5   6 118.819 86.5775   4
   6   5  -5-29.2814 71.4036   5
  -6  -5   5 88.5224 66.8589   9
  -6  -5   5-46.9373 95.6641   4
   6   5  -4 1031.54 194.606  20
   6   5  -4 1116.93 188.774   5
  -6  -5   4 1008.85 163.554   9
  -6  -5   4 1155.77 201.524   4
   6   5  -3 12586.2 633.868   6
   6   5  -3 11561.2 645.072  20
   6   5  -3 12641.5 610.538   5
  -6  -5   3 11769.6 550.792   9
  -6  -5   3 13276.7 634.049   4
  -6  -5   2 23.1109 36.8712   2
   6   5  -2-10.3056 53.3152   6
   6   5  -2 2.37099 39.1885   5
  -6  -5   2-25.8668 38.7613   9
  -6  -5   2 74.9072 60.8253   4
  -6  -5   1 203.452 65.4073   2
   6   5  -1 169.976 81.3220  14
  -6  -5   1 263.385 73.1367  23
  -6  -5   1 184.291 66.0070  22
   6   5  -1 261.385 82.2727  13
   6   5  -1 197.218 88.1148   6
  -6  -5   1 300.841 74.0270  21
  -6  -5   1 303.272 77.8693  19
   6   5  -1 229.230 73.5270   5
  -6  -5   1 230.636 72.5021   9
   6   5  -1 86.8981 45.5491  17
  -6  -5   1 373.700 92.8122   4
   6   5  -1 185.915 84.8693  15
   6   5   0 1724.14 212.353  14
  -6  -5   0 1997.74 193.014  23
   6   5   0 2170.22 256.192   6
   6   5   0 1967.98 213.196  13
  -6  -5   0 1486.62 169.329  22
  -6  -5   0 1993.17 192.661  21
  -6  -5   0 1927.63 185.883  19
   6   5   0 2124.94 203.348   5
  -6  -5   0 2153.85 207.692   2
  -6  -5   0 2239.71 200.512   9
  -6  -5   0 2022.32 198.478   4
   6   5   0 2013.83 214.209  17
   6   5   0 2039.74 226.742  15
   6   5   1 93.3910 62.6764  15
  -6  -5  -1 76.5201 46.5169   2
   6   5   1 44.1398 62.8227  14
  -6  -5  -1 117.139 52.2623  22
   6   5   1 131.722 72.9387   6
   6   5   1-9.10750 44.7351  13
  -6  -5  -1 71.8787 42.6836  21
  -6  -5  -1 136.474 52.4791  19
  -6  -5  -1 75.7446 41.7135  23
  -6  -5  -1 153.440 56.7274   9
   6   5   1 121.869 41.9253   1
   6   5   1 58.9810 54.6626  17
  -6  -5  -1 94.0985 50.4461   4
   6   5   2 8313.10 467.208  14
   6   5   2 9878.83 560.547   6
  -6  -5  -2 8051.72 425.719  23
   6   5   2 8640.74 457.220  13
  -6  -5  -2 8431.39 437.270  22
  -6  -5  -2 8304.07 430.120  21
  -6  -5  -2 8377.01 425.141  19
  -6  -5  -2 9194.29 452.558   2
  -6  -5  -2 8253.66 340.484  10
  -6  -5  -2 9120.47 354.139   4
   6   5   2 9018.82 367.346   1
  -6  -5  -2 9431.72 424.556   9
   6   5   2 9084.11 472.299  17
   6   5   2 8444.33 470.149  15
   6   5   3 58042.2 1485.17  14
   6   5   3 64040.4 1663.01   6
  -6  -5  -3 54169.3 1385.58  23
   6   5   3 58190.5 1439.36  13
  -6  -5  -3 54339.9 1386.82  21
  -6  -5  -3 53889.9 1368.36  19
  -6  -5  -3 60863.0 1404.62   2
  -6  -5  -3 52047.2 1202.46  10
  -6  -5  -3 55219.7 1379.82  18
  -6  -5  -3 54405.6 1118.42   4
   6   5   3 58706.2 1267.58   1
  -6  -5  -3 53949.2 1391.03  22
   6   5   3 55550.9 1460.85  15
   6   5   4 96397.2 2181.06  14
   6   5   4 108070. 2422.28   6
  -6  -5  -4 93289.3 2108.19  23
   6   5   4 96217.2 2141.24  13
  -6  -5  -4 95078.8 2131.62  22
  -6  -5  -4 95176.7 2119.35  21
  -6  -5  -4 94819.2 2100.26  19
  -6  -5  -4 104793. 2093.85   2
  -6  -5  -4 89451.5 1920.92  10
  -6  -5  -4 96924.0 2109.94  18
   6   5   4 99973.2 1993.02   1
   6   5   4 94985.5 2170.22  15
   6   5   5 1465.29 201.582  14
   6   5   5 1478.48 194.478  13
  -6  -5  -5 1497.62 195.512  22
   6   5   5 1488.16 229.090   6
  -6  -5  -5 1417.78 187.697  21
  -6  -5  -5 1607.00 195.717  19
  -6  -5  -5 1489.02 174.780   2
  -6  -5  -5 1251.04 150.366  10
  -6  -5  -5 1540.74 192.512  18
   6   5   5 1362.18 161.352   1
  -6  -5  -5 1444.13 165.235   8
   6   5   5 1403.03 199.728  15
  -6  -5  -5 1425.58 188.287  23
   6   5   6 142.156 76.7115  15
   6   5   6 127.122 51.6234   1
  -6  -5  -6 235.054 60.8478   2
   6   5   6 229.655 92.8714  14
  -6  -5  -6 306.850 101.833  22
  -6  -5  -6 170.527 75.9646  23
   6   5   6 246.586 121.251   6
   6   5   6 261.699 87.8685  13
  -6  -5  -6 230.704 66.0525  21
  -6  -5  -6 330.080 95.0026  19
  -6  -5  -6 300.961 91.8019  18
  -6  -5  -6 172.226 53.3301  10
  -6  -5  -6 359.534 90.9048   8
   6   5   7 56.4130 57.8884  15
  -6  -5  -7-4.07637 38.9850   2
   6   5   7 14.6123 45.2821   1
   6   5   7 23.6191 56.2716  14
  -6  -5  -7 30.3675 35.6281  23
   6   5   7 182.010 101.340   6
   6   5   7 157.678 83.1373  13
  -6  -5  -7-11.8510 47.4059  21
  -6  -5  -7 47.6077 46.3159  19
  -6  -5  -7 52.1555 52.9733  18
  -6  -5  -7 6.80247 46.0325  10
  -6  -5  -7 157.697 82.8487  22
  -6  -5  -7-26.9758 48.4652   8
   6   5   8-34.2116 46.6564  15
  -6  -5  -8 21.6978 30.7929   2
   6   5   8 132.376 96.6188  14
   6   5   8-4.71776 56.5024   1
  -6  -5  -8 37.2334 46.2968  23
   6   5   8-16.9529 73.9296   6
  -6  -5  -8 79.0121 55.5838  22
   6   5   8 37.7996 54.9275  13
   6   5   8-45.5960 72.3672  12
  -6  -5  -8-1.24934 43.0999  21
  -6  -5  -8 20.3117 44.2889  19
  -6  -5  -8 11.1496 40.0335  18
  -6  -5  -8 78.7940 55.5649  10
  -6  -5  -8 3.32075 37.7017   8
   6   5   9 4662.95 475.516   7
   6   5   9 4072.24 394.723  14
   6   5   9 4445.44 438.575   6
  -6  -5  -9 4855.11 408.969  23
   6   5   9 4486.08 406.160  13
  -6  -5  -9 4953.27 421.224  22
  -6  -5  -9 4738.20 409.098  21
   6   5   9 4671.48 361.628  12
  -6  -5  -9 4528.73 392.278  19
  -6  -5  -9 4299.28 384.101  18
  -6  -5  -9 4532.09 367.295  10
  -6  -5  -9 5576.00 370.371   2
  -6  -5  -9 4590.47 353.554   8
   6   5   9 4790.84 407.196   1
   6   5   9 4608.34 416.083  15
   6   5  10 415.702 129.215  15
  -6  -5 -10 418.161 105.452   2
   6   5  10 212.983 122.420  14
   6   5  10 367.704 136.472   7
  -6  -5 -10 223.991 99.0853  23
   6   5  10 289.101 110.757   1
  -6  -5 -10 336.400 124.042  22
   6   5  10 323.759 116.831  13
  -6  -5 -10 523.661 145.019  21
   6   5  10 563.023 138.207  12
  -6  -5 -10 343.595 128.686  19
  -6  -5 -10 366.911 126.191  18
  -6  -5 -10 509.534 134.290  10
  -6  -5 -10 274.678 99.6665   8
   6   5  11 3417.10 428.020   7
   6   5  11 3801.50 422.849  14
  -6  -5 -11 4337.94 430.323  23
   6   5  11 4563.36 436.765  13
  -6  -5 -11 4307.41 426.822  22
  -6  -5 -11 4576.93 440.809  21
   6   5  11 5006.90 399.721  12
  -6  -5 -11 4641.89 439.858  19
  -6  -5 -11 4445.12 434.749  18
  -6  -5 -11 4391.01 414.185  10
  -6  -5 -11 4798.59 403.146   8
   6   5  11 4186.88 452.179   1
   6   5  11 4561.51 459.167  15
   6   5  12 1881.26 307.678  15
   6   5  12 1565.56 293.081   7
   6   5  12 1696.44 291.753  14
  -6  -5 -12 1901.19 291.801  23
  -6  -5 -12 1722.72 287.806  22
   6   5  12 2096.61 308.960  13
  -6  -5 -12 1483.08 263.178  21
   6   5  12 1329.06 211.585  12
   6   5  12 1591.09 320.582   1
  -6  -5 -12 1764.17 274.447  19
  -6  -5 -12 1715.43 275.309  18
  -6  -5 -12 1816.07 287.330  10
  -6  -5 -12 1627.61 246.874   8
   6   6  -6 57.9321 68.1559   5
  -6  -6   6 204.334 94.3324   4
   6   6  -5 57.1839 46.6505  20
   6   6  -5 152.876 81.6302   5
  -6  -6   5 199.929 75.2019   9
  -6  -6   5-0.84596 78.7708   4
   6   6  -4 1229.04 222.340  20
   6   6  -4 1153.48 194.974   5
  -6  -6   4 1048.25 165.628   9
  -6  -6   4 1517.96 228.615   4
   6   6  -3 1167.21 206.766  20
   6   6  -3 1240.28 191.202   5
  -6  -6   3 1200.06 163.538   9
  -6  -6   3 1255.71 197.707   4
   6   6  -2 506.400 125.491   6
   6   6  -2 647.488 133.037   5
  -6  -6   2 535.429 104.832   9
  -6  -6   2 606.851 130.306   4
  -6  -6   2 521.948 114.792   2
   6   6  -1 5292.60 412.634  14
  -6  -6   1 5679.99 354.905  23
   6   6  -1 6365.21 437.299   6
   6   6  -1 5880.55 409.749  13
  -6  -6   1 5890.18 363.574  22
  -6  -6   1 6152.43 363.482  21
  -6  -6   1 6181.19 396.410   2
   6   6  -1 6074.82 385.149   5
   6   6  -1 5671.56 404.400  18
  -6  -6   1 6965.54 370.966   9
   6   6  -1 5773.42 406.396  17
  -6  -6   1 7379.91 417.449   4
   6   6  -1 5709.83 420.662  15
   6   6   0 8051.74 514.466  14
   6   6   0 9255.54 541.869   6
  -6  -6   0 8810.16 458.960  23
   6   6   0 8766.86 499.636  13
  -6  -6   0 8049.84 447.538  22
  -6  -6   0 8730.25 453.876  21
  -6  -6   0 8639.78 445.158  19
  -6  -6   0 9119.20 491.514   2
   6   6   0 9227.86 455.308   5
   6   6   0 8921.10 368.483   1
  -6  -6   0 9757.72 442.412   9
  -6  -6   0 9793.30 455.680   4
   6   6   0 9070.48 511.461  17
   6   6   0 8393.61 512.008  15
   6   6   1 358.992 108.546  15
   6   6   1 232.094 96.2136  14
  -6  -6  -1 283.093 85.6305  23
  -6  -6  -1 302.240 87.2934  22
   6   6   1 326.290 107.363   6
   6   6   1 236.513 94.5266  13
  -6  -6  -1 245.225 78.1186  21
  -6  -6  -1 211.864 67.5140  19
   6   6   1 230.420 67.6567   5
   6   6   1 252.641 63.3695   1
  -6  -6  -1 268.674 71.3546   9
   6   6   1 138.899 66.4276  17
  -6  -6  -1 270.827 71.3308   4
  -6  -6  -1 297.558 99.1631   2
   6   6   2 4500.17 371.879  14
   6   6   2 4771.61 399.061   6
  -6  -6  -2 4411.82 324.871  23
   6   6   2 4265.93 339.429  13
  -6  -6  -2 4417.33 330.465  22
  -6  -6  -2 4210.58 317.276  21
  -6  -6  -2 4212.82 314.312  19
  -6  -6  -2 4717.61 346.575   2
   6   6   2 4472.98 277.335   5
  -6  -6  -2 4178.06 267.368  10
   6   6   2 4710.34 270.891   1
  -6  -6  -2 4410.43 249.975   4
  -6  -6  -2 4677.42 297.981   9
   6   6   2 4030.48 334.638  17
   6   6   2 4195.56 353.976  15
  -6  -6  -3 952.082 156.136   2
   6   6   3 1033.83 177.247  15
   6   6   3 1064.73 178.803  14
  -6  -6  -3 967.496 150.314  23
  -6  -6  -3 1230.40 176.522  22
   6   6   3 1298.17 211.489   6
   6   6   3 979.624 163.913  13
  -6  -6  -3 1044.23 162.135  21
  -6  -6  -3 1079.05 163.289  19
   6   6   3 985.534 122.635   5
  -6  -6  -3 1036.85 132.616  10
   6   6   3 1069.23 132.345   1
   6   6   3 875.307 158.363  17
   6   6   4 40.0764 70.8088  15
  -6  -6  -4-32.1762 43.1882   2
   6   6   4-3.05077 59.3281  14
  -6  -6  -4-0.22499 38.4425  23
   6   6   4 1.12992 62.2997   6
  -6  -6  -4 2.97471 37.8706  22
   6   6   4-19.7241 56.4350  13
  -6  -6  -4 34.9288 34.0884  21
  -6  -6  -4 36.5369 48.0781  19
  -6  -6  -4 11.8138 42.1418  10
   6   6   4 2.98278 23.5179   5
   6   6   4 50.7642 46.8342  17
   6   6   4-9.78643 32.6359   1
   6   6   5 14756.3 711.441  14
   6   6   5 16729.5 818.851   6
  -6  -6  -5 15073.8 674.242  23
   6   6   5 15358.9 689.338  13
  -6  -6  -5 15210.0 680.753  22
  -6  -6  -5 15192.5 676.177  21
  -6  -6  -5 14504.0 653.663  19
  -6  -6  -5 16506.5 660.465   2
  -6  -6  -5 15043.1 594.317  10
   6   6   5 17402.6 624.240   1
   6   6   5 14811.1 709.680  15
   6   6   6 4437.08 383.282  14
   6   6   6 4676.11 438.045   6
  -6  -6  -6 4647.33 365.727  23
   6   6   6 4538.92 366.253  13
  -6  -6  -6 4384.24 358.230  22
  -6  -6  -6 4432.41 357.127  21
  -6  -6  -6 4635.23 360.902  19
  -6  -6  -6 4457.50 338.241   2
  -6  -6  -6 4477.20 317.972  10
  -6  -6  -6 4844.89 369.401  18
   6   6   6 4438.95 318.946   1
  -6  -6  -6 4334.28 302.569   8
   6   6   6 4215.69 372.072  15
   6   6   7 788.018 162.944  15
   6   6   7 927.938 178.689  14
  -6  -6  -7 1089.69 182.936  23
   6   6   7 1159.09 226.531   6
  -6  -6  -7 1051.95 181.748  22
   6   6   7 937.724 174.249  13
  -6  -6  -7 986.478 171.782  21
  -6  -6  -7 918.011 167.597  19
  -6  -6  -7 1183.56 166.255   2
  -6  -6  -7 850.549 163.641  18
  -6  -6  -7 935.230 155.703  10
  -6  -6  -7 1337.29 172.359   8
   6   6   7 901.586 154.624   1
   6   6   8 2496.33 300.313  14
   6   6   8 1969.93 295.120   6
  -6  -6  -8 1895.73 251.442  23
  -6  -6  -8 2396.57 282.749  22
   6   6   8 1987.72 262.843  13
  -6  -6  -8 2098.53 261.778  21
   6   6   8 2501.36 263.486  12
  -6  -6  -8 1813.23 242.227  19
  -6  -6  -8 2099.46 225.076   2
  -6  -6  -8 2117.97 240.562  10
  -6  -6  -8 2043.62 258.072  18
   6   6   8 2354.01 260.490   1
  -6  -6  -8 2332.10 239.416   8
   6   6   8 2159.98 288.917  15
   6   6   9 696.189 170.525  15
  -6  -6  -9 889.578 150.339   2
   6   6   9 655.297 148.871   1
   6   6   9 727.410 173.070  14
   6   6   9 697.951 192.802   7
  -6  -6  -9 521.308 141.141  23
   6   6   9 895.584 216.331   6
  -6  -6  -9 810.985 169.522  22
   6   6   9 704.436 161.372  13
  -6  -6  -9 589.445 148.462  21
   6   6   9 677.772 138.028  12
  -6  -6  -9 612.449 148.012  19
  -6  -6  -9 787.476 165.297  18
  -6  -6  -9 727.420 152.366  10
  -6  -6  -9 568.537 129.127   8
   6   6  10 1653.52 275.216  15
   6   6  10 1875.32 293.529  14
   6   6  10 1641.53 296.622   7
  -6  -6 -10 1969.39 278.117  23
   6   6  10 2259.15 299.679  13
  -6  -6 -10 1868.08 269.097  22
  -6  -6 -10 1705.12 258.958  21
   6   6  10 2346.57 269.093  12
  -6  -6 -10 2077.79 281.051  19
  -6  -6 -10 1903.62 269.878  18
  -6  -6 -10 1774.80 253.048  10
  -6  -6 -10 1698.08 223.572   8
   6   6  10 2225.93 291.473   1
   6   6  11 1341.05 251.087  15
   6   6  11 1018.65 252.240   7
   6   6  11 1104.59 233.920  14
  -6  -6 -11 1258.01 240.280  23
   6   6  11 1687.28 276.983   1
  -6  -6 -11 990.642 208.831  22
   6   6  11 903.789 206.558  13
  -6  -6 -11 1110.06 225.671  21
   6   6  11 1594.25 238.948  12
  -6  -6 -11 1183.64 228.378  19
  -6  -6 -11 1371.45 239.650  10
  -6  -6 -11 950.924 178.090   8
   6   7  -5 280.623 120.375  20
  -6  -7   5 177.299 88.4520   4
   6   7  -4 983.918 210.743  20
   6   7  -4 1307.83 216.066   5
  -6  -7   4 1445.02 230.653   4
   6   7  -3 342.869 125.822  20
   6   7  -3 374.135 116.965   5
  -6  -7   3 197.812 73.6036   9
  -6  -7   3 219.791 98.5024   4
   6   7  -2-134.785 83.5256  20
   6   7  -2 45.8188 53.8036   5
  -6  -7   2 16.8550 35.1106   9
  -6  -7   2-6.66467 67.2910   4
  -6  -7   2 40.7941 47.6364   2
   6   7  -1 5025.71 438.741  14
   6   7  -1 5877.12 428.136   6
  -6  -7   1 5070.39 362.546  23
   6   7  -1 5062.61 409.072  13
  -6  -7   1 5226.60 371.122  22
  -6  -7   1 5132.88 360.622  21
  -6  -7   1 4857.03 382.147   2
   6   7  -1 5589.62 381.184   5
   6   7  -1 5196.01 418.102  18
  -6  -7   1 6033.69 345.073   9
   6   7  -1 5362.84 424.383  17
  -6  -7   1 6373.56 406.207   4
   6   7  -1 4887.86 421.230  15
   6   7   0 3013.09 336.343  14
   6   7   0 3216.24 317.690   6
  -6  -7   0 2726.41 265.359  23
   6   7   0 2852.63 303.648  13
  -6  -7   0 2653.44 264.136  22
  -6  -7   0 2719.60 263.037  21
  -6  -7   0 2865.71 296.279   2
   6   7   0 3165.27 270.780   5
   6   7   0 2882.02 223.226   1
  -6  -7   0 3049.44 240.402   9
   6   7   0 2727.60 300.865  17
  -6  -7   0 3096.38 262.856   4
   6   7   0 3115.61 332.672  15
   6   7   1 10607.3 642.064  14
   6   7   1 12955.4 665.395   6
  -6  -7  -1 10527.4 551.673  23
   6   7   1 11082.3 610.504  13
  -6  -7  -1 10346.0 554.346  22
  -6  -7  -1 10412.8 547.826  21
  -6  -7  -1 10018.2 532.280  19
  -6  -7  -1 10882.8 593.597   2
   6   7   1 10022.1 484.121   5
  -6  -7  -1 11548.3 507.344  10
   6   7   1 11693.4 480.816   1
  -6  -7  -1 12766.9 509.361   9
   6   7   1 10654.3 609.161  17
  -6  -7  -1 12343.8 506.734   4
   6   7   1 10858.4 635.556  15
   6   7   2 73.1508 73.3708  15
   6   7   2-53.5414 67.0241  14
   6   7   2 45.6024 60.3351   6
  -6  -7  -2 95.4650 62.3460  22
   6   7   2-72.3503 52.7998  13
  -6  -7  -2 34.5334 46.2355  21
  -6  -7  -2-11.6349 38.9790  23
  -6  -7  -2 18.9532 42.7036  19
  -6  -7  -2-120.986 59.1987  10
   6   7   2-7.89869 35.7897   1
   6   7   2-21.0862 33.5927   5
  -6  -7  -2-4.95369 30.9507   9
   6   7   2 20.4344 46.1982  17
  -6  -7  -2-26.6834 42.2807   2
   6   7   3 328.444 121.626  15
   6   7   3 326.237 115.852  14
  -6  -7  -3 361.149 103.084  23
   6   7   3 381.209 127.059   6
  -6  -7  -3 264.468 95.3317  22
   6   7   3 265.102 98.2065  13
  -6  -7  -3 310.457 94.2119  21
  -6  -7  -3 280.230 86.9467  19
  -6  -7  -3 269.429 75.9216  10
   6   7   3 216.812 60.8645   5
   6   7   3 397.054 94.0380   1
   6   7   3 191.988 83.8985  17
  -6  -7  -3 200.714 87.7134   2
   6   7   4 75.5998 64.5264  15
   6   7   4 138.381 89.8055  14
  -6  -7  -4 255.657 84.2161  23
   6   7   4 206.874 101.604   6
  -6  -7  -4 399.559 109.490  22
   6   7   4 158.859 92.0260  13
  -6  -7  -4 159.179 67.6033  21
  -6  -7  -4 185.116 77.9123  19
  -6  -7  -4 220.074 74.1844  10
   6   7   4 197.165 61.6174   5
   6   7   4 209.514 71.2125   1
   6   7   4 204.230 93.9318  17
  -6  -7  -4 331.284 106.803   2
   6   7   5 3691.94 368.942  14
   6   7   5 4378.68 419.923   6
  -6  -7  -5 3521.01 325.951  23
   6   7   5 3848.59 350.721  13
  -6  -7  -5 3990.08 346.273  22
  -6  -7  -5 3599.30 328.022  21
  -6  -7  -5 3894.36 337.387  19
  -6  -7  -5 3881.25 334.763   2
  -6  -7  -5 4025.05 305.724  10
   6   7   5 3524.73 285.522   1
   6   7   5 3637.33 344.793  17
   6   7   5 4178.57 387.838  15
   6   7   6 190.668 92.0018  15
  -6  -7  -6 178.537 79.4465   2
   6   7   6 207.956 100.546  14
  -6  -7  -6 210.666 93.3944  23
   6   7   6 210.432 111.178   6
  -6  -7  -6 260.061 91.6483  22
   6   7   6 57.7548 52.4220  13
  -6  -7  -6 218.872 83.7529  21
  -6  -7  -6 147.858 77.9170  19
  -6  -7  -6 138.322 60.6663  10
   6   7   6 51.9323 56.1033  17
   6   7   6 330.077 94.2393   1
   6   7   7 1162.65 217.278  15
   6   7   7 1114.61 210.308  14
  -6  -7  -7 1197.59 199.477  23
   6   7   7 1364.72 258.185   6
  -6  -7  -7 1491.89 223.282  22
   6   7   7 1098.40 196.047  13
  -6  -7  -7 1441.87 214.016  21
  -6  -7  -7 1416.78 213.324  19
  -6  -7  -7 1231.94 182.684   2
  -6  -7  -7 1328.57 194.002  10
   6   7   7 1324.88 186.226   1
  -6  -7  -7 1364.32 170.933   8
   6   7   7 1071.58 197.208  17
   6   7   8 9609.60 646.835  14
   6   7   8 10721.6 748.912   7
   6   7   8 9648.50 691.797   6
  -6  -7  -8 8940.79 576.470  23
   6   7   8 9281.93 599.198  13
  -6  -7  -8 9081.23 584.977  22
  -6  -7  -8 9606.04 594.503  21
   6   7   8 12092.2 599.482  12
  -6  -7  -8 9624.44 585.394  19
  -6  -7  -8 9831.40 518.104   2
  -6  -7  -8 10146.7 564.814  10
   6   7   8 10314.4 641.050  17
   6   7   8 10666.1 573.718   1
  -6  -7  -8 10347.8 503.905   8
   6   7   8 10089.1 652.694  15
   6   7   9 1750.55 283.050  15
   6   7   9 1643.11 278.049  14
   6   7   9 1746.24 303.936   7
  -6  -7  -9 1738.82 261.136  23
  -6  -7  -9 1498.33 240.934  22
   6   7   9 1307.05 235.646  13
   6   7   9 1926.62 248.802  12
  -6  -7  -9 1373.01 230.442  21
  -6  -7  -9 1854.72 259.192  19
  -6  -7  -9 1511.74 199.973   2
  -6  -7  -9 1713.98 240.942  10
   6   7   9 1689.66 244.755   1
   6   7   9 1328.35 243.629  17
  -6  -7  -9 1447.53 196.587   8
   6   7  10-36.6650 67.5396  15
   6   7  10 50.0975 61.9372   1
   6   7  10 134.582 94.9055  14
   6   7  10 65.3594 82.3170   7
  -6  -7 -10 92.6324 74.4400  23
  -6  -7 -10 7.65656 46.7660  22
   6   7  10 119.638 95.4832  13
  -6  -7 -10 136.971 90.4699  21
   6   7  10 80.3814 81.6001  12
  -6  -7 -10 165.439 69.3462  19
  -6  -7 -10-52.4798 68.5655  10
   6   7  10-5.90334 59.5633  17
  -6  -7 -10 32.2008 57.5762   8
   6   7  11 68.2660 83.0132  15
   6   7  11-16.0553 70.3025  14
   6   7  11-103.597 116.126   7
   6   7  11 27.8855 61.6422   1
  -6  -7 -11 44.1612 67.7777  23
  -6  -7 -11 7.67505 48.5681  22
   6   7  11-231.133 116.601  13
  -6  -7 -11 8.30851 51.5314  21
   6   7  11 147.153 94.9145  12
  -6  -7 -11-0.95755 42.6165  19
  -6  -7 -11-52.8797 71.5623  10
   6   7  11 124.801 99.3249  17
   6   8  -5 924.949 225.130  20
   6   8  -5 769.042 182.600   5
  -6  -8   5 868.481 190.093   4
   6   8  -4 4743.48 488.472  20
   6   8  -4 4920.58 436.824   5
  -6  -8   4 5352.43 460.864   4
   6   8  -3 220.164 119.733  20
   6   8  -3 315.494 98.2406   5
  -6  -8   3 226.045 104.951   4
  -6  -8   3 107.257 63.0712   2
   6   8  -2 1230.03 227.947  20
   6   8  -2 1284.57 204.537   5
  -6  -8   2 1374.26 201.472   4
  -6  -8   2 1025.48 190.889   2
   6   8  -1 1584.07 274.854  14
  -6  -8   1 1416.93 202.531  23
   6   8  -1 1640.23 257.853  13
  -6  -8   1 1513.52 207.994  21
   6   8  -1 1721.83 271.016  20
   6   8  -1 1775.02 224.083   5
   6   8  -1 1585.45 250.369  18
  -6  -8   1 1734.39 181.485   9
  -6  -8   1 1934.60 231.778   4
   6   8  -1 1683.48 260.371  17
  -6  -8   1 1450.74 233.350   2
   6   8  -1 1878.96 297.233  15
   6   8   0 55.9142 95.9095  14
  -6  -8   0 19.6112 40.1297  23
   6   8   0 45.2324 44.4037   6
  -6  -8   0 24.7402 52.6292  22
   6   8   0 115.373 68.3345  13
  -6  -8   0 107.144 68.5723  21
   6   8   0-10.3611 34.9321   1
   6   8   0 9.73870 54.8041   5
   6   8   0-42.3913 73.7384  18
  -6  -8   0-4.87679 26.0102   9
   6   8   0 9.80227 64.0919  17
  -6  -8   0 78.8968 55.4129   4
  -6  -8   0-134.472 78.9768   2
   6   8   0 92.0706 101.153  15
   6   8   1 2475.22 331.269  14
   6   8   1 2492.66 296.684   6
  -6  -8  -1 2193.67 257.781  23
   6   8   1 2240.97 286.410  13
  -6  -8  -1 2055.09 251.378  22
  -6  -8  -1 2173.83 257.166  21
  -6  -8  -1 1918.20 263.034   2
   6   8   1 2325.45 233.873   5
  -6  -8  -1 2848.78 261.820  10
   6   8   1 2374.17 223.333   1
  -6  -8  -1 2677.43 226.281   9
   6   8   1 2179.06 286.453  17
  -6  -8  -1 2447.13 224.902   4
   6   8   1 2077.55 296.394  15
   6   8   2 886.866 190.767  14
  -6  -8  -2 1094.42 187.507  23
   6   8   2 1060.61 200.429   6
  -6  -8  -2 816.154 166.369  22
   6   8   2 977.172 189.981  13
  -6  -8  -2 858.171 165.318  21
  -6  -8  -2 1034.00 177.269  19
  -6  -8  -2 1234.88 171.297  10
   6   8   2 1027.05 147.215   1
   6   8   2 896.959 140.165   5
  -6  -8  -2 1165.60 152.151   9
   6   8   2 957.488 198.700  17
  -6  -8  -2 873.235 177.432   2
   6   8   2 1157.26 219.256  15
   6   8   3 1533.19 263.015  14
   6   8   3 1902.19 274.665   6
  -6  -8  -3 1954.58 245.168  23
   6   8   3 1659.69 245.999  13
  -6  -8  -3 1588.70 227.577  22
  -6  -8  -3 1947.83 248.108  21
  -6  -8  -3 1793.16 231.258  19
   6   8   3 1639.68 176.954   5
  -6  -8  -3 1757.94 244.620   2
  -6  -8  -3 1719.14 204.718  10
   6   8   3 1954.95 211.395   1
   6   8   3 1676.78 249.757  17
   6   8   3 1751.21 278.038  15
   6   8   4 152.093 104.599  15
   6   8   4 258.041 108.365  14
  -6  -8  -4 262.329 95.5137  23
   6   8   4 100.669 88.3530   6
  -6  -8  -4 386.409 116.579  22
   6   8   4 168.049 84.5955  13
  -6  -8  -4 249.671 96.8232  21
  -6  -8  -4 313.876 104.923  19
  -6  -8  -4 188.806 80.8916  10
   6   8   4 345.101 95.3048   1
   6   8   4 232.040 99.4194  17
  -6  -8  -4 378.129 115.498   2
   6   8   5 2928.00 354.153  14
   6   8   5 2931.02 360.473   6
  -6  -8  -5 2037.83 266.758  23
   6   8   5 2485.99 304.603  13
  -6  -8  -5 2372.56 284.654  22
  -6  -8  -5 2536.93 288.103  21
  -6  -8  -5 2263.11 268.983  19
  -6  -8  -5 2534.82 289.508   2
  -6  -8  -5 2743.36 273.155  10
   6   8   5 2439.79 252.420   1
   6   8   5 2520.28 305.554  17
   6   8   5 2401.12 318.624  15
   6   8   6 158.334 87.1224  15
  -6  -8  -6 159.142 73.7493   2
   6   8   6 62.9722 82.3087  14
  -6  -8  -6 189.187 77.4315  23
   6   8   6 66.3915 65.4708   6
  -6  -8  -6 155.145 92.6674  22
   6   8   6 247.384 99.7394  13
  -6  -8  -6 205.235 89.4270  21
  -6  -8  -6 233.997 101.682  19
  -6  -8  -6 279.385 94.6752  10
   6   8   6 272.034 95.7735   1
   6   8   6 239.373 89.7466  17
   6   8   7 1288.71 238.194  15
  -6  -8  -7 1095.11 180.425   2
   6   8   7 1167.21 234.869  14
  -6  -8  -7 1120.43 205.279  23
   6   8   7 990.351 221.806   6
  -6  -8  -7 975.413 191.028  22
   6   8   7 1114.85 215.378  13
  -6  -8  -7 1088.86 200.567  21
   6   8   7 1465.30 204.951  12
  -6  -8  -7 1111.17 200.159  19
  -6  -8  -7 1131.45 183.871  10
   6   8   7 1190.26 224.322  17
   6   8   7 1193.45 186.374   1
   6   8   8-7.79996 92.7638  15
  -6  -8  -8 7.85192 59.7995   2
   6   8   8 118.681 103.252  14
   6   8   8-14.4659 78.1400   7
  -6  -8  -8 84.2132 84.1914  22
   6   8   8-32.6962 55.0180  13
  -6  -8  -8-18.6353 48.9727  21
   6   8   8 18.7208 71.7299  12
  -6  -8  -8-50.8246 59.4701  19
  -6  -8  -8-10.7540 49.1609  23
  -6  -8  -8 7.93734 69.5064  10
  -6  -8  -8 39.7110 34.8908   8
   6   8   8 58.2095 67.8412  17
   6   8   8 113.756 82.5214   1
   6   8   9 793.353 188.444  15
  -6  -8  -9 577.651 131.626   2
   6   8   9 362.206 151.746  14
   6   8   9 511.318 176.207   7
  -6  -8  -9 369.262 126.149  22
  -6  -8  -9 451.167 136.366  23
   6   8   9 532.906 155.621  13
  -6  -8  -9 892.628 194.486  21
   6   8   9 581.075 135.834  12
  -6  -8  -9 510.560 144.427  19
  -6  -8  -9 543.039 140.982  10
   6   8   9 489.931 151.862  17
   6   8   9 463.918 133.177   1
   6   8  10 427.758 156.365  15
   6   8  10 543.495 153.189   1
   6   8  10 851.630 218.129  14
   6   8  10 265.183 138.723   7
  -6  -8 -10 523.414 158.885  23
  -6  -8 -10 798.771 196.891  22
   6   8  10 315.434 134.926  13
  -6  -8 -10 320.357 124.566  21
   6   8  10 403.356 130.240  12
  -6  -8 -10 259.770 96.9929  19
  -6  -8 -10 468.509 153.839  10
   6   8  10 334.426 134.049  17
   6   9  -4 1272.65 264.427  20
   6   9  -4 1268.61 229.342   5
  -6  -9   4 1356.69 244.833   4
   6   9  -3 762.708 191.568  20
   6   9  -3 730.647 167.556   5
  -6  -9   3 1021.00 200.134   4
  -6  -9   3 719.452 175.505   2
   6   9  -2 1649.56 286.516  20
   6   9  -2 1904.77 258.100   5
  -6  -9   2 2244.04 276.167   4
  -6  -9   2 1584.29 253.276   2
   6   9  -1 27.8554 78.9481  14
  -6  -9   1-29.7861 48.0513  23
   6   9  -1-148.270 99.9243  13
  -6  -9   1 45.7599 48.9038  21
   6   9  -1-224.475 112.563  20
   6   9  -1 74.8775 59.0080   5
   6   9  -1-66.3418 77.1433  18
   6   9  -1 62.3396 81.4437  17
  -6  -9   1-68.0612 61.4590   4
  -6  -9   1 44.8665 84.6418   2
   6   9  -1 11.6507 88.0180  15
   6   9   0 1368.77 268.294  14
  -6  -9   0 1189.69 203.108  23
  -6  -9   0 1559.03 238.022  22
   6   9   0 1308.02 243.018  13
  -6  -9   0 1315.24 212.474  21
   6   9   0 1165.06 227.538  20
   6   9   0 1346.63 197.255   5
   6   9   0 1224.36 175.093   1
   6   9   0 1205.57 231.570  18
   6   9   0 1395.48 255.475  17
  -6  -9   0 1475.59 195.430   4
  -6  -9   0 998.655 215.263   2
   6   9   0 1006.65 213.859  15
   6   9   1 464.530 146.016  14
  -6  -9  -1 754.610 162.614  23
   6   9   1 689.731 157.048   6
  -6  -9  -1 619.911 151.575  22
   6   9   1 542.577 154.888  13
  -6  -9  -1 665.220 150.934  21
   6   9   1 474.670 112.789   1
  -6  -9  -1 522.099 124.868  10
   6   9   1 457.361 108.486   5
   6   9   1 462.677 152.067  18
   6   9   1 371.513 142.266  17
  -6  -9  -1 272.990 97.0022   2
   6   9   1 638.932 184.411  15
   6   9   2 933.610 214.582  14
  -6  -9  -2 952.005 181.392  23
   6   9   2 838.805 183.257   6
  -6  -9  -2 954.550 178.678  22
   6   9   2 1014.49 215.183  13
  -6  -9  -2 1001.52 187.069  21
   6   9   2 1152.80 171.167   1
  -6  -9  -2 1227.48 191.640  10
   6   9   2 878.285 147.252   5
   6   9   2 710.971 176.126  18
  -6  -9  -2 1092.87 153.883   9
   6   9   2 1118.44 218.879  17
  -6  -9  -2 952.556 203.746   2
   6   9   2 1231.67 240.477  15
   6   9   3 427.683 163.192  14
  -6  -9  -3 440.612 125.909  23
   6   9   3 668.706 175.764   6
  -6  -9  -3 287.086 98.4289  22
   6   9   3 382.489 133.648  13
  -6  -9  -3 466.330 131.941  21
  -6  -9  -3 375.378 112.135  19
  -6  -9  -3 614.005 142.335  10
   6   9   3 515.503 117.813   1
   6   9   3 441.752 141.621  17
  -6  -9  -3 369.684 135.572   2
   6   9   3 382.355 142.155  15
   6   9   4 115.996 83.0947  14
  -6  -9  -4 114.870 75.7196  23
   6   9   4 232.132 121.411   6
  -6  -9  -4 59.1078 64.2462  22
   6   9   4 340.194 121.220  13
  -6  -9  -4 166.552 69.8670  21
  -6  -9  -4 196.774 80.1453  19
  -6  -9  -4 280.945 104.305  10
   6   9   4 159.205 77.1628   1
   6   9   4 114.823 80.5038  17
  -6  -9  -4 147.443 79.3463   2
   6   9   4 279.072 99.4521  15
   6   9   5 164.535 96.8488  15
   6   9   5 137.953 107.142  14
  -6  -9  -5 97.1303 56.6787  23
   6   9   5 195.712 102.119   6
  -6  -9  -5 1.90842 61.5762  22
   6   9   5 74.3547 78.4317  13
  -6  -9  -5 117.904 84.1262  21
  -6  -9  -5 158.477 90.2920  19
  -6  -9  -5 202.506 92.5483  10
   6   9   5 220.284 88.1947   1
   6   9   5 31.5587 68.5002  17
  -6  -9  -5 64.8518 64.6808   2
   6   9   6 391.064 138.070  15
   6   9   6 360.845 137.311  14
   6   9   6 349.295 157.731   6
  -6  -9  -6 264.022 105.241  23
  -6  -9  -6 458.706 137.268  22
   6   9   6 281.118 143.022  13
  -6  -9  -6 261.524 106.220  21
   6   9   6 404.901 107.406  12
  -6  -9  -6 402.146 129.342  19
  -6  -9  -6 377.405 112.983  10
   6   9   6 347.562 105.067   1
   6   9   6 436.738 146.200  17
  -6  -9  -6 259.910 116.364   2
   6   9   7 654.060 189.620  15
  -6  -9  -7 750.385 162.657   2
   6   9   7 554.277 198.441  14
  -6  -9  -7 766.163 178.513  22
   6   9   7 734.432 191.029  13
  -6  -9  -7 914.097 194.089  21
   6   9   7 1012.59 172.204  12
  -6  -9  -7 875.591 191.376  19
  -6  -9  -7 801.158 184.779  23
  -6  -9  -7 1067.79 190.510  10
   6   9   7 593.069 174.181  17
   6   9   7 782.908 158.937   1
   6   9   8 152.898 87.3974  15
  -6  -9  -8 184.941 85.4104   2
   6   9   8 197.770 111.183  14
   6   9   8 277.257 145.651   7
  -6  -9  -8 272.481 119.908  23
  -6  -9  -8 303.188 102.782  22
   6   9   8 365.210 149.620  13
  -6  -9  -8 228.996 120.397  21
   6   9   8 391.981 121.061  12
  -6  -9  -8 254.736 114.582  19
  -6  -9  -8 145.800 93.5267  10
   6   9   8 334.354 146.237  17
   6   9   8 291.639 98.8817   1
   6   9   9 69.5779 86.5058  15
   6   9   9-190.678 124.478  14
   6   9   9 132.246 105.971   7
  -6  -9  -9 110.686 86.8405  23
  -6  -9  -9 32.1596 60.8259  22
   6   9   9 132.273 95.7603  13
  -6  -9  -9 119.393 95.8861  21
   6   9   9 210.957 100.316  12
  -6  -9  -9 183.257 98.2713  19
  -6  -9  -9 75.4086 67.8026  10
   6   9   9 152.375 95.1006  17
   6   9   9 174.957 98.5927   1
   6  10  -2 1129.20 241.399  20
   6  10  -2 1600.99 249.236   5
  -6 -10   2 1557.17 247.449   4
  -6 -10   2 1064.75 232.467   2
   6  10  -1 846.218 243.892  14
  -6 -10   1 643.214 162.728  23
   6  10  -1 1059.01 237.571  13
  -6 -10   1 753.729 172.051  21
   6  10  -1 921.078 218.781  20
   6  10  -1 712.501 160.540   5
   6  10  -1 778.206 215.376  18
   6  10  -1 900.612 214.113  17
  -6 -10   1 893.199 177.615   4
  -6 -10   1 520.121 156.805   2
   6  10  -1 569.961 193.358  15
   6  10   0 2834.33 411.254  14
  -6 -10   0 2722.28 328.415  23
   6  10   0 2222.25 339.529  13
  -6 -10   0 2444.87 310.513  21
   6  10   0 2583.95 347.947  20
   6  10   0 2625.48 294.085   5
  -6 -10   0 2527.24 350.431   2
   6  10   0 2606.33 272.929   1
   6  10   0 2239.45 346.007  18
   6  10   0 2284.55 350.013  17
   6  10   0 2508.74 383.653  15
   6  10   1-40.6971 85.6390  14
  -6 -10  -1-15.8139 54.0267  23
  -6 -10  -1 27.7633 67.2287  22
   6  10   1-33.4201 69.5899  13
  -6 -10  -1-181.647 94.3233  21
   6  10   1 64.1111 96.8358  20
   6  10   1-139.032 73.7086   1
   6  10   1 10.2939 36.4705   5
   6  10   1 18.0603 98.4974  18
   6  10   1 22.7103 91.6832  17
  -6 -10  -1 72.3125 87.3188   2
   6  10   2 588.734 203.321  14
  -6 -10  -2 830.749 190.610  23
   6  10   2 540.350 159.081   6
  -6 -10  -2 557.937 152.233  22
   6  10   2 616.180 179.777  13
  -6 -10  -2 646.359 158.514  21
   6  10   2 552.634 131.761   1
  -6 -10  -2 555.945 145.784  10
   6  10   2 581.256 166.931  18
   6  10   2 696.731 195.163  17
  -6 -10  -2 468.325 181.834   2
   6  10   2 287.456 140.964  15
   6  10   3-29.5801 97.6144  14
  -6 -10  -3-142.162 84.5502  22
   6  10   3 8.40368 68.7888  13
  -6 -10  -3 37.2242 67.4873  21
   6  10   3 33.1489 52.3800   1
  -6 -10  -3 131.649 74.5887  10
   6  10   3-200.696 113.807  18
   6  10   3 12.0090 70.8686   6
   6  10   3-74.6981 81.6220  17
  -6 -10  -3-86.6954 70.5996  23
  -6 -10  -3-25.7713 76.3023   2
   6  10   3 134.818 109.950  15
   6  10   4 6.71897 70.6937  14
   6  10   4 314.952 135.129   6
  -6 -10  -4 99.6099 73.3953  22
  -6 -10  -4 144.079 83.1622  23
   6  10   4 152.351 95.2897  13
  -6 -10  -4 205.109 101.211  21
  -6 -10  -4 219.842 79.0335  10
   6  10   4 154.022 90.3301   1
   6  10   4 307.245 135.368  17
  -6 -10  -4 265.117 113.483   2
   6  10   4 249.102 141.875  15
   6  10   5 8033.28 683.634  14
  -6 -10  -5 8113.73 597.033  23
   6  10   5 8494.74 656.967  13
  -6 -10  -5 8517.73 612.235  22
  -6 -10  -5 7908.79 586.212  21
   6  10   5 11976.3 583.879  12
  -6 -10  -5 8446.77 592.812  19
  -6 -10  -5 8085.93 594.812   2
  -6 -10  -5 10370.7 619.135  10
   6  10   5 9996.60 576.999   1
   6  10   5 9225.71 688.545  17
   6  10   5 9289.12 721.067  15
   6  10   6 417.950 176.669  14
  -6 -10  -6 331.438 126.723  23
  -6 -10  -6 261.200 106.781  22
   6  10   6 317.991 146.874  13
  -6 -10  -6 343.256 125.845  21
   6  10   6 819.630 157.758  12
  -6 -10  -6 360.949 127.244  19
  -6 -10  -6 516.855 143.653  10
   6  10   6 398.479 123.046   1
   6  10   6 376.316 145.647  17
  -6 -10  -6 321.727 122.341   2
   6  10   6 409.972 156.330  15
   6  10   7 3393.76 434.456   7
   6  10   7 2137.42 358.863  14
  -6 -10  -7 2617.03 342.387  23
   6  10   7 2362.62 349.075  13
  -6 -10  -7 2453.40 335.471  22
  -6 -10  -7 2564.67 338.493  21
   6  10   7 3599.96 334.825  12
  -6 -10  -7 2361.35 323.814  19
  -6 -10  -7 2153.44 292.634   2
  -6 -10  -7 2430.38 308.719  10
   6  10   7 3030.04 324.622   1
   6  10   7 2705.16 380.749  17
   6  10   7 2335.56 370.290  15
  -6 -10  -8 49.9334 60.5522   2
   6  10   8 206.315 142.034  14
   6  10   8 166.768 122.448   7
  -6 -10  -8 100.320 82.1521  23
  -6 -10  -8-10.6961 64.0865  22
   6  10   8 55.2014 92.0000  13
  -6 -10  -8 83.4928 52.8452  21
   6  10   8 74.2970 69.9295  12
  -6 -10  -8 5.53621 51.2370  19
  -6 -10  -8-132.154 86.8571  10
   6  10   8 86.8324 89.4775  17
   6  10   8-67.9489 71.3752   1
   6  10   8 143.834 111.805  15
   6  11   0-177.172 138.455  14
  -6 -11   0-160.483 99.7099  23
   6  11   0-45.3534 84.5975  13
  -6 -11   0-30.5580 91.9861  21
   6  11   0-143.575 104.851  20
   6  11   0-210.383 93.9636   1
   6  11   0-141.592 86.5386   5
   6  11   0 52.0435 97.1263  18
   6  11   0-42.7333 91.2517  17
  -6 -11   0-284.384 136.306   2
   6  11   0-197.255 145.307  15
   6  11   1 1922.18 363.880  14
  -6 -11  -1 1966.74 302.264  23
   6  11   1 2174.84 361.870  13
  -6 -11  -1 2338.40 324.313  21
   6  11   1 2002.38 317.401  20
   6  11   1 2076.99 269.066   1
   6  11   1 2413.82 373.909  18
   6  11   1 2054.83 354.505  17
  -6 -11  -1 1940.05 325.974   2
   6  11   1 1939.72 361.188  15
   6  11   2-16.1172 85.6016  14
  -6 -11  -2-53.7495 73.2927  23
   6  11   2 40.9066 75.8623  13
  -6 -11  -2-188.177 104.740  21
   6  11   2-12.8288 71.5722  20
   6  11   2 47.0344 58.3273   1
  -6 -11  -2 73.3339 68.2840  10
   6  11   2 171.296 121.701  18
   6  11   2-76.5098 95.7203  17
  -6 -11  -2-42.0144 78.2682   2
   6  11   2-242.269 146.927  15
   6  11   3 119.316 123.289  14
  -6 -11  -3-190.140 104.874  23
  -6 -11  -3 63.0819 67.1648  22
   6  11   3-81.6995 91.2275  13
  -6 -11  -3-146.755 93.6762  21
   6  11   3-85.1075 81.2236  20
   6  11   3 76.4003 68.0380   1
  -6 -11  -3-5.22415 48.5648  10
   6  11   3 7.27821 82.1511  18
   6  11   3-153.752 110.144  17
  -6 -11  -3 44.5188 76.0326   2
   6  11   3-73.4818 128.022  15
   6  11   4 373.518 154.714  14
  -6 -11  -4 355.194 136.622  23
  -6 -11  -4 150.542 85.0627  22
   6  11   4 190.578 84.2270  13
  -6 -11  -4 317.275 123.229  21
  -6 -11  -4 239.898 109.421  10
   6  11   4 447.075 128.673   1
   6  11   4 448.341 163.003  18
   6  11   4 140.413 109.937  17
  -6 -11  -4 266.744 146.140   2
   6  11   4 387.891 170.433  15
   6  11   5 1101.04 272.870  14
  -6 -11  -5 882.284 197.126  23
  -6 -11  -5 687.278 172.789  22
   6  11   5 809.595 234.100  13
  -6 -11  -5 877.256 203.570  21
  -6 -11  -5 881.634 197.027  10
   6  11   5 853.909 174.172   1
   6  11   5 669.486 193.065  18
   6  11   5 967.980 237.469  17
  -6 -11  -5 736.781 196.845   2
   6  11   5 753.717 229.601  15
   6  11   6 729.775 225.039  14
  -6 -11  -6 910.856 218.435  23
  -6 -11  -6 751.643 192.007  22
   6  11   6 981.399 237.680  13
  -6 -11  -6 827.973 198.697  21
  -6 -11  -6 1005.99 213.463  10
   6  11   6 1418.80 291.386  18
   6  11   6 1129.77 202.425   1
   6  11   6 858.932 227.172  17
  -6 -11  -6 958.865 211.202   2
   6  11   6 792.307 227.494  15
   7  -5   3 107.266 76.7702  14
   7  -5   3 228.129 130.040   3
  -7   5  -3 179.225 101.114  13
  -7   5  -3 156.806 106.824  23
  -7   5  -3 103.952 68.0893  11
  -7   5  -3 207.123 118.440  19
  -7   5  -3 428.479 155.643  18
  -7   5  -3 170.002 109.524  17
   7  -5   3 116.106 123.821  16
   7  -4  -1 113.825 112.612   3
   7  -4  -1-159.292 107.239   6
  -7   4   1-9.91880 41.5670  11
   7  -4  -1-29.7490 77.0209  16
   7  -4   0 4.92831 77.3573   3
   7  -4   0-174.088 108.714   6
  -7   4   0-66.2310 60.5107  11
   7  -4   0 87.3271 103.505  16
   7  -4   1 75.5896 90.9125   3
   7  -4   1-108.188 89.9526   6
  -7   4  -1-13.6010 61.5429   2
  -7   4  -1 40.8464 46.8766  11
   7  -4   1 12.4292 111.250  16
   7  -4   2 250.391 136.801   3
   7  -4   2 327.662 132.382   6
  -7   4  -2 174.643 89.7788   2
  -7   4  -2 349.113 97.6043  11
   7  -4   2 295.730 182.650  16
   7  -4   3 2347.60 285.753  14
   7  -4   3 2184.37 332.903   3
  -7   4  -3 2414.75 321.360  23
  -7   4  -3 1990.67 308.955  13
   7  -4   3 2106.62 305.226   6
  -7   4  -3 2851.91 276.494  11
  -7   4  -3 1947.83 294.920  19
  -7   4  -3 2256.72 318.673  18
  -7   4  -3 2307.34 333.022  17
  -7   4  -3 2178.24 319.565   2
   7  -4   3 2708.85 437.122  16
   7  -4   4 3820.52 448.262   3
   7  -4   4 3148.46 338.886  14
  -7   4  -4 3557.45 424.510  13
  -7   4  -4 3227.16 392.481  23
  -7   4  -4 3965.84 326.999  11
  -7   4  -4 3359.48 400.241  19
  -7   4  -4 3235.36 398.033  18
  -7   4  -4 3583.93 429.735  17
  -7   4  -4 3672.88 420.969   2
   7  -4   4 3496.88 504.712  16
   7  -4   5-1.18139 51.2809  14
   7  -4   5 103.950 106.453   3
  -7   4  -5 151.727 101.148  13
  -7   4  -5-125.292 92.9262  23
  -7   4  -5 70.7974 107.395   2
  -7   4  -5 26.9853 55.1006  20
  -7   4  -5-16.7596 59.2430  11
  -7   4  -5-21.3055 65.9240  19
  -7   4  -5-87.0372 86.3077  18
  -7   4  -5 58.0761 73.7803  17
   7  -4   5 93.2145 121.226  16
   7  -4   6 701.590 201.890   3
   7  -4   6 521.193 148.614  14
  -7   4  -6 451.944 169.096  13
  -7   4  -6 471.326 164.578  23
  -7   4  -6 406.231 155.072   2
  -7   4  -6 432.470 135.660  20
  -7   4  -6 458.362 111.091  11
  -7   4  -6 694.608 195.244  19
  -7   4  -6 501.932 176.083  18
  -7   4  -6 507.800 177.209  17
   7  -4   6 345.024 188.752  16
   7  -4   7-8.40743 78.3709   3
   7  -4   7 115.943 77.3339  14
  -7   4  -7-45.6885 80.1397  13
  -7   4  -7 44.7289 76.4940  23
  -7   4  -7 85.9628 73.2352   2
  -7   4  -7 43.4089 56.3532  20
  -7   4  -7 48.0956 71.0905  19
  -7   4  -7 214.980 110.637  18
  -7   4  -7 20.1726 62.8402  17
   7  -4   7 26.5701 120.813   1
   7  -4   7 187.527 147.473  16
   7  -3  -2 821.005 214.805   3
   7  -3  -2 565.488 179.683   6
  -7   3   2 896.897 165.789  11
  -7   3   2 645.924 163.776   9
   7  -3  -1 40.8435 74.7876   3
   7  -3  -1 64.3369 84.4529   6
  -7   3   1 93.7234 60.8217  11
  -7   3   1 159.968 88.7581   9
   7  -3  -1 79.9999 94.6056  16
   7  -3   0 13.2017 71.1865   3
   7  -3   0-140.504 94.5618   6
  -7   3   0 40.8676 37.4919  11
   7  -3   0 101.419 103.833  16
   7  -3   1 49.5594 77.7929   3
  -7   3  -1 44.2023 67.7947   2
   7  -3   1-179.481 102.853   6
  -7   3  -1 46.6090 52.2900  11
   7  -3   1-137.756 111.153  16
   7  -3   2 429.625 115.520  14
  -7   3  -2 625.476 161.294  13
   7  -3   2 496.403 152.623   3
  -7   3  -2 709.371 155.703  23
  -7   3  -2 554.693 164.981   2
   7  -3   2 302.406 117.342   6
  -7   3  -2 829.174 138.054  11
  -7   3  -2 370.750 125.184  19
  -7   3  -2 415.312 123.173  18
  -7   3  -2 469.567 141.736  17
   7  -3   2 541.950 188.595  16
   7  -3   3 90.4818 67.2211  14
  -7   3  -3 11.3144 53.1789  13
   7  -3   3-79.5854 107.963   3
  -7   3  -3 104.561 94.8912  23
  -7   3  -3-16.8982 68.0617   2
   7  -3   3 143.241 89.9044   6
  -7   3  -3 18.5554 39.3162  11
  -7   3  -3 84.8658 78.6112  19
  -7   3  -3 50.7138 97.1322  18
  -7   3  -3-15.1651 72.2624  17
   7  -3   3-29.8788 92.5264  16
   7  -3   4 9817.94 685.228   3
   7  -3   4 9104.77 552.870  14
  -7   3  -4 10252.3 682.253  13
  -7   3  -4 9557.64 635.093  23
   7  -3   4 8910.74 601.458   6
  -7   3  -4 8952.76 525.676  20
  -7   3  -4 10879.6 515.386  11
  -7   3  -4 9871.07 649.305  19
  -7   3  -4 9554.34 647.242  18
  -7   3  -4 9222.12 648.976  17
  -7   3  -4 9431.06 645.027   2
   7  -3   4 8880.98 769.428  16
   7  -3   5 112.085 78.8535  14
   7  -3   5 28.6433 76.4366   3
  -7   3  -5 228.016 117.697  13
  -7   3  -5 48.8097 60.8175  23
  -7   3  -5 78.3074 86.1434   2
  -7   3  -5-0.73389 57.5340  20
  -7   3  -5 119.546 68.3549  11
   7  -3   5-183.930 155.123   1
  -7   3  -5 86.6954 80.6272  19
  -7   3  -5-60.7544 62.5423  18
  -7   3  -5 39.6292 89.2506  17
   7  -3   5-12.0058 93.9087  16
   7  -3   6-171.431 111.322   3
   7  -3   6-55.9068 66.0604  14
  -7   3  -6-18.1259 86.3739  23
  -7   3  -6 103.287 91.2729   2
  -7   3  -6-52.2014 74.2772  20
  -7   3  -6-120.543 65.2339  11
  -7   3  -6 40.5490 65.4009  19
  -7   3  -6 7.80504 63.5422  18
  -7   3  -6 113.771 109.429  17
   7  -3   6-120.806 143.728   1
   7  -3   6 43.4242 91.4951  16
   7  -3   7 256.953 130.973   3
   7  -3   7 108.072 92.5112  14
  -7   3  -7 0.22013 79.7639  23
  -7   3  -7 24.4950 69.8131   2
   7  -3   7-176.665 161.684   1
  -7   3  -7 115.933 91.4866  20
  -7   3  -7 70.3494 71.3086  19
  -7   3  -7 212.157 110.297  18
  -7   3  -7 35.7006 65.5855  17
   7  -3   7 82.9015 110.567  16
   7  -3   8 1922.05 281.834  14
  -7   3  -8 1970.74 318.494  23
  -7   3  -8 2093.92 326.707   2
  -7   3  -8 2121.29 328.237  21
  -7   3  -8 1647.55 274.407  20
  -7   3  -8 1822.93 314.898  19
  -7   3  -8 2335.04 359.957  18
  -7   3  -8 2090.51 346.256  17
   7  -3   8 1551.34 367.641  16
   7  -3   8 1957.71 291.836  15
   7  -3   8 1373.39 385.656   1
   7  -2  -3 312.536 143.742   6
  -7   2   3 378.353 116.749  11
  -7   2   3 299.598 122.620   9
   7  -2  -2 173.936 107.861   6
  -7   2   2 178.614 66.2649  11
  -7   2   2 206.013 95.3198   9
   7  -2  -1 210.085 111.862   3
   7  -2  -1 90.4838 89.0078   6
  -7   2   1-2.30456 36.2806  11
  -7   2   1 1.74967 48.1402   9
   7  -2  -1 134.351 104.570  16
   7  -2   0 120.918 85.5598   3
   7  -2   0 29.1367 60.3566   6
  -7   2   0 78.8084 50.4264  11
  -7   2   0 162.314 65.9150   9
   7  -2   0 89.7472 74.7664  16
   7  -2   1 31.9531 76.6098   3
  -7   2  -1 29.6152 50.9211   2
   7  -2   1-45.8980 66.0319   6
  -7   2  -1 46.7992 50.9335  11
  -7   2  -1 12.9938 36.3312   9
   7  -2   1-69.2470 66.9894  16
   7  -2   2 812.068 151.819  15
   7  -2   2 667.417 132.039  14
   7  -2   2 713.538 168.287   3
  -7   2  -2 760.695 157.344  23
  -7   2  -2 683.503 167.641   2
   7  -2   2 950.806 200.783   6
  -7   2  -2 951.053 175.210  21
  -7   2  -2 1015.90 142.660  11
  -7   2  -2 715.131 152.026  19
  -7   2  -2 796.239 163.290  18
  -7   2  -2 762.114 163.586  17
  -7   2  -2 987.531 147.614   9
   7  -2   2 775.755 217.355  16
   7  -2   3 41.5481 43.5548  15
   7  -2   3-131.590 68.3250  14
   7  -2   3-113.068 83.2517   3
  -7   2  -3 15.5115 43.6886  23
  -7   2  -3-135.956 83.4138   2
   7  -2   3 82.9755 73.6213   6
  -7   2  -3 48.8727 63.1241  21
  -7   2  -3 15.0251 33.1055  11
  -7   2  -3 92.0595 56.8662  19
  -7   2  -3 106.926 73.4712  18
  -7   2  -3-17.8055 49.8886  17
   7  -2   3-17.8282 105.864  16
   7  -2   4-30.4026 50.1440  14
   7  -2   4-145.045 94.9979   3
  -7   2  -4-28.6031 62.7004  23
  -7   2  -4-14.0078 66.3627   2
   7  -2   4 94.5928 80.7067   6
  -7   2  -4 59.1425 55.9168  20
  -7   2  -4-32.8302 38.4632  11
  -7   2  -4 119.831 81.6612  19
  -7   2  -4 95.7081 77.5358  18
   7  -2   4 26.0103 100.957   1
  -7   2  -4-93.8497 72.6755  17
   7  -2   4-39.7007 120.586  16
   7  -2   5 9367.66 545.190  14
   7  -2   5 8492.15 803.784   1
  -7   2  -5 8845.01 589.723  23
   7  -2   5 9238.43 596.543   6
  -7   2  -5 9466.92 607.999  21
  -7   2  -5 9196.52 537.179  20
  -7   2  -5 8849.88 438.562  11
  -7   2  -5 8279.00 578.489  19
  -7   2  -5 8748.49 601.821  18
  -7   2  -5 8890.38 619.199  17
  -7   2  -5 8130.11 571.504   2
   7  -2   5 8622.63 743.874  16
   7  -2   5 9428.95 558.626  15
   7  -2   5 9907.84 659.695   3
   7  -2   6 17933.9 804.111  14
   7  -2   6 14849.5 1101.84   1
  -7   2  -6 17823.8 888.572  23
  -7   2  -6 18400.1 898.510  21
  -7   2  -6 18312.4 822.477  20
  -7   2  -6 16785.5 653.735  11
  -7   2  -6 16537.5 870.517  19
  -7   2  -6 17276.9 895.360  18
  -7   2  -6 18322.9 937.399  17
  -7   2  -6 16924.2 861.130   2
   7  -2   6 18787.6 1155.48  16
  -7   2  -6 19812.3 726.514   8
   7  -2   6 18803.2 839.536  15
   7  -2   6 18288.8 931.251   3
   7  -2   7 425.200 132.275  15
   7  -2   7 397.021 123.916  14
  -7   2  -7 302.600 118.040  23
   7  -2   7 532.556 256.272   1
  -7   2  -7 349.226 126.144   2
  -7   2  -7 457.606 140.127  21
  -7   2  -7 378.269 125.082  20
  -7   2  -7 180.032 107.860  19
  -7   2  -7 293.408 129.764  18
  -7   2  -7 331.518 127.654  17
   7  -2   7 74.7654 87.0041  16
  -7   2  -7 399.662 103.150   8
   7  -2   8 90.7609 74.5078  15
   7  -2   8-18.0035 95.4783   1
   7  -2   8 32.7742 57.5241  14
  -7   2  -8-46.7463 76.5842  23
  -7   2  -8 111.685 64.7664   2
  -7   2  -8 22.5155 65.0623  21
  -7   2  -8 31.2809 71.3646  20
  -7   2  -8-179.154 103.997  19
  -7   2  -8-26.8386 61.3079  18
  -7   2  -8 8.92180 57.9652  17
   7  -2   8 47.7180 99.1231  16
  -7   2  -8 77.5792 67.7848   8
   7  -2   9 893.832 199.797  15
   7  -2   9 666.331 250.390   1
   7  -2   9 1091.82 211.484  14
  -7   2  -9 725.949 200.030  23
  -7   2  -9 1045.45 223.610   2
  -7   2  -9 490.165 164.566  21
  -7   2  -9 785.637 182.536  20
  -7   2  -9 881.384 215.664  19
  -7   2  -9 649.122 185.793  18
  -7   2  -9 817.522 214.589  17
   7  -2   9 1030.92 324.832  16
  -7   2  -9 1104.45 203.405   8
   7  -1  -4 190.013 128.180   6
  -7   1   4 117.215 82.0948  11
  -7   1   4 301.232 126.129   9
   7  -1  -3 576.042 177.533   6
  -7   1   3 552.315 123.017  11
  -7   1   3 287.747 106.322   9
   7  -1  -2 530.507 167.765   6
  -7   1   2 958.442 151.504  11
  -7   1   2 595.220 145.915   9
   7  -1  -1 70.2406 76.0614   6
  -7   1   1 73.0486 50.2024  11
  -7   1   1-45.7719 46.5134   9
   7  -1   0 23.6826 68.9770   3
  -7   1   0 60.6151 52.7655   2
   7  -1   0 89.1428 84.2755   6
  -7   1   0 50.6991 38.5041  11
  -7   1   0 93.7233 71.5123   9
   7  -1   0 44.6120 73.9125  16
   7  -1   1 11377.6 623.973   3
   7  -1   1 11664.0 697.894   6
  -7   1  -1 12352.7 499.988  11
  -7   1  -1 11657.4 543.641   9
  -7   1  -1 10750.6 581.770   2
   7  -1   1 10830.5 736.879  16
   7  -1   2 3678.98 342.691   3
   7  -1   2 3603.28 290.861  14
  -7   1  -2 3529.19 307.225  23
   7  -1   2 3045.17 349.214   6
  -7   1  -2 3197.47 293.206  21
  -7   1  -2 3398.41 241.122  11
  -7   1  -2 2946.66 281.383  19
  -7   1  -2 3337.05 302.854  18
  -7   1  -2 3261.67 305.630  17
  -7   1  -2 3636.05 282.723   9
  -7   1  -2 3144.25 307.548   2
   7  -1   2 3496.57 418.396  16
   7  -1   2 3772.29 305.277  15
   7  -1   3 898.547 156.540  15
   7  -1   3 845.443 153.187  14
   7  -1   3 1035.21 180.275   3
  -7   1  -3 1039.11 177.320  23
  -7   1  -3 906.799 164.239   2
   7  -1   3 987.716 194.594   6
  -7   1  -3 894.304 165.424  21
  -7   1  -3 934.940 122.754  11
  -7   1  -3 630.520 144.830  19
  -7   1  -3 742.348 157.529  18
  -7   1  -3 1021.02 142.651   9
  -7   1  -3 923.968 172.776  17
   7  -1   3 684.478 194.027  16
   7  -1   3 635.315 199.372   1
   7  -1   4 59.6972 59.3154  15
   7  -1   4 117.625 58.0014  14
   7  -1   4 64.8341 76.7714   3
  -7   1  -4 63.2943 55.1761  23
  -7   1  -4 98.0181 61.6630   2
   7  -1   4-2.39071 71.7923   1
   7  -1   4 24.8547 49.7548   6
  -7   1  -4 125.947 77.5585  21
  -7   1  -4 108.839 60.3844  20
  -7   1  -4 120.895 55.2182  11
  -7   1  -4 55.7743 37.9866  19
  -7   1  -4 86.9236 70.2389  18
  -7   1  -4 90.6488 55.2899  17
  -7   1  -4 61.7840 38.7373   9
   7  -1   4 173.926 133.417  16
  -7   1  -4 33.8335 42.0003   8
   7  -1   5 8583.03 499.437  14
   7  -1   5 7193.66 669.614   1
   7  -1   5 8167.05 559.590   6
  -7   1  -5 7891.72 524.901  23
  -7   1  -5 8386.58 542.729  21
  -7   1  -5 8720.17 501.439  20
  -7   1  -5 7414.75 366.755  11
  -7   1  -5 7790.60 527.801  19
  -7   1  -5 7971.97 538.408  18
  -7   1  -5 8495.61 564.532  17
  -7   1  -5 7575.43 382.651   9
  -7   1  -5 7149.34 492.753   2
  -7   1  -5 8292.52 421.990   8
   7  -1   5 7876.61 689.057  16
   7  -1   5 8196.51 501.548  15
   7  -1   5 7666.55 541.006   3
   7  -1   6 7362.22 481.333  14
   7  -1   6 6098.35 628.218   1
   7  -1   6 6898.05 500.046   6
  -7   1  -6 6725.23 501.820  23
  -7   1  -6 7297.54 520.641  21
  -7   1  -6 7387.11 481.591  20
  -7   1  -6 6636.49 501.889  19
  -7   1  -6 6619.90 507.660  18
  -7   1  -6 7414.41 543.698  17
  -7   1  -6 6390.87 475.558   2
   7  -1   6 7315.86 683.395  16
  -7   1  -6 8108.81 441.360   8
   7  -1   6 7837.67 504.372  15
   7  -1   6 7236.48 532.481   3
   7  -1   7 222.212 93.1937  15
   7  -1   7 181.784 91.3496  14
  -7   1  -7 245.503 98.4757   2
  -7   1  -7 255.710 123.440  21
  -7   1  -7 228.481 95.3943  20
  -7   1  -7 189.505 97.8663  19
  -7   1  -7 316.959 131.832  18
  -7   1  -7 262.665 110.618  23
   7  -1   7 144.679 92.7594   1
  -7   1  -7 313.606 124.613  17
   7  -1   7 95.5123 93.6115  16
  -7   1  -7 165.148 76.2398   8
   7  -1   8 23.0071 62.3769  15
   7  -1   8-28.6475 58.6332  14
  -7   1  -8 72.7190 74.1476  23
  -7   1  -8-95.7675 78.5373   2
  -7   1  -8 28.7479 52.2751  21
  -7   1  -8-18.3357 63.9399  20
  -7   1  -8 13.4980 66.0894  19
  -7   1  -8-57.7316 53.6130  18
   7  -1   8 47.8996 105.839   1
  -7   1  -8 79.7205 59.9541  17
   7  -1   8-0.67892 109.898  16
  -7   1  -8 6.43180 58.9571   8
   7  -1   9 163.197 102.342  15
   7  -1   9 42.8004 69.5552  14
  -7   1  -9 150.638 86.0293  23
  -7   1  -9 112.861 62.6098   2
  -7   1  -9 48.1958 69.0983  21
  -7   1  -9-69.4953 69.2096  20
  -7   1  -9 156.925 101.509  19
   7  -1   9 377.974 198.240   1
  -7   1  -9 160.128 94.2575  18
  -7   1  -9 79.6509 79.0562  17
   7  -1   9-14.5536 97.7962  16
  -7   1  -9 254.048 116.338   8
   7  -1  10 232.336 121.849  15
   7  -1  10 428.333 141.558  14
  -7   1 -10 379.401 143.696  23
  -7   1 -10 407.033 159.451   2
  -7   1 -10 456.160 155.870  21
  -7   1 -10 290.252 124.979  20
  -7   1 -10 147.168 95.2676  19
  -7   1 -10 477.405 155.459  18
   7  -1  10 334.729 188.209   1
  -7   1 -10 184.981 106.599  17
   7  -1  10 100.741 123.863  16
  -7   1 -10 180.611 81.5586   8
   7   0  -5 62.2115 110.379   6
  -7   0   5 16.7109 53.9222  11
  -7   0   5 96.3171 74.5558   9
   7   0  -4 152.636 125.946   6
  -7   0   4 260.279 95.7515  11
  -7   0   4 141.533 90.5081   9
   7   0  -3 1141.71 234.964   6
  -7   0   3 1368.09 192.563  11
  -7   0   3 1117.12 215.155   9
   7   0  -2 370.229 135.903   6
  -7   0   2 399.436 98.6962  11
  -7   0   2 304.483 110.336   9
   7   0  -1 296.677 124.355   6
  -7   0   1 320.370 81.2587  11
  -7   0   1 368.487 113.718   9
  -7   0   0 475.820 114.078   2
   7   0   0 249.511 107.439   6
  -7   0   0 488.261 91.5970  11
  -7   0   0 514.366 122.877   9
   7   0   0 353.457 136.406  16
   7   0   1 27.2490 56.6111   3
  -7   0  -1-0.10657 38.0189   2
  -7   0  -1 33.8510 35.7667  23
   7   0   1-35.2874 75.2221   6
  -7   0  -1-89.8709 50.5822  21
  -7   0  -1 18.4176 27.8042  11
  -7   0  -1-28.2882 42.5723  19
  -7   0  -1 24.8749 28.2168  18
  -7   0  -1-31.2796 32.7928  17
  -7   0  -1 34.3035 47.5891   9
   7   0   1-1.92735 51.6273  16
   7   0   2 115.881 54.3808  15
  -7   0  -2 143.139 60.1255  23
   7   0   2 95.0925 45.9580  14
   7   0   2 37.3529 50.7032   3
  -7   0  -2 115.806 68.4603   2
   7   0   2 11.4899 56.4775   6
  -7   0  -2 179.602 79.9341  21
  -7   0  -2 125.450 51.8335  11
  -7   0  -2 179.497 66.7435  19
  -7   0  -2 129.785 63.6456  18
  -7   0  -2 154.405 69.9629  17
  -7   0  -2 151.124 66.9397   9
   7   0   2-102.977 101.141  16
   7   0   3 35.1218 40.6663  15
   7   0   3 75.3011 53.9441  14
   7   0   3 67.0217 59.1553   3
  -7   0  -3 97.9543 55.0869   2
  -7   0  -3 50.6263 45.6750  23
   7   0   3 234.553 100.822   6
  -7   0  -3 13.1130 45.1071  21
  -7   0  -3 121.741 49.9486  11
  -7   0  -3-31.1757 51.4871  19
  -7   0  -3-19.9026 40.4910  18
  -7   0  -3 49.7162 54.0621  17
  -7   0  -3 44.7072 29.0951   9
   7   0   3-34.1595 77.2963  16
   7   0   3 15.1618 65.1813   1
   7   0   4 24.6581 54.9219  15
   7   0   4 30.4267 44.4295  14
   7   0   4-25.2457 59.7134   3
  -7   0  -4 51.5634 53.8322   2
  -7   0  -4 17.3191 51.4530  23
   7   0   4 9.07819 61.0961   6
  -7   0  -4-17.0145 47.7210  21
  -7   0  -4 26.1289 30.7636  11
   7   0   4 72.2740 67.4738   1
  -7   0  -4 29.8033 42.8505  19
  -7   0  -4 40.6141 37.5633  18
  -7   0  -4 81.1946 72.8595  17
  -7   0  -4 45.4554 46.3944   9
   7   0   4 77.1540 87.7371  16
  -7   0  -4 62.2756 48.2723   8
   7   0   5 616.388 129.253  15
   7   0   5 429.471 119.813   3
   7   0   5 652.298 134.081  14
  -7   0  -5 547.103 121.597   2
  -7   0  -5 635.375 142.394  23
   7   0   5 494.863 137.595   6
   7   0   5 415.389 158.605   1
  -7   0  -5 633.964 143.478  21
  -7   0  -5 558.798 120.680  20
  -7   0  -5 478.003 119.783  19
  -7   0  -5 460.535 124.326  18
  -7   0  -5 636.828 144.404  17
  -7   0  -5 491.385 94.3775   9
   7   0   5 682.618 195.967  16
  -7   0  -5 667.925 118.746   8
   7   0   6 226.045 87.8171  15
   7   0   6 109.770 67.8145  14
  -7   0  -6 223.847 78.8072   2
  -7   0  -6 44.0668 48.9730  23
   7   0   6 91.5940 99.3937   1
   7   0   6 144.605 76.5822   6
  -7   0  -6 153.269 81.6555  21
  -7   0  -6 213.586 88.2284  20
  -7   0  -6 66.6295 61.4592  19
  -7   0  -6 251.724 95.2493  18
  -7   0  -6 240.839 97.1761  17
  -7   0  -6 192.100 60.3607   9
   7   0   6 209.322 155.449  16
  -7   0  -6 149.890 67.0142   8
   7   0   7 1101.66 189.473  15
   7   0   7 1154.05 189.921  14
   7   0   7 300.984 173.885   1
  -7   0  -7 943.288 173.174   2
  -7   0  -7 865.159 173.881  23
   7   0   7 880.773 179.385   6
  -7   0  -7 956.724 186.600  21
  -7   0  -7 989.527 172.695  20
  -7   0  -7 908.237 180.480  19
  -7   0  -7 1037.55 198.135  18
  -7   0  -7 982.057 134.664   9
  -7   0  -7 925.676 196.461  17
   7   0   7 886.783 254.578  16
  -7   0  -7 991.166 161.620   8
   7   0   8 25.8673 50.2667  15
  -7   0  -8 109.644 79.6857   2
   7   0   8-9.01438 85.5162   1
   7   0   8 165.437 82.9064  14
  -7   0  -8 19.2782 55.1719  23
  -7   0  -8-14.4747 69.4578  21
  -7   0  -8-26.3698 52.6567  20
  -7   0  -8 57.0008 62.1385  19
  -7   0  -8 67.8621 76.6992  18
  -7   0  -8 187.381 94.2374  17
   7   0   8-25.0854 115.181  16
  -7   0  -8 3.21464 44.3777   8
   7   0   9 980.928 192.070  15
   7   0   9 821.613 178.581  14
   7   0   9 780.051 240.382   1
  -7   0  -9 1160.53 224.092  23
  -7   0  -9 881.637 185.304   2
  -7   0  -9 899.191 203.325  21
  -7   0  -9 813.382 181.645  20
  -7   0  -9 895.131 194.038  19
  -7   0  -9 882.520 192.376  18
  -7   0  -9 972.254 207.835  17
   7   0   9 1190.60 317.726  16
  -7   0  -9 1380.66 220.317   8
   7   0  10 3160.31 356.317  14
  -7   0 -10 2825.76 355.986  23
   7   0  10 2606.87 447.324   1
  -7   0 -10 3047.74 372.198  21
  -7   0 -10 2296.01 308.245  20
  -7   0 -10 3071.15 370.607  19
  -7   0 -10 3285.19 389.170  18
  -7   0 -10 3061.93 381.854  17
  -7   0 -10 2822.73 350.390   2
  -7   0 -10 2601.92 306.272   8
   7   0  10 3121.99 362.121  15
   7   0  11 729.020 185.789  15
   7   0  11 610.891 167.909  14
  -7   0 -11 315.469 115.831   2
   7   0  11 306.786 192.901   1
  -7   0 -11 649.171 199.162  21
  -7   0 -11 389.065 143.392  20
  -7   0 -11 533.321 162.676  23
  -7   0 -11 644.642 184.109  19
  -7   0 -11 325.498 131.960  18
  -7   0 -11 426.074 156.261  17
  -7   0 -11 529.752 156.214   8
   7   1  -5 14.2206 96.7397   6
  -7  -1   5-40.1930 51.4926  11
  -7  -1   5-142.675 93.1434   9
   7   1  -4 523.080 172.982   6
  -7  -1   4 469.023 119.307  11
  -7  -1   4 574.595 158.916   9
   7   1  -3 128.534 95.9891   6
  -7  -1   3 142.773 64.5849  11
  -7  -1   3 99.3625 68.8437   9
   7   1  -2 1257.97 237.016   6
  -7  -1   2 1309.20 170.933  11
  -7  -1   2 1355.08 200.844   9
   7   1  -1 4265.42 416.862   6
  -7  -1   1 4093.47 273.813  11
  -7  -1   1 3534.75 313.448   9
  -7  -1   0 564.163 106.601   2
   7   1   0 945.772 197.149   6
  -7  -1   0 818.692 112.557  11
  -7  -1   0 884.383 147.177   9
   7   1   0 695.235 162.147  16
   7   1   1 1614.34 177.705  14
  -7  -1  -1 1556.83 170.003  23
   7   1   1 1557.83 244.633   6
  -7  -1  -1 1385.46 137.517  11
  -7  -1  -1 1362.49 157.937  19
  -7  -1  -1 1513.20 165.685  18
  -7  -1  -1 1521.84 175.862   2
  -7  -1  -1 1629.83 175.875  17
  -7  -1  -1 1628.49 187.271   9
   7   1   1 1289.58 232.586  16
  -7  -1  -1 1775.65 182.865  21
   7   1   1 1648.79 182.504  15
   7   1   2 4207.52 297.368  14
  -7  -1  -2 3824.43 282.726  23
   7   1   2 3853.89 377.224   6
  -7  -1  -2 4260.72 301.408  21
  -7  -1  -2 3352.71 201.760  11
  -7  -1  -2 3565.69 275.846  19
  -7  -1  -2 3807.22 286.612  18
  -7  -1  -2 3606.14 272.138   2
  -7  -1  -2 3803.67 286.464  17
  -7  -1  -2 3781.82 280.827   9
   7   1   2 3515.56 376.006  16
   7   1   2 3976.51 288.074  15
   7   1   3 5762.60 361.114  14
   7   1   3 5526.66 462.248   1
  -7  -1  -3 5172.51 350.629  23
   7   1   3 5500.95 451.102   6
  -7  -1  -3 5546.81 363.754  21
  -7  -1  -3 4080.87 216.837  11
  -7  -1  -3 5408.84 357.034  19
  -7  -1  -3 5382.14 357.932  18
  -7  -1  -3 5234.54 337.363   2
  -7  -1  -3 5483.12 363.506  17
  -7  -1  -3 5486.47 331.528   9
   7   1   3 4951.07 471.199  16
   7   1   3 5475.30 352.618  15
   7   1   4 4120.38 315.964  14
   7   1   4 3639.75 371.244   1
  -7  -1  -4 3689.63 310.999  23
   7   1   4 3272.70 349.788   6
  -7  -1  -4 3673.82 312.293  21
  -7  -1  -4 4049.28 327.357  19
  -7  -1  -4 3681.49 312.829  18
  -7  -1  -4 3211.45 269.612   2
  -7  -1  -4 4147.24 331.097  17
  -7  -1  -4 3659.67 263.926   9
  -7  -1  -4 3955.08 275.319   8
   7   1   4 3897.91 432.884  16
   7   1   4 3949.19 312.500  15
   7   1   4 3317.39 287.488   3
   7   1   5 6473.85 509.327   1
   7   1   5 7164.77 431.304  14
   7   1   5 7360.67 516.474   6
  -7  -1  -5 6837.99 446.789  21
  -7  -1  -5 6492.38 434.116  19
  -7  -1  -5 7255.02 458.526  18
  -7  -1  -5 6842.17 409.615   2
  -7  -1  -5 6916.38 453.769  17
  -7  -1  -5 7013.67 375.585   9
   7   1   5 6263.52 580.073  16
  -7  -1  -5 7212.46 393.808   8
   7   1   5 7202.12 439.839  15
  -7  -1  -5 7365.96 459.497  23
   7   1   6 1982.85 230.714  14
   7   1   6 1826.62 252.527   6
  -7  -1  -6 2239.74 257.219  23
  -7  -1  -6 1982.85 246.151  21
  -7  -1  -6 1831.74 237.006  19
  -7  -1  -6 1871.20 240.307  18
  -7  -1  -6 1574.61 196.326   2
  -7  -1  -6 2346.52 270.047  17
  -7  -1  -6 1826.82 186.670   9
  -7  -1  -6 2163.23 222.420   8
   7   1   6 1772.78 331.188  16
   7   1   6 1492.54 253.835   1
   7   1   6 1908.49 230.058  15
   7   1   7-50.8927 63.6648  15
   7   1   7-112.072 68.4333  14
  -7  -1  -7-20.5347 49.1300   2
  -7  -1  -7-75.4312 68.4658  23
   7   1   7 11.0964 52.6106   6
  -7  -1  -7 0.58887 47.9931  21
  -7  -1  -7-57.1268 55.6740  20
  -7  -1  -7 19.8006 43.9416  19
  -7  -1  -7 49.0673 61.9462  18
  -7  -1  -7-29.8907 62.0035  17
   7   1   7-50.5814 120.341  16
  -7  -1  -7 25.9763 41.3402   8
   7   1   7 16.5397 86.5507   1
   7   1   8 261.322 100.626  15
   7   1   8 133.657 79.7517  14
  -7  -1  -8 142.432 78.1283   2
  -7  -1  -8 321.940 108.425  23
   7   1   8 239.268 97.7846   6
  -7  -1  -8 111.918 74.0417  21
  -7  -1  -8 247.161 91.4321  20
  -7  -1  -8 249.698 104.655  19
  -7  -1  -8 251.320 96.7179  18
  -7  -1  -8 156.636 82.1069  17
   7   1   8 201.240 141.451  16
  -7  -1  -8 254.514 90.9744   8
   7   1   8 196.953 117.736   1
   7   1   9 2271.73 286.829  14
   7   1   9 1772.84 269.664   7
  -7  -1  -9 2423.31 306.292  23
  -7  -1  -9 2003.47 281.002  21
   7   1   9 2007.52 217.432  12
  -7  -1  -9 1463.36 230.972  20
  -7  -1  -9 2149.96 288.677  19
  -7  -1  -9 1915.71 273.177  18
  -7  -1  -9 1946.42 277.793  17
  -7  -1  -9 1658.49 238.543   2
  -7  -1  -9 2313.78 275.239   8
   7   1   9 2043.04 272.403  15
   7   1   9 1534.08 309.536   1
   7   1  10 3755.48 387.729   7
   7   1  10 3161.14 460.762   1
   7   1  10 4522.93 422.078  14
  -7  -1 -10 4289.49 421.884  23
  -7  -1 -10 4086.27 414.883  21
  -7  -1 -10 3077.36 353.276  20
  -7  -1 -10 3917.13 404.060  19
  -7  -1 -10 4329.19 426.902  18
  -7  -1 -10 4244.83 430.306  17
  -7  -1 -10 3944.64 387.821   2
  -7  -1 -10 3900.12 379.374   8
   7   1  10 4872.52 438.747  15
   7   1  11 5109.43 476.310  14
   7   1  11 4410.57 572.753   1
  -7  -1 -11 4468.32 453.094  23
  -7  -1 -11 4891.57 479.449  21
  -7  -1 -11 4172.49 415.387  20
  -7  -1 -11 4982.89 480.478  19
  -7  -1 -11 4278.68 449.933  18
  -7  -1 -11 4495.79 475.942  17
  -7  -1 -11 4353.93 432.258   2
  -7  -1 -11 4498.61 422.137   8
   7   1  11 5441.77 491.403  15
   7   2  -5 327.534 137.292   6
  -7  -2   5 177.588 81.8543  11
   7   2  -5 108.197 86.0690   5
  -7  -2   5 144.806 85.6418   9
  -7  -2   5 500.096 147.789   4
   7   2  -4 17.5780 72.7874   6
  -7  -2   4 95.5788 63.2545  11
  -7  -2   4 116.723 75.1264   9
  -7  -2   4 74.6621 74.1557   4
   7   2  -3 2013.62 297.279   6
  -7  -2   3 1802.43 211.405  11
  -7  -2   3 1665.30 239.016   9
  -7  -2   3 2167.15 257.369   4
   7   2  -2 2125.56 303.015   6
  -7  -2   2 2388.43 221.644  11
  -7  -2   2 2693.61 276.515   4
  -7  -2   2 2127.04 251.820   9
   7   2  -1 10110.6 639.807   6
  -7  -2   1 10524.9 449.251  11
  -7  -2   1 10474.3 446.923   2
  -7  -2   1 9199.32 510.723   9
   7   2   0 5266.14 450.341   6
  -7  -2   0 5359.14 309.504   2
  -7  -2   0 4518.92 329.719   9
   7   2   1 2443.76 223.999  14
  -7  -2  -1 2267.53 205.276  23
   7   2   1 1760.71 263.256   6
   7   2   1 2694.36 234.522  13
  -7  -2  -1 2332.65 209.990  22
  -7  -2  -1 2221.12 204.337  21
  -7  -2  -1 2081.31 157.645  11
  -7  -2  -1 2558.03 212.321  19
  -7  -2  -1 2562.72 212.750  18
  -7  -2  -1 2398.13 209.490   2
  -7  -2  -1 2240.63 219.810   9
   7   2   1 1665.65 236.258  16
   7   2   1 2223.34 210.698  15
   7   2   2 5823.63 353.467  14
  -7  -2  -2 5466.38 333.327  23
   7   2   2 5653.16 463.736   6
   7   2   2 5867.42 361.136  13
  -7  -2  -2 5373.57 341.117  22
  -7  -2  -2 5608.96 343.596  21
  -7  -2  -2 4521.17 222.984  11
  -7  -2  -2 5699.79 340.636  19
  -7  -2  -2 5089.79 325.072  18
  -7  -2  -2 5617.27 327.196   2
  -7  -2  -2 5713.45 343.173   9
   7   2   2 5012.83 437.992  16
   7   2   2 5855.92 356.409  15
   7   2   3 441.737 95.5664  15
  -7  -2  -3 448.942 97.9794   2
   7   2   3 462.877 99.5161  14
  -7  -2  -3 422.322 95.2897  23
   7   2   3 228.178 98.5393   6
  -7  -2  -3 347.380 83.2459  21
  -7  -2  -3 451.511 96.2664  19
  -7  -2  -3 490.394 107.022  18
  -7  -2  -3 484.833 107.706  17
  -7  -2  -3 530.194 102.522   9
   7   2   3 393.201 113.471   1
   7   2   3 288.306 141.330  16
   7   2   4 101.931 46.9223  15
   7   2   4 36.8422 38.6716  14
  -7  -2  -4 81.5894 44.6124   2
  -7  -2  -4 29.7610 28.7915  23
   7   2   4-27.6707 59.7738   6
  -7  -2  -4 84.5079 31.8253  21
  -7  -2  -4 62.0421 35.7458  19
  -7  -2  -4 7.43842 31.3375  18
   7   2   4 59.9938 48.9559   1
  -7  -2  -4 88.0499 55.0357  17
  -7  -2  -4 66.2316 48.3712   9
  -7  -2  -4 101.088 60.4091   8
   7   2   4 47.0459 69.9905  16
   7   2   5 1707.59 237.808   1
   7   2   5 1646.08 205.460  14
   7   2   5 1780.99 249.978   6
  -7  -2  -5 1667.95 206.681  23
  -7  -2  -5 1454.36 197.239  21
  -7  -2  -5 1676.61 207.537  19
  -7  -2  -5 1655.75 211.837  18
  -7  -2  -5 1560.18 184.046   2
  -7  -2  -5 1583.79 203.262  17
  -7  -2  -5 1466.55 167.973   9
  -7  -2  -5 1637.53 186.072   8
   7   2   5 1546.49 284.453  16
   7   2   5 1627.32 202.510  15
   7   2   6 2816.93 321.933   1
   7   2   6 3425.57 306.328  14
   7   2   6 3406.92 350.734   6
  -7  -2  -6 2873.02 281.888  23
  -7  -2  -6 3015.03 293.329  21
  -7  -2  -6 2935.09 289.369  19
  -7  -2  -6 3249.07 303.534  18
  -7  -2  -6 2829.92 253.928   2
  -7  -2  -6 3461.30 316.773  17
   7   2   6 2761.59 390.824  16
  -7  -2  -6 3177.94 267.993   8
   7   2   6 2916.86 285.550  15
   7   2   7 8610.64 593.785   1
   7   2   7 8837.61 522.932  14
   7   2   7 8038.53 547.698   6
  -7  -2  -7 8936.47 530.475  23
  -7  -2  -7 8815.71 532.075  21
  -7  -2  -7 9070.91 533.801  19
  -7  -2  -7 8856.96 530.754  18
  -7  -2  -7 6506.62 367.435  10
  -7  -2  -7 7962.93 453.012   2
  -7  -2  -7 8645.35 533.241  17
  -7  -2  -7 9250.59 487.610   8
   7   2   7 9136.25 532.174  15
   7   2   8 2184.85 313.874   1
   7   2   8 3482.27 334.127  14
   7   2   8 2781.67 320.267   6
  -7  -2  -8 2733.23 303.646  23
  -7  -2  -8 2616.15 300.239  21
  -7  -2  -8 2629.40 295.850  19
  -7  -2  -8 2787.65 304.324  18
  -7  -2  -8 2382.61 251.515   2
  -7  -2  -8 2451.97 295.141  17
  -7  -2  -8 2427.43 258.222   8
   7   2   8 2964.31 309.300  15
   7   2   9 749.793 169.516  15
   7   2   9 440.450 155.584   7
   7   2   9 677.096 152.844  14
  -7  -2  -9 528.163 128.418   2
  -7  -2  -9 409.765 143.510  23
   7   2   9 502.386 145.032   6
  -7  -2  -9 664.975 157.290  21
  -7  -2  -9 505.649 147.840  19
  -7  -2  -9 635.140 157.763  18
   7   2   9 520.403 171.933   1
  -7  -2  -9 496.071 131.448  17
  -7  -2  -9 723.019 154.768   8
   7   2  10 1540.70 255.485  15
   7   2  10 2147.98 303.066  14
   7   2  10 1212.83 229.657   7
  -7  -2 -10 1220.44 207.757   2
  -7  -2 -10 1667.17 261.507  23
  -7  -2 -10 1733.56 267.688  21
   7   2  10 1491.11 194.874  12
  -7  -2 -10 1438.67 227.067  20
  -7  -2 -10 1472.67 244.970  19
  -7  -2 -10 1479.10 251.593  18
  -7  -2 -10 1623.54 265.045  17
   7   2  10 1532.79 300.358   1
  -7  -2 -10 1842.19 260.522   8
   7   2  11 445.593 153.762  15
   7   2  11 362.718 138.776   7
   7   2  11 556.880 168.104  14
  -7  -2 -11 203.596 96.7357   2
  -7  -2 -11 657.641 176.959  23
  -7  -2 -11 288.911 121.322  21
  -7  -2 -11 742.113 189.617  19
  -7  -2 -11 303.928 119.507  18
  -7  -2 -11 318.613 114.603  10
   7   2  11 189.548 130.062   1
  -7  -2 -11 784.295 185.159   8
   7   3  -5 529.368 143.589   5
  -7  -3   5 375.549 114.516   9
  -7  -3   5 641.138 169.441   4
   7   3  -4 3618.74 398.516   6
  -7  -3   4 3397.58 310.433  11
   7   3  -4 3434.82 342.450   5
  -7  -3   4 3287.28 342.502   9
  -7  -3   4 3373.00 342.229   4
   7   3  -3 220.067 104.404   6
  -7  -3   3 234.626 73.5928  11
  -7  -3   3 364.763 108.069   9
  -7  -3   3 289.807 102.458   4
   7   3  -2 180.841 101.255   6
  -7  -3   2 543.515 106.213  11
  -7  -3   2 501.827 120.540   9
  -7  -3   2 421.882 111.680   4
  -7  -3   1 271.479 73.7047   2
   7   3  -1 399.495 127.853   6
  -7  -3   1 213.724 63.9078  11
  -7  -3   1 352.604 100.278   9
  -7  -3   1 346.042 96.9365   4
   7   3   0 1059.28 203.150   6
  -7  -3   0 856.270 107.240  11
  -7  -3   0 945.406 131.336   2
  -7  -3   0 1357.00 171.277   4
  -7  -3   0 988.468 152.623   9
   7   3   1 2322.98 222.933  14
  -7  -3  -1 1901.98 188.232  23
   7   3   1 1803.93 267.503   6
   7   3   1 1905.47 199.215  13
  -7  -3  -1 1949.79 192.433  22
  -7  -3  -1 2026.06 194.470  21
  -7  -3  -1 2277.15 201.419  19
  -7  -3  -1 2075.94 191.500  18
  -7  -3  -1 2478.12 211.607   2
  -7  -3  -1 1959.20 209.169   9
   7   3   1 1731.88 235.424  16
   7   3   1 1916.17 203.568  15
   7   3   2 6182.73 381.252  14
  -7  -3  -2 6123.34 354.343  23
   7   3   2 6471.03 492.500   6
   7   3   2 6172.99 369.659  13
  -7  -3  -2 5677.43 349.037  22
  -7  -3  -2 6202.75 360.786  21
  -7  -3  -2 6405.49 360.260  19
  -7  -3  -2 6264.44 354.129  18
  -7  -3  -2 6560.20 354.255   2
  -7  -3  -2 6009.51 359.506   9
   7   3   2 5024.22 420.670  16
   7   3   2 5997.15 371.948  15
   7   3   2 5686.08 345.292   1
   7   3   3 4280.67 317.126  14
  -7  -3  -3 3912.52 292.996  23
   7   3   3 4606.54 405.938   6
   7   3   3 4339.30 314.606  13
  -7  -3  -3 4080.76 301.534  22
  -7  -3  -3 4064.88 300.950  21
  -7  -3  -3 3997.69 296.151  19
  -7  -3  -3 3959.99 294.325  18
  -7  -3  -3 4384.20 293.454   2
  -7  -3  -3 3957.29 282.358   9
   7   3   3 3700.12 376.002  16
   7   3   3 4496.78 323.013  15
   7   3   3 3597.77 283.757   1
   7   3   4 1361.61 183.574  14
  -7  -3  -4 1217.57 167.136  23
   7   3   4 1528.43 191.752  13
  -7  -3  -4 1239.66 170.748  22
   7   3   4 1528.79 232.134   6
  -7  -3  -4 1117.32 164.240  21
   7   3   4 749.992 136.465   1
  -7  -3  -4 1337.36 175.063  19
  -7  -3  -4 1399.44 177.525  18
  -7  -3  -4 1301.76 161.007   2
  -7  -3  -4 1178.97 151.364   9
   7   3   4 1038.53 208.816  16
   7   3   4 1374.27 184.375  15
   7   3   5 194.440 83.9444  15
  -7  -3  -5 266.077 78.8715   2
   7   3   5 286.363 85.7667  14
  -7  -3  -5 318.743 89.7057  23
   7   3   5 200.396 112.130   6
  -7  -3  -5 381.957 101.269  22
   7   3   5 306.207 94.1296  13
  -7  -3  -5 173.189 67.5492  21
   7   3   5 35.7248 51.2437   1
  -7  -3  -5 275.752 91.7056  19
  -7  -3  -5 194.198 70.9768  18
  -7  -3  -5 237.250 72.0518   9
  -7  -3  -5 341.446 82.8300   8
   7   3   6 8401.34 498.333  14
   7   3   6 7974.99 551.547   6
  -7  -3  -6 8583.41 495.258  23
   7   3   6 8458.99 507.493  13
  -7  -3  -6 8487.71 504.017  22
  -7  -3  -6 8267.14 494.340  21
  -7  -3  -6 8389.38 490.482  19
  -7  -3  -6 8277.16 489.143  18
  -7  -3  -6 8534.12 443.686   2
  -7  -3  -6 8500.53 450.192   8
   7   3   6 8241.55 518.580   1
   7   3   6 8966.63 514.709  15
   7   3   7 26942.1 974.867  14
   7   3   7 26091.4 1061.01   6
  -7  -3  -7 26246.5 951.619  23
   7   3   7 28347.9 1007.57  13
  -7  -3  -7 25695.6 964.325  22
  -7  -3  -7 24870.0 942.976  21
  -7  -3  -7 25452.1 943.176  19
  -7  -3  -7 24715.3 933.133  18
  -7  -3  -7 20163.3 725.095  10
  -7  -3  -7 24919.6 844.091   2
  -7  -3  -7 26002.2 883.986   8
   7   3   7 25435.9 952.498  15
   7   3   7 22483.8 958.510   1
   7   3   8 587.224 141.385  15
   7   3   8 325.397 116.336  14
  -7  -3  -8 385.284 97.7822   2
  -7  -3  -8 584.166 139.152  23
   7   3   8 461.612 133.578   6
  -7  -3  -8 251.036 100.503  22
   7   3   8 531.275 137.505  13
  -7  -3  -8 340.632 107.867  21
   7   3   8 292.802 129.443   1
  -7  -3  -8 265.682 99.0621  19
  -7  -3  -8 636.362 146.182  18
  -7  -3  -8 332.032 90.1099  10
  -7  -3  -8 555.253 120.911   8
   7   3   9 194.641 91.4687  15
   7   3   9 43.3630 43.3113  14
   7   3   9 197.415 141.254   7
  -7  -3  -9 205.738 85.0279   2
  -7  -3  -9 129.098 75.7919  23
   7   3   9 104.630 74.2701   6
  -7  -3  -9 148.838 80.9374  22
   7   3   9 205.876 98.7473  13
  -7  -3  -9 149.552 80.9329  21
   7   3   9 149.912 77.3355   1
  -7  -3  -9 23.6693 49.7192  19
  -7  -3  -9 57.9770 62.5182  18
  -7  -3  -9 102.330 64.7114  10
  -7  -3  -9 154.529 94.9763   8
   7   3  10 521.353 157.451  15
   7   3  10 540.973 170.249   7
   7   3  10 687.656 171.763  14
  -7  -3 -10 909.052 165.783   2
  -7  -3 -10 569.042 160.121  23
  -7  -3 -10 727.772 192.946  22
   7   3  10 882.314 195.357  13
   7   3  10 593.017 125.926  12
  -7  -3 -10 889.499 197.212  21
  -7  -3 -10 903.717 196.189  19
   7   3  10 667.995 184.234   1
  -7  -3 -10 689.611 171.672  18
  -7  -3 -10 795.006 162.995  10
  -7  -3 -10 495.125 138.997   8
   7   3  11 269.903 120.097  15
   7   3  11 314.849 132.275   7
   7   3  11 298.034 136.015  14
  -7  -3 -11 560.488 144.945   2
  -7  -3 -11 407.069 140.308  23
  -7  -3 -11 173.724 98.6181  22
   7   3  11 167.940 100.313  13
   7   3  11 270.014 95.3237  12
  -7  -3 -11 218.530 102.249  21
  -7  -3 -11 449.992 139.271  19
  -7  -3 -11 455.823 140.353  18
  -7  -3 -11 374.986 122.525  10
   7   3  11 256.641 136.638   1
  -7  -3 -11 515.088 164.475   8
   7   3  12 1500.76 269.529  15
   7   3  12 622.576 187.399   7
   7   3  12 1272.04 255.022  14
  -7  -3 -12 1428.93 261.087  23
  -7  -3 -12 1425.21 264.968  22
   7   3  12 1528.60 272.179  13
  -7  -3 -12 1179.59 237.796  21
   7   3  12 949.000 172.202  12
  -7  -3 -12 1289.32 247.588  19
  -7  -3 -12 1035.14 217.912  18
  -7  -3 -12 679.907 167.970  10
   7   3  12 1162.92 296.323   1
  -7  -3 -12 1267.19 235.109   8
   7   4  -5 1720.31 257.458   5
  -7  -4   5 1133.25 213.451   9
  -7  -4   5 1728.66 261.855   4
   7   4  -4 19207.9 856.068   5
  -7  -4   4 17216.6 812.855   9
   7   4  -3 1377.37 246.946   6
   7   4  -3 1314.19 201.709   5
  -7  -4   3 1436.25 206.063   9
  -7  -4   3 1736.62 238.574   4
   7   4  -2 127.110 87.6350   6
  -7  -4   2 51.9048 53.1688   9
  -7  -4   2 7.35052 48.5869   4
  -7  -4   1 48.2828 34.4025   2
   7   4  -1 182.407 96.3939   6
  -7  -4   1 142.848 65.9526   9
  -7  -4   1 112.920 71.7937   4
  -7  -4   0 522.180 101.888   2
   7   4   0 717.031 171.384   6
  -7  -4   0 707.090 126.257   9
  -7  -4   0 605.575 122.121   4
   7   4   1 93.0283 49.3578  15
  -7  -4  -1 181.525 54.5416   2
   7   4   1 149.610 65.0980  14
  -7  -4  -1 130.554 56.4870  23
  -7  -4  -1 106.772 50.2271  22
   7   4   1 111.898 97.0056   6
   7   4   1 70.4727 48.0054  13
  -7  -4  -1 110.331 45.5237  21
  -7  -4  -1 87.7240 43.7687  19
  -7  -4  -1 121.288 39.0970  18
  -7  -4  -1 162.071 67.0593   9
  -7  -4  -1 231.253 67.8854   4
   7   4   2 18949.7 724.531  14
  -7  -4  -2 17094.9 652.051  23
   7   4   2 19565.6 872.431   6
   7   4   2 19173.0 705.254  13
  -7  -4  -2 17016.5 655.724  22
  -7  -4  -2 17948.7 664.767  21
  -7  -4  -2 16850.6 639.995  19
  -7  -4  -2 19280.8 652.074   2
  -7  -4  -2 17804.7 652.535  18
  -7  -4  -2 18041.6 664.263   9
   7   4   2 17836.8 610.687   1
   7   4   2 18084.4 711.190  15
   7   4   3 99336.5 2180.54  14
   7   4   3 97605.4 2418.84   6
  -7  -4  -3 92825.0 2085.01  23
   7   4   3 96888.4 2143.75  13
  -7  -4  -3 92511.3 2098.84  22
  -7  -4  -3 97093.2 2114.43  21
  -7  -4  -3 93988.4 2079.95  19
  -7  -4  -3 102388. 2054.47   2
  -7  -4  -3 95272.7 2082.21  18
  -7  -4  -3 94554.5 2039.90   9
   7   4   3 95450.0 2006.58   1
   7   4   3 98729.1 2178.63  15
   7   4   4 1842.38 219.779  14
   7   4   4 1925.53 267.435   6
  -7  -4  -4 1832.41 210.541  23
   7   4   4 2088.29 226.851  13
  -7  -4  -4 1848.64 211.664  22
  -7  -4  -4 1992.24 219.498  21
  -7  -4  -4 1690.78 202.322  19
  -7  -4  -4 1910.23 212.136  18
  -7  -4  -4 2182.13 208.036   2
  -7  -4  -4 1768.63 188.481   9
   7   4   4 1884.86 195.503   1
   7   4   4 1920.80 224.263  15
   7   4   5 1318.34 193.084  14
  -7  -4  -5 1485.29 193.363  23
   7   4   5 1370.20 189.955  13
  -7  -4  -5 1520.74 199.655  22
   7   4   5 1334.10 220.293   6
  -7  -4  -5 1360.73 190.331  21
  -7  -4  -5 1336.38 184.840  19
  -7  -4  -5 1428.36 188.877  18
  -7  -4  -5 1431.26 171.361   2
  -7  -4  -5 1418.70 169.560   8
   7   4   5 1233.36 173.539   1
   7   4   5 1319.27 191.085  15
   7   4   6 1816.81 233.706  14
   7   4   6 2213.66 295.788   6
  -7  -4  -6 1634.51 214.311  23
   7   4   6 1983.06 239.625  13
  -7  -4  -6 1879.61 231.311  22
  -7  -4  -6 1767.25 226.158  21
  -7  -4  -6 1985.86 231.918  19
  -7  -4  -6 1497.49 160.568  10
  -7  -4  -6 1869.21 229.133  18
  -7  -4  -6 1705.75 193.132   2
  -7  -4  -6 2022.13 213.079   8
   7   4   6 1907.10 227.944   1
   7   4   6 1805.62 233.267  15
   7   4   7 1259.94 206.014  14
  -7  -4  -7 1332.03 200.377  23
   7   4   7 2004.91 249.704  13
   7   4   7 1647.30 265.961   6
  -7  -4  -7 1671.85 230.679  22
  -7  -4  -7 1813.55 237.816  21
  -7  -4  -7 1550.54 217.666  19
  -7  -4  -7 1278.06 162.116  10
  -7  -4  -7 1481.66 209.994  18
  -7  -4  -7 1381.61 183.041   2
  -7  -4  -7 1544.55 196.506   8
   7   4   7 1659.14 228.106   1
   7   4   7 1460.42 219.244  15
   7   4   8 756.442 159.151  15
  -7  -4  -8 783.424 140.271   2
   7   4   8 811.196 172.393  14
   7   4   8 750.906 180.895   6
  -7  -4  -8 524.478 131.786  22
   7   4   8 557.556 140.096   1
   7   4   8 699.976 157.534  13
  -7  -4  -8 992.808 180.950  23
  -7  -4  -8 634.190 146.181  21
  -7  -4  -8 760.807 160.277  19
  -7  -4  -8 673.451 147.405  18
  -7  -4  -8 704.274 129.516  10
  -7  -4  -8 699.162 143.639   8
   7   4   9 5.95227 49.2406  15
   7   4   9-37.0804 60.9942  14
  -7  -4  -9 16.6914 39.3525   2
   7   4   9 3.32863 96.0741   7
  -7  -4  -9-60.0353 55.2873  23
   7   4   9 51.5368 57.7895   6
  -7  -4  -9 12.0039 61.1891  22
   7   4   9-61.0283 63.2052  13
   7   4   9 148.834 91.9932   1
  -7  -4  -9 80.2433 66.3756  21
  -7  -4  -9-39.0885 41.0875  19
  -7  -4  -9-70.9825 62.3955  18
  -7  -4  -9-12.9713 57.4043  10
  -7  -4  -9 81.7747 63.3890   8
   7   4  10 531.282 154.261  15
   7   4  10 406.778 141.690  14
   7   4  10 409.254 151.367   7
  -7  -4 -10 268.254 99.0152   2
  -7  -4 -10 330.042 117.302  23
   7   4  10 470.257 159.464   6
  -7  -4 -10 425.110 131.255  22
   7   4  10 331.809 122.769  13
   7   4  10 313.950 96.9096  12
  -7  -4 -10 452.702 139.584  21
   7   4  10 419.678 150.121   1
  -7  -4 -10 522.359 153.552  19
  -7  -4 -10 427.188 128.562  18
  -7  -4 -10 172.477 81.8533  10
  -7  -4 -10 381.639 110.453   8
   7   4  11-36.9307 72.4195  15
   7   4  11-8.17852 68.1906   7
   7   4  11 48.5859 74.8450  14
  -7  -4 -11 100.031 79.1017  23
   7   4  11 198.686 103.579  13
  -7  -4 -11 124.819 70.2243  21
   7   4  11 92.8167 89.5897  12
   7   4  11-55.7410 126.107   1
  -7  -4 -11-12.5534 80.5082  19
  -7  -4 -11 0.94274 49.7123  18
  -7  -4 -11 107.038 90.4106  10
  -7  -4 -11 226.447 107.051   8
   7   5  -5 301.267 102.187   5
  -7  -5   5 132.230 73.2989   9
  -7  -5   5 265.769 129.456   4
   7   5  -4 38.8097 53.7238   5
  -7  -5   4-140.363 76.7713   9
  -7  -5   4-47.1891 77.1704   4
   7   5  -3-2.01806 72.0462   6
   7   5  -3 82.6976 70.5493  20
   7   5  -3 141.698 70.3468   5
  -7  -5   3 18.0813 42.5203   9
  -7  -5   3 239.359 116.235   4
   7   5  -2 2798.96 322.050   6
   7   5  -2 2929.25 289.204   5
  -7  -5   2 2424.28 250.576   9
  -7  -5   2 3148.28 303.741   4
   7   5  -1 2148.63 283.616   6
   7   5  -1 2223.92 239.135   5
  -7  -5   1 1949.99 197.268   2
  -7  -5   1 2295.21 230.421   9
  -7  -5   1 2508.82 249.286   4
   7   5   0 311.985 94.0718  15
  -7  -5   0 340.121 83.6976   2
   7   5   0 315.949 98.6073  14
  -7  -5   0 284.839 78.2435  23
  -7  -5   0 409.269 93.0599  22
   7   5   0 333.689 104.906   6
   7   5   0 326.148 91.4721  13
  -7  -5   0 264.685 72.2655  21
  -7  -5   0 255.502 75.4956  19
  -7  -5   0 302.958 86.8370   9
   7   5   0 297.311 91.2722  17
  -7  -5   0 396.257 89.5118   4
   7   5   1 310.256 103.447  15
  -7  -5  -1 277.775 84.4838   2
   7   5   1 394.801 113.789  14
  -7  -5  -1 294.027 78.7863  23
  -7  -5  -1 353.274 89.4921  22
   7   5   1 258.272 96.2572   6
   7   5   1 307.459 95.2722  13
  -7  -5  -1 464.837 102.153  21
  -7  -5  -1 315.220 84.0676  19
  -7  -5  -1 382.630 88.9244   9
   7   5   1 315.078 98.9066  17
  -7  -5  -1 385.748 85.5262   4
   7   5   2 40.2246 62.5184  15
   7   5   2 152.287 52.7615   1
  -7  -5  -2 122.444 64.3653   2
   7   5   2 76.3868 41.8346  14
  -7  -5  -2 229.817 73.1081  23
  -7  -5  -2 136.396 63.7713  22
   7   5   2 132.183 91.1817   6
   7   5   2 161.867 64.8844  13
  -7  -5  -2 151.418 64.9783  21
  -7  -5  -2 203.912 68.9371  19
  -7  -5  -2 239.533 74.2880   9
  -7  -5  -2 155.846 47.3484   4
   7   5   3 54.1187 52.0231  15
   7   5   3-8.09216 30.8374   1
  -7  -5  -3 3.05875 33.2222   2
   7   5   3 91.1973 58.9465  14
  -7  -5  -3 127.508 63.1574  23
  -7  -5  -3 17.7883 37.2179  22
   7   5   3 103.759 99.0036   6
   7   5   3 74.5197 53.3016  13
  -7  -5  -3 41.7161 53.3134  21
  -7  -5  -3-27.6517 60.0626  19
  -7  -5  -3-4.00918 42.7911  18
  -7  -5  -3 67.1504 54.0644   9
   7   5   4 39689.0 1219.85  14
   7   5   4 42174.0 1397.03   6
  -7  -5  -4 37356.3 1137.28  23
   7   5   4 39043.9 1181.02  13
  -7  -5  -4 38451.2 1158.25  22
  -7  -5  -4 38492.4 1150.74  21
  -7  -5  -4 36851.4 1120.92  19
  -7  -5  -4 41847.5 1121.75   2
  -7  -5  -4 37572.3 1124.34  18
  -7  -5  -4 37920.1 1081.77   9
   7   5   4 40679.6 1070.81   1
   7   5   4 38863.0 1211.41  15
   7   5   5 448.311 125.149  15
  -7  -5  -5 522.819 113.234   2
   7   5   5 434.647 99.6668   1
   7   5   5 622.072 146.802  14
  -7  -5  -5 384.824 110.076  23
   7   5   5 634.886 171.895   6
  -7  -5  -5 477.819 115.673  22
   7   5   5 462.161 118.574  13
  -7  -5  -5 382.198 106.923  21
  -7  -5  -5 455.956 112.985  19
  -7  -5  -5 464.154 113.549  18
  -7  -5  -5 300.405 70.9747  10
   7   5   6 299.287 107.031  15
  -7  -5  -6 228.764 78.9280   2
   7   5   6 274.708 86.8278   1
   7   5   6 298.158 100.669  14
  -7  -5  -6 482.029 128.056  23
   7   5   6 342.551 122.622   6
  -7  -5  -6 385.313 112.263  22
   7   5   6 205.827 82.9625  13
  -7  -5  -6 305.214 90.3797  21
  -7  -5  -6 321.556 83.7676  19
  -7  -5  -6 342.890 105.450  18
  -7  -5  -6 244.651 66.3192  10
  -7  -5  -6 282.644 79.5753   8
   7   5   7 2699.59 310.809  14
   7   5   7 2942.09 358.926   6
  -7  -5  -7 2527.79 281.637  23
   7   5   7 3116.45 318.312  13
  -7  -5  -7 2602.55 290.608  22
  -7  -5  -7 2995.47 310.067  21
  -7  -5  -7 2702.78 290.226  19
  -7  -5  -7 2400.46 231.097  10
  -7  -5  -7 2663.40 288.206  18
  -7  -5  -7 2992.35 268.477   2
  -7  -5  -7 3112.57 272.799   8
   7   5   7 2928.65 288.124   1
   7   5   7 2806.20 307.477  15
   7   5   8 1496.07 235.770  15
   7   5   8 1431.65 242.373  14
   7   5   8 1684.30 245.395  13
  -7  -5  -8 1310.02 210.382  23
   7   5   8 1601.44 265.376   6
  -7  -5  -8 1241.34 208.901  22
  -7  -5  -8 1805.39 247.976  21
  -7  -5  -8 1601.77 230.229  19
  -7  -5  -8 1472.69 192.770  10
  -7  -5  -8 1602.45 205.818   2
  -7  -5  -8 1368.17 213.407  18
  -7  -5  -8 1493.86 198.048   8
   7   5   8 1446.09 238.839   1
   7   5   9 39.7542 85.9170  15
  -7  -5  -9 160.424 74.7817   2
   7   5   9 86.8256 79.7539  14
  -7  -5  -9 136.416 74.2143  23
   7   5   9-30.8186 90.1240   6
   7   5   9 150.638 92.4246   1
  -7  -5  -9 65.8839 41.7040  22
   7   5   9 33.2317 52.9808  13
   7   5   9 126.033 70.3535  12
  -7  -5  -9 49.1064 64.4289  21
  -7  -5  -9 67.6839 71.3414  19
  -7  -5  -9 4.31426 44.1894  18
  -7  -5  -9 13.8885 56.4360  10
  -7  -5  -9 103.882 62.4282   8
   7   5  10-170.234 95.0455  15
   7   5  10 139.826 90.6692  14
  -7  -5 -10 35.0923 50.8044   2
   7   5  10 189.199 134.824   7
  -7  -5 -10 165.041 85.8463  23
   7   5  10 160.617 110.510   6
  -7  -5 -10 123.399 85.3331  22
   7   5  10 81.9324 80.0149   1
   7   5  10 26.8898 58.3173  13
  -7  -5 -10 67.0225 85.6493  21
   7   5  10-3.50746 72.5104  12
  -7  -5 -10 262.358 104.597  19
  -7  -5 -10 68.7479 71.8344  18
  -7  -5 -10 109.578 80.3967  10
  -7  -5 -10 103.415 82.9326   8
   7   5  11 19563.4 1079.85   7
   7   5  11 22375.3 1083.69  14
   7   5  11 20533.9 1056.27   6
  -7  -5 -11 22016.3 1027.69  23
   7   5  11 21902.2 1034.42  13
  -7  -5 -11 22659.6 1046.04  22
  -7  -5 -11 23159.5 1047.99  21
   7   5  11 23446.7 932.576  12
  -7  -5 -11 22178.8 1026.14  19
  -7  -5 -11 21167.5 1001.58  18
  -7  -5 -11 20772.9 939.248  10
  -7  -5 -11 21459.3 914.617   8
   7   5  11 22458.8 1112.25   1
   7   5  11 22059.9 1074.10  15
   7   6  -5-35.3297 55.8150   5
  -7  -6   5 34.4152 44.3786   9
  -7  -6   5 107.490 93.1144   4
   7   6  -4 114.099 84.5738  20
   7   6  -4 63.2153 63.3773   5
  -7  -6   4 112.262 71.6269   9
  -7  -6   4 59.0692 70.2730   4
   7   6  -3 688.614 170.031  20
   7   6  -3 636.512 150.069   5
  -7  -6   3 591.003 127.820   9
  -7  -6   3 557.755 140.410   4
   7   6  -2 539.301 138.998   6
   7   6  -2 435.711 117.769   5
  -7  -6   2 529.064 120.663   9
  -7  -6   2 638.316 142.143   4
  -7  -6   1 324.413 89.4835   2
   7   6  -1 466.730 138.413   6
   7   6  -1 340.171 98.9461   5
  -7  -6   1 650.050 124.000   9
  -7  -6   1 743.061 153.231   4
   7   6   0 17932.8 832.901  14
  -7  -6   0 18540.1 719.164  23
   7   6   0 22201.4 936.136   6
   7   6   0 19828.3 804.680  13
  -7  -6   0 19708.7 742.351  22
  -7  -6   0 19298.9 725.784  21
  -7  -6   0 18291.7 699.913  19
   7   6   0 19732.4 750.233   5
  -7  -6   0 20567.8 759.126   2
  -7  -6   0 21722.1 751.177   9
  -7  -6   0 22688.7 765.828   4
   7   6   0 19512.0 809.576  17
   7   6   0 19666.9 843.602  15
   7   6   1 338.886 106.231  15
  -7  -6  -1 431.811 111.003   2
   7   6   1 332.823 114.744  14
  -7  -6  -1 325.797 94.3683  23
  -7  -6  -1 344.703 90.4056  22
   7   6   1 548.385 152.738   6
   7   6   1 421.047 110.475  13
  -7  -6  -1 344.640 95.5197  21
  -7  -6  -1 432.287 101.464  19
   7   6   1 320.074 87.4726   5
  -7  -6  -1 445.629 101.720   9
   7   6   1 311.340 96.7377  17
  -7  -6  -1 384.416 89.4574   4
   7   6   2 172.374 92.9959  15
  -7  -6  -2 235.046 87.5612   2
   7   6   2 211.297 82.8424  14
  -7  -6  -2 226.864 85.4534  23
  -7  -6  -2 139.308 74.8724  22
   7   6   2 148.541 97.5952   6
   7   6   2 101.841 69.9818  13
  -7  -6  -2 235.873 87.1308  21
  -7  -6  -2 141.606 55.7531  19
   7   6   2 81.9891 39.6394   5
  -7  -6  -2 214.217 65.4039   9
   7   6   2 148.619 75.7789  17
   7   6   2 169.396 52.9415   1
   7   6   3 3957.04 360.901  14
   7   6   3 4678.35 427.493   6
  -7  -6  -3 3681.85 312.173  23
   7   6   3 3781.96 335.461  13
  -7  -6  -3 3979.87 329.541  22
  -7  -6  -3 3942.17 323.240  21
  -7  -6  -3 4020.27 317.610  19
  -7  -6  -3 3954.36 313.852   2
  -7  -6  -3 4226.57 302.029   9
   7   6   3 3888.55 271.308   1
   7   6   3 4112.90 351.629  17
   7   6   3 4070.00 362.667  15
   7   6   4 141.559 73.3303  15
  -7  -6  -4 239.096 83.7605   2
   7   6   4 277.012 96.2634  14
  -7  -6  -4 102.877 60.4881  23
   7   6   4 70.5215 63.9783   6
  -7  -6  -4 211.373 82.9568  22
   7   6   4 201.293 88.8371  13
  -7  -6  -4 87.1454 67.1236  21
  -7  -6  -4 125.709 63.2198  19
  -7  -6  -4 249.251 66.5860  10
   7   6   4 36.6164 33.3927   1
   7   6   5 7739.81 518.435  14
   7   6   5 8859.75 625.396   6
  -7  -6  -5 7716.33 479.704  23
   7   6   5 8393.90 521.296  13
  -7  -6  -5 7132.73 467.721  22
  -7  -6  -5 8275.21 496.669  21
  -7  -6  -5 7940.87 479.079  19
  -7  -6  -5 8902.21 477.327   2
  -7  -6  -5 7396.32 389.774  10
  -7  -6  -5 8220.62 485.953  18
   7   6   5 8582.17 440.399   1
   7   6   5 7705.08 512.970  15
   7   6   6 2376.85 294.182  14
   7   6   6 3215.25 375.956   6
  -7  -6  -6 2742.92 290.171  23
   7   6   6 2221.10 269.019  13
  -7  -6  -6 2498.64 279.507  22
  -7  -6  -6 2551.23 278.261  21
  -7  -6  -6 2731.23 283.025  19
  -7  -6  -6 3134.21 278.771   2
  -7  -6  -6 2362.69 226.885  10
  -7  -6  -6 2807.31 288.415  18
   7   6   6 2830.00 263.149   1
  -7  -6  -6 2595.18 244.885   8
   7   6   6 2822.60 316.103  15
   7   6   7 3474.36 366.791  14
   7   6   7 3709.02 416.560   6
  -7  -6  -7 3060.23 317.555  23
   7   6   7 3577.83 351.603  13
  -7  -6  -7 3504.24 343.465  22
  -7  -6  -7 3386.13 334.894  21
  -7  -6  -7 3137.71 318.428  19
  -7  -6  -7 3425.06 288.441  10
  -7  -6  -7 3992.04 323.563   2
  -7  -6  -7 3077.84 314.806  18
   7   6   7 3418.93 313.138   1
  -7  -6  -7 3157.55 279.424   8
   7   6   7 3464.62 360.871  15
   7   6   8 368.345 132.461  15
  -7  -6  -8 302.675 98.5093   2
   7   6   8 327.902 112.886   1
   7   6   8 403.615 138.266  14
  -7  -6  -8 265.131 107.639  23
   7   6   8 398.434 151.998   6
  -7  -6  -8 266.691 112.893  22
   7   6   8 197.797 103.072  13
  -7  -6  -8 197.278 85.8658  21
  -7  -6  -8 318.492 108.848  19
  -7  -6  -8 325.509 107.520  18
  -7  -6  -8 264.136 87.5488  10
  -7  -6  -8 277.929 95.5875   8
   7   6   9 552.820 153.696  15
  -7  -6  -9 609.606 134.077   2
   7   6   9 334.564 131.682  14
   7   6   9 472.941 172.224   7
   7   6   9 447.838 125.729   1
  -7  -6  -9 472.726 136.964  23
   7   6   9 404.323 150.412   6
  -7  -6  -9 518.605 139.270  22
   7   6   9 503.268 152.022  13
   7   6   9 457.936 128.919  12
  -7  -6  -9 467.237 135.025  21
  -7  -6  -9 361.997 121.117  19
  -7  -6  -9 513.326 146.153  18
  -7  -6  -9 465.591 120.719  10
  -7  -6  -9 435.478 121.109   8
   7   6  10 130.062 109.017  15
  -7  -6 -10-42.5238 50.9928   2
   7   6  10-6.45378 63.3779  14
   7   6  10 114.088 83.3170   7
  -7  -6 -10 10.6938 79.1206  23
   7   6  10 43.3372 60.6061   1
   7   6  10-23.1611 72.0579   6
  -7  -6 -10 13.5232 52.8897  22
   7   6  10 30.6609 58.3301  13
  -7  -6 -10 8.80349 83.2285  21
   7   6  10-21.7815 55.6581  12
  -7  -6 -10-38.2607 57.2825  19
  -7  -6 -10 5.16937 44.1894  18
  -7  -6 -10 115.027 82.4285  10
  -7  -6 -10-37.9270 76.0797   8
   7   6  11 2063.99 335.095  15
   7   6  11 2883.35 409.483   7
   7   6  11 1972.97 330.267  14
  -7  -6 -11 2522.84 338.486  23
   7   6  11 2960.20 374.333  13
  -7  -6 -11 2757.97 354.466  22
   7   6  11 2527.30 359.615   1
  -7  -6 -11 2694.92 344.886  21
   7   6  11 2733.60 310.117  12
  -7  -6 -11 2314.75 322.071  19
  -7  -6 -11 2414.91 328.766  18
  -7  -6 -11 2359.07 308.711  10
  -7  -6 -11 2542.85 294.990   8
   7   7  -4 720.672 181.178  20
   7   7  -4 670.063 169.049   5
  -7  -7   4 523.614 128.888   9
  -7  -7   4 733.771 177.906   4
   7   7  -3 1457.11 256.231  20
   7   7  -3 1427.91 225.676   5
  -7  -7   3 1134.60 177.495   9
  -7  -7   3 1228.73 210.231   4
  -7  -7   2-17.8396 43.4694   2
   7   7  -2-54.6870 59.2378  20
   7   7  -2 110.907 69.9068   5
  -7  -7   2 172.636 69.7072   9
  -7  -7   2-20.4806 71.2794   4
  -7  -7   1 658.946 137.405   2
   7   7  -1 635.581 155.512   6
   7   7  -1 501.024 124.580   5
  -7  -7   1 682.376 128.760   9
  -7  -7   1 684.729 137.413   4
   7   7   0 1820.77 274.885  14
   7   7   0 2198.21 283.342   6
  -7  -7   0 1887.43 223.545  23
   7   7   0 1899.85 256.476  13
  -7  -7   0 1812.96 224.468  22
  -7  -7   0 1661.58 208.403  21
   7   7   0 2034.42 230.472   5
  -7  -7   0 2075.48 244.049   2
  -7  -7   0 1947.61 209.116   9
  -7  -7   0 1812.49 209.842   4
   7   7   0 1870.97 254.764  17
   7   7   0 2085.48 284.447  15
   7   7   1 286.800 110.410  15
  -7  -7  -1 41.6486 42.3835   2
   7   7   1 158.098 75.7253  14
  -7  -7  -1 150.280 66.2136  23
   7   7   1 1.17861 54.8285   6
  -7  -7  -1 92.7254 63.8422  22
   7   7   1 116.498 64.1335  13
  -7  -7  -1 153.118 74.0536  21
  -7  -7  -1 101.138 58.8235  19
   7   7   1 163.465 68.0685   5
  -7  -7  -1 82.9520 43.7021   9
   7   7   1 212.249 89.3517  17
  -7  -7  -1 10.3618 38.8076   4
   7   7   2 2206.46 290.806  14
   7   7   2 2419.64 309.691   6
  -7  -7  -2 2030.87 241.194  23
   7   7   2 1948.25 255.861  13
  -7  -7  -2 1911.48 235.160  22
  -7  -7  -2 2374.36 261.208  21
  -7  -7  -2 2173.77 243.839  19
   7   7   2 1992.41 207.509   5
  -7  -7  -2 2171.82 251.876   2
   7   7   2 1867.80 187.897   1
  -7  -7  -2 2560.15 236.831   9
   7   7   2 1846.34 248.711  17
   7   7   2 2089.09 283.397  15
   7   7   3-20.0356 68.3524  15
  -7  -7  -3 50.2367 63.5034   2
   7   7   3 1.98908 58.2809  14
  -7  -7  -3-19.8148 39.1726  23
   7   7   3-44.5415 66.8160   6
  -7  -7  -3-32.7793 62.9886  22
   7   7   3 46.0521 55.3064  13
  -7  -7  -3 10.1795 46.6822  21
  -7  -7  -3 32.5699 33.8183  19
   7   7   3-18.0572 30.0056   5
  -7  -7  -3 26.9368 45.3946   9
   7   7   3-30.7021 39.7303   1
   7   7   3 39.8232 69.3823  17
   7   7   4 7977.26 555.582  14
   7   7   4 9162.67 635.157   6
  -7  -7  -4 8417.32 510.325  23
   7   7   4 7655.37 513.838  13
  -7  -7  -4 7306.93 484.134  22
  -7  -7  -4 8386.92 507.902  21
  -7  -7  -4 7942.44 489.396  19
   7   7   4 8027.82 389.271   5
  -7  -7  -4 9142.92 522.918   2
  -7  -7  -4 7481.77 408.647  10
   7   7   4 8763.98 441.527   1
   7   7   4 7854.99 525.972  17
   7   7   4 7708.52 540.169  15
   7   7   5 3.64828 57.4950  15
  -7  -7  -5 42.4874 51.6288   2
   7   7   5-39.6356 58.1141  14
  -7  -7  -5 59.9242 62.8968  23
   7   7   5-57.6809 80.4872   6
  -7  -7  -5 109.231 70.2509  22
   7   7   5 100.234 69.9774  13
  -7  -7  -5 55.8347 64.6024  21
  -7  -7  -5 39.8105 61.3991  19
  -7  -7  -5 64.4879 56.6560  10
   7   7   5-52.7052 56.3873  17
   7   7   5 95.5579 57.2672   1
   7   7   6 39.1198 57.3079  15
  -7  -7  -6 8.14587 48.0050   2
   7   7   6-13.5839 51.5440  14
  -7  -7  -6-8.25540 47.8074  23
   7   7   6-39.2579 68.9892   6
  -7  -7  -6 68.5080 58.7580  22
   7   7   6 20.5890 44.4098  13
  -7  -7  -6-18.4840 47.7382  21
  -7  -7  -6 100.166 74.0197  19
  -7  -7  -6-12.9812 52.3863  10
   7   7   6 17.8660 43.4330  17
   7   7   6-19.5769 48.8129   1
   7   7   7 210.155 114.320  15
  -7  -7  -7 214.758 82.5998   2
   7   7   7 282.112 133.064  14
  -7  -7  -7 116.379 85.3766  23
   7   7   7 227.606 122.916   6
  -7  -7  -7 304.812 98.2419  22
   7   7   7 200.591 100.350  13
  -7  -7  -7 203.166 91.2557  21
  -7  -7  -7 229.603 88.9530  19
  -7  -7  -7 208.300 76.8978  10
  -7  -7  -7 248.692 85.3488   8
   7   7   7 223.289 100.593  17
   7   7   7 256.497 87.1630   1
   7   7   8 3619.82 400.010  14
   7   7   8 4150.31 467.628   6
  -7  -7  -8 4029.88 387.461  23
   7   7   8 4289.66 409.609  13
  -7  -7  -8 4257.38 402.515  22
  -7  -7  -8 3825.02 378.284  21
  -7  -7  -8 3508.25 356.716  19
  -7  -7  -8 4442.06 363.556  10
  -7  -7  -8 4560.91 357.785   2
   7   7   8 4246.06 412.482  17
   7   7   8 4139.67 369.419   1
  -7  -7  -8 4250.31 328.183   8
   7   7   8 3942.68 412.078  15
   7   7   9 797.319 197.146  15
  -7  -7  -9 955.659 168.955   2
   7   7   9 718.859 173.150   1
   7   7   9 891.283 209.524  14
   7   7   9 951.974 254.941   7
  -7  -7  -9 930.113 194.387  23
   7   7   9 713.155 194.588   6
  -7  -7  -9 622.821 160.015  22
   7   7   9 865.425 200.675  13
  -7  -7  -9 596.004 158.341  21
   7   7   9 981.553 184.506  12
  -7  -7  -9 652.457 166.221  19
  -7  -7  -9 695.895 159.315  10
  -7  -7  -9 690.001 144.569   8
   7   7  10 4653.42 539.941   7
   7   7  10 4227.25 472.310  14
   7   7  10 3647.29 463.293   6
  -7  -7 -10 3833.23 413.134  23
   7   7  10 4302.91 453.456  13
  -7  -7 -10 4832.29 463.869  22
  -7  -7 -10 4064.08 424.798  21
   7   7  10 4964.01 413.465  12
  -7  -7 -10 4236.58 423.483  19
  -7  -7 -10 4349.02 400.960  10
  -7  -7 -10 5220.49 399.657   2
   7   7  10 5135.38 496.451  17
  -7  -7 -10 4444.23 366.208   8
   7   7  10 4877.20 454.275   1
   7   7  10 4060.38 452.072  15
   7   7  11 2114.89 340.086  15
   7   7  11 1812.34 330.152  14
   7   7  11 1712.61 338.530   7
  -7  -7 -11 2284.32 331.548  23
   7   7  11 1882.74 299.518   1
  -7  -7 -11 2500.07 345.961  22
   7   7  11 1751.01 296.480  13
  -7  -7 -11 2344.77 347.615  21
   7   7  11 2217.26 293.081  12
  -7  -7 -11 2381.10 331.216  19
  -7  -7 -11 2053.97 286.978  10
   7   7  11 1933.09 313.155  17
  -7  -7 -11 1824.46 244.455   8
   7   8  -3 375.564 172.175  20
   7   8  -3 303.473 107.053   5
  -7  -8   3 152.061 82.8453   4
   7   8  -2 714.313 184.463  20
   7   8  -2 780.034 163.463   5
  -7  -8   2 1050.38 192.600   4
  -7  -8   2 872.466 176.368   2
   7   8  -1 180.537 120.356  20
   7   8  -1 233.101 90.8501   5
  -7  -8   1 83.8667 57.8163   9
  -7  -8   1 130.444 75.2540   4
  -7  -8   1 184.459 84.1290   2
   7   8   0 4048.26 433.700  14
   7   8   0 4493.10 414.772   6
  -7  -8   0 3537.78 332.549  23
   7   8   0 3357.40 365.471  13
  -7  -8   0 3506.20 331.988  22
  -7  -8   0 3990.14 346.305  21
   7   8   0 3549.09 319.408   5
  -7  -8   0 3010.98 328.345   2
   7   8   0 3926.24 395.094  18
  -7  -8   0 4476.16 320.744   9
   7   8   0 3795.39 393.188  17
  -7  -8   0 4165.56 328.643   4
   7   8   0 4006.49 421.408  15
   7   8   1 160.153 91.4079  14
  -7  -8  -1 147.208 67.7958  23
   7   8   1 169.861 92.5404   6
  -7  -8  -1 109.404 75.6116  22
   7   8   1 280.624 108.342  13
  -7  -8  -1 147.385 78.8499  21
  -7  -8  -1 106.004 64.0819  19
   7   8   1 213.532 80.4620   5
  -7  -8  -1 135.849 56.9783   9
   7   8   1 172.339 99.2655  17
  -7  -8  -1 121.538 75.0825   2
   7   8   1 169.814 96.0602  15
   7   8   2 50.7724 60.7054  15
   7   8   2 47.0876 84.8764  14
  -7  -8  -2 23.3603 40.9668  23
   7   8   2 147.893 100.144   6
  -7  -8  -2-54.8380 55.8826  22
   7   8   2 42.5124 68.6248  13
  -7  -8  -2 180.498 71.8152  21
  -7  -8  -2 181.631 74.3551  19
   7   8   2 44.7341 46.3849   5
   7   8   2 141.993 65.6382   1
  -7  -8  -2 116.134 57.0851   9
   7   8   2 32.0532 47.1456  17
  -7  -8  -2 6.30779 50.6367   2
   7   8   3 355.168 128.408  15
   7   8   3 218.424 110.711  14
  -7  -8  -3 107.293 69.7159  23
   7   8   3 38.4527 60.2138   6
  -7  -8  -3 153.844 72.3193  22
   7   8   3 137.054 106.497  13
  -7  -8  -3 128.074 80.3078  21
  -7  -8  -3 263.127 96.7440  19
  -7  -8  -3 386.805 98.5259  10
   7   8   3 267.619 78.9091   5
   7   8   3 200.345 73.6634   1
  -7  -8  -3 276.760 84.9673   9
   7   8   3 148.125 87.4620  17
  -7  -8  -3 61.7954 51.3169   2
   7   8   4 775.474 187.645  15
  -7  -8  -4 639.793 153.358   2
   7   8   4 655.174 174.452  14
  -7  -8  -4 700.250 154.775  23
   7   8   4 792.950 197.729   6
  -7  -8  -4 474.057 129.205  22
   7   8   4 636.792 162.502  13
  -7  -8  -4 544.502 140.076  21
  -7  -8  -4 613.740 140.544  19
  -7  -8  -4 673.607 133.622  10
   7   8   4 879.866 146.188   1
   7   8   4 642.193 162.975  17
   7   8   5 40.4427 66.7098  15
  -7  -8  -5 5.41274 46.2137   2
   7   8   5 79.7579 89.9356  14
  -7  -8  -5 25.1484 43.0193  23
   7   8   5 79.5882 93.8884   6
  -7  -8  -5 40.3582 53.3777  22
   7   8   5-17.4721 50.2291  13
  -7  -8  -5-82.8211 64.3586  21
  -7  -8  -5 72.1628 72.4249  19
  -7  -8  -5-12.8317 49.8437  10
   7   8   5 104.418 86.3530  17
   7   8   5 30.4872 37.7275   1
   7   8   6 181.896 102.139  15
  -7  -8  -6 194.496 84.7489   2
   7   8   6 69.6187 82.7266  14
  -7  -8  -6 274.685 105.853  23
   7   8   6 335.503 137.208   6
  -7  -8  -6 303.445 116.955  22
   7   8   6 268.752 123.088  13
  -7  -8  -6 192.318 95.9264  21
  -7  -8  -6 174.451 86.3016  19
  -7  -8  -6 309.034 99.5854  10
   7   8   6 289.019 111.198  17
   7   8   6 273.952 91.9658   1
   7   8   7 7.48491 72.3769  15
  -7  -8  -7-25.2836 45.0471   2
   7   8   7 9.93661 54.5638  14
  -7  -8  -7-23.1596 43.5524  23
   7   8   7 57.6545 105.016   6
  -7  -8  -7 2.24814 54.3892  22
   7   8   7-3.67098 78.5192  13
  -7  -8  -7 64.8697 64.8226  21
  -7  -8  -7 66.7206 69.0457  19
  -7  -8  -7-82.3172 64.8015  10
   7   8   7 56.3039 82.3760  17
   7   8   7-15.0203 65.8171   1
   7   8   8 558.175 163.404  15
  -7  -8  -8 580.235 139.937   2
   7   8   8 521.628 165.207  14
  -7  -8  -8 423.866 136.861  23
   7   8   8 859.059 220.294   6
  -7  -8  -8 699.011 172.060  22
   7   8   8 652.057 174.654  13
  -7  -8  -8 587.399 163.178  21
   7   8   8 818.900 161.583  12
  -7  -8  -8 774.219 174.952  19
  -7  -8  -8 394.507 116.975  10
   7   8   8 676.243 175.110  17
   7   8   8 462.723 140.625   1
   7   8   9 1905.82 320.271  15
   7   8   9 2304.01 351.461  14
   7   8   9 1722.48 340.123   7
   7   8   9 2347.57 372.847   6
  -7  -8  -9 1816.08 282.253  23
   7   8   9 2312.62 324.276  13
  -7  -8  -9 2461.14 330.205  22
  -7  -8  -9 2239.96 310.766  21
   7   8   9 3425.53 351.628  12
  -7  -8  -9 2408.00 317.201  19
  -7  -8  -9 2757.25 311.134  10
  -7  -8  -9 2469.98 277.909   2
   7   8   9 2408.14 340.799  17
   7   8   9 2667.49 309.776   1
  -7  -8  -9 2519.66 259.733   8
   7   8  10 1761.77 312.875  15
   7   8  10 2007.11 336.141  14
   7   8  10 3017.85 442.427   7
  -7  -8 -10 1929.65 302.760  23
  -7  -8 -10 2549.56 342.720  22
   7   8  10 2086.22 321.030  13
  -7  -8 -10 2363.04 329.311  21
   7   8  10 2883.79 326.726  12
  -7  -8 -10 2225.92 319.063  19
  -7  -8 -10 2264.43 298.839  10
   7   8  10 1866.70 315.191  17
  -7  -8 -10 2370.55 259.391   8
   7   8  10 2645.37 337.242   1
   7   9  -3 2253.52 359.323  20
   7   9  -3 2779.88 341.733   5
  -7  -9   3 2968.37 347.125   4
   7   9  -2 3972.93 456.413  20
   7   9  -2 3747.35 376.507   5
  -7  -9   2 3442.69 360.273   2
  -7  -9   2 4806.36 416.826   4
   7   9  -1 835.222 216.273  20
   7   9  -1 1061.48 194.425   5
  -7  -9   1 951.721 175.882   4
  -7  -9   1 818.583 180.033   2
   7   9   0-39.3438 88.4317  14
  -7  -9   0 16.3009 61.8966  23
  -7  -9   0 61.7076 61.8193  22
   7   9   0 170.113 107.193  13
  -7  -9   0 20.0937 46.4328  21
   7   9   0-49.1193 54.0950   5
   7   9   0 44.1767 59.8212  18
   7   9   0-68.6236 76.3136  17
  -7  -9   0-5.65039 52.7924   2
   7   9   0-113.563 96.3054  15
   7   9   1 57.7241 91.0984  14
  -7  -9  -1-50.3572 58.3462  23
   7   9   1 27.5261 68.2608   6
  -7  -9  -1 76.7250 52.0585  22
   7   9   1-31.3178 61.1048  13
  -7  -9  -1 36.0779 54.7084  21
   7   9   1 89.1595 62.9824   5
   7   9   1-19.4869 83.6560  18
  -7  -9  -1 128.839 61.6054   9
   7   9   1 65.5472 69.0392  17
  -7  -9  -1 15.2125 49.8384   2
   7   9   1 149.409 105.804  15
   7   9   2 87.6427 105.488  14
  -7  -9  -2 108.579 79.5306  23
   7   9   2 391.293 136.047   6
  -7  -9  -2 79.7556 50.4947  22
   7   9   2 40.2098 78.4928  13
  -7  -9  -2 90.5879 68.3205  21
   7   9   2 218.312 83.5718   5
   7   9   2 152.268 80.2713   1
  -7  -9  -2 156.001 66.6946   9
   7   9   2 52.9491 78.5141  17
  -7  -9  -2 173.748 94.8632   2
   7   9   2 260.144 122.919  15
   7   9   3 13.0894 92.1964  14
  -7  -9  -3 38.6335 50.3000  23
   7   9   3 176.484 102.739   6
  -7  -9  -3 105.453 86.2163  22
   7   9   3 37.3720 60.1546  13
  -7  -9  -3 66.4028 67.1237  21
  -7  -9  -3 56.4451 62.7761  19
  -7  -9  -3 55.3236 47.0758  10
   7   9   3-9.48661 40.4080   1
   7   9   3-26.4018 59.5699  17
  -7  -9  -3 112.130 63.6074   9
  -7  -9  -3 89.5215 84.3265   2
   7   9   3 95.8840 80.4646  15
   7   9   4 4344.49 480.648  14
   7   9   4 5369.30 508.528   6
  -7  -9  -4 4977.67 435.696  23
   7   9   4 4576.35 447.847  13
  -7  -9  -4 4856.23 436.140  22
  -7  -9  -4 4422.36 410.921  21
  -7  -9  -4 4894.21 421.502  19
  -7  -9  -4 4910.20 433.537   2
  -7  -9  -4 5347.25 398.611  10
   7   9   4 5344.20 379.419   1
   7   9   4 4088.28 430.652  17
   7   9   4 4442.47 468.934  15
   7   9   5 3459.87 421.175  14
   7   9   5 3998.19 452.645   6
  -7  -9  -5 3465.96 368.074  23
   7   9   5 3530.90 396.411  13
  -7  -9  -5 3536.27 377.385  22
  -7  -9  -5 3381.82 363.508  21
  -7  -9  -5 3905.44 385.448  19
  -7  -9  -5 4068.89 391.486   2
  -7  -9  -5 3826.23 342.229  10
   7   9   5 3926.62 333.763   1
   7   9   5 3436.12 394.587  17
   7   9   5 3217.25 402.299  15
   7   9   6 4185.77 471.968  14
   7   9   6 5293.15 539.015   6
  -7  -9  -6 4882.82 444.563  23
   7   9   6 4264.43 439.945  13
  -7  -9  -6 4369.97 426.631  22
  -7  -9  -6 4415.45 419.468  21
  -7  -9  -6 4592.23 424.294  19
  -7  -9  -6 4521.32 406.142   2
  -7  -9  -6 5064.36 399.593  10
   7   9   6 5482.58 408.955   1
   7   9   6 4676.64 464.223  17
   7   9   6 4117.02 454.875  15
   7   9   7 1563.64 281.848  15
  -7  -9  -7 1759.76 245.225   2
   7   9   7 1790.42 314.319  14
  -7  -9  -7 1342.83 237.492  23
   7   9   7 2037.31 339.653   6
  -7  -9  -7 1981.10 289.794  22
   7   9   7 1777.14 292.059  13
   7   9   7 2538.29 299.482  12
  -7  -9  -7 1811.25 271.830  21
  -7  -9  -7 1664.92 255.559  19
  -7  -9  -7 1644.23 231.128  10
   7   9   7 2206.69 268.518   1
   7   9   7 1933.67 310.099  17
   7   9   8 1870.77 319.010  15
   7   9   8 1916.28 328.625  14
   7   9   8 2483.07 387.882   6
  -7  -9  -8 2012.41 300.807  23
   7   9   8 2399.34 343.056  13
  -7  -9  -8 1677.97 274.463  22
   7   9   8 3030.14 332.110  12
  -7  -9  -8 1800.78 275.992  21
  -7  -9  -8 2080.17 296.953  19
  -7  -9  -8 1689.98 246.124   2
  -7  -9  -8 2094.38 273.709  10
   7   9   8 2398.43 286.461   1
   7   9   8 2044.22 315.846  17
   7   9   9 764.480 225.170  15
  -7  -9  -9 1080.77 192.988   2
   7   9   9 884.102 229.938  14
   7   9   9 1522.33 329.501   7
  -7  -9  -9 1084.27 224.616  23
  -7  -9  -9 1210.32 242.505  22
   7   9   9 794.551 207.189  13
  -7  -9  -9 1259.84 241.059  21
   7   9   9 1246.90 221.557  12
  -7  -9  -9 857.801 191.386  19
  -7  -9  -9 745.211 167.814  10
   7   9   9 1197.62 247.295  17
   7   9   9 1181.59 218.442   1
   7  10  -1 205.324 127.276  20
   7  10  -1 32.3783 45.5829   5
  -7 -10   1 134.455 92.2044   2
   7  10   0 2904.04 422.009  14
  -7 -10   0 2420.43 313.826  23
   7  10   0 2418.23 362.215  13
  -7 -10   0 2299.33 304.410  21
   7  10   0 2890.18 391.548  20
   7  10   0 2618.80 301.703   5
  -7 -10   0 2319.13 320.950   2
   7  10   0 2430.52 359.563  18
   7  10   0 2789.32 386.438  17
   7  10   0 2386.34 371.032  15
   7  10   1-9.12324 70.8605  14
  -7 -10  -1 42.3719 65.0179  23
  -7 -10  -1 32.1515 59.3687  22
   7  10   1-131.670 99.3848  13
  -7 -10  -1 122.374 79.4097  21
   7  10   1 18.8821 52.3803   5
   7  10   1-21.9951 102.085  18
   7  10   1-27.5654 77.2733  17
  -7 -10  -1 134.699 104.180   2
   7  10   1 71.8739 70.7848  15
   7  10   2 497.886 180.637  14
  -7 -10  -2 862.015 185.216  23
   7  10   2 953.787 212.145   6
  -7 -10  -2 802.134 186.100  22
   7  10   2 1152.32 243.730  13
  -7 -10  -2 786.205 182.846  21
  -7 -10  -2 1061.63 180.530  10
   7  10   2 791.206 158.205   1
   7  10   2 899.042 218.109  18
   7  10   2 530.575 183.062  17
  -7 -10  -2 702.760 184.939   2
   7  10   2 912.091 229.591  15
   7  10   3-72.6690 95.6859  14
  -7 -10  -3 38.6062 65.4397  23
   7  10   3 61.9139 87.4721   6
  -7 -10  -3-15.2430 65.5780  22
   7  10   3 68.7247 76.7987  13
  -7 -10  -3 155.747 87.6460  21
  -7 -10  -3 10.9912 44.4493  10
   7  10   3 58.6137 58.2126   1
   7  10   3 16.5809 69.0805  18
   7  10   3 27.6895 53.4115  17
  -7 -10  -3 99.8360 68.6884   9
  -7 -10  -3 87.9356 91.6679   2
   7  10   3-11.1273 66.8709  15
   7  10   4 174.208 108.905  14
  -7 -10  -4 51.9960 59.7929  23
   7  10   4 346.435 146.326   6
  -7 -10  -4 134.311 83.6222  22
   7  10   4 120.254 62.3257  13
  -7 -10  -4 129.130 83.7154  21
  -7 -10  -4 249.706 99.8152  19
  -7 -10  -4-14.8500 44.5942  10
   7  10   4 110.560 66.4618   1
   7  10   4 166.970 91.4021  17
  -7 -10  -4 256.390 93.0092   9
  -7 -10  -4 290.541 123.649   2
   7  10   4 251.455 120.198  15
   7  10   5 906.684 234.525  14
  -7 -10  -5 986.374 203.700  23
   7  10   5 1046.25 249.814   6
  -7 -10  -5 717.866 181.065  22
   7  10   5 977.555 235.151  13
  -7 -10  -5 685.037 178.088  21
  -7 -10  -5 1061.56 207.041  19
  -7 -10  -5 1052.49 188.114  10
   7  10   5 972.759 178.615   1
   7  10   5 980.473 230.135  17
  -7 -10  -5 664.507 179.779   2
   7  10   5 813.455 220.058  15
   7  10   6 9148.95 746.777  14
   7  10   6 11346.5 815.765   6
  -7 -10  -6 9898.39 675.100  23
   7  10   6 9328.66 702.109  13
  -7 -10  -6 9397.92 667.893  22
  -7 -10  -6 9011.31 643.841  21
  -7 -10  -6 9917.35 660.407  19
  -7 -10  -6 9986.88 651.132   2
  -7 -10  -6 11202.8 652.547  10
   7  10   6 11596.9 635.182   1
   7  10   6 9563.63 723.769  17
   7  10   6 9757.96 749.547  15
   7  10   7 23.0581 69.1936  15
  -7 -10  -7 233.670 111.015   2
   7  10   7 76.2376 76.3060  14
  -7 -10  -7 257.942 124.045  23
  -7 -10  -7 247.425 114.973  22
   7  10   7 217.411 116.933  13
  -7 -10  -7 146.336 96.6346  21
   7  10   7 283.622 106.302  12
  -7 -10  -7 189.660 99.2383  19
  -7 -10  -7 263.421 109.213  10
   7  10   7 319.466 146.420  17
   7  10   7 87.1482 71.0349   1
   7  10   8 258.654 139.385  15
  -7 -10  -8 293.355 111.451   2
   7  10   8 261.485 146.818  14
   7  10   8 692.704 238.010   7
  -7 -10  -8 371.769 132.975  23
  -7 -10  -8 403.715 144.675  22
   7  10   8 190.164 110.483  13
  -7 -10  -8 331.362 128.739  21
   7  10   8 306.608 115.625  12
  -7 -10  -8 205.751 112.748  19
  -7 -10  -8 376.676 129.015  10
   7  10   8 283.355 139.612  17
   7  10   8 570.403 154.194   1
   7  11   1 10079.6 844.574  14
  -7 -11  -1 10195.3 695.333  23
   7  11   1 10446.1 799.404  13
  -7 -11  -1 9842.75 676.865  21
   7  11   1 11728.8 798.919  20
  -7 -11  -1 9273.43 705.129   2
   7  11   1 10255.0 794.533  18
   7  11   1 11069.4 828.746  17
   7  11   1 11710.8 890.899  15
   7  11   2 11377.3 904.123  14
  -7 -11  -2 10809.9 724.908  23
   7  11   2 11359.4 835.023  13
  -7 -11  -2 11794.9 752.735  22
  -7 -11  -2 11298.9 730.519  21
   7  11   2 12720.9 817.421  20
  -7 -11  -2 11569.0 770.662   2
  -7 -11  -2 13647.9 731.631  10
   7  11   2 12734.1 676.024   1
   7  11   2 12731.1 880.290  18
   7  11   2 12319.4 872.299  17
   7  11   2 11894.2 896.612  15
   7  11   3 1433.37 326.544  14
  -7 -11  -3 1493.57 261.309  23
   7  11   3 2067.31 324.559   6
  -7 -11  -3 1918.43 295.953  22
   7  11   3 1752.37 322.208  13
  -7 -11  -3 1844.27 294.971  21
  -7 -11  -3 2307.42 295.492  10
   7  11   3 1524.23 231.098   1
   7  11   3 2128.86 349.599  18
   7  11   3 1870.79 333.534  17
  -7 -11  -3 1797.82 305.260   2
   7  11   3 1433.68 297.261  15
   7  11   4 513.897 195.054  14
   7  11   4 757.383 221.635   6
  -7 -11  -4 693.372 178.424  23
  -7 -11  -4 609.386 171.816  22
  -7 -11  -4 635.937 172.526  21
  -7 -11  -4 613.886 150.934  10
   7  11   4 887.833 181.809   1
   7  11   4 535.517 186.734  18
   7  11   4 585.549 190.035  13
   7  11   4 761.519 219.045  17
  -7 -11  -4 560.725 166.100   2
   7  11   4 516.737 189.566  15
   7  11   5 506.147 196.241  14
  -7 -11  -5 461.309 153.538  23
  -7 -11  -5 532.811 171.101  22
   7  11   5 592.721 202.980  13
  -7 -11  -5 158.895 110.207  21
  -7 -11  -5 614.672 161.149  10
   7  11   5 391.573 140.253  18
   7  11   5 566.519 155.533   1
   7  11   5 521.376 177.860  17
  -7 -11  -5 424.401 147.116   2
   7  11   5 715.567 236.005  15
   8  -3   1 705.359 198.861   6
  -8   3  -1 617.608 130.804  11
   8  -3   1 577.778 215.766  16
   8  -3   2 437.743 157.080   3
  -8   3  -2 341.613 142.572   2
   8  -3   2 379.868 145.508   6
  -8   3  -2 361.671 100.734  11
   8  -3   2 316.737 187.530  16
   8  -3   3-33.1955 107.961   3
   8  -3   3 146.994 97.6877   6
  -8   3  -3 145.589 86.8787   2
  -8   3  -3 133.495 72.5522  11
   8  -3   3-31.9662 94.1097  16
   8  -3   4 1811.20 257.304  14
   8  -3   4 2039.06 326.723   3
  -8   3  -4 2044.90 304.596  23
  -8   3  -4 2036.52 317.863   2
   8  -3   4 1782.80 299.648   6
  -8   3  -4 1538.91 263.907  21
  -8   3  -4 2038.26 225.899  11
  -8   3  -4 1803.93 286.187  19
  -8   3  -4 1878.61 296.307  18
  -8   3  -4 1813.51 297.602  17
   8  -3   4 1968.77 396.440  16
   8  -3   4 2002.21 279.610  15
   8  -3   5 19533.9 1041.66   3
   8  -3   5 17825.5 864.235  14
  -8   3  -5 16349.1 914.130  23
  -8   3  -5 18330.8 955.461  21
  -8   3  -5 17265.9 942.589  19
  -8   3  -5 16292.4 929.858  18
  -8   3  -5 17727.4 984.266  17
  -8   3  -5 17469.1 954.167   2
   8  -3   5 17089.8 1182.18  16
   8  -3   5 18123.4 883.847  15
   8  -3   6 85.5353 74.8038  15
   8  -3   6-104.593 103.802   3
   8  -3   6 48.7283 53.8196  14
  -8   3  -6 173.605 131.536  23
  -8   3  -6 115.300 93.2651   2
  -8   3  -6 20.2790 60.0268  21
  -8   3  -6 32.1413 62.3236  20
  -8   3  -6 50.8163 78.5209  19
  -8   3  -6-69.0809 82.1104  18
  -8   3  -6 11.7423 70.0842  17
   8  -3   6 431.510 202.265  16
   8  -3   6 545.620 252.374   1
   8  -2  -1 176.539 119.695   6
  -8   2   1 296.998 97.5197  11
  -8   2   1-60.0242 64.4862   9
   8  -2   0 1797.80 312.964   6
  -8   2   0 1801.37 214.351  11
  -8   2   0 1296.56 212.059   9
   8  -2   0 1654.36 325.011  16
   8  -2   1 2870.11 385.371   6
  -8   2  -1 3153.06 274.962  11
  -8   2  -1 2416.69 274.953   9
   8  -2   1 2465.73 402.469  16
  -8   2  -2 503.639 148.527   2
   8  -2   2 705.712 191.361   6
  -8   2  -2 868.451 138.189  11
   8  -2   2 931.126 249.603  16
   8  -2   3 1435.74 223.036  15
   8  -2   3 1555.18 227.571  14
   8  -2   3 2007.80 293.853   3
  -8   2  -3 1353.96 225.190  23
  -8   2  -3 1503.30 264.623   2
   8  -2   3 1553.25 267.114   6
  -8   2  -3 1601.50 244.352  21
  -8   2  -3 1546.85 183.486  11
  -8   2  -3 1408.92 234.149  19
  -8   2  -3 1475.01 239.759  18
  -8   2  -3 1417.92 237.444  17
   8  -2   3 1561.89 344.283  16
   8  -2   4 1521.76 230.904  14
   8  -2   4 1684.13 273.676   3
  -8   2  -4 1713.80 261.364  23
  -8   2  -4 1417.41 249.685   2
   8  -2   4 1565.47 268.417   6
  -8   2  -4 1408.17 234.884  21
  -8   2  -4 1437.62 244.669  19
  -8   2  -4 1236.94 227.310  18
  -8   2  -4 1759.21 272.905  17
   8  -2   4 1633.74 339.809  16
   8  -2   4 1834.37 251.737  15
   8  -2   5 7519.14 524.911  14
  -8   2  -5 6691.63 540.118  23
   8  -2   5 7328.19 581.421   6
   8  -2   5 5922.53 720.454   1
  -8   2  -5 7394.64 563.727  21
  -8   2  -5 7411.03 498.096  20
  -8   2  -5 6911.24 550.941  19
  -8   2  -5 6824.65 552.906  18
  -8   2  -5 7280.18 576.446  17
  -8   2  -5 6863.94 552.668   2
   8  -2   5 7260.76 744.108  16
   8  -2   5 7405.64 528.925  15
   8  -2   5 7054.23 578.662   3
   8  -2   6 73.3409 80.4556  15
   8  -2   6-4.45208 97.2553   1
   8  -2   6-28.0386 73.6454   3
   8  -2   6-62.1630 69.7575  14
  -8   2  -6 106.116 86.8669  23
  -8   2  -6-94.7533 83.9711   2
  -8   2  -6 125.890 109.907  21
  -8   2  -6 11.6976 56.1731  20
  -8   2  -6 21.1775 77.9066  19
  -8   2  -6-148.095 95.7181  18
  -8   2  -6-57.3965 71.5100  17
   8  -2   6-138.076 146.717  16
   8  -2   7 195.912 107.503  15
   8  -2   7 272.242 107.477  14
  -8   2  -7 63.2993 86.4708  23
  -8   2  -7 47.6017 72.1640   2
  -8   2  -7 269.254 130.650  21
  -8   2  -7 134.217 102.341  20
  -8   2  -7 79.4642 79.1283  19
  -8   2  -7 81.1723 82.1308  18
  -8   2  -7 74.5717 87.2668  17
   8  -2   7 143.851 142.166   1
   8  -2   7-173.261 143.838  16
   8  -2   7 224.409 124.266   3
   8  -2   8 33.1767 58.5372  15
   8  -2   8-25.2428 77.9385  14
  -8   2  -8 73.0626 74.9880  23
  -8   2  -8-45.1855 81.2709   2
  -8   2  -8 186.629 105.699  21
  -8   2  -8 94.1716 78.5011  20
   8  -2   8 134.264 149.730   1
  -8   2  -8-50.8747 78.3866  19
  -8   2  -8-4.27151 63.2430  18
  -8   2  -8-169.286 110.006  17
   8  -2   8 26.1779 127.725  16
   8  -1  -2 91.8739 83.5694   6
  -8   1   2 316.102 98.7826  11
  -8   1   2 98.5380 74.6376   9
   8  -1  -1 3.65987 78.3822   6
  -8   1   1 92.2895 61.3376  11
  -8   1   1 211.564 102.601   9
   8  -1   0 29.7796 76.0807   6
  -8   1   0-77.4565 52.1813  11
  -8   1   0 94.9283 64.4015   9
  -8   1  -1 209.746 92.1478   2
   8  -1   1 108.514 88.0660   6
  -8   1  -1 423.532 96.8985  11
  -8   1  -1 267.168 94.8666   9
   8  -1   1 169.894 135.958  16
   8  -1   2 2487.86 345.166   6
  -8   1  -2 2838.29 236.631  11
  -8   1  -2 2743.21 267.343   9
  -8   1  -2 2599.66 314.236   2
   8  -1   2 2674.75 400.028  16
   8  -1   3 295.670 99.6466  15
   8  -1   3 139.522 86.0146  14
  -8   1  -3 255.506 107.008  23
  -8   1  -3 155.196 80.4053   2
   8  -1   3 79.5827 64.9976   6
  -8   1  -3 221.870 97.0924  21
  -8   1  -3 265.786 97.7534  19
  -8   1  -3 129.322 72.8736  18
  -8   1  -3 301.764 110.594  17
  -8   1  -3 165.248 69.9290   9
   8  -1   3 213.700 120.231  16
   8  -1   4 6.00287 42.8501  15
   8  -1   4-7.21386 44.4566  14
  -8   1  -4 52.5284 59.7082  23
  -8   1  -4-43.3312 81.7972   2
   8  -1   4 108.805 77.8160   6
  -8   1  -4-13.0490 62.8665  21
  -8   1  -4 48.9370 90.5223  19
  -8   1  -4-32.2207 54.8790  18
  -8   1  -4-4.64004 59.1500  17
   8  -1   4-82.4022 103.250  16
   8  -1   5 73.1516 55.5969  15
   8  -1   5 9.20949 64.1351   3
   8  -1   5-167.377 84.7341  14
  -8   1  -5 182.406 96.4572  23
  -8   1  -5-41.6573 63.0833   2
   8  -1   5-3.06283 78.9960   6
  -8   1  -5 141.867 83.1436  21
   8  -1   5-341.006 175.826   1
  -8   1  -5 10.2007 71.4590  19
  -8   1  -5 78.9840 81.6464  18
  -8   1  -5 80.9387 70.6880  17
   8  -1   5 8.04254 124.258  16
   8  -1   6 1406.63 228.729  15
   8  -1   6 1373.99 331.227   1
   8  -1   6 1503.78 250.427   3
   8  -1   6 1466.87 228.864  14
  -8   1  -6 1948.73 282.359  23
  -8   1  -6 1173.43 214.096   2
   8  -1   6 1292.44 234.109   6
  -8   1  -6 1212.06 224.411  21
  -8   1  -6 1411.53 219.952  20
  -8   1  -6 1344.02 238.846  19
  -8   1  -6 1470.65 249.759  18
  -8   1  -6 1715.00 271.042  17
  -8   1  -6 1675.79 205.711   8
   8  -1   6 1983.49 383.480  16
   8  -1   7 1706.47 373.188   1
   8  -1   7 2207.27 283.763  14
  -8   1  -7 1918.66 294.278  23
  -8   1  -7 1881.83 280.037   2
  -8   1  -7 2278.78 313.482  21
  -8   1  -7 2385.01 296.840  20
  -8   1  -7 2314.94 324.212  19
  -8   1  -7 2163.99 319.948  18
  -8   1  -7 2579.21 341.558  17
  -8   1  -7 2559.69 263.763   8
   8  -1   7 2569.60 439.771  16
   8  -1   7 2349.60 301.592  15
   8  -1   8 228.117 106.369  15
   8  -1   8 116.859 91.3044  14
  -8   1  -8 11.9174 57.9166  23
  -8   1  -8 72.1281 70.6764   2
  -8   1  -8 110.505 79.3208  21
  -8   1  -8-20.6955 70.2086  20
  -8   1  -8 120.056 84.5151  19
  -8   1  -8-101.909 84.9722  18
  -8   1  -8 3.49471 51.8891  17
   8  -1   8 157.998 208.777  16
   8  -1   8 105.458 127.039   1
  -8   1  -8 3.08888 60.8073   8
   8  -1   9 2905.22 353.268  14
  -8   1  -9 2465.08 353.221  23
  -8   1  -9 2487.29 356.100  21
  -8   1  -9 2609.61 335.595  20
  -8   1  -9 2746.41 374.035  19
  -8   1  -9 2653.87 366.553  18
  -8   1  -9 3428.00 419.080  17
  -8   1  -9 2273.33 331.992   2
  -8   1  -9 2510.88 293.906   8
   8  -1   9 3203.82 543.991  16
   8  -1   9 2360.32 462.653   1
   8  -1   9 3109.40 374.882  15
   8   0  -3 1619.95 319.463   6
  -8   0   3 2243.37 264.186  11
  -8   0   3 1567.59 270.577   9
   8   0  -2 509.789 174.046   6
  -8   0   2 444.278 115.905  11
  -8   0   2 566.661 151.726   9
   8   0  -1 819.060 218.853   6
  -8   0   1 904.929 147.910  11
  -8   0   1 843.272 170.118   9
   8   0   0 683.813 198.395   6
  -8   0   0 604.654 113.361  11
  -8   0   0 832.609 160.584   9
  -8   0  -1 205.135 86.7805   2
   8   0   1 379.235 145.921   6
  -8   0  -1 480.300 96.5810  11
  -8   0  -1 418.611 111.255   9
   8   0   1 191.836 120.268  16
   8   0   2 3881.93 422.681   6
  -8   0  -2 4367.67 332.450   9
  -8   0  -2 3571.34 333.890   2
   8   0   2 4427.81 499.910  16
   8   0   3 1978.77 241.313  14
  -8   0  -3 1793.71 236.906  23
   8   0   3 1608.35 266.834   6
  -8   0  -3 1606.14 221.761  21
  -8   0  -3 1771.37 230.483  19
  -8   0  -3 1922.51 241.889  18
  -8   0  -3 1926.27 240.085  17
  -8   0  -3 2034.89 217.818   9
  -8   0  -3 1985.00 246.684   2
   8   0   3 1690.14 318.560  16
   8   0   3 2247.99 257.803  15
   8   0   4 1680.13 221.469  14
  -8   0  -4 1341.18 205.067   2
  -8   0  -4 1356.79 207.751  23
   8   0   4 1166.20 226.445   6
  -8   0  -4 1189.85 194.539  21
  -8   0  -4 1488.44 220.625  19
  -8   0  -4 1509.68 220.744  18
  -8   0  -4 1361.19 172.046   9
  -8   0  -4 1265.68 205.109  17
   8   0   4 1310.39 284.607  16
   8   0   4 1659.96 226.871  15
   8   0   5 1954.76 244.783  14
   8   0   5 1836.07 287.173   6
  -8   0  -5 2056.52 268.083  23
  -8   0  -5 2213.90 274.677  21
  -8   0  -5 1828.88 250.704  19
  -8   0  -5 2054.52 264.959  18
  -8   0  -5 2264.57 283.426  17
  -8   0  -5 1800.22 239.927   2
  -8   0  -5 1879.95 200.782   9
   8   0   5 1573.00 316.152   1
  -8   0  -5 1920.06 209.222   8
   8   0   5 1985.29 360.027  16
   8   0   5 2162.36 260.847  15
   8   0   6-43.8735 76.7504  15
   8   0   6 6.09561 71.2067  14
  -8   0  -6-3.45858 68.1524   2
  -8   0  -6 8.25022 48.8013  23
   8   0   6 86.4590 64.9187   6
  -8   0  -6 57.9601 52.8922  21
  -8   0  -6 3.15599 55.8442  19
   8   0   6-216.340 135.914   1
  -8   0  -6 44.4365 78.4211  18
  -8   0  -6-8.85872 55.5604  17
  -8   0  -6 115.579 61.8998   9
   8   0   6 228.987 144.476  16
  -8   0  -6-96.7594 66.6997   8
   8   0   7 1130.81 204.227  15
   8   0   7 1334.94 220.955  14
  -8   0  -7 1234.65 208.652   2
  -8   0  -7 1263.45 227.179  23
   8   0   7 1152.77 221.458   6
  -8   0  -7 1039.85 204.407  21
  -8   0  -7 1070.80 194.236  20
   8   0   7 1047.74 259.544   1
  -8   0  -7 1321.09 233.242  19
  -8   0  -7 1194.75 224.697  18
  -8   0  -7 1175.09 225.302  17
   8   0   7 1317.28 323.305  16
  -8   0  -7 1193.77 182.260   8
   8   0   8 2606.43 316.730  14
  -8   0  -8 2152.40 304.798  23
  -8   0  -8 1547.21 251.710   2
  -8   0  -8 2257.46 314.001  21
  -8   0  -8 2060.62 282.471  20
   8   0   8 1954.34 386.915   1
  -8   0  -8 1925.73 291.020  19
  -8   0  -8 1701.61 277.156  18
  -8   0  -8 2072.81 308.140  17
  -8   0  -8 1841.02 237.609   8
   8   0   8 2628.83 458.558  16
   8   0   8 2189.84 293.914  15
   8   0   9 8751.07 606.415  14
   8   0   9 6697.20 741.644   1
  -8   0  -9 8351.83 625.041  23
  -8   0  -9 7767.03 602.546  21
  -8   0  -9 8426.95 593.379  20
  -8   0  -9 7958.00 614.915  19
  -8   0  -9 7800.44 610.636  18
  -8   0  -9 7966.76 624.403  17
  -8   0  -9 8638.01 612.769   2
   8   0   9 8948.95 881.695  16
  -8   0  -9 7884.51 515.317   8
   8   0   9 9625.34 641.489  15
   8   0  10 1538.57 265.754  15
   8   0  10 1369.42 247.322  14
  -8   0 -10 1803.28 298.695  23
  -8   0 -10 1162.97 228.567   2
  -8   0 -10 1070.36 233.378  21
  -8   0 -10 1098.12 223.097  20
   8   0  10 1259.80 339.296   1
  -8   0 -10 1118.87 240.769  19
  -8   0 -10 1315.24 257.662  18
  -8   0 -10 1268.14 256.504  17
  -8   0 -10 1091.63 213.559   8
   8   1  -3 641.605 191.781   6
  -8  -1   3 579.893 135.686  11
  -8  -1   3 657.660 163.053   9
   8   1  -2 2159.00 342.227   6
  -8  -1   2 2909.55 273.104  11
  -8  -1   2 2168.90 288.111   9
   8   1  -1 51.9145 96.9180   6
  -8  -1   1 186.018 66.3245  11
  -8  -1   1 164.221 81.9937   9
   8   1   0-20.4540 105.386   6
  -8  -1   0 207.240 66.3353  11
  -8  -1   0 183.530 78.4265   9
   8   1   1 1794.75 288.900   6
  -8  -1  -1 1298.04 183.054   2
  -8  -1  -1 1475.33 201.211   9
   8   1   1 1480.37 265.074  16
  -8  -1  -2 1116.29 165.937   2
  -8  -1  -2 1024.70 155.757  23
   8   1   2 1190.35 232.678   6
  -8  -1  -2 1006.59 158.948  21
  -8  -1  -2 1056.12 163.364  19
  -8  -1  -2 895.983 149.626  18
  -8  -1  -2 1257.89 177.926   9
  -8  -1  -2 1158.53 168.478  17
   8   1   2 1173.61 246.928  16
   8   1   3 53.0858 52.0068  15
   8   1   3 7.06257 43.8296  14
  -8  -1  -3 50.3833 47.3083   2
  -8  -1  -3 30.8522 37.1061  23
   8   1   3-84.0577 81.6788   6
  -8  -1  -3 2.50033 35.3570  21
  -8  -1  -3 71.2004 57.0553  19
  -8  -1  -3-70.3955 54.3538  18
  -8  -1  -3 32.3561 57.9652  17
  -8  -1  -3-17.6495 33.7205   9
   8   1   3 90.0470 64.6851  16
   8   1   4 3871.06 331.309  14
   8   1   4 3258.18 402.151   1
  -8  -1  -4 3304.16 312.671  23
   8   1   4 3719.38 410.484   6
  -8  -1  -4 4021.19 346.687  21
  -8  -1  -4 4060.07 343.084  19
  -8  -1  -4 3315.34 316.405  18
  -8  -1  -4 3258.09 295.910   2
  -8  -1  -4 3465.04 326.328  17
  -8  -1  -4 3655.37 289.004   9
   8   1   4 3546.01 446.376  16
   8   1   4 3992.92 334.892  15
   8   1   5 47.6206 46.0665  15
   8   1   5 69.6911 60.1097  14
  -8  -1  -5 17.4167 43.2451   2
   8   1   5 62.9920 85.0008   1
  -8  -1  -5-2.22726 38.2926  23
   8   1   5 35.3796 64.4267   6
  -8  -1  -5 65.3278 65.2091  21
  -8  -1  -5 80.7816 67.2610  19
  -8  -1  -5 59.9140 55.9800  18
  -8  -1  -5 99.8400 67.2474  17
  -8  -1  -5 137.565 61.2415   9
   8   1   5 105.163 115.906  16
  -8  -1  -5 38.8956 45.1718   8
   8   1   6 2619.83 288.490  14
   8   1   6 1829.14 311.194   1
   8   1   6 2387.13 316.618   6
  -8  -1  -6 2236.46 276.049  23
  -8  -1  -6 2388.83 288.927  21
  -8  -1  -6 2485.18 290.511  19
  -8  -1  -6 2141.81 267.342  18
  -8  -1  -6 2729.00 307.531  17
  -8  -1  -6 2002.18 243.824   2
  -8  -1  -6 2283.08 223.465   9
  -8  -1  -6 2754.72 261.817   8
   8   1   6 2278.54 382.432  16
   8   1   6 2618.68 287.454  15
   8   1   7-110.025 74.5760  15
   8   1   7-50.5547 84.9147   1
   8   1   7-88.8612 72.6758  14
  -8  -1  -7 48.2899 60.7374   2
  -8  -1  -7-14.3582 54.7456  23
   8   1   7-43.1912 63.2774   6
  -8  -1  -7 7.77487 54.9371  21
  -8  -1  -7 31.2329 61.8871  19
  -8  -1  -7 47.4860 72.9926  18
  -8  -1  -7 59.1276 63.2702  17
  -8  -1  -7 27.2862 34.3859   9
   8   1   7-22.9430 123.740  16
  -8  -1  -7 6.73191 52.3145   8
   8   1   8 930.887 183.539  15
   8   1   8 821.350 241.297   1
   8   1   8 800.828 168.788  14
  -8  -1  -8 800.826 166.404   2
  -8  -1  -8 1047.13 206.520  23
   8   1   8 874.995 187.107   6
  -8  -1  -8 636.160 175.828  21
  -8  -1  -8 821.498 185.457  19
  -8  -1  -8 915.932 199.057  18
  -8  -1  -8 994.016 205.261  17
  -8  -1  -8 812.360 136.606   9
   8   1   8 817.017 279.677  16
  -8  -1  -8 1095.63 188.297   8
   8   1   9 1829.54 273.111  14
   8   1   9 1404.69 316.768   1
  -8  -1  -9 1244.31 217.602   2
  -8  -1  -9 1593.20 261.623  23
  -8  -1  -9 1723.92 274.710  21
  -8  -1  -9 1395.31 232.317  20
  -8  -1  -9 1389.43 250.586  19
  -8  -1  -9 1468.99 252.250  18
  -8  -1  -9 1530.57 262.209  17
  -8  -1  -9 1407.24 216.950   8
   8   1   9 1878.16 275.178  15
   8   1  10 1766.19 285.771  15
   8   1  10 1142.22 289.189   1
   8   1  10 1608.49 272.988  14
  -8  -1 -10 1528.59 269.745  23
  -8  -1 -10 1428.87 241.891   2
  -8  -1 -10 1416.55 263.576  21
  -8  -1 -10 1674.30 266.761  20
  -8  -1 -10 1459.68 262.328  19
  -8  -1 -10 1686.60 282.048  18
  -8  -1 -10 1504.85 272.982  17
  -8  -1 -10 1550.82 239.835   8
   8   2  -4 300.635 119.585   6
  -8  -2   4 348.261 109.372  11
  -8  -2   4 197.883 99.0125   9
   8   2  -3 533.341 173.734   6
  -8  -2   3 285.954 85.5527  11
  -8  -2   3 275.460 113.965   9
   8   2  -2 296.949 142.651   6
  -8  -2   2 270.158 84.2281  11
  -8  -2   2 254.045 106.672   9
   8   2  -1 1169.96 235.573   6
  -8  -2   1 1015.60 147.416  11
  -8  -2   1 1124.52 184.856   9
  -8  -2   0 90.9218 48.0219   2
   8   2   0-13.8781 76.8346   6
  -8  -2   0-25.6928 51.0155   9
  -8  -2  -1 645.540 123.802   2
   8   2   1 432.304 142.727   6
  -8  -2  -1 614.825 127.804   9
   8   2   2 3988.24 322.928  14
  -8  -2  -2 3553.71 286.654  23
   8   2   2 4029.55 432.732   6
   8   2   2 3785.45 312.513  13
  -8  -2  -2 3744.24 302.225  22
  -8  -2  -2 3607.73 294.001  21
  -8  -2  -2 3513.31 285.157  19
  -8  -2  -2 3750.10 295.037  18
  -8  -2  -2 3075.04 268.291   2
  -8  -2  -2 3473.99 292.360   9
   8   2   2 3710.63 413.321  16
   8   2   2 3727.96 313.463  15
   8   2   3 3247.59 295.960  14
  -8  -2  -3 2589.22 253.736  23
   8   2   3 2816.42 358.460   6
  -8  -2  -3 2522.84 255.174  21
  -8  -2  -3 2647.52 257.318  19
  -8  -2  -3 2925.61 269.593  18
  -8  -2  -3 2686.34 252.970   2
  -8  -2  -3 3073.15 265.224   9
   8   2   3 2740.18 371.498  16
   8   2   3 3073.66 288.635  15
   8   2   4 277.186 90.1171  15
   8   2   4 217.210 84.7436  14
  -8  -2  -4 211.579 79.5950   2
  -8  -2  -4 249.512 85.7953  23
   8   2   4 421.829 130.828   6
  -8  -2  -4 342.673 101.470  21
  -8  -2  -4 293.374 90.2051  19
  -8  -2  -4 219.265 82.7313  18
  -8  -2  -4 456.763 114.537  17
  -8  -2  -4 238.872 76.1404   9
   8   2   4 318.952 131.284  16
   8   2   4 304.412 115.362   1
   8   2   5 5327.53 469.753   1
   8   2   5 7299.20 466.507  14
   8   2   5 6682.96 536.511   6
  -8  -2  -5 6796.21 450.574  23
  -8  -2  -5 6395.65 442.951  21
  -8  -2  -5 6389.32 437.463  19
  -8  -2  -5 6358.43 440.843  18
  -8  -2  -5 6643.32 413.947   2
  -8  -2  -5 6532.27 449.803  17
  -8  -2  -5 5847.60 371.304   9
  -8  -2  -5 6376.14 386.387   8
   8   2   5 6470.51 609.165  16
   8   2   5 7474.60 470.796  15
   8   2   6 7102.37 572.052   1
   8   2   6 8547.02 525.558  14
   8   2   6 7762.78 580.436   6
  -8  -2  -6 7577.15 496.547  23
  -8  -2  -6 7478.96 500.027  21
  -8  -2  -6 7798.29 505.312  19
  -8  -2  -6 8090.57 513.719  18
  -8  -2  -6 7328.78 453.783   2
  -8  -2  -6 8084.77 521.994  17
  -8  -2  -6 7585.96 423.439   9
   8   2   6 7845.73 699.430  16
  -8  -2  -6 8345.79 458.851   8
   8   2   6 8173.93 517.009  15
   8   2   7 903.021 175.836  15
   8   2   7 664.350 151.560  14
  -8  -2  -7 669.274 137.875   2
  -8  -2  -7 873.965 175.191  23
   8   2   7 684.786 170.424   6
  -8  -2  -7 662.131 152.305  21
  -8  -2  -7 734.233 160.421  19
  -8  -2  -7 623.410 148.941  18
  -8  -2  -7 817.146 173.584  17
  -8  -2  -7 693.800 143.966   9
   8   2   7 831.953 254.924  16
   8   2   7 606.662 189.220   1
  -8  -2  -7 635.679 138.575   8
   8   2   8 840.894 174.705  15
   8   2   8 823.028 174.365  14
  -8  -2  -8 935.803 170.517   2
  -8  -2  -8 800.918 176.984  23
   8   2   8 946.397 200.352   6
  -8  -2  -8 946.066 194.486  21
  -8  -2  -8 835.357 178.781  19
  -8  -2  -8 1171.88 211.412  18
  -8  -2  -8 1077.13 206.460  17
   8   2   8 970.681 232.084   1
  -8  -2  -8 1302.50 203.302   8
   8   2   9 158.426 86.9445  15
   8   2   9 238.058 147.146   7
   8   2   9 54.7205 73.6998  14
  -8  -2  -9 170.069 85.3782   2
  -8  -2  -9 228.904 103.804  23
  -8  -2  -9 261.704 112.605  21
  -8  -2  -9 200.160 96.1885  19
  -8  -2  -9 181.663 93.6782  18
  -8  -2  -9 193.123 100.094  17
   8   2   9 133.518 94.6661   1
  -8  -2  -9 141.521 90.3234   8
   8   2  10 26.4571 80.8217  15
   8   2  10 1.48016 117.582   7
   8   2  10-29.6006 89.4507  14
  -8  -2 -10 64.5771 74.5567   2
  -8  -2 -10-9.16197 50.9270  23
  -8  -2 -10-186.839 102.520  21
  -8  -2 -10-58.1961 68.6928  19
  -8  -2 -10 14.9951 54.2947  18
  -8  -2 -10 127.606 90.0034  17
   8   2  10-19.1636 107.541   1
  -8  -2 -10 53.5206 54.3464   8
   8   2  11 1619.67 280.353  15
   8   2  11 1261.12 262.756   7
   8   2  11 2234.33 329.573  14
  -8  -2 -11 1452.68 251.524   2
  -8  -2 -11 1937.04 309.744  23
  -8  -2 -11 1233.33 245.239  21
  -8  -2 -11 2102.63 319.899  19
  -8  -2 -11 1591.27 271.269  18
  -8  -2 -11 1457.77 237.675   8
   8   2  11 1688.93 353.136   1
   8   3  -4-30.0427 73.8817   6
   8   3  -4 109.141 77.7474   5
  -8  -3   4 63.6130 92.8093   4
  -8  -3   4 83.6282 76.8856   9
   8   3  -3 439.664 162.990   6
  -8  -3   3 762.209 144.674  11
  -8  -3   3 958.935 191.583   4
  -8  -3   3 836.922 179.914   9
   8   3  -2-108.173 88.3132   6
  -8  -3   2 7.18013 32.7443  11
  -8  -3   2-23.8659 68.2012   4
  -8  -3   2-45.8805 55.5346   9
   8   3  -1 33.0841 83.6502   6
  -8  -3   1-44.1133 49.7355   9
  -8  -3   0 98.9460 56.4333   2
   8   3   0-0.20753 66.6888   6
  -8  -3   0-36.0229 41.9627   9
   8   3   1 13372.3 807.506   6
  -8  -3  -1 13300.8 558.857   2
  -8  -3  -1 13179.8 611.400   9
   8   3   2 34057.3 1065.35  14
  -8  -3  -2 30194.9 964.946  23
   8   3   2 32574.2 1288.21   6
   8   3   2 33095.6 1036.88  13
  -8  -3  -2 30704.2 976.775  22
  -8  -3  -2 31262.6 982.442  21
  -8  -3  -2 31446.1 972.522  19
  -8  -3  -2 31415.5 966.883  18
  -8  -3  -2 33257.7 967.313   2
  -8  -3  -2 30481.4 983.216   9
   8   3   2 28062.0 1165.87  16
   8   3   2 34002.3 1057.24  15
   8   3   3 123.165 60.4562  15
  -8  -3  -3 127.964 56.0922   2
   8   3   3 94.8387 57.7459  14
  -8  -3  -3 115.355 52.5507  23
  -8  -3  -3 51.7974 38.4990  22
   8   3   3 123.524 89.9493   6
   8   3   3 171.091 66.1428  13
  -8  -3  -3 110.870 43.1105  21
  -8  -3  -3 74.2571 53.5461  19
  -8  -3  -3 31.7033 39.7871  18
  -8  -3  -3 97.4171 54.1831   9
   8   3   3 230.324 104.881  16
   8   3   4 582.096 130.285  15
  -8  -3  -4 333.917 81.1108   2
   8   3   4 579.498 133.795  14
  -8  -3  -4 574.187 129.077  23
  -8  -3  -4 507.320 125.437  22
   8   3   4 596.167 169.640   6
   8   3   4 373.206 97.5883  13
  -8  -3  -4 362.846 92.5576  21
  -8  -3  -4 396.634 107.672  19
  -8  -3  -4 358.719 95.1251  18
   8   3   4 303.690 111.993   1
  -8  -3  -4 455.119 103.411   9
   8   3   4 331.608 140.989  16
   8   3   5 750.079 156.897  15
  -8  -3  -5 827.232 140.879   2
   8   3   5 781.643 150.104  14
  -8  -3  -5 750.066 143.642  23
  -8  -3  -5 774.294 150.373  22
   8   3   5 916.459 206.596   6
   8   3   5 897.601 168.688  13
  -8  -3  -5 777.094 150.791  21
  -8  -3  -5 852.100 153.972  19
   8   3   5 728.596 159.573   1
  -8  -3  -5 869.524 155.809  18
  -8  -3  -5 564.515 110.623   9
   8   3   6 79.2029 66.8885  15
   8   3   6 117.296 72.4476  14
  -8  -3  -6 76.8005 54.1919   2
  -8  -3  -6 76.6983 56.2547  23
   8   3   6 157.735 98.3641   6
  -8  -3  -6 138.188 82.2513  22
   8   3   6 24.8948 51.1157  13
  -8  -3  -6 7.35219 53.7057  21
  -8  -3  -6 40.2136 55.4498  19
   8   3   6-141.751 86.3664   1
  -8  -3  -6 63.7184 58.1548  18
  -8  -3  -6 63.0124 41.1636   9
  -8  -3  -6 102.483 60.4965   8
   8   3   7 22.8786 59.8078  15
   8   3   7-46.2588 45.3771  14
  -8  -3  -7-27.2942 44.0050   2
  -8  -3  -7 24.2820 47.6302  23
   8   3   7 23.1896 67.7317   6
  -8  -3  -7 72.8178 63.0415  22
   8   3   7 7.88378 51.7927  13
  -8  -3  -7 20.9572 44.9878  21
  -8  -3  -7 31.2045 54.0728  19
   8   3   7-57.9505 71.5827   1
  -8  -3  -7 61.4310 56.5687  18
  -8  -3  -7 83.2827 62.4165   8
   8   3   8 1088.76 200.630  15
   8   3   8 1235.92 216.262  14
  -8  -3  -8 1025.73 168.087   2
  -8  -3  -8 958.288 187.035  23
   8   3   8 873.803 204.476   6
  -8  -3  -8 1018.37 198.931  22
   8   3   8 1038.68 198.172  13
  -8  -3  -8 1045.64 196.499  21
  -8  -3  -8 806.165 169.342  19
   8   3   8 1072.78 216.251   1
  -8  -3  -8 950.331 186.317  18
  -8  -3  -8 869.411 161.049   8
   8   3   9 130.705 102.531  15
   8   3   9-79.5473 77.4418  14
  -8  -3  -9-85.0653 63.3500   2
  -8  -3  -9-33.1627 56.3318  23
   8   3   9-119.197 93.4077   6
  -8  -3  -9-56.0303 65.1421  22
   8   3   9 40.4378 61.3225  13
  -8  -3  -9 24.3271 54.3816  21
  -8  -3  -9-106.205 78.1515  19
  -8  -3  -9-39.1054 69.8575  18
   8   3   9-10.2039 67.7707   1
  -8  -3  -9 18.6093 65.0610   8
   8   3  10 588.825 166.260  15
   8   3  10 509.226 163.229   7
   8   3  10 687.869 173.790  14
  -8  -3 -10 591.804 141.032   2
  -8  -3 -10 414.813 129.367  23
  -8  -3 -10 585.546 161.260  22
   8   3  10 341.103 131.198  13
   8   3  10 759.386 159.539  12
  -8  -3 -10 277.680 116.881  21
  -8  -3 -10 472.977 141.576  19
  -8  -3 -10 279.111 118.415  18
   8   3  10 532.527 195.509   1
  -8  -3 -10 563.235 138.860   8
   8   3  11 1755.59 307.193   7
   8   3  11 2074.38 333.519  14
  -8  -3 -11 2466.35 339.619  23
   8   3  11 2320.90 346.331  13
  -8  -3 -11 2119.80 328.890  22
  -8  -3 -11 2362.94 346.567  21
   8   3  11 2311.23 266.978  12
  -8  -3 -11 2399.09 338.568  19
  -8  -3 -11 2060.60 320.252  18
  -8  -3 -11 2573.44 318.673   2
   8   3  11 2115.66 380.340   1
  -8  -3 -11 2192.40 291.320   8
   8   3  11 2569.15 356.635  15
   8   4  -4 23.3553 80.1306   5
  -8  -4   4 44.6927 70.7136   9
  -8  -4   4-35.9511 67.1652   4
   8   4  -3 123.759 98.5440   6
   8   4  -3 414.188 129.097   5
  -8  -4   3 200.995 94.8764   9
  -8  -4   3 507.405 143.569   4
   8   4  -2 2366.70 341.553   6
  -8  -4   2 2648.46 289.352   4
  -8  -4   2 1827.17 241.445   9
   8   4  -1 287.165 124.947   6
  -8  -4   1 231.452 82.4552   9
  -8  -4   1 246.870 106.949   4
   8   4   0 2912.32 364.825   6
  -8  -4   0 3591.68 279.650   2
  -8  -4   0 3017.27 277.774   4
  -8  -4   0 3002.30 285.682   9
  -8  -4  -1 10.7673 34.7651   2
   8   4   1-4.08275 60.0580   6
  -8  -4  -1 66.2838 51.7610   9
   8   4   2 227.763 93.2894  15
  -8  -4  -2 79.2419 48.9223   2
   8   4   2 196.913 93.9227  14
  -8  -4  -2 170.638 67.5046  23
  -8  -4  -2 183.346 69.3608  22
   8   4   2 32.1021 73.3330   6
   8   4   2-59.7247 70.3505  13
  -8  -4  -2 206.620 73.6335  21
  -8  -4  -2 154.653 60.6210  19
  -8  -4  -2 48.4823 47.1066  18
  -8  -4  -2 63.0057 44.2863   9
   8   4   3 15126.6 699.448  14
   8   4   3 15386.8 835.396   6
  -8  -4  -3 14889.5 651.714  23
   8   4   3 15258.7 686.951  13
  -8  -4  -3 14479.4 658.975  22
  -8  -4  -3 15390.4 665.418  21
  -8  -4  -3 14910.8 646.532  19
  -8  -4  -3 15000.7 644.382  18
  -8  -4  -3 17690.1 668.633   2
  -8  -4  -3 15060.4 633.448   9
   8   4   3 16177.5 723.348  15
   8   4   4 8606.07 521.622  14
   8   4   4 8367.97 604.277   6
  -8  -4  -4 7984.64 473.893  23
   8   4   4 7992.03 489.877  13
  -8  -4  -4 8443.54 493.548  22
  -8  -4  -4 8320.71 487.350  21
  -8  -4  -4 7986.53 472.600  19
  -8  -4  -4 8166.82 473.695  18
  -8  -4  -4 8650.27 460.777   2
  -8  -4  -4 7906.83 439.138   9
   8   4   4 7749.73 465.486   1
   8   4   4 9112.88 530.518  15
   8   4   5 2233.28 267.133  14
   8   4   5 2633.36 339.966   6
  -8  -4  -5 2145.99 248.981  23
   8   4   5 2386.47 268.296  13
  -8  -4  -5 2040.14 245.609  22
  -8  -4  -5 2420.62 263.224  21
  -8  -4  -5 2007.15 236.632  19
  -8  -4  -5 2311.38 253.456  18
  -8  -4  -5 2113.12 230.445   2
  -8  -4  -5 2031.69 217.653   9
   8   4   5 1790.44 230.517   1
   8   4   5 2330.37 270.412  15
   8   4   6 1662.02 231.720  15
   8   4   6 1720.20 245.277  14
  -8  -4  -6 1392.08 207.340  23
   8   4   6 1500.82 220.353  13
  -8  -4  -6 1642.74 229.233  22
   8   4   6 1837.53 286.990   6
  -8  -4  -6 1681.87 226.266  21
  -8  -4  -6 1885.39 241.134  19
  -8  -4  -6 1686.13 227.411  18
  -8  -4  -6 1582.17 199.565   2
  -8  -4  -6 1853.01 212.864   9
  -8  -4  -6 1622.36 195.423   8
   8   4   6 1667.93 230.611   1
   8   4   7 30.5105 67.9163  15
  -8  -4  -7 48.9913 36.6007   2
   8   4   7 8.40455 55.3354  14
  -8  -4  -7 79.5523 77.2633  23
   8   4   7-7.92863 97.2827   6
  -8  -4  -7 8.15192 63.1885  22
   8   4   7-16.8570 60.9871  13
  -8  -4  -7 135.630 59.3863  21
   8   4   7 71.4141 64.5570   1
  -8  -4  -7 114.463 71.7715  19
  -8  -4  -7 109.680 54.4888  18
  -8  -4  -7 55.1430 56.3129   8
   8   4   8 13.9574 63.1193  15
  -8  -4  -8 46.0446 40.6141   2
   8   4   8-100.423 78.6559  14
  -8  -4  -8 131.736 96.2554  23
   8   4   8-213.203 114.941   6
  -8  -4  -8 73.5356 65.1404  22
   8   4   8 94.1031 69.8713  13
  -8  -4  -8-14.8359 52.9474  21
   8   4   8 39.3667 60.7068   1
  -8  -4  -8 32.7605 53.0534  19
  -8  -4  -8-10.3382 68.8654  18
  -8  -4  -8 51.6195 49.1305   8
   8   4   9 1722.19 265.919  15
   8   4   9 2056.63 296.264  14
  -8  -4  -9 1418.19 236.596  23
   8   4   9 1697.18 266.741  13
   8   4   9 1292.61 258.344   6
  -8  -4  -9 1507.19 245.076  22
  -8  -4  -9 1601.60 254.124  21
   8   4   9 1416.78 260.036   1
  -8  -4  -9 1444.23 241.726  19
  -8  -4  -9 1473.45 241.007  18
  -8  -4  -9 1576.32 221.920   2
  -8  -4  -9 1459.43 217.507   8
   8   4  10 9543.90 738.604   7
   8   4  10 11314.8 736.904  14
   8   4  10 8710.30 667.954   6
  -8  -4 -10 10096.6 666.147  23
   8   4  10 11331.3 726.240  13
  -8  -4 -10 10959.7 705.477  22
  -8  -4 -10 10611.2 692.216  21
   8   4  10 10737.7 601.595  12
  -8  -4 -10 9794.84 661.937  19
  -8  -4 -10 10731.6 684.791  18
  -8  -4 -10 9839.23 581.626   2
  -8  -4 -10 9577.00 583.827   8
   8   4  10 11282.3 733.648  15
   8   4  10 9924.50 744.558   1
   8   4  11 830.650 201.041  15
   8   4  11 592.366 208.650   7
   8   4  11 867.551 210.141  14
  -8  -4 -11 794.870 172.364   2
  -8  -4 -11 1192.48 235.371  23
  -8  -4 -11 702.518 178.578  22
   8   4  11 850.442 195.824  13
   8   4  11 1106.10 192.091  12
  -8  -4 -11 1022.92 218.402  21
  -8  -4 -11 1150.64 231.588  19
   8   4  11 725.739 204.156   1
  -8  -4 -11 1084.04 224.846  18
  -8  -4 -11 946.090 184.690  10
  -8  -4 -11 827.819 185.525   8
   8   5  -4 228.913 105.390   5
  -8  -5   4 104.455 51.0869   9
  -8  -5   4-39.4270 94.2613   4
   8   5  -3 415.955 129.074   5
  -8  -5   3 248.588 96.4008   9
  -8  -5   3 381.300 136.442   4
   8   5  -2 2265.23 319.883   6
   8   5  -2 2392.94 291.306   5
  -8  -5   2 1619.80 225.268   9
  -8  -5   2 2592.69 291.015   4
   8   5  -1 7832.56 592.337   6
  -8  -5   1 7848.59 480.506   9
  -8  -5   1 8307.85 491.633   4
  -8  -5   0 60.6960 46.9116   2
   8   5   0 27.4838 83.1879   6
  -8  -5   0 59.6853 52.8719   9
  -8  -5   0 142.082 63.1688   4
  -8  -5  -1 188.336 69.9988   2
  -8  -5  -1 271.106 82.8980  23
  -8  -5  -1 265.284 91.7445  22
   8   5   1 273.445 119.468   6
  -8  -5  -1 299.944 83.7381  21
  -8  -5  -1 272.259 88.5750   9
  -8  -5  -1 324.174 84.6959   4
   8   5   2 39.6972 48.1671  15
  -8  -5  -2 161.761 65.6271   2
   8   5   2 173.279 75.9926  14
  -8  -5  -2 72.1339 52.7470  23
  -8  -5  -2 71.3174 47.1842  22
   8   5   2-9.01346 60.7955   6
   8   5   2 109.533 49.9112  13
  -8  -5  -2 44.8112 56.4834  21
  -8  -5  -2 80.3445 55.3772  19
  -8  -5  -2 133.328 62.0038   9
   8   5   3 3167.37 318.836  14
   8   5   3 3162.76 372.427   6
  -8  -5  -3 3353.51 300.285  23
   8   5   3 3548.44 323.284  13
  -8  -5  -3 3005.93 287.991  22
  -8  -5  -3 2980.05 285.704  21
  -8  -5  -3 3192.55 292.161  19
  -8  -5  -3 3173.79 287.924  18
  -8  -5  -3 3831.41 297.717   2
  -8  -5  -3 3255.93 278.766   9
   8   5   3 3557.00 336.536  15
   8   5   4 18590.4 815.374  14
   8   5   4 17882.7 922.544   6
  -8  -5  -4 17218.8 738.641  23
   8   5   4 17980.3 780.049  13
  -8  -5  -4 16502.3 733.447  22
  -8  -5  -4 17583.4 744.794  21
  -8  -5  -4 16971.9 725.727  19
  -8  -5  -4 17149.0 727.305  18
  -8  -5  -4 18509.4 707.111   2
  -8  -5  -4 18024.0 700.504   9
   8   5   4 17849.2 700.657   1
   8   5   4 17812.3 801.507  15
   8   5   5 901.777 179.190  15
  -8  -5  -5 856.586 147.333   2
   8   5   5 773.974 165.650  14
   8   5   5 686.252 133.304   1
  -8  -5  -5 535.974 124.347  23
   8   5   5 774.346 196.276   6
  -8  -5  -5 704.722 147.774  22
   8   5   5 673.225 147.611  13
  -8  -5  -5 650.701 141.355  21
  -8  -5  -5 617.011 138.084  19
  -8  -5  -5 627.477 135.096  18
  -8  -5  -5 667.337 131.860   9
   8   5   6 2932.18 326.794  14
   8   5   6 2800.95 368.128   6
  -8  -5  -6 2933.34 303.975  23
   8   5   6 2754.28 302.421  13
  -8  -5  -6 2494.37 285.445  22
  -8  -5  -6 3030.63 312.365  21
  -8  -5  -6 2611.57 285.557  19
  -8  -5  -6 2859.72 296.279  18
  -8  -5  -6 2751.66 266.301   2
  -8  -5  -6 2587.87 252.530   8
   8   5   6 2562.33 274.659   1
   8   5   6 2689.07 309.107  15
   8   5   7 2996.12 337.394  14
   8   5   7 3711.96 423.346   6
  -8  -5  -7 3023.11 321.704  23
   8   5   7 3554.30 357.821  13
  -8  -5  -7 3375.44 343.286  22
  -8  -5  -7 3061.94 323.223  21
  -8  -5  -7 3238.80 330.313  19
  -8  -5  -7 3191.12 328.896  18
  -8  -5  -7 3458.21 305.077   2
  -8  -5  -7 3541.05 304.736   8
   8   5   7 3068.97 320.375   1
   8   5   7 2859.79 328.636  15
   8   5   8 104.175 76.8545  15
  -8  -5  -8 101.618 58.7606   2
   8   5   8 32.3653 67.4238  14
  -8  -5  -8 140.316 69.3130  23
   8   5   8 41.4142 83.5405   6
  -8  -5  -8 94.2386 78.9969  22
   8   5   8 36.8585 63.6400   1
   8   5   8 41.2389 64.3684  13
  -8  -5  -8 138.976 82.6509  21
  -8  -5  -8 9.38773 42.0752  19
  -8  -5  -8 59.3678 66.2263  18
  -8  -5  -8 81.3710 58.8574   8
   8   5   9 92.0001 67.3542  15
  -8  -5  -9 119.632 79.8869   2
   8   5   9 170.190 100.349  14
  -8  -5  -9 57.9997 47.2578  23
   8   5   9 101.346 106.567   6
  -8  -5  -9-6.05620 48.4093  22
   8   5   9 69.5642 50.1476  13
   8   5   9 11.5867 63.4074   1
  -8  -5  -9 109.039 66.5219  21
  -8  -5  -9 3.85146 67.3963  19
  -8  -5  -9 9.19878 64.2602  18
  -8  -5  -9 6.49841 52.7563   8
   8   5  10 612.510 181.535  15
   8   5  10 582.607 173.553  14
   8   5  10 784.385 222.574   7
  -8  -5 -10 442.841 129.196   2
  -8  -5 -10 563.018 151.892  23
   8   5  10 488.091 172.760   6
  -8  -5 -10 523.424 155.433  22
   8   5  10 539.687 160.370  13
   8   5  10 683.824 162.499  12
  -8  -5 -10 601.442 167.240  21
   8   5  10 297.753 133.909   1
  -8  -5 -10 634.939 169.921  19
  -8  -5 -10 628.971 164.901  18
  -8  -5 -10 578.823 134.036  10
  -8  -5 -10 601.021 150.474   8
   8   5  11 6677.11 634.676   7
   8   5  11 7339.72 620.014  14
   8   5  11 5938.86 571.232   6
  -8  -5 -11 6879.49 569.086  23
   8   5  11 7389.62 598.936  13
  -8  -5 -11 7111.59 588.184  22
  -8  -5 -11 7838.98 609.147  21
   8   5  11 7011.43 499.903  12
  -8  -5 -11 7346.97 584.930  19
  -8  -5 -11 6113.74 479.361  10
  -8  -5 -11 7569.25 587.042  18
  -8  -5 -11 7477.35 515.615   2
  -8  -5 -11 6855.35 510.578   8
   8   5  11 6968.60 601.078  15
   8   5  11 5892.81 584.630   1
   8   6  -3 648.159 165.196   5
  -8  -6   3 694.666 158.269   9
  -8  -6   3 707.803 171.200   4
   8   6  -2 480.211 145.348   6
   8   6  -2 109.270 74.1242   5
  -8  -6   2 418.981 114.379   9
  -8  -6   2 368.072 126.751   4
   8   6  -1 560.746 151.936   6
   8   6  -1 547.933 133.153   5
  -8  -6   1 620.991 133.539   9
  -8  -6   1 702.134 144.562   4
  -8  -6   0 669.998 134.652   2
   8   6   0 542.557 158.239   6
   8   6   0 884.258 161.795   5
  -8  -6   0 724.088 143.529   9
  -8  -6   0 860.122 145.072   4
   8   6   1 336.239 109.753  15
  -8  -6  -1 242.391 89.3372   2
   8   6   1 245.775 100.883  14
  -8  -6  -1 204.945 81.2752  23
  -8  -6  -1 309.666 86.4895  22
   8   6   1 141.977 86.9212   6
   8   6   1 301.719 100.736  13
  -8  -6  -1 332.739 90.9852  21
  -8  -6  -1 330.148 90.3098  19
   8   6   1 262.748 89.3227   5
  -8  -6  -1 278.402 85.5224   9
   8   6   1 347.098 108.936  17
  -8  -6  -1 292.014 80.1795   4
   8   6   2 897.424 185.262  15
  -8  -6  -2 925.737 155.576   2
   8   6   2 814.287 180.581  14
  -8  -6  -2 747.399 144.279  23
  -8  -6  -2 889.973 157.257  22
   8   6   2 757.906 189.397   6
   8   6   2 772.345 161.149  13
  -8  -6  -2 762.777 150.066  21
  -8  -6  -2 713.906 137.985  19
  -8  -6  -2 852.273 144.193   9
   8   6   2 949.997 181.974  17
   8   6   3 9135.31 587.844  14
   8   6   3 10855.0 700.525   6
  -8  -6  -3 9299.34 530.382  23
   8   6   3 9697.40 570.953  13
  -8  -6  -3 8868.44 523.797  22
  -8  -6  -3 9680.08 541.396  21
  -8  -6  -3 9201.26 517.644  19
  -8  -6  -3 10820.2 537.529   2
  -8  -6  -3 10842.4 524.285   9
   8   6   3 9622.63 576.216  17
   8   6   3 10411.6 482.888   1
   8   6   3 9597.87 596.082  15
   8   6   4 309.617 118.715  15
  -8  -6  -4 241.838 85.5622   2
   8   6   4 336.834 89.0459   1
   8   6   4 218.751 98.7983  14
  -8  -6  -4 203.747 83.4464  23
   8   6   4 253.798 121.617   6
  -8  -6  -4 317.105 105.956  22
   8   6   4 277.718 98.4906  13
  -8  -6  -4 338.654 99.5114  21
  -8  -6  -4 212.862 75.0100  19
  -8  -6  -4 135.804 61.8457   9
   8   6   5 379.815 123.231  15
  -8  -6  -5 588.613 126.457   2
   8   6   5 643.510 129.499   1
   8   6   5 606.157 159.414  14
  -8  -6  -5 385.287 114.812  23
   8   6   5 655.179 189.570   6
  -8  -6  -5 405.221 116.485  22
   8   6   5 523.107 134.354  13
  -8  -6  -5 551.819 133.720  21
  -8  -6  -5 439.005 117.871  19
  -8  -6  -5 423.200 112.782  18
  -8  -6  -5 352.739 99.8816   9
   8   6   6 1951.34 277.300  14
  -8  -6  -6 1830.87 248.145  23
  -8  -6  -6 1634.66 235.971  22
   8   6   6 1770.89 302.003   6
   8   6   6 1441.35 224.426  13
  -8  -6  -6 1800.08 245.595  21
  -8  -6  -6 1638.25 228.709  19
  -8  -6  -6 1871.07 226.857   2
  -8  -6  -6 1734.60 237.125  18
   8   6   6 1838.95 227.373   1
   8   6   6 1753.68 258.690  15
   8   6   7 1452.88 244.846  14
  -8  -6  -7 1652.22 242.649  23
   8   6   7 1656.64 252.680  13
   8   6   7 1648.54 292.714   6
  -8  -6  -7 1675.88 248.384  22
  -8  -6  -7 1808.79 254.689  21
  -8  -6  -7 1717.30 242.827  19
  -8  -6  -7 1758.05 242.162  18
  -8  -6  -7 1887.71 230.565   2
  -8  -6  -7 1895.87 223.196   8
   8   6   7 1794.00 237.849   1
   8   6   7 1781.50 266.918  15
   8   6   8 1237.02 234.182  15
   8   6   8 1533.47 258.337  14
   8   6   8 1305.44 222.306   1
  -8  -6  -8 1380.48 235.321  23
   8   6   8 1043.61 244.491   6
  -8  -6  -8 1477.63 239.232  22
   8   6   8 1303.03 227.456  13
  -8  -6  -8 1204.27 213.177  21
  -8  -6  -8 1305.27 222.023  19
  -8  -6  -8 1539.42 215.197   2
  -8  -6  -8 1266.21 215.111  18
  -8  -6  -8 1228.43 193.002   8
   8   6   9 2439.81 340.856  14
  -8  -6  -9 2114.23 298.930  23
   8   6   9 2736.76 343.666  13
   8   6   9 2262.78 356.397   6
  -8  -6  -9 2749.82 339.373  22
  -8  -6  -9 2008.75 289.423  21
  -8  -6  -9 2600.06 323.772  19
  -8  -6  -9 2064.99 246.479  10
  -8  -6  -9 2438.91 312.882  18
  -8  -6  -9 2996.11 309.146   2
  -8  -6  -9 2821.52 295.749   8
   8   6   9 3007.93 355.438   1
   8   6   9 2663.60 350.919  15
   8   6  10 91.0370 89.2132  15
  -8  -6 -10-120.803 73.6930   2
   8   6  10 84.7586 89.4275  14
   8   6  10 33.0823 113.368   7
  -8  -6 -10 156.322 99.9867  23
   8   6  10 404.648 160.086   6
  -8  -6 -10 182.014 76.8481  22
   8   6  10 135.322 90.0946   1
   8   6  10 138.424 87.2102  13
   8   6  10 203.011 102.555  12
  -8  -6 -10-71.8510 73.9282  21
  -8  -6 -10 89.1249 87.1091  19
  -8  -6 -10 137.870 80.7900  18
  -8  -6 -10 69.6436 66.9528  10
  -8  -6 -10-52.7795 97.9822   8
   8   6  11 761.330 208.303  15
   8   6  11 785.101 207.792  14
   8   6  11 487.170 175.746   7
  -8  -6 -11 754.210 166.037   2
  -8  -6 -11 488.785 154.743  23
   8   6  11 495.898 180.626   6
  -8  -6 -11 443.189 153.972  22
   8   6  11 450.503 160.127  13
   8   6  11 747.032 204.882   1
  -8  -6 -11 649.900 173.101  21
   8   6  11 712.246 164.315  12
  -8  -6 -11 618.240 174.844  19
  -8  -6 -11 616.657 173.101  18
  -8  -6 -11 739.760 171.692  10
  -8  -6 -11 513.257 130.067   8
   8   7  -3 1088.43 244.905  20
   8   7  -3 801.478 179.132   5
  -8  -7   3 1001.71 182.904   9
  -8  -7   3 1196.30 227.324   4
   8   7  -2 365.794 149.812  20
   8   7  -2 559.494 144.613   5
  -8  -7   2 516.804 126.332   9
  -8  -7   2 520.277 145.134   4
  -8  -7   1 182.534 72.6682   2
   8   7  -1 152.516 100.082   6
   8   7  -1 169.233 89.9645   5
  -8  -7   1 106.256 54.7019   9
  -8  -7   1 349.069 110.508   4
  -8  -7   0 252.413 96.8864   2
   8   7   0 288.501 121.078   6
   8   7   0 111.972 64.3256   5
  -8  -7   0 326.157 91.9431   9
  -8  -7   0 327.038 98.6496   4
   8   7   1 740.281 172.851  15
  -8  -7  -1 605.926 135.451   2
   8   7   1 602.917 167.605  14
  -8  -7  -1 686.592 144.339  23
  -8  -7  -1 709.605 152.414  22
   8   7   1 556.339 167.066   6
   8   7   1 782.303 173.385  13
  -8  -7  -1 764.913 151.694  21
  -8  -7  -1 766.493 147.877  19
   8   7   1 780.231 147.752   5
  -8  -7  -1 924.448 156.832   9
   8   7   1 524.086 142.742  17
   8   7   2 247.235 102.404  15
  -8  -7  -2 241.134 88.8185   2
   8   7   2 238.282 117.204  14
  -8  -7  -2 186.796 77.3549  23
   8   7   2 370.734 139.670   6
  -8  -7  -2 77.1915 59.1183  22
   8   7   2 235.339 91.8275  13
  -8  -7  -2 241.244 90.3364  21
  -8  -7  -2 81.3756 56.4572  19
   8   7   2 210.498 73.9852   5
  -8  -7  -2 232.583 73.7421   9
   8   7   2 93.8847 65.3954  17
   8   7   3 278.513 122.697  15
  -8  -7  -3 67.5824 55.2069   2
   8   7   3 223.059 102.121  14
  -8  -7  -3 241.232 85.2819  23
   8   7   3 145.421 94.1274   6
  -8  -7  -3 170.829 80.1115  22
   8   7   3 215.749 99.8472  13
  -8  -7  -3 118.751 71.1219  21
  -8  -7  -3 318.467 104.884  19
   8   7   3 183.504 69.9948   5
  -8  -7  -3 302.498 87.9929   9
   8   7   3 219.138 95.7632  17
   8   7   3 232.252 77.1761   1
   8   7   4 2677.38 335.016  14
   8   7   4 3202.61 388.965   6
  -8  -7  -4 2992.40 313.094  23
   8   7   4 2866.69 327.232  13
  -8  -7  -4 2763.15 301.255  22
  -8  -7  -4 2770.01 299.595  21
  -8  -7  -4 2858.34 300.172  19
   8   7   4 2507.24 229.349   5
  -8  -7  -4 3361.27 310.183   2
  -8  -7  -4 2970.71 274.174   9
   8   7   4 2880.42 328.405  17
   8   7   4 3197.87 273.731   1
   8   7   4 2751.39 333.968  15
   8   7   5 45.5172 60.7941   1
   8   7   5 26.5738 79.3879  15
  -8  -7  -5-15.4046 51.4929   2
   8   7   5-16.9157 81.1693  14
  -8  -7  -5 55.9878 73.8866  23
   8   7   5-24.3270 84.5745   6
  -8  -7  -5 96.9637 84.1284  22
   8   7   5-12.4263 50.5523  13
  -8  -7  -5-29.4846 51.6523  21
  -8  -7  -5-31.9483 47.8374  19
  -8  -7  -5 68.3036 63.7593   9
   8   7   5 24.5013 57.7283  17
   8   7   6 187.827 112.545  15
   8   7   6 36.8369 47.0626   1
  -8  -7  -6 24.2787 46.9147   2
   8   7   6 18.8594 61.4557  14
  -8  -7  -6 73.3774 58.2049  23
   8   7   6 27.5612 99.9568   6
  -8  -7  -6 87.1656 71.5199  22
   8   7   6 24.2306 65.5275  13
  -8  -7  -6 56.9657 54.6969  21
  -8  -7  -6-47.5488 63.4175  19
   8   7   6 70.0838 58.3483  17
   8   7   7-7.36871 65.9008  15
  -8  -7  -7-13.4270 37.8080   2
   8   7   7-51.7917 67.6458   1
   8   7   7 12.1705 55.8293  14
  -8  -7  -7 32.8374 73.7453  23
   8   7   7-82.6169 101.106   6
  -8  -7  -7-30.5567 53.8432  22
   8   7   7 109.758 79.9894  13
  -8  -7  -7-14.5156 59.3534  21
  -8  -7  -7 29.3267 61.6312  19
   8   7   8 8070.72 628.362  14
   8   7   8 9273.96 728.859   6
  -8  -7  -8 8522.67 593.260  23
   8   7   8 8510.13 613.725  13
  -8  -7  -8 8897.03 611.403  22
  -8  -7  -8 8626.72 594.475  21
  -8  -7  -8 8418.92 580.640  19
  -8  -7  -8 8600.97 589.042  18
  -8  -7  -8 10127.0 566.638   2
  -8  -7  -8 8914.37 507.197   8
   8   7   8 9005.12 576.265   1
   8   7   8 8700.97 645.125  15
   8   7   9 1257.61 256.316  15
   8   7   9 1115.95 253.795  14
   8   7   9 1255.97 226.791   1
  -8  -7  -9 1102.02 222.001  23
   8   7   9 766.643 227.108   6
  -8  -7  -9 1240.45 230.401  22
   8   7   9 1279.05 251.294  13
  -8  -7  -9 1117.14 216.113  21
  -8  -7  -9 924.567 197.845  19
  -8  -7  -9 1415.33 247.540  18
  -8  -7  -9 1400.26 219.036   2
  -8  -7  -9 1186.43 195.719  10
  -8  -7  -9 1269.80 198.860   8
   8   7  10 1294.19 259.898  15
   8   7  10 1301.91 268.449  14
   8   7  10 1459.81 337.008   7
   8   7  10 1928.71 295.806   1
  -8  -7 -10 1617.93 277.312  23
   8   7  10 1690.04 324.355   6
  -8  -7 -10 1572.71 267.721  22
   8   7  10 1482.05 272.484  13
  -8  -7 -10 1551.72 270.056  21
   8   7  10 2139.80 284.864  12
  -8  -7 -10 1131.42 231.435  19
  -8  -7 -10 1450.99 256.741  18
  -8  -7 -10 1658.29 242.008   2
  -8  -7 -10 1277.92 217.926  10
  -8  -7 -10 1396.24 212.627   8
   8   8  -2 1118.53 242.782  20
   8   8  -2 1125.00 205.092   5
  -8  -8   2 954.697 164.773   9
  -8  -8   2 1060.94 197.275   4
  -8  -8   1 535.317 133.956   2
   8   8  -1 596.734 142.201   5
  -8  -8   1 664.281 140.330   9
  -8  -8   1 498.919 135.773   4
  -8  -8   0 1077.80 188.339   2
   8   8   0 1318.72 248.665   6
   8   8   0 1279.42 203.366   5
  -8  -8   0 1609.61 203.780   9
  -8  -8  -1-49.6559 60.5768   2
   8   8   1 83.1342 115.398  14
  -8  -8  -1 37.7185 41.3634  23
   8   8   1 75.1188 62.0638   6
  -8  -8  -1 137.403 79.7181  22
   8   8   1 224.734 104.237  13
  -8  -8  -1 35.0980 47.9193  21
  -8  -8  -1 0.56315 48.1494  19
   8   8   1 0.52210 29.5965   5
  -8  -8  -1 73.9050 66.2860   9
   8   8   1 45.3596 56.0176  17
   8   8   1 60.5277 72.2560  15
   8   8   2 2318.23 336.286  14
   8   8   2 3219.60 388.756   6
  -8  -8  -2 2649.17 298.719  23
   8   8   2 2324.26 312.972  13
  -8  -8  -2 2786.51 309.843  22
  -8  -8  -2 2749.90 298.581  21
  -8  -8  -2 2374.08 277.755  19
   8   8   2 2916.21 278.663   5
  -8  -8  -2 2685.90 304.885   2
  -8  -8  -2 3179.94 281.587   9
   8   8   2 2596.01 329.529  17
   8   8   2 3084.66 377.558  15
   8   8   3 8671.94 643.457  14
   8   8   3 10054.8 707.144   6
  -8  -8  -3 8503.76 549.018  23
   8   8   3 8354.26 590.359  13
  -8  -8  -3 7687.66 532.521  22
  -8  -8  -3 8343.45 545.249  21
  -8  -8  -3 8121.73 528.169  19
   8   8   3 7750.77 449.857   5
  -8  -8  -3 8894.87 544.575   2
   8   8   3 9285.58 474.376   1
  -8  -8  -3 9888.65 514.819   9
   8   8   3 7585.46 572.264  17
   8   8   3 8316.78 623.777  15
   8   8   4 2612.13 353.214  14
   8   8   4 2746.02 375.734   6
  -8  -8  -4 2979.34 326.086  23
   8   8   4 2603.71 328.377  13
  -8  -8  -4 2621.55 309.860  22
  -8  -8  -4 2709.16 310.572  21
  -8  -8  -4 2897.35 315.066  19
  -8  -8  -4 3074.75 318.512   2
  -8  -8  -4 3228.92 294.496   9
   8   8   4 3239.50 280.975   1
   8   8   4 2837.13 341.709  17
   8   8   4 2869.28 359.934  15
   8   8   5 5812.91 532.087  14
   8   8   5 7295.66 618.489   6
  -8  -8  -5 5325.04 443.817  23
   8   8   5 5503.35 481.491  13
  -8  -8  -5 5520.15 459.682  22
  -8  -8  -5 5751.02 464.118  21
  -8  -8  -5 5399.23 443.323  19
  -8  -8  -5 6632.49 467.328   2
   8   8   5 5999.19 507.029  17
   8   8   5 6237.23 413.807   1
   8   8   5 5822.18 519.203  15
   8   8   6 238.081 104.061  15
  -8  -8  -6 693.147 150.953   2
   8   8   6 201.842 107.639  14
  -8  -8  -6 207.182 101.561  23
   8   8   6 547.921 175.532   6
  -8  -8  -6 356.194 119.385  22
   8   8   6 324.021 133.557  13
  -8  -8  -6 386.763 124.965  21
  -8  -8  -6 511.554 142.185  19
   8   8   6 238.268 108.522  17
   8   8   6 310.226 97.0798   1
   8   8   7 536.827 166.636  15
   8   8   7 513.339 130.296   1
  -8  -8  -7 372.010 117.811   2
   8   8   7 462.577 160.711  14
  -8  -8  -7 250.650 102.823  23
   8   8   7 304.978 145.015   6
  -8  -8  -7 402.761 131.440  22
   8   8   7 348.095 138.841  13
  -8  -8  -7 393.684 119.015  21
  -8  -8  -7 191.102 81.7831  19
   8   8   7 274.999 125.756  17
   8   8   8 410.138 154.410  15
   8   8   8 373.558 118.758   1
  -8  -8  -8 337.550 107.493   2
   8   8   8 387.230 149.390  14
  -8  -8  -8 222.742 103.692  23
   8   8   8 267.117 135.812   6
  -8  -8  -8 279.756 113.175  22
   8   8   8 291.502 131.122  13
  -8  -8  -8 315.312 131.844  21
  -8  -8  -8 309.176 114.760  19
  -8  -8  -8 204.899 74.8180  10
   8   8   8 267.524 122.438  17
   8   8   9 487.654 175.263  15
  -8  -8  -9 256.276 105.647   2
   8   8   9 381.054 130.324   1
   8   8   9 189.416 111.178  14
  -8  -8  -9 284.309 127.471  23
   8   8   9 200.960 114.498   6
  -8  -8  -9 516.208 152.082  22
   8   8   9 465.984 152.355  13
  -8  -8  -9 175.333 88.9543  21
   8   8   9 387.578 128.337  12
  -8  -8  -9 460.967 142.462  19
  -8  -8  -9 371.703 126.728  10
   8   8   9 192.663 134.167  17
  -8  -9   1 585.557 154.502   2
   8   9  -1 651.014 200.510  20
   8   9  -1 774.964 172.959   5
  -8  -9   0 1380.46 222.977   2
   8   9   0 1148.41 195.724   5
  -8  -9   0 1348.30 195.909   9
  -8  -9  -1 48.5524 67.9962   2
   8   9   1-105.839 95.3190  14
  -8  -9  -1-124.916 77.0416  23
   8   9   1 131.965 98.5244   6
  -8  -9  -1 28.2397 71.8827  22
   8   9   1-82.5208 79.0094  13
  -8  -9  -1 5.84785 44.2732  21
   8   9   1-15.8291 37.6374   5
   8   9   1 14.9672 73.0357  18
  -8  -9  -1 10.3126 55.9660   9
   8   9   1 101.524 88.2123  17
   8   9   1-96.5851 90.0392  15
  -8  -9  -2 3.77430 58.0697   2
   8   9   2 267.739 133.961  14
  -8  -9  -2 141.598 80.9513  23
   8   9   2 217.337 126.296   6
  -8  -9  -2 121.687 88.3508  22
   8   9   2 29.9432 59.0860  13
  -8  -9  -2 37.8770 62.7936  21
  -8  -9  -2-97.7513 68.9797  19
   8   9   2 83.5738 57.6692   5
  -8  -9  -2 87.2274 56.9671   9
   8   9   2-35.3353 68.3286  17
   8   9   2-32.7126 67.7401  15
   8   9   3 65.9741 82.4957  15
  -8  -9  -3-29.8943 69.1144   2
   8   9   3 20.5797 93.3171  14
  -8  -9  -3 14.4234 46.4466  23
   8   9   3-79.0735 110.161   6
  -8  -9  -3-128.254 81.8255  22
   8   9   3 141.964 88.5836  13
  -8  -9  -3-32.5668 59.6669  21
  -8  -9  -3 20.0796 54.5391  19
   8   9   3-47.1572 49.5450   1
  -8  -9  -3 43.8372 45.7409   9
   8   9   3 21.4690 63.2017  17
   8   9   4 3220.28 422.462  14
   8   9   4 3897.74 449.949   6
  -8  -9  -4 3302.64 357.375  23
   8   9   4 3300.05 388.770  13
  -8  -9  -4 3266.99 362.203  22
  -8  -9  -4 2851.74 334.719  21
  -8  -9  -4 2872.96 326.976  19
  -8  -9  -4 3193.53 349.450   2
   8   9   4 3341.95 304.968   1
  -8  -9  -4 3677.93 317.995   9
   8   9   4 2700.38 354.390  17
   8   9   4 3447.49 418.758  15
   8   9   5 7564.30 639.153  14
   8   9   5 8682.19 692.966   6
  -8  -9  -5 7725.91 562.385  23
   8   9   5 8129.78 616.545  13
  -8  -9  -5 7076.37 547.196  22
  -8  -9  -5 7404.65 553.177  21
  -8  -9  -5 7463.95 545.620  19
  -8  -9  -5 7897.32 544.419   2
   8   9   5 8964.20 519.361   1
  -8  -9  -5 8910.81 515.976   9
   8   9   5 7069.89 586.464  17
   8   9   5 8142.99 650.685  15
   8   9   6 157.088 105.108  15
  -8  -9  -6-8.81742 57.0269   2
   8   9   6 57.4473 81.1596  14
  -8  -9  -6 42.7912 61.2521  23
   8   9   6 3.38353 81.3196   6
  -8  -9  -6 11.4802 71.9736  22
   8   9   6-27.4276 79.2428  13
  -8  -9  -6-0.55938 51.9009  21
  -8  -9  -6-51.1176 61.9995  19
   8   9   6-187.559 108.427  17
   8   9   6 26.2873 61.7453   1
   8   9   7 2019.21 341.678  14
   8   9   7 2722.55 409.983   6
  -8  -9  -7 2434.32 324.641  23
   8   9   7 2308.47 336.925  13
  -8  -9  -7 2612.40 339.897  22
  -8  -9  -7 2165.70 307.021  21
  -8  -9  -7 2042.56 292.521  19
  -8  -9  -7 2466.63 298.711   2
   8   9   7 2495.96 354.847  17
   8   9   7 2597.34 298.434   1
   8   9   7 2360.30 357.131  15
   8   9   8-29.7582 69.9389  15
  -8  -9  -8-48.3787 61.1182   2
   8   9   8 123.736 131.668  14
  -8  -9  -8-36.9571 64.1347  23
   8   9   8 35.3496 95.7291   6
  -8  -9  -8-35.4615 60.7605  22
   8   9   8 130.351 113.142  13
   8   9   8 62.2430 93.7879  12
  -8  -9  -8-47.7941 65.8904  21
  -8  -9  -8-65.2986 72.5412  19
  -8  -9  -8 69.9168 63.9513  10
   8   9   8 171.499 106.970  17
   8   9   8 29.9682 60.7418   1
   8  10   0 14269.4 915.437  20
   8  10   0 13050.5 720.733   5
  -8 -10   0 13707.3 795.453   2
   8  10   1 10441.2 826.423  14
  -8 -10  -1 10882.4 684.432  23
   8  10   1 10919.5 781.740  13
  -8 -10  -1 11154.7 692.116  22
  -8 -10  -1 11057.7 679.447  21
   8  10   1 10930.0 630.918   5
  -8 -10  -1 11154.7 713.246   2
   8  10   1 11688.0 810.804  18
   8  10   1 11187.9 798.279  17
   8  10   1 10897.9 818.176  15
   8  10   2 3631.39 477.738  14
   8  10   2 4468.05 468.090   6
  -8 -10  -2 3523.85 382.257  23
   8  10   2 3116.50 408.709  13
  -8 -10  -2 3106.79 363.758  22
  -8 -10  -2 3303.90 370.341  21
   8  10   2 2938.73 306.536   5
  -8 -10  -2 3382.46 385.006   2
   8  10   2 3268.44 422.638  18
   8  10   2 3400.63 431.080  17
   8  10   2 3583.72 460.184  15
  -8 -10  -3 54.2259 84.6916   2
   8  10   3 54.8956 84.3992  14
  -8 -10  -3 80.8210 70.6785  23
   8  10   3 137.367 111.846   6
  -8 -10  -3 142.081 91.3162  22
   8  10   3-15.3546 58.5927  13
  -8 -10  -3 26.4135 56.5773  21
   8  10   3 239.388 89.3542   1
  -8 -10  -3 172.987 74.6724   9
   8  10   3 7.77244 74.6961  17
   8  10   3 18.1873 93.0650  15
  -8 -10  -4-193.555 100.433   2
   8  10   4 314.112 165.470  14
  -8 -10  -4 152.761 92.9750  23
   8  10   4 137.464 114.158   6
  -8 -10  -4 213.657 108.340  22
   8  10   4 104.900 92.2014  13
  -8 -10  -4 150.987 93.3038  21
  -8 -10  -4 177.098 91.9380  19
   8  10   4 70.1606 60.4780   1
   8  10   4 136.518 104.436  17
  -8 -10  -4 56.6227 54.9979   9
   8  10   4 217.727 158.173  15
   8  10   5 2448.48 377.821  15
   8  10   5 3069.80 432.579  14
   8  10   5 3263.66 439.465   6
  -8 -10  -5 2378.47 328.281  23
   8  10   5 2421.93 355.621  13
  -8 -10  -5 2941.47 363.914  22
  -8 -10  -5 2126.70 311.164  21
  -8 -10  -5 2660.68 338.423  19
  -8 -10  -5 2746.09 340.134   2
   8  10   5 3014.93 312.091   1
  -8 -10  -5 3130.42 307.060   9
   8  10   5 2347.52 353.507  17
   8  10   6 152.082 107.100  15
  -8 -10  -6 331.240 132.307   2
   8  10   6 352.397 156.128  14
  -8 -10  -6 186.564 100.762  23
   8  10   6 342.012 167.222   6
  -8 -10  -6 352.428 144.831  22
   8  10   6 179.396 107.059  13
  -8 -10  -6 180.651 93.0222  21
  -8 -10  -6 134.508 74.2134  19
   8  10   6 344.652 142.629  17
   8  10   6 257.745 89.6218   1
   8  10   7 128.134 112.667  15
  -8 -10  -7 84.4256 50.2316   2
   8  10   7 248.233 157.072  14
  -8 -10  -7 134.472 88.1780  23
   8  10   7 11.1436 87.7753   6
  -8 -10  -7 3.08091 52.1326  22
   8  10   7 266.532 126.772  13
  -8 -10  -7 206.984 106.692  21
  -8 -10  -7 12.5904 41.5025  19
  -8 -10  -7 257.142 113.599  10
   8  10   7-43.2447 95.1478  17
   8  10   7 99.5255 75.8699   1
  -9   2  -3-1.29298 58.2834   2
   9  -2   3 219.328 154.929   6
   9  -2   3 85.4887 115.417  16
  -9   2  -4 436.822 156.194   2
   9  -2   4 596.810 196.440   6
   9  -2   4 469.488 215.779  16
   9  -1   1 4242.57 505.138   6
  -9   1  -1 3733.72 362.239   9
  -9   1  -2 1143.70 226.268   2
   9  -1   2 1516.08 311.390   6
  -9   1  -2 1283.95 204.003   9
   9  -1   2 1175.89 279.281  16
  -9   1  -3 987.151 218.394   2
   9  -1   3 1154.33 253.072   6
   9  -1   3 1089.11 302.675  16
   9  -1   4-51.8886 65.2498  15
   9  -1   4 201.268 97.4124  14
  -9   1  -4 30.7118 56.6868  23
  -9   1  -4-77.1071 80.0528   2
   9  -1   4 188.291 112.676   6
  -9   1  -4 116.587 79.4695  21
  -9   1  -4-60.6363 61.8873  19
  -9   1  -4 39.1704 71.6918  18
  -9   1  -4 23.9967 57.0558  17
   9  -1   4-113.924 123.404  16
   9  -1   5 494.069 145.525  15
   9  -1   5 663.329 158.811  14
  -9   1  -5 690.470 180.667  23
  -9   1  -5 512.367 148.224   2
   9  -1   5 528.753 189.388   6
  -9   1  -5 414.848 139.033  21
  -9   1  -5 588.829 160.310  19
  -9   1  -5 391.861 133.972  18
  -9   1  -5 624.881 164.052  17
   9  -1   5 572.840 221.021  16
   9  -1   6 400.692 135.249  15
   9  -1   6 648.233 164.445  14
  -9   1  -6 473.258 152.165  23
  -9   1  -6 460.301 150.541   2
   9  -1   6 472.371 152.503   6
  -9   1  -6 401.505 138.976  21
  -9   1  -6 382.456 142.431  19
  -9   1  -6 446.755 148.350  18
  -9   1  -6 1047.92 222.554  17
   9  -1   6 516.735 234.115  16
   9  -1   7 352.576 119.263  15
   9  -1   7 330.440 96.9346  14
  -9   1  -7 505.538 148.426  23
  -9   1  -7 325.821 132.751   2
  -9   1  -7 250.071 121.668  21
   9  -1   7 292.326 185.402   1
  -9   1  -7 207.558 111.585  19
  -9   1  -7 187.855 130.998  18
  -9   1  -7 323.090 125.013  17
   9  -1   7 273.016 183.721  16
   9   0   0 61.9054 70.3096   6
  -9   0   0 78.3708 77.5201   9
   9   0   1 374.503 155.265   6
  -9   0  -1 98.2383 69.7503   9
  -9   0  -2 830.765 166.634   2
   9   0   2 822.929 219.101   6
  -9   0  -2 1146.20 184.783   9
   9   0   2 1217.48 292.296  16
  -9   0  -3 693.971 161.178   2
   9   0   3 667.743 196.718   6
  -9   0  -3 811.813 151.782   9
   9   0   3 467.346 187.952  16
   9   0   4 524.788 137.591  15
   9   0   4 517.462 143.093  14
  -9   0  -4 388.951 122.005  23
  -9   0  -4 24.0694 75.0460   2
   9   0   4 467.976 168.430   6
  -9   0  -4 465.981 130.518  21
  -9   0  -4 291.638 108.702  19
  -9   0  -4 353.587 117.920  18
  -9   0  -4 341.170 120.436  17
  -9   0  -4 505.092 115.289   9
   9   0   4 278.716 154.330  16
   9   0   5 95.0086 74.3795  15
   9   0   5 90.8205 58.6200  14
  -9   0  -5 133.690 86.2548  23
  -9   0  -5 229.920 107.797   2
   9   0   5 97.7971 96.3664   6
  -9   0  -5 163.508 87.1837  21
  -9   0  -5 160.049 87.3445  19
  -9   0  -5 136.730 82.5479  18
  -9   0  -5 184.143 86.7295  17
   9   0   5-32.3092 99.5792  16
   9   0   6 6.95082 89.6989   1
   9   0   6 52.6732 55.5935  15
   9   0   6-14.9421 58.0236  14
  -9   0  -6-170.771 93.3040  23
  -9   0  -6 86.0112 78.9429   2
   9   0   6-53.9385 73.2917   6
  -9   0  -6-26.5627 56.1377  21
  -9   0  -6 1.28717 51.8432  19
  -9   0  -6-29.7216 56.4672  18
  -9   0  -6-4.03780 46.5029  17
  -9   0  -6 30.4777 44.7416   8
   9   0   6 14.7418 137.807  16
   9   0   7 315.750 125.666  15
   9   0   7 238.586 104.452  14
  -9   0  -7 358.900 133.563  23
  -9   0  -7 452.931 145.867   2
   9   0   7 515.672 163.736   6
  -9   0  -7 348.083 138.266  21
  -9   0  -7 250.707 111.862  19
  -9   0  -7 253.873 113.259  18
  -9   0  -7 305.682 129.408  17
   9   0   7 198.566 153.116   1
   9   0   7 643.604 242.400  16
  -9   0  -7 416.977 114.554   8
   9   0   8 2693.97 344.363  14
  -9   0  -8 2292.93 327.645  23
  -9   0  -8 2055.69 309.797   2
  -9   0  -8 2386.50 340.614  21
  -9   0  -8 2946.93 368.792  19
  -9   0  -8 2455.03 341.812  18
  -9   0  -8 2782.26 364.122  17
   9   0   8 2200.95 443.566   1
  -9   0  -8 2754.84 294.151   8
   9   0   8 2766.15 502.157  16
   9   0   8 2459.96 332.045  15
   9   1  -1 309.396 149.583   6
  -9  -1   1 55.5046 65.0978   9
   9   1   0 439.813 148.897   6
  -9  -1   0 486.074 133.956   9
   9   1   1-63.7920 119.185   6
  -9  -1  -1 58.6160 54.7605   9
  -9  -1  -2-17.2108 49.2287   2
  -9  -1  -2 52.8558 47.1824   9
  -9  -1  -3 693.154 156.064   2
   9   1   3 639.503 186.514   6
  -9  -1  -3 569.196 129.621   9
   9   1   3 622.296 198.369  16
   9   1   4 656.196 151.840  15
   9   1   4 778.724 169.738  14
  -9  -1  -4 616.445 149.893   2
  -9  -1  -4 804.281 163.992  23
   9   1   4 594.519 180.607   6
  -9  -1  -4 722.086 157.382  21
  -9  -1  -4 926.358 174.148  19
  -9  -1  -4 906.965 178.519  18
  -9  -1  -4 692.030 153.447  17
  -9  -1  -4 861.949 148.185   9
   9   1   4 710.316 217.845  16
   9   1   5 5139.48 422.430  14
   9   1   5 4546.04 479.617   6
  -9  -1  -5 4409.69 395.217  23
  -9  -1  -5 4360.55 397.025  21
  -9  -1  -5 4802.45 414.372  19
  -9  -1  -5 4800.10 415.056  18
  -9  -1  -5 5232.32 437.366  17
  -9  -1  -5 3791.78 358.240   2
  -9  -1  -5 4359.71 341.024   9
   9   1   5 4744.36 579.091  16
   9   1   5 4978.09 419.589  15
   9   1   6 171.702 85.5253  15
   9   1   6 444.065 137.860  14
  -9  -1  -6 265.924 111.742   2
  -9  -1  -6 337.283 112.248  23
   9   1   6 230.735 122.521   6
  -9  -1  -6 204.500 106.058  21
   9   1   6 214.101 133.160   1
  -9  -1  -6 260.541 116.899  19
  -9  -1  -6 331.183 116.826  18
  -9  -1  -6 392.870 127.514  17
  -9  -1  -6 352.471 104.160   9
  -9  -1  -6 328.403 88.7369   8
   9   1   6 310.086 190.618  16
   9   1   7 3.60953 49.1664  15
   9   1   7 0.17821 56.4186  14
  -9  -1  -7 75.5087 51.8482   2
  -9  -1  -7 64.7228 64.0752  23
   9   1   7-123.841 96.6748   6
   9   1   7 238.268 149.744   1
  -9  -1  -7 107.485 80.5195  21
  -9  -1  -7 230.455 99.5342  19
  -9  -1  -7 120.070 85.6452  18
  -9  -1  -7 37.2585 59.3064  17
  -9  -1  -7 75.5105 54.8387   9
   9   1   7-77.7817 183.872  16
  -9  -1  -7 55.6522 52.5568   8
   9   1   8-75.4196 70.8778  15
   9   1   8 57.5337 68.1129  14
  -9  -1  -8 84.4887 91.7923   2
  -9  -1  -8 90.7515 68.7485  23
   9   1   8 129.864 127.140   1
  -9  -1  -8-2.99080 72.2902  21
  -9  -1  -8 1.76663 44.7903  19
  -9  -1  -8 19.2771 70.4836  18
  -9  -1  -8 15.7484 51.8058  17
   9   1   8 193.798 152.195  16
  -9  -1  -8-219.087 94.6693   8
   9   1   9-30.7599 65.0502  15
   9   1   9 66.4816 55.5415  14
  -9  -1  -9-171.714 98.2029   2
  -9  -1  -9 51.3155 79.0613  23
   9   1   9 57.1645 102.823   1
  -9  -1  -9-50.6029 74.7133  21
  -9  -1  -9-13.7193 57.8325  19
  -9  -1  -9 31.2007 56.6250  18
  -9  -1  -9 14.0763 66.0185  17
   9   1   9-14.4039 101.808  16
  -9  -1  -9 12.7745 58.4361   8
   9   2  -2 104.668 102.620   6
  -9  -2   2 191.012 97.6731   9
   9   2  -1 1687.62 320.393   6
  -9  -2   1 2287.41 295.016   9
   9   2   0 935.436 243.400   6
  -9  -2   0 946.184 186.132   9
   9   2   1 8528.54 691.765   6
  -9  -2  -1 8249.91 486.186   2
  -9  -2  -1 8118.55 514.537   9
  -9  -2  -2 355.573 108.681   2
   9   2   2 596.967 189.065   6
  -9  -2  -2 403.957 117.558   9
  -9  -2  -3 240.443 84.2715   2
  -9  -2  -3 175.749 77.5395  23
  -9  -2  -3 207.292 70.4741  22
   9   2   3 287.368 128.442   6
  -9  -2  -3 248.112 84.0060  21
  -9  -2  -3 264.237 91.3091  19
  -9  -2  -3 190.695 94.5065  18
  -9  -2  -3 210.482 77.6780   9
   9   2   3 401.169 159.400  16
   9   2   4 177.057 88.0383  15
   9   2   4 362.740 126.437  14
  -9  -2  -4 200.080 86.1049   2
  -9  -2  -4 125.668 69.7996  23
  -9  -2  -4 215.097 93.7712  22
   9   2   4 111.653 119.282   6
   9   2   4 216.809 99.9003  13
  -9  -2  -4 85.6117 55.2597  21
  -9  -2  -4 95.2367 56.5618  19
  -9  -2  -4 257.066 94.3236  18
  -9  -2  -4 199.630 70.8240   9
   9   2   4 313.066 153.938  16
   9   2   5 889.289 181.336  15
   9   2   5 804.782 161.724  14
  -9  -2  -5 742.119 152.897   2
  -9  -2  -5 559.137 133.263  23
   9   2   5 659.046 189.371   6
  -9  -2  -5 601.754 142.619  21
  -9  -2  -5 808.027 166.217  19
  -9  -2  -5 574.486 143.040  18
  -9  -2  -5 702.165 134.404   9
   9   2   5 702.201 234.136  16
   9   2   6 1653.56 246.701  15
   9   2   6 1349.29 274.321   1
   9   2   6 1871.39 264.903  14
  -9  -2  -6 1301.70 200.329   2
  -9  -2  -6 1787.17 248.469  23
   9   2   6 1498.49 258.909   6
  -9  -2  -6 1674.89 245.953  21
  -9  -2  -6 1606.85 243.384  19
  -9  -2  -6 1672.03 245.365  18
  -9  -2  -6 2243.52 283.600  17
  -9  -2  -6 1606.99 204.615   9
  -9  -2  -6 1702.05 212.093   8
   9   2   6 1606.88 346.219  16
   9   2   7 1019.84 206.391  15
   9   2   7 624.546 213.333   1
   9   2   7 906.425 193.076  14
  -9  -2  -7 638.750 146.811   2
  -9  -2  -7 532.060 151.876  23
   9   2   7 819.251 203.598   6
  -9  -2  -7 750.060 166.603  21
  -9  -2  -7 881.403 184.564  19
  -9  -2  -7 933.932 196.100  18
  -9  -2  -7 1035.22 201.490  17
  -9  -2  -7 776.571 144.230   9
   9   2   7 954.118 283.320  16
  -9  -2  -7 1090.14 175.388   8
   9   2   8 2477.15 393.411   1
   9   2   8 3836.65 400.180  14
   9   2   8 3321.99 406.559   6
  -9  -2  -8 3403.05 373.486  23
  -9  -2  -8 3603.31 391.657  21
  -9  -2  -8 3963.31 401.974  19
  -9  -2  -8 3297.99 370.887  18
  -9  -2  -8 3298.41 375.012  17
  -9  -2  -8 2976.23 325.595   2
  -9  -2  -8 3603.71 305.930   9
  -9  -2  -8 3427.43 323.568   8
   9   2   8 4125.32 415.155  15
   9   2   9 113.544 119.088   1
   9   2   9 50.1596 76.5384  15
   9   2   9 26.6838 72.3488  14
  -9  -2  -9 43.4887 61.0955   2
  -9  -2  -9-14.5318 64.1733  23
  -9  -2  -9 47.2830 53.2621  21
  -9  -2  -9 41.4196 64.6540  19
  -9  -2  -9 97.3007 76.6746  18
  -9  -2  -9 211.453 114.041  17
  -9  -2  -9 10.2726 35.9357   9
  -9  -2  -9 8.84948 56.4525   8
   9   2  10 1908.68 304.879  15
   9   2  10 1439.80 335.367   1
   9   2  10 2193.93 321.017  14
  -9  -2 -10 2216.08 329.012  23
  -9  -2 -10 1444.85 251.036   2
  -9  -2 -10 1922.83 309.805  21
  -9  -2 -10 1969.47 303.137  19
  -9  -2 -10 1867.87 304.574  18
  -9  -2 -10 1221.58 221.221   8
   9   3  -2 329.771 162.527   6
  -9  -3   2 299.156 123.229   9
   9   3  -1 594.860 198.989   6
  -9  -3   1 533.149 138.971   9
   9   3   0 313.535 157.529   6
  -9  -3   0 311.406 116.495   9
  -9  -3  -1 53.7122 51.5975   2
   9   3   1 169.963 120.683   6
  -9  -3  -1-2.30613 48.3011   9
   9   3   2 10420.6 749.576   6
  -9  -3  -2 10817.6 546.208   2
  -9  -3  -2 10840.6 573.478   9
   9   3   3 4446.33 385.287  14
  -9  -3  -3 4538.90 361.302  23
   9   3   3 4191.50 463.290   6
   9   3   3 4394.51 377.605  13
  -9  -3  -3 4152.26 351.157  22
  -9  -3  -3 4079.40 347.303  21
  -9  -3  -3 4511.80 358.451  19
  -9  -3  -3 4424.27 352.742  18
  -9  -3  -3 4250.78 336.480   2
  -9  -3  -3 4541.95 353.415   9
   9   3   3 4264.97 471.636  16
   9   3   3 4338.67 376.366  15
   9   3   4 215.080 91.6456  15
   9   3   4 175.234 87.6814  14
  -9  -3  -4 162.496 66.4778   2
  -9  -3  -4 180.724 72.9172  23
  -9  -3  -4 259.982 94.0341  22
   9   3   4 252.430 131.116   6
   9   3   4 145.452 78.4456  13
  -9  -3  -4 212.404 86.6740  21
  -9  -3  -4 175.981 74.5185  19
  -9  -3  -4 264.042 89.7936  18
  -9  -3  -4 233.586 88.5724   9
   9   3   4 301.643 163.700  16
   9   3   5 352.176 117.635  15
   9   3   5 258.495 103.181  14
  -9  -3  -5 333.959 99.7201   2
  -9  -3  -5 440.362 127.738  23
  -9  -3  -5 404.044 116.828  22
   9   3   5 441.892 153.618   6
   9   3   5 416.272 111.029  13
  -9  -3  -5 426.265 120.533  21
  -9  -3  -5 486.612 129.185  19
  -9  -3  -5 452.490 121.637  18
  -9  -3  -5 417.138 111.094   9
   9   3   6 751.979 170.340  15
   9   3   6 640.297 159.643  14
  -9  -3  -6 596.791 134.224   2
  -9  -3  -6 592.538 149.490  23
   9   3   6 585.507 176.622   6
  -9  -3  -6 684.970 159.259  22
   9   3   6 425.390 128.513  13
  -9  -3  -6 511.335 132.169  21
  -9  -3  -6 415.955 122.078  19
  -9  -3  -6 542.874 137.698  18
  -9  -3  -6 480.276 105.854   9
   9   3   6 325.536 136.302   1
   9   3   7 3965.86 453.975   1
   9   3   7 4587.55 430.790  14
   9   3   7 5156.02 510.085   6
  -9  -3  -7 4012.21 387.929  23
   9   3   7 4847.72 442.545  13
  -9  -3  -7 4126.52 401.682  22
  -9  -3  -7 4483.80 413.728  21
  -9  -3  -7 4268.50 398.771  19
  -9  -3  -7 4532.42 412.891  18
  -9  -3  -7 4692.33 381.765   2
  -9  -3  -7 4467.37 344.358   9
  -9  -3  -7 4391.21 355.204   8
   9   3   7 4360.13 419.665  15
   9   3   8 677.912 171.027  15
   9   3   8 613.588 168.125  14
  -9  -3  -8 658.349 148.757   2
  -9  -3  -8 373.223 126.817  23
   9   3   8 435.524 157.137   6
  -9  -3  -8 375.955 135.652  22
   9   3   8 472.771 143.826  13
  -9  -3  -8 523.940 151.941  21
  -9  -3  -8 396.535 135.374  19
  -9  -3  -8 283.180 114.102  18
   9   3   8 248.080 134.335   1
  -9  -3  -8 380.294 103.338   9
  -9  -3  -8 387.944 116.983   8
   9   3   9 2578.10 349.031  14
  -9  -3  -9 2245.56 313.094  23
   9   3   9 2598.81 349.399  13
   9   3   9 1474.04 280.955   6
  -9  -3  -9 2097.02 311.019  22
  -9  -3  -9 2048.76 301.278  21
  -9  -3  -9 2200.50 306.325  19
  -9  -3  -9 2263.89 309.711  18
  -9  -3  -9 1963.90 266.127   2
  -9  -3  -9 1836.90 227.582   9
   9   3   9 1735.07 327.055   1
  -9  -3  -9 1779.03 251.817   8
   9   3   9 2174.80 322.090  15
   9   3  10 1580.31 288.267  15
   9   3  10 1294.47 261.880  14
   9   3  10 1212.43 264.693   7
  -9  -3 -10 1270.62 220.266   2
  -9  -3 -10 1850.98 295.074  23
  -9  -3 -10 1580.69 277.074  22
   9   3  10 1653.77 284.239  13
  -9  -3 -10 1654.63 281.622  21
  -9  -3 -10 1634.24 274.025  19
  -9  -3 -10 1271.32 241.411  18
   9   3  10 1022.44 290.626   1
  -9  -3 -10 1551.70 238.320   8
   9   4  -2 2610.58 387.261   6
  -9  -4   2 2575.85 316.143   9
   9   4  -1 228.043 128.207   6
  -9  -4   1 137.471 78.4250   9
   9   4   0 78.8400 87.2368   6
  -9  -4   0 63.4888 59.7147   9
  -9  -4  -1 34.7493 39.3276   2
   9   4   1 10.2403 108.951   6
  -9  -4  -1-9.71997 37.1642   9
  -9  -4  -2 971.616 155.420   2
   9   4   2 897.068 221.260   6
  -9  -4  -2 709.097 150.954   9
   9   4   3 30662.5 1112.54  14
   9   4   3 28217.9 1262.08   6
  -9  -4  -3 28189.9 994.436  23
   9   4   3 30766.8 1082.50  13
  -9  -4  -3 29124.5 1016.94  22
  -9  -4  -3 28331.0 998.066  21
  -9  -4  -3 27932.2 983.864  19
  -9  -4  -3 28255.3 984.336  18
  -9  -4  -3 31109.6 994.098   2
  -9  -4  -3 29050.4 988.624   9
   9   4   3 31066.3 1115.75  15
   9   4   4 628.632 148.598  15
  -9  -4  -4 680.774 137.108   2
   9   4   4 659.484 160.157  14
  -9  -4  -4 856.500 159.367  23
  -9  -4  -4 686.186 151.990  22
   9   4   4 745.472 192.414   6
   9   4   4 732.007 153.642  13
  -9  -4  -4 623.305 139.709  21
  -9  -4  -4 654.249 139.913  19
  -9  -4  -4 882.694 159.332  18
  -9  -4  -4 925.776 157.585   9
   9   4   5 855.157 175.713  15
  -9  -4  -5 957.598 160.622   2
   9   4   5 791.260 174.531  14
  -9  -4  -5 939.575 174.198  23
  -9  -4  -5 758.527 162.366  22
   9   4   5 951.536 226.915   6
   9   4   5 805.840 167.118  13
  -9  -4  -5 1052.18 184.462  21
  -9  -4  -5 695.642 146.796  19
   9   4   5 802.412 177.607   1
  -9  -4  -5 910.979 168.150  18
  -9  -4  -5 635.894 129.681   9
   9   4   6 203.563 96.9357  15
  -9  -4  -6 226.897 87.2514   2
   9   4   6 486.696 146.978  14
  -9  -4  -6 213.563 89.9512  23
   9   4   6 349.957 137.142   6
  -9  -4  -6 142.692 80.6601  22
   9   4   6 257.113 105.819  13
  -9  -4  -6 308.170 108.038  21
  -9  -4  -6 251.180 97.9789  19
   9   4   6 230.522 104.181   1
  -9  -4  -6 369.537 114.466  18
  -9  -4  -6 253.301 88.3189   9
   9   4   7 36.0860 63.5174  15
   9   4   7 154.409 84.5658  14
  -9  -4  -7 143.726 72.3082   2
  -9  -4  -7 162.294 82.4962  23
   9   4   7 145.876 98.6690   6
  -9  -4  -7 157.956 84.5514  22
   9   4   7 85.5212 74.3246  13
  -9  -4  -7 231.872 99.2423  21
  -9  -4  -7 110.711 76.2782  19
   9   4   7-45.7557 104.348   1
  -9  -4  -7 277.171 106.567  18
  -9  -4  -7 142.921 80.8322   9
  -9  -4  -7 131.639 64.2348   8
   9   4   8 216.677 97.8775  15
   9   4   8 249.254 111.223  14
  -9  -4  -8 296.000 101.364   2
  -9  -4  -8 299.886 115.500  23
   9   4   8-66.4467 87.0871   6
  -9  -4  -8 371.548 129.408  22
   9   4   8 405.954 128.045  13
  -9  -4  -8 336.349 124.104  21
  -9  -4  -8 436.311 139.898  19
   9   4   8 123.316 100.994   1
  -9  -4  -8 299.990 106.898  18
  -9  -4  -8 195.952 72.9883   9
  -9  -4  -8 214.981 89.6392   8
   9   4   9 343.283 132.948  15
   9   4   9 33.2992 62.6729  14
  -9  -4  -9 239.531 98.8448   2
  -9  -4  -9 379.189 134.652  23
   9   4   9 378.360 125.387   6
  -9  -4  -9 238.693 117.700  22
   9   4   9 131.860 90.6353  13
  -9  -4  -9 181.771 108.164  21
  -9  -4  -9 174.398 91.2750  19
   9   4   9 263.248 131.546   1
  -9  -4  -9 267.536 120.064  18
  -9  -4  -9 262.094 101.974   8
   9   4  10 5054.07 565.759   1
   9   4  10 3943.37 501.179   7
   9   4  10 5532.01 536.978  14
   9   4  10 4721.45 519.309   6
  -9  -4 -10 5074.10 488.399  23
   9   4  10 5516.66 522.970  13
  -9  -4 -10 4653.62 474.221  22
  -9  -4 -10 4641.57 470.838  21
  -9  -4 -10 5218.20 490.644  19
  -9  -4 -10 5108.38 486.997  18
  -9  -4 -10 4635.56 412.422   2
  -9  -4 -10 5010.67 429.886   8
   9   4  10 5437.49 522.385  15
   9   5  -2 1179.15 262.301   6
   9   5  -2 851.883 194.450   5
  -9  -5   2 1070.95 204.844   9
  -9  -5   2 1283.31 220.290   4
   9   5  -1 69.1691 85.3071   6
  -9  -5   1 61.3786 61.6677   9
  -9  -5   1 195.217 96.2484   4
   9   5   0 930.647 223.643   6
  -9  -5   0 937.784 170.204   4
  -9  -5   0 902.606 169.092   9
  -9  -5  -1-23.2875 45.0874   2
   9   5   1 124.187 98.0153   6
  -9  -5  -1 88.4462 70.1099   9
   9   5   2 6264.64 566.167   6
  -9  -5  -2 6576.32 422.820   2
  -9  -5  -2 6265.43 428.079   9
   9   5   3 487.233 145.158  15
  -9  -5  -3 479.984 116.619   2
   9   5   3 502.767 145.404  14
  -9  -5  -3 510.563 124.038  23
  -9  -5  -3 492.336 123.887  22
   9   5   3 747.004 199.954   6
   9   5   3 449.607 122.384  13
  -9  -5  -3 494.467 124.674  21
  -9  -5  -3 425.456 106.239  19
  -9  -5  -3 278.061 88.4693  18
  -9  -5  -3 527.476 127.224   9
   9   5   4 2949.68 332.022  14
   9   5   4 3567.90 422.973   6
  -9  -5  -4 2789.42 296.733  23
   9   5   4 3214.11 332.156  13
  -9  -5  -4 2846.43 302.730  22
  -9  -5  -4 3111.95 311.687  21
  -9  -5  -4 2846.90 293.229  19
  -9  -5  -4 2808.84 289.649  18
  -9  -5  -4 3510.06 309.134   2
  -9  -5  -4 2918.44 283.172   9
   9   5   4 2888.67 328.023  15
   9   5   5 1843.83 269.158  14
  -9  -5  -5 1619.98 232.529  23
   9   5   5 1506.97 282.643   6
  -9  -5  -5 1347.62 215.168  22
   9   5   5 1368.81 222.147  13
  -9  -5  -5 1561.64 226.106  21
   9   5   5 1467.42 221.419   1
  -9  -5  -5 1696.24 233.640  19
  -9  -5  -5 1705.08 231.469  18
  -9  -5  -5 1770.63 223.280   2
  -9  -5  -5 1480.32 197.048   9
   9   5   5 1845.67 268.301  15
   9   5   6 50.3963 51.9998  15
  -9  -5  -6 128.981 71.1577   2
   9   5   6 127.274 78.2685  14
  -9  -5  -6 240.574 98.9909  23
   9   5   6 55.0459 90.1647   6
  -9  -5  -6 139.047 77.4351  22
   9   5   6 290.354 114.187  13
   9   5   6-59.5923 66.7268   1
  -9  -5  -6 89.9535 72.0692  21
  -9  -5  -6 100.631 73.7443  19
  -9  -5  -6 57.0591 67.6448  18
  -9  -5  -6 44.3801 50.2564   9
   9   5   7 11.1026 58.1199  15
  -9  -5  -7 64.0808 55.4646   2
   9   5   7 69.2618 94.5268  14
  -9  -5  -7 440.680 169.735  23
   9   5   7 194.120 128.670   6
  -9  -5  -7 87.3561 83.3354  22
   9   5   7 116.676 76.8441  13
  -9  -5  -7 222.590 96.3820  21
   9   5   7 51.3334 59.8340   1
  -9  -5  -7 103.942 78.0968  19
  -9  -5  -7 13.8466 52.9000  18
  -9  -5  -7 73.5341 58.2723   9
   9   5   8 3138.64 384.611  14
   9   5   8 2968.96 417.580   6
  -9  -5  -8 3165.05 357.408  23
   9   5   8 3065.97 361.620  13
  -9  -5  -8 2997.95 357.744  22
  -9  -5  -8 2926.09 351.528  21
  -9  -5  -8 2757.94 332.140  19
  -9  -5  -8 2789.68 336.617  18
  -9  -5  -8 3371.87 321.487   2
  -9  -5  -8 3072.24 305.554   8
   9   5   8 2843.19 361.616   1
   9   5   8 3228.55 382.116  15
   9   5   9 10.7341 62.5247  15
   9   5   9 211.164 119.822  14
  -9  -5  -9 77.4886 63.6350   2
  -9  -5  -9 143.168 92.9114  23
   9   5   9 26.8099 76.4084   6
  -9  -5  -9 166.351 101.303  22
   9   5   9-38.9434 63.5850  13
  -9  -5  -9 112.001 85.5830  21
   9   5   9 47.1201 81.6179   1
  -9  -5  -9 27.7454 61.1966  19
  -9  -5  -9 172.222 96.9221  18
  -9  -5  -9 72.0163 61.5692   8
   9   5  10-74.7673 94.7546  15
   9   5  10 112.398 97.8681  14
  -9  -5 -10-82.1462 80.7980   2
  -9  -5 -10-171.533 100.007  23
   9   5  10 83.1908 81.6109   6
  -9  -5 -10-79.2844 107.433  22
   9   5  10-113.572 92.2204  13
  -9  -5 -10-12.9421 50.0504  21
   9   5  10-63.6553 88.0994   1
  -9  -5 -10 118.295 87.3310  19
  -9  -5 -10-73.9610 78.8422  18
  -9  -5 -10 5.39881 60.2521   8
   9   6  -2 105.199 70.6105   5
  -9  -6   2 254.969 101.360   9
  -9  -6   2 308.397 113.403   4
   9   6  -1 125.181 94.0516   6
   9   6  -1 89.6514 52.3047   5
  -9  -6   1 42.8627 50.5047   9
  -9  -6   1-1.75388 69.4388   4
   9   6   0 4481.90 479.587   6
   9   6   0 3905.75 366.866   5
  -9  -6   0 3776.29 317.427   2
  -9  -6   0 3372.05 326.445   9
  -9  -6  -1 1226.96 185.188   2
   9   6   1 1078.57 237.423   6
  -9  -6  -1 1127.78 180.846   9
  -9  -6  -2 478.275 121.079   2
   9   6   2 419.297 145.035   6
  -9  -6  -2 392.330 101.555   9
   9   6   3 466.383 142.954  15
  -9  -6  -3 412.424 100.170   2
   9   6   3 528.565 136.901  14
  -9  -6  -3 451.053 119.700  23
  -9  -6  -3 611.338 144.503  22
   9   6   3 533.961 180.123   6
   9   6   3 387.791 124.818  13
  -9  -6  -3 330.905 102.842  21
  -9  -6  -3 377.306 104.262  19
  -9  -6  -3 439.259 113.865   9
   9   6   3 483.477 142.811  17
   9   6   4 251.950 105.341  15
  -9  -6  -4 97.7653 72.0410   2
   9   6   4 182.756 110.143  14
  -9  -6  -4 40.3895 47.5062  23
   9   6   4 73.7293 74.2597   6
  -9  -6  -4 118.387 72.3666  22
   9   6   4 185.292 95.2414  13
  -9  -6  -4 122.262 69.2694  21
  -9  -6  -4 73.9858 58.0428  19
  -9  -6  -4 97.0896 67.5583  18
  -9  -6  -4 57.5010 45.5724   9
   9   6   5-53.7328 67.3190  15
  -9  -6  -5 168.998 75.9218   2
   9   6   5 96.8999 79.1775  14
  -9  -6  -5 178.563 82.2853  23
   9   6   5 208.392 87.4408   1
   9   6   5 203.395 113.894   6
  -9  -6  -5 228.216 91.0538  22
   9   6   5 34.1004 52.3074  13
  -9  -6  -5 242.373 96.4969  21
  -9  -6  -5-25.8446 49.2593  19
  -9  -6  -5 148.677 82.3442  18
  -9  -6  -5 163.047 89.4653   9
   9   6   6 247.979 129.751  15
  -9  -6  -6 345.084 108.915   2
   9   6   6 159.828 101.404  14
  -9  -6  -6 236.176 97.1951  23
   9   6   6 439.911 135.274   1
   9   6   6 486.778 179.826   6
  -9  -6  -6 273.027 105.984  22
   9   6   6 217.148 99.0761  13
  -9  -6  -6 204.743 95.9638  21
  -9  -6  -6 260.986 94.4089  19
  -9  -6  -6 185.199 96.5948  18
  -9  -6  -6 210.974 84.5492   9
   9   6   7 6493.63 545.853  14
   9   6   7 6729.43 627.541   6
  -9  -6  -7 5553.71 467.896  23
   9   6   7 6571.28 522.314  13
  -9  -6  -7 6072.13 494.898  22
  -9  -6  -7 6595.01 506.121  21
  -9  -6  -7 6358.40 493.548  19
  -9  -6  -7 5669.94 466.331  18
  -9  -6  -7 7583.36 486.901   2
   9   6   7 6678.15 504.749   1
   9   6   7 6470.83 539.311  15
   9   6   8 3768.12 421.728  14
   9   6   8 3968.57 491.646   6
  -9  -6  -8 3932.45 403.298  23
   9   6   8 3801.64 407.737  13
  -9  -6  -8 3984.91 409.498  22
  -9  -6  -8 3334.95 374.543  21
  -9  -6  -8 3738.26 388.048  19
  -9  -6  -8 3657.17 382.927  18
  -9  -6  -8 3998.42 372.267   2
  -9  -6  -8 3321.48 319.459   8
   9   6   8 3608.19 394.290   1
   9   6   8 3349.02 395.648  15
   9   6   9 569.651 174.854  15
  -9  -6  -9 583.420 140.644   2
   9   6   9 369.744 150.002  14
  -9  -6  -9 275.314 117.086  23
   9   6   9 563.007 190.869   6
  -9  -6  -9 497.086 160.512  22
   9   6   9 453.505 151.998   1
   9   6   9 307.103 127.299  13
  -9  -6  -9 498.216 153.387  21
  -9  -6  -9 527.543 147.606  19
  -9  -6  -9 480.054 137.712  18
  -9  -6  -9 390.409 108.443   8
   9   6  10 1331.32 269.940  15
   9   6  10 1402.30 278.526  14
  -9  -6 -10 1235.21 215.761   2
  -9  -6 -10 1272.97 243.380  23
   9   6  10 1328.26 278.425   6
  -9  -6 -10 1503.57 271.997  22
   9   6  10 1413.65 266.293  13
   9   6  10 1160.59 250.599   1
  -9  -6 -10 1463.77 261.978  21
  -9  -6 -10 1305.98 244.683  19
  -9  -6 -10 1135.40 228.455  18
  -9  -6 -10 1162.37 199.027   8
   9   7  -1 1793.87 310.136   6
   9   7  -1 1696.07 259.001   5
  -9  -7   1 1953.95 256.655   9
  -9  -7   0 74.7457 58.0751   2
   9   7   0 110.535 105.987   6
   9   7   0 76.7710 46.3809   5
  -9  -7   0 218.916 95.5510   9
  -9  -7  -1 49.7521 44.2696   2
   9   7   1 246.909 108.502   6
   9   7   1 310.019 102.614   5
  -9  -7  -1 228.648 86.9693   9
  -9  -7  -2 2180.64 268.041  23
  -9  -7  -2 2239.55 271.731  22
   9   7   2 2196.97 336.150   6
  -9  -7  -2 1960.99 255.855  21
  -9  -7  -2 2113.04 258.570  19
   9   7   2 2129.87 250.229   5
  -9  -7  -2 2627.57 281.277   2
  -9  -7  -2 2649.51 272.729   9
   9   7   3 1141.22 225.536  15
   9   7   3 1133.05 234.133  14
  -9  -7  -3 1065.38 188.221  23
   9   7   3 1271.30 254.107   6
  -9  -7  -3 1464.73 222.948  22
   9   7   3 1229.79 228.356  13
  -9  -7  -3 1183.10 202.162  21
   9   7   3 1358.10 190.023   5
  -9  -7  -3 1192.93 194.147  19
  -9  -7  -3 1471.94 216.958   2
  -9  -7  -3 1500.13 203.929   9
   9   7   3 1202.62 222.706  17
   9   7   4 916.593 205.241  15
  -9  -7  -4 946.390 175.339   2
   9   7   4 697.722 177.747  14
  -9  -7  -4 886.199 174.939  23
   9   7   4 905.748 229.124   6
  -9  -7  -4 1007.41 186.184  22
   9   7   4 1371.70 231.772  13
  -9  -7  -4 979.212 188.473  21
   9   7   4 1147.74 172.449   5
  -9  -7  -4 1203.28 198.862  19
  -9  -7  -4 1077.25 171.836   9
   9   7   4 989.898 198.388  17
   9   7   5 1318.20 247.277  15
  -9  -7  -5 1389.00 206.775   2
   9   7   5 1130.43 184.190   1
   9   7   5 908.411 202.077  14
  -9  -7  -5 1057.78 195.480  23
   9   7   5 1399.91 291.995   6
  -9  -7  -5 1135.42 202.255  22
   9   7   5 1673.34 265.700  13
  -9  -7  -5 1161.88 204.595  21
  -9  -7  -5 964.353 184.386  19
  -9  -7  -5 1310.25 195.287   9
   9   7   5 1109.16 217.121  17
   9   7   6 755.435 183.036  15
  -9  -7  -6 1129.86 186.078   2
   9   7   6 829.200 195.989  14
   9   7   6 1008.95 188.430   1
  -9  -7  -6 1208.38 216.685  23
   9   7   6 1318.66 283.096   6
  -9  -7  -6 955.244 196.892  22
   9   7   6 973.789 203.172  13
  -9  -7  -6 1064.66 200.597  21
  -9  -7  -6 782.271 177.771  19
  -9  -7  -6 1151.30 188.574   9
   9   7   7 1870.71 303.337  15
   9   7   7 1901.80 306.307  14
  -9  -7  -7 1209.53 218.290  23
   9   7   7 1879.96 343.206   6
  -9  -7  -7 1563.77 256.179  22
   9   7   7 1376.54 250.296  13
  -9  -7  -7 1724.41 259.442  21
  -9  -7  -7 1496.67 239.757  19
  -9  -7  -7 1701.84 259.308  18
  -9  -7  -7 2139.47 262.635   2
   9   7   7 1905.66 258.775   1
   9   7   8 182.432 109.910  15
  -9  -7  -8 45.2719 76.0727   2
   9   7   8 47.4794 76.4678  14
   9   7   8-88.0992 76.0363   1
  -9  -7  -8 52.3486 82.5699  23
   9   7   8 102.240 133.474   6
  -9  -7  -8 126.211 87.1026  22
   9   7   8 9.30823 54.0793  13
  -9  -7  -8 9.16558 65.7598  21
  -9  -7  -8-113.302 81.1810  19
  -9  -7  -8 47.4203 65.6818  18
   9   7   9 728.526 201.989  15
  -9  -7  -9 1082.08 197.557   2
   9   7   9 750.704 208.012  14
  -9  -7  -9 597.163 165.085  23
   9   7   9 1196.48 236.767   1
   9   7   9 644.810 214.908   6
  -9  -7  -9 733.440 192.561  22
   9   7   9 987.768 222.609  13
  -9  -7  -9 757.656 185.445  21
  -9  -7  -9 683.342 177.991  19
  -9  -7  -9 777.957 186.428  18
  -9  -7  -9 788.668 162.652   8
   9   8  -1 239.922 94.9743   5
  -9  -8   1 204.615 89.8999   9
  -9  -8   0 371.240 125.620   2
   9   8   0 385.318 138.421   6
   9   8   0 295.133 109.443   5
  -9  -8   0 433.041 120.468   9
  -9  -8  -1 39.6615 53.1542   2
   9   8   1 38.6579 59.7596   6
   9   8   1 39.5190 52.1974   5
  -9  -8  -1 12.1293 45.4898   9
   9   8   2-0.22380 68.4575  15
  -9  -8  -2 24.1597 49.4417   2
   9   8   2-280.735 135.184  14
  -9  -8  -2-14.7554 39.6802  23
   9   8   2 2.36875 61.3283   6
  -9  -8  -2 5.24393 43.0184  22
   9   8   2-61.0399 77.3966  13
  -9  -8  -2 124.227 79.4346  21
  -9  -8  -2 136.962 74.4807  19
   9   8   2 22.5303 48.3934   5
  -9  -8  -2-96.3646 64.7219   9
   9   8   2 178.122 94.9436  17
   9   8   3 1121.83 235.386  15
  -9  -8  -3 1022.26 192.832   2
   9   8   3 1126.10 239.741  14
  -9  -8  -3 972.951 190.411  23
   9   8   3 1470.10 288.982   6
  -9  -8  -3 900.671 186.945  22
   9   8   3 957.088 216.236  13
  -9  -8  -3 1075.59 202.562  21
   9   8   3 1310.44 193.872   5
  -9  -8  -3 958.457 187.046  19
  -9  -8  -3 1147.24 181.517   9
   9   8   3 679.225 182.531  17
   9   8   4 11518.7 782.405  14
   9   8   4 13450.5 893.794   6
  -9  -8  -4 11167.8 668.178  23
   9   8   4 10875.2 718.450  13
  -9  -8  -4 11113.7 674.165  22
  -9  -8  -4 10835.2 657.815  21
  -9  -8  -4 10781.4 647.945  19
  -9  -8  -4 13161.7 683.625   2
  -9  -8  -4 12570.1 624.752   9
   9   8   4 11431.4 737.289  17
   9   8   4 11361.4 765.529  15
   9   8   5 432.831 145.856  15
   9   8   5 298.417 101.094   1
  -9  -8  -5 461.056 130.134   2
   9   8   5 243.183 121.041  14
  -9  -8  -5 348.417 125.735  23
   9   8   5 269.859 143.358   6
  -9  -8  -5 263.272 107.786  22
   9   8   5 664.057 176.472  13
  -9  -8  -5 520.602 145.719  21
  -9  -8  -5 396.654 132.433  19
  -9  -8  -5 254.703 92.9422   9
   9   8   5 341.059 131.941  17
   9   8   6 2011.92 315.413  15
   9   8   6 1642.36 232.671   1
   9   8   6 1341.40 261.295  14
  -9  -8  -6 1748.67 262.938  23
   9   8   6 2288.24 374.181   6
  -9  -8  -6 1750.64 267.659  22
   9   8   6 2145.58 307.068  13
  -9  -8  -6 1682.17 259.980  21
  -9  -8  -6 1707.82 254.639  19
  -9  -8  -6 1856.88 253.593   2
  -9  -8  -6 1681.01 226.955   9
   9   8   6 1415.72 262.945  17
   9   8   7 1420.29 274.253  15
  -9  -8  -7 1243.90 210.617   2
   9   8   7 905.107 179.759   1
   9   8   7 731.004 202.078  14
  -9  -8  -7 889.509 196.284  23
   9   8   7 910.390 258.420   6
  -9  -8  -7 907.811 198.231  22
   9   8   7 1094.92 225.835  13
  -9  -8  -7 1273.99 233.552  21
  -9  -8  -7 1099.42 214.404  19
   9   8   7 890.993 213.631  17
   9   8   8 790.405 213.880  15
  -9  -8  -8 536.493 140.521   2
   9   8   8 674.781 212.363  14
   9   8   8 807.502 178.680   1
  -9  -8  -8 895.426 202.081  23
   9   8   8 716.757 224.184   6
  -9  -8  -8 653.049 170.421  22
   9   8   8 894.782 211.241  13
  -9  -8  -8 504.227 150.382  21
  -9  -8  -8 700.221 172.784  19
   9   8   8 449.806 164.444  17
   9   8   9 4219.56 502.188  14
   9   8   9 4464.18 545.420   6
  -9  -8  -9 4856.85 480.866  23
   9   8   9 4368.18 479.657  13
  -9  -8  -9 3959.51 442.057  22
  -9  -8  -9 4221.18 450.328  21
  -9  -8  -9 4134.84 436.631  19
  -9  -8  -9 5396.46 446.719   2
   9   8   9 4713.37 500.318  17
   9   8   9 4874.53 466.227   1
   9   8   9 4254.42 490.337  15
  -9  -9  -1 830.795 179.156   2
   9   9   1 1437.69 283.740   6
   9   9   1 1172.29 205.296   5
  -9  -9  -1 1318.31 205.744   9
  -9  -9  -2 590.072 155.472   2
   9   9   2 800.949 237.012  14
  -9  -9  -2 608.853 164.740  23
   9   9   2 1014.36 252.416   6
  -9  -9  -2 775.194 176.968  22
   9   9   2 737.309 206.896  13
  -9  -9  -2 814.695 180.949  21
  -9  -9  -2 842.298 176.228  19
   9   9   2 952.535 179.608   5
  -9  -9  -2 1214.60 187.462   9
   9   9   2 682.781 185.484  17
   9   9   2 928.402 229.492  15
   9   9   3 679.195 186.740  15
  -9  -9  -3 1019.50 195.763   2
   9   9   3 749.944 212.081  14
  -9  -9  -3 1152.48 215.360  23
   9   9   3 1129.72 268.183   6
  -9  -9  -3 897.138 194.337  22
   9   9   3 1010.83 226.298  13
  -9  -9  -3 948.640 192.578  21
  -9  -9  -3 817.674 176.771  19
   9   9   3 713.074 145.641   5
  -9  -9  -3 1284.55 194.851   9
   9   9   3 1030.03 232.093  17
   9   9   4 2018.54 328.017  15
   9   9   4 1935.47 333.189  14
  -9  -9  -4 1711.22 271.084  23
   9   9   4 2188.81 363.292   6
  -9  -9  -4 1573.00 260.097  22
   9   9   4 2036.63 323.115  13
  -9  -9  -4 1890.58 277.284  21
  -9  -9  -4 2102.83 287.695  19
  -9  -9  -4 2025.54 279.300   2
  -9  -9  -4 2346.77 266.104   9
   9   9   4 2110.35 327.574  17
   9   9   5 47.8454 80.6124  15
  -9  -9  -5 29.1024 53.5288   2
   9   9   5-12.9382 73.2882  14
  -9  -9  -5 200.421 100.000  23
   9   9   5 57.9130 95.5566   6
  -9  -9  -5 109.816 85.8674  22
   9   9   5 82.5273 81.7457  13
  -9  -9  -5 108.049 79.4973  21
  -9  -9  -5 25.0654 101.335  19
  -9  -9  -5 124.269 77.5348   9
   9   9   5 167.078 106.793  17
   9   9   5-120.541 73.3287   1
   9   9   6 297.003 146.415  15
  -9  -9  -6 262.279 102.047   2
   9   9   6 395.016 178.363  14
  -9  -9  -6 273.641 118.456  23
   9   9   6 500.468 194.337   6
  -9  -9  -6 285.867 131.074  22
   9   9   6 116.392 96.1234  13
  -9  -9  -6 271.654 105.913  21
  -9  -9  -6 141.017 82.2664  19
  -9  -9  -6 430.036 120.918   9
   9   9   6 170.125 103.348  17
   9   9   6 194.140 94.3686   1
   9   9   7 42.3737 82.5454  15
   9   9   7 111.423 87.8950   1
  -9  -9  -7 23.2188 62.1015   2
   9   9   7 139.429 104.381  14
  -9  -9  -7-61.2268 67.5675  23
   9   9   7-87.4380 115.605   6
  -9  -9  -7 19.2731 56.5566  22
   9   9   7-76.9227 82.8853  13
  -9  -9  -7 23.3793 55.7256  21
  -9  -9  -7 105.878 77.4877  19
   9   9   7 96.8592 69.7338  17
   9   9   8 2.40796 80.2926  15
  -9  -9  -8-91.9617 71.6005   2
   9   9   8-63.8600 70.4098   1
   9   9   8-2.19699 90.2368  14
  -9  -9  -8 201.382 106.309  23
   9   9   8-32.9777 110.117   6
  -9  -9  -8 24.7835 60.5636  22
   9   9   8 24.6952 57.8090  13
  -9  -9  -8 130.975 80.0669  21
  -9  -9  -8-38.4781 63.8507  19
   9   9   8 189.908 104.832  17
  -9 -10  -3 445.740 130.527   2
   9  10   3 274.913 143.332  14
  -9 -10  -3 471.180 142.909  23
   9  10   3 692.734 207.680   6
  -9 -10  -3 392.845 131.112  22
   9  10   3 307.389 118.492  13
  -9 -10  -3 599.492 168.460  21
  -9 -10  -3 446.303 141.829  19
  -9 -10  -3 661.536 142.116   9
   9  10   3 714.307 209.157  17
   9  10   3 551.880 192.437  15
   9  10   4 2201.38 375.249  14
  -9 -10  -4 1949.78 300.127  23
   9  10   4 2277.83 369.054   6
  -9 -10  -4 2093.55 310.216  22
   9  10   4 2273.53 353.024  13
  -9 -10  -4 2013.37 298.133  21
  -9 -10  -4 2027.17 302.325  19
  -9 -10  -4 2356.19 316.134   2
  -9 -10  -4 2565.15 281.124   9
   9  10   4 1776.20 318.095  17
   9  10   4 2096.22 359.063  15
   9  10   5 43.6576 83.7287  15
  -9 -10  -5 172.282 95.1008   2
   9  10   5-161.415 124.905  14
  -9 -10  -5 150.308 100.390  23
   9  10   5 224.157 136.462   6
  -9 -10  -5 132.638 78.5198  22
   9  10   5 178.737 114.972  13
  -9 -10  -5 40.5056 65.1917  21
  -9 -10  -5 84.9100 73.4284  19
  -9 -10  -5 314.903 102.160   9
   9  10   5-121.674 97.3171  17
   9  10   5 251.928 97.5000   1
  10   1   2 1382.88 302.084   6
 -10  -1  -2 1293.84 219.236   9
 -10  -1  -3 473.174 141.086   2
  10   1   3 660.484 214.561   6
 -10  -1  -3 669.184 147.367   9
 -10  -1  -4-38.0551 60.4746   2
  10   1   4 169.710 117.055   6
 -10  -1  -4 77.5902 60.9431   9
  10   1   4 150.945 133.429  16
  10   1   5 1842.66 272.671  15
  10   1   5 1833.00 269.578  14
 -10  -1  -5 1678.58 261.735   2
 -10  -1  -5 1831.18 265.853  23
  10   1   5 1546.11 304.490   6
 -10  -1  -5 1592.49 249.897  21
 -10  -1  -5 1651.17 256.796  19
 -10  -1  -5 1538.45 247.730  18
 -10  -1  -5 1595.73 253.219  17
 -10  -1  -5 1898.66 236.124   9
  10   1   5 1242.80 331.894  16
  10   1   6 1742.65 275.377  15
  10   1   6 1642.92 268.630  14
 -10  -1  -6 1630.88 263.687   2
 -10  -1  -6 1259.21 233.867  23
  10   1   6 1468.09 292.790   6
 -10  -1  -6 1313.73 242.373  21
 -10  -1  -6 1575.09 258.253  19
 -10  -1  -6 1474.97 250.390  18
 -10  -1  -6 1456.40 254.520  17
  10   1   6 1993.65 419.087  16
  10   1   7 2293.49 324.214  14
 -10  -1  -7 2396.43 328.353  23
 -10  -1  -7 2001.51 301.253   2
  10   1   7 1792.10 325.113   6
 -10  -1  -7 2159.74 313.275  21
 -10  -1  -7 2463.22 334.074  19
 -10  -1  -7 2620.44 343.922  18
 -10  -1  -7 2713.38 352.989  17
  10   1   7 2535.96 492.169  16
  10   1   7 2835.51 357.607  15
  10   2   1 1778.74 346.250   6
 -10  -2  -1 1905.05 270.043   9
  10   2   2 4583.56 548.467   6
 -10  -2  -2 4302.90 383.436   2
 -10  -2  -2 5064.03 418.545   9
 -10  -2  -3 35.8076 47.3886   2
  10   2   3 123.073 85.2330   6
 -10  -2  -3 82.2980 68.2033   9
 -10  -2  -4-50.6250 58.1519   2
  10   2   4 43.6942 71.2600   6
 -10  -2  -4-17.0361 65.4681   9
  10   2   4 40.7282 93.0156  16
  10   2   5 189.257 91.5453  15
  10   2   5 70.3034 80.0504  14
 -10  -2  -5-1.44412 45.0972   2
 -10  -2  -5-42.8461 56.0573  23
 -10  -2  -5-24.8668 54.9905  22
  10   2   5-10.5150 77.6264   6
  10   2   5 90.1246 88.9634  13
 -10  -2  -5-5.15358 45.0324  21
 -10  -2  -5 22.5883 59.8826  19
 -10  -2  -5-135.295 80.2480  18
 -10  -2  -5 52.9227 56.5708   9
  10   2   5-172.410 130.187  16
  10   2   6 5279.33 480.866  14
  10   2   6 4822.69 526.290   6
 -10  -2  -6 4810.27 437.774  23
 -10  -2  -6 4414.66 425.943  21
 -10  -2  -6 4592.00 431.858  19
 -10  -2  -6 4359.81 421.408  18
 -10  -2  -6 4165.31 395.187   2
 -10  -2  -6 4528.68 366.013   9
  10   2   6 5192.97 637.314  16
  10   2   6 5119.83 469.913  15
  10   2   7 1234.87 240.852  15
  10   2   7 1061.98 226.465  14
 -10  -2  -7 808.441 174.579   2
 -10  -2  -7 995.127 210.814  23
  10   2   7 931.777 236.830   6
 -10  -2  -7 1348.50 243.504  21
 -10  -2  -7 739.416 177.142  19
 -10  -2  -7 1093.99 218.995  18
 -10  -2  -7 1086.04 179.490   9
  10   2   7 1350.03 342.244  16
  10   2   8 24.3694 93.7272  15
  10   2   8 105.050 81.1683  14
  10   2   8-8.75373 108.264   1
 -10  -2  -8-146.580 88.2103   2
 -10  -2  -8-40.4812 58.0782  23
  10   2   8-25.7671 78.7612   6
 -10  -2  -8 120.839 86.7310  21
 -10  -2  -8 85.5129 81.8394  19
 -10  -2  -8 127.873 90.3424  18
 -10  -2  -8 187.900 78.2408   9
 -10  -2  -8 45.0818 56.7386   8
  10   3   0 778.456 224.993   6
 -10  -3   0 441.673 131.767   9
  10   3   1 908.083 250.338   6
 -10  -3  -1 1189.47 211.495   9
  10   3   2 24231.6 1265.43   6
 -10  -3  -2 23954.7 926.045   2
 -10  -3  -2 22986.1 951.027   9
 -10  -3  -3 6.65645 34.5792   2
  10   3   3 100.149 104.781   6
 -10  -3  -3-29.2459 62.6644   9
 -10  -3  -4 920.416 180.798   2
 -10  -3  -4 607.719 154.877  23
 -10  -3  -4 697.716 157.211  22
  10   3   4 736.123 214.971   6
 -10  -3  -4 831.829 169.941  21
 -10  -3  -4 1051.17 190.357  19
 -10  -3  -4 916.401 174.831  18
 -10  -3  -4 745.646 152.565   9
  10   3   5 641.409 166.317  15
  10   3   5 420.418 148.377  14
 -10  -3  -5 342.625 109.073   2
 -10  -3  -5 327.130 112.653  23
 -10  -3  -5 669.322 155.175  22
  10   3   5 385.728 160.426   6
  10   3   5 307.597 118.826  13
 -10  -3  -5 687.026 161.183  21
 -10  -3  -5 393.837 122.013  19
 -10  -3  -5 270.368 99.0974  18
 -10  -3  -5 453.775 117.719   9
  10   3   6 809.294 194.038  15
  10   3   6 654.704 165.616  14
 -10  -3  -6 835.730 176.087   2
 -10  -3  -6 663.072 165.363  23
 -10  -3  -6 1038.18 206.630  22
  10   3   6 681.210 217.091   6
  10   3   6 1012.49 210.566  13
 -10  -3  -6 610.625 159.966  21
 -10  -3  -6 818.785 181.472  19
 -10  -3  -6 611.229 153.600  18
 -10  -3  -6 710.397 142.631   9
  10   3   7 77.3337 85.8740  15
  10   3   7 236.143 130.679  14
 -10  -3  -7 61.4937 66.7715   2
 -10  -3  -7 120.465 85.7857  23
  10   3   7-120.577 107.295   6
 -10  -3  -7 69.7642 59.3179  22
  10   3   7 5.95376 55.5648  13
 -10  -3  -7 45.7715 57.3182  21
 -10  -3  -7 7.69258 46.9137  19
 -10  -3  -7 11.3951 48.8851  18
 -10  -3  -7 175.879 74.2072   9
  10   3   8 217.657 137.113  15
  10   3   8 520.947 167.522  14
 -10  -3  -8 298.139 112.495   2
 -10  -3  -8 471.254 145.522  23
  10   3   8 297.032 116.116   6
 -10  -3  -8 430.636 145.845  22
  10   3   8 687.756 185.044  13
 -10  -3  -8 214.214 97.6797  21
 -10  -3  -8 420.811 139.533  19
 -10  -3  -8 329.204 129.897  18
 -10  -3  -8 403.763 111.797   9
 -10  -3  -8 474.853 122.656   8
  10   3   8 565.625 210.405   1
  10   3   9 4765.64 584.952   1
  10   3   9 5864.65 555.440  14
  10   3   9 6396.80 616.720   6
 -10  -3  -9 5244.04 511.599  23
  10   3   9 6432.27 576.725  13
 -10  -3  -9 6308.30 558.420  22
 -10  -3  -9 6077.91 545.234  21
 -10  -3  -9 5241.00 501.966  19
 -10  -3  -9 5680.15 517.808  18
 -10  -3  -9 5277.06 467.098   2
 -10  -3  -9 4734.57 385.247   9
 -10  -3  -9 5102.73 427.191   8
  10   3   9 6750.60 586.899  15
  10   4   0-16.1267 93.4840   6
 -10  -4   0-3.55654 48.4911   9
  10   4   1 910.625 248.863   6
 -10  -4  -1 1424.64 222.756   9
 -10  -4  -2-24.6564 49.7470   2
  10   4   2 84.2096 94.2437   6
 -10  -4  -2 126.648 79.6873   9
  10   4   3 3529.27 454.301   6
 -10  -4  -3 4113.56 352.665   2
 -10  -4  -3 3518.02 333.994   9
  10   4   4 5753.73 488.199  14
  10   4   4 4770.44 528.198   6
 -10  -4  -4 4680.13 401.901  23
  10   4   4 4816.71 436.921  13
 -10  -4  -4 4583.48 405.372  22
 -10  -4  -4 4520.40 396.793  21
 -10  -4  -4 4792.44 401.390  19
 -10  -4  -4 4908.67 406.624  18
 -10  -4  -4 4873.28 386.220   2
 -10  -4  -4 4761.44 384.531   9
  10   4   4 4747.34 443.467  15
  10   4   5 496.669 143.653  15
  10   4   5 675.531 173.397  14
 -10  -4  -5 777.045 156.867   2
 -10  -4  -5 644.223 156.959  23
 -10  -4  -5 680.098 158.956  22
  10   4   5 673.433 200.677   6
  10   4   5 739.035 178.721  13
 -10  -4  -5 910.082 182.854  21
 -10  -4  -5 573.553 138.954  19
 -10  -4  -5 527.739 136.635  18
 -10  -4  -5 701.216 148.549   9
  10   4   6 102.488 82.0580  15
  10   4   6 237.732 114.854  14
 -10  -4  -6 171.865 81.6845   2
 -10  -4  -6 165.274 81.9976  23
  10   4   6 146.202 85.5447   6
 -10  -4  -6-12.5627 55.9030  22
  10   4   6 163.340 81.1482  13
 -10  -4  -6 106.598 79.9568  21
 -10  -4  -6 187.513 81.7575  19
 -10  -4  -6 94.0707 74.2620  18
 -10  -4  -6 63.5209 45.0960   9
  10   4   7 72.3151 78.0193  15
  10   4   7 232.068 116.355  14
 -10  -4  -7 2.49711 50.8008   2
 -10  -4  -7 60.9740 67.4891  23
  10   4   7-39.0437 74.9807   6
 -10  -4  -7 43.4420 61.3055  22
  10   4   7 39.8443 84.2590  13
 -10  -4  -7 39.9744 65.5028  21
 -10  -4  -7 102.656 99.7898  19
 -10  -4  -7-47.1438 60.9624  18
  10   4   7 113.030 99.0893   1
 -10  -4  -7 79.0341 53.4463   9
  10   4   8 428.358 151.727  15
  10   4   8 321.516 131.409  14
 -10  -4  -8 294.632 112.944   2
 -10  -4  -8 285.778 118.611  23
  10   4   8 462.732 167.199   6
 -10  -4  -8 165.610 96.7390  22
  10   4   8 458.251 154.602  13
 -10  -4  -8 301.787 128.292  21
 -10  -4  -8 215.393 109.931  19
 -10  -4  -8 398.072 135.958  18
  10   4   8 150.705 107.977   1
 -10  -4  -8 302.786 98.8474   9
 -10  -4  -8 139.518 85.5452   8
  10   4   9-25.0220 74.1066  15
  10   4   9-32.0778 84.3517  14
 -10  -4  -9 85.3214 81.3087   2
 -10  -4  -9 27.6291 53.6508  23
  10   4   9 288.690 144.897   6
 -10  -4  -9 73.5221 61.0430  22
  10   4   9 134.979 102.878  13
 -10  -4  -9 27.7276 67.6106  21
 -10  -4  -9-32.1453 92.5733  19
 -10  -4  -9 95.6987 101.862  18
  10   4   9 78.7892 81.3315   1
 -10  -4  -9 38.9718 74.8692   9
 -10  -4  -9 131.525 84.6193   8
  10   5   0 178.586 134.579   6
 -10  -5   0 130.049 72.8363   9
  10   5   1-111.122 100.236   6
 -10  -5  -1 63.6996 62.0207   9
 -10  -5  -2 1379.20 200.776   2
  10   5   2 980.328 239.425   6
 -10  -5  -2 1171.18 199.517   9
 -10  -5  -3 4.31806 46.8241   2
 -10  -5  -3 14.6395 40.7667   9
  10   5   4 865.838 189.602  15
 -10  -5  -4 1176.80 192.226   2
  10   5   4 1070.82 218.989  14
 -10  -5  -4 952.800 182.079  23
 -10  -5  -4 734.519 162.080  22
  10   5   4 1213.44 273.011   6
  10   5   4 966.997 196.575  13
 -10  -5  -4 914.837 181.583  21
 -10  -5  -4 800.610 169.985  19
 -10  -5  -4 1055.73 187.261  18
 -10  -5  -4 1148.58 187.729   9
  10   5   5 222.379 106.956  15
 -10  -5  -5 218.305 91.8577   2
  10   5   5 241.725 112.612  14
 -10  -5  -5 147.801 75.7997  23
  10   5   5-154.842 110.126   6
 -10  -5  -5 99.1418 71.6994  22
  10   5   5-26.4885 70.8984  13
 -10  -5  -5 145.854 76.6871  21
 -10  -5  -5 181.293 86.7136  19
 -10  -5  -5 212.939 91.1483  18
 -10  -5  -5 216.206 93.2379   9
  10   5   6 10543.3 700.744  14
  10   5   6 10840.3 817.303   6
 -10  -5  -6 10000.3 638.696  23
  10   5   6 10115.7 670.574  13
 -10  -5  -6 9828.83 641.194  22
 -10  -5  -6 10835.8 664.433  21
 -10  -5  -6 9643.07 619.898  19
 -10  -5  -6 9956.08 626.473  18
 -10  -5  -6 10272.7 590.814   2
 -10  -5  -6 9718.81 564.032   9
  10   5   6 11703.8 731.648  15
  10   5   7 1193.55 240.068  15
  10   5   7 1373.33 252.167  14
 -10  -5  -7 1563.93 257.095  23
  10   5   7 1464.69 303.309   6
 -10  -5  -7 1657.48 268.298  22
  10   5   7 1460.67 263.017  13
 -10  -5  -7 2068.07 298.667  21
 -10  -5  -7 1418.60 244.059  19
  10   5   7 1193.82 244.977   1
 -10  -5  -7 1575.19 252.814  18
 -10  -5  -7 1700.42 236.646   2
 -10  -5  -7 896.005 169.792   9
  10   5   8-12.5863 67.6049  15
  10   5   8-100.686 92.4518  14
 -10  -5  -8-50.8658 58.3995   2
 -10  -5  -8-47.4894 64.7612  23
  10   5   8-58.4196 101.435   6
 -10  -5  -8 107.633 96.5857  22
  10   5   8-211.678 112.526  13
 -10  -5  -8-104.894 81.4478  21
 -10  -5  -8-91.6792 76.2135  19
  10   5   8-121.365 100.004   1
 -10  -5  -8-130.564 86.0784  18
 -10  -5  -8-99.2172 68.2876   9
  10   5   9 245.459 129.288  15
  10   5   9 59.3815 79.5488  14
 -10  -5  -9 376.997 122.294   2
 -10  -5  -9 232.122 106.310  23
  10   5   9 582.620 204.069   6
 -10  -5  -9 509.351 163.499  22
  10   5   9 330.721 140.180  13
 -10  -5  -9 164.135 81.9819  21
 -10  -5  -9 306.970 125.291  19
  10   5   9 452.363 174.068   1
 -10  -5  -9 227.393 112.407  18
 -10  -5  -9 291.166 105.339   9
 -10  -5  -9 268.324 84.0464   8
  10   6   0 287.092 141.819   6
  10   6   0 258.396 98.2085   5
 -10  -6   0 182.319 89.0565   9
 -10  -6  -1 1511.87 222.858   2
  10   6   1 1546.30 306.958   6
 -10  -6  -1 1458.88 226.465   9
 -10  -6  -2 57.1453 58.6871   2
  10   6   2 2.90930 107.336   6
 -10  -6  -2-48.4029 61.9240   9
 -10  -6  -3 289.390 109.013   2
  10   6   3 318.622 141.805   6
 -10  -6  -3 148.561 76.5902   9
  10   6   4 193.834 97.3461  15
 -10  -6  -4 196.933 84.3358   2
  10   6   4 336.571 135.324  14
 -10  -6  -4-36.9467 46.8154  23
  10   6   4 182.737 118.959   6
 -10  -6  -4 118.050 65.2597  22
  10   6   4 39.8340 57.6315  13
 -10  -6  -4 299.443 117.720  21
 -10  -6  -4 73.7930 79.9956  19
 -10  -6  -4 189.503 69.9398   9
  10   6   5 137.690 83.8743  15
 -10  -6  -5 72.0629 85.9272   2
  10   6   5 85.6899 89.9879  14
 -10  -6  -5-3.93756 47.5322  23
  10   6   5 264.726 163.762   6
 -10  -6  -5 55.9873 61.8157  22
  10   6   5-34.8117 63.3251  13
 -10  -6  -5 47.1663 49.6519  21
 -10  -6  -5-129.941 79.1057  19
 -10  -6  -5-79.6965 66.0370  18
 -10  -6  -5 27.3979 47.8951   9
  10   6   6 1294.38 251.831  15
  10   6   6 1508.01 274.263  14
 -10  -6  -6 1573.10 254.062  23
  10   6   6 1870.96 342.355   6
 -10  -6  -6 1420.68 243.253  22
  10   6   6 1552.82 262.868  13
 -10  -6  -6 1687.76 259.185  21
 -10  -6  -6 1662.79 252.927  19
 -10  -6  -6 2166.31 274.170   2
 -10  -6  -6 1506.51 236.975  18
 -10  -6  -6 1536.73 218.346   9
  10   6   7 1605.97 283.813  15
 -10  -6  -7 1470.42 230.747   2
  10   6   7 1577.45 284.585  14
 -10  -6  -7 1202.26 225.482  23
  10   6   7 1437.26 304.636   6
 -10  -6  -7 1118.91 222.590  22
  10   6   7 1029.94 228.273  13
 -10  -6  -7 1386.23 240.749  21
  10   6   7 1040.29 215.904   1
 -10  -6  -7 1385.63 241.142  19
 -10  -6  -7 1281.32 227.304  18
 -10  -6  -7 1098.17 187.748   9
  10   6   8 467.755 153.919  15
 -10  -6  -8 408.131 130.718   2
  10   6   8 604.841 191.007  14
 -10  -6  -8 588.376 170.132  23
  10   6   8 402.961 178.082   6
 -10  -6  -8 281.085 127.660  22
  10   6   8 179.710 110.683  13
 -10  -6  -8 370.342 132.066  21
  10   6   8 273.783 118.619   1
 -10  -6  -8 369.952 137.304  19
 -10  -6  -8 239.265 113.189  18
 -10  -6  -8 377.436 111.976   9
  10   6   9 1157.26 264.184  15
  10   6   9 1008.09 258.520  14
 -10  -6  -9 918.085 191.698   2
 -10  -6  -9 699.820 177.335  23
  10   6   9 743.599 248.321   6
 -10  -6  -9 954.405 215.672  22
  10   6   9 758.721 202.570  13
 -10  -6  -9 1099.47 239.888  21
  10   6   9 788.069 208.390   1
 -10  -6  -9 1141.92 230.344  19
 -10  -6  -9 865.331 209.578  18
 -10  -7  -1 113.410 78.7079   2
  10   7   1 120.447 75.8842   5
 -10  -7  -1 128.610 82.4333   9
  10   7   2 1698.39 316.276   6
  10   7   2 1566.89 237.406   5
 -10  -7  -2 2049.32 257.726   2
 -10  -7  -2 1897.94 252.876   9
  10   7   3 2849.23 421.148   6
  10   7   3 2776.53 299.420   5
 -10  -7  -3 3240.10 324.399   2
 -10  -7  -3 3074.81 313.892   9
  10   7   4 174.217 106.958  15
 -10  -7  -4 33.3265 64.8533   2
  10   7   4-215.922 117.248  14
 -10  -7  -4-42.7373 57.5552  23
  10   7   4-175.968 121.209   6
 -10  -7  -4-103.018 72.8289  22
  10   7   4-57.7604 73.7058  13
 -10  -7  -4-55.7507 57.6980  21
 -10  -7  -4 23.8044 49.4029  19
 -10  -7  -4 110.392 77.7102   9
  10   7   4-125.011 89.9872  17
  10   7   5 274.233 148.300  15
 -10  -7  -5 261.843 105.967   2
  10   7   5 50.3327 78.8913  14
 -10  -7  -5 73.2791 51.0256  23
  10   7   5 247.792 142.070   6
 -10  -7  -5 199.391 101.406  22
  10   7   5 259.377 112.608  13
 -10  -7  -5 194.189 81.4342  21
 -10  -7  -5 363.365 117.631  19
 -10  -7  -5 270.656 98.8429   9
  10   7   5 197.778 104.098  17
  10   7   6 538.723 169.344  15
 -10  -7  -6 478.804 136.278   2
  10   7   6 490.577 173.437  14
 -10  -7  -6 390.143 133.668  23
  10   7   6 547.579 198.601   6
 -10  -7  -6 282.163 117.620  22
  10   7   6 492.676 161.015  13
 -10  -7  -6 409.213 137.077  21
 -10  -7  -6 576.107 154.241  19
 -10  -7  -6 481.930 128.723   9
  10   7   7 354.666 150.222  15
 -10  -7  -7 177.339 91.6470   2
  10   7   7 283.770 149.425  14
 -10  -7  -7 149.625 87.7850  23
  10   7   7 65.8782 106.775   6
  10   7   7 271.437 119.274   1
 -10  -7  -7 298.097 115.806  22
  10   7   7 407.474 142.206  13
 -10  -7  -7 171.928 107.955  21
 -10  -7  -7 155.914 99.2204  19
 -10  -7  -7 255.406 107.939  18
 -10  -7  -7 264.260 99.5262   9
  10   7   8 8384.61 689.204  14
  10   7   8 8043.11 747.600   6
 -10  -7  -8 7702.68 607.680  23
  10   7   8 8497.99 656.279  13
 -10  -7  -8 7859.84 617.139  22
 -10  -7  -8 8023.96 617.515  21
 -10  -7  -8 7395.10 585.886  19
 -10  -7  -8 8397.38 619.003  18
 -10  -7  -8 9705.15 610.795   2
 -10  -7  -8 7597.90 524.800   9
  10   7   8 8036.86 631.446   1
  10   7   8 7968.67 665.117  15
 -10  -8  -2-131.043 82.3201   2
  10   8   2-136.545 112.451   6
  10   8   2-60.6072 61.2686   5
 -10  -8  -2 60.4953 59.9606   9
  10   8   3 1824.11 338.909   6
  10   8   3 1948.78 253.041   5
 -10  -8  -3 1994.28 266.710   2
 -10  -8  -3 2548.87 287.169   9
  10   8   4 336.128 133.953  15
 -10  -8  -4 225.200 98.7961   2
  10   8   4 328.457 150.834  14
 -10  -8  -4 336.286 118.664  23
  10   8   4 220.562 145.518   6
 -10  -8  -4 121.673 87.0911  22
  10   8   4 41.6988 73.7932  13
 -10  -8  -4 188.169 96.7703  21
 -10  -8  -4 285.588 110.216  19
 -10  -8  -4 329.407 110.666   9
  10   8   4 158.948 97.9011  17
  10   8   5 2173.08 340.174  15
  10   8   5 2197.53 351.220  14
  10   8   5 3337.89 475.388   6
 -10  -8  -5 2193.56 302.330  23
  10   8   5 2489.55 352.439  13
 -10  -8  -5 2356.17 317.645  22
 -10  -8  -5 2380.49 313.411  21
 -10  -8  -5 2278.73 305.378  19
 -10  -8  -5 2829.53 324.881   2
 -10  -8  -5 2734.78 296.929   9
  10   8   5 2450.26 355.262  17
  10   8   6-236.245 126.261  15
 -10  -8  -6-34.2455 61.9468   2
  10   8   6-148.758 110.521  14
 -10  -8  -6-150.665 89.8360  23
  10   8   6 37.0238 113.123   6
 -10  -8  -6-12.8381 52.7102  22
  10   8   6 48.0029 74.4336  13
 -10  -8  -6 4.71864 60.0110  21
 -10  -8  -6 124.766 81.5437  19
 -10  -8  -6 55.3382 79.4386   9
  10   8   6 39.4467 65.8397  17
  10   8   7-74.3608 92.2663  15
 -10  -8  -7 61.6529 63.4586   2
  10   8   7-134.918 108.443  14
  10   8   7 70.6500 72.2810   1
 -10  -8  -7-129.690 88.9750  23
  10   8   7 13.5112 133.961   6
 -10  -8  -7 89.4567 76.8321  22
  10   8   7 58.1450 74.1042  13
 -10  -8  -7 89.9417 81.8830  21
 -10  -8  -7 2.97525 62.0839  19
 -10  -8  -7-7.47837 48.1375   9
  10   8   7-50.8725 89.5224  17
 -11  -5  -5 1288.49 215.093   2
 -11  -5  -5 972.004 195.434  23
 -11  -5  -5 895.653 194.747  22
  11   5   5 1041.48 273.364   6
 -11  -5  -5 1093.89 210.481  21
 -11  -5  -5 593.888 159.651  19
 -11  -5  -5 932.055 191.967  18
 -11  -5  -5 1227.96 205.926   9
   0   0   0    0.00    0.00   0
TITL ld629 in P-1
REM P-1 (#2 in standard setting)
CELL 0.71073   7.714659   8.211375   8.764149  79.8411  66.7807  64.9091
ZERR    2.00   0.000512   0.000591   0.000615   0.0061   0.0065   0.0071
LATT  1
SFAC C H B N O F
UNIT 16.00 20.00 2.00 6.00 2.00 4.00
TREF
HKLF 4
END
;
_shelx_hkl_checksum              76174
_shelx_res_file
;
    LD1.res created by SHELXL-2014/7
REM <HKL>D:/XcaliburData/Liliana
REM  CF solution in P-1
REM R1 =  0.0437 for   2421 Fo > 4sig(Fo)  and  0.0502 for all   2813 data
REM    138 parameters refined using      0 restraints
REM Highest difference peak  0.451,  deepest hole -0.255,  1-sigma level  0.063
REM The information below was added by Olex2.
REM
REM R1 = 0.0437 for 2421 Fo > 4sig(Fo) and n/a for all 28372 data
REM n/a parameters refined using n/a restraints
REM Highest difference peak 0.45, deepest hole -0.26
REM Mean Shift 0, Max Shift 0.
REM +++ Tabular Listing of Refinement Information +++
REM R1_all = n/a
REM R1_gt = 0.0437
REM wR_ref = 0.1304
REM GOOF = 1.084
REM Shift_max = 0
REM Shift_mean = 0
REM Reflections_all = 28372
REM Reflections_gt = 2421
REM Parameters = n/a
REM Hole = 0.45
REM Peak = -0.26
REM Flack = n/a
TITL CF solution in P-1
CELL 0.71073 7.7181 8.2139 8.7684 79.847 66.782 64.907
ZERR 2.0000 0.0005 0.0006 0.0006 0.006 0.007 0.007
LATT 1
SFAC C H B F N O
UNIT 16 20 2 4 6 2
MERG 2
SHEL 100.00 0.70
FMAP 2
GRID
PLAN 25
TEMP -173
SIZE 0.37 0.35 0.24
BOND $H
OMIT 3 3 9
OMIT 0 -3 7
OMIT 0 -4 7
CONF
HTAB
L.S. 8
ACTA 53
WGHT    0.074000    0.111000
FVAR       8.42170
B1    3    0.154548    0.789054    0.230898    11.00000    0.02349    0.02132 =
         0.01906    0.00332   -0.01313   -0.01183
O2    6    0.137088    0.705765    0.395540    11.00000    0.02428    0.02587 =
         0.02021    0.00458   -0.01400   -0.01564
C3    1    0.220581    0.732330    0.489529    11.00000    0.01501    0.01959 =
         0.01770   -0.00016   -0.00852   -0.00715
N4    5    0.295679    0.857728    0.463152    11.00000    0.02145    0.02107 =
         0.01995    0.00282   -0.01208   -0.01118
C5    1    0.284045    0.971263    0.331648    11.00000    0.01505    0.01813 =
         0.01805   -0.00085   -0.00785   -0.00626
C6    1    0.348570    1.114628    0.310519    11.00000    0.02148    0.02102 =
         0.02169    0.00031   -0.01036   -0.01085
AFIX  43
H6    2    0.397157    1.130479    0.388661    11.00000   -1.20000
AFIX   0
C7    1    0.340897    1.230322    0.177479    11.00000    0.02112    0.01985 =
         0.02438    0.00156   -0.00890   -0.01003
AFIX  43
H7    2    0.383241    1.326631    0.164018    11.00000   -1.20000
AFIX   0
C8    1    0.270201    1.206242    0.060840    11.00000    0.02134    0.02114 =
         0.02185    0.00430   -0.01086   -0.00883
AFIX  43
H8    2    0.265031    1.285057   -0.032097    11.00000   -1.20000
AFIX   0
C9    1    0.209066    1.066679    0.084363    11.00000    0.02049    0.02178 =
         0.01942    0.00319   -0.01136   -0.00871
AFIX  43
H9    2    0.160957    1.049422    0.006516    11.00000   -1.20000
AFIX   0
N10   5    0.215654    0.951642    0.217231    11.00000    0.01758    0.01848 =
         0.01752    0.00177   -0.00971   -0.00784
F11   4    0.306028    0.665197    0.110008    11.00000    0.04089    0.02435 =
         0.02383   -0.00282   -0.00763   -0.01603
F12   4   -0.030835    0.848621    0.209635    11.00000    0.03317    0.03291 =
         0.03869    0.01191   -0.02768   -0.02027
N13   5    0.223916    0.624041    0.622887    11.00000    0.02293    0.02252 =
         0.01949    0.00390   -0.01295   -0.01270
C14   1    0.302580    0.646299    0.740859    11.00000    0.02582    0.02759 =
         0.02175    0.00277   -0.01549   -0.01233
AFIX 137
H14A  2    0.446435    0.563397    0.713577    11.00000   -1.50000
H14B  2    0.222112    0.620190    0.853382    11.00000   -1.50000
H14C  2    0.292039    0.770262    0.734872    11.00000   -1.50000
AFIX   0
C15   1    0.172488    0.466689    0.648849    11.00000    0.02362    0.02110 =
         0.02412    0.00467   -0.01325   -0.01201
AFIX 137
H15A  2    0.122802    0.463992    0.562654    11.00000   -1.50000
H15B  2    0.065428    0.473428    0.758198    11.00000   -1.50000
H15C  2    0.294781    0.357234    0.643088    11.00000   -1.50000
AFIX   0
HKLF 4
REM  CF solution in P-1
REM R1 =  0.0433 for    2418 Fo > 4sig(Fo)  and  0.0498 for all    2810 data
REM    138 parameters refined using      0 restraints
END
WGHT      0.0740      0.1108
REM Instructions for potential hydrogen bonds
EQIV $1 -x, -y+2, -z
HTAB C9 F12_$1
REM Highest difference peak  0.453,  deepest hole -0.244,  1-sigma level  0.063
Q1    1   0.3372  1.1705  0.2446  11.00000  0.05    0.45
Q2    1   0.2305  1.0042  0.1459  11.00000  0.05    0.43
Q3    1   0.2332  0.6690  0.5597  11.00000  0.05    0.41
Q4    1   0.3230  1.0418  0.3240  11.00000  0.05    0.38
Q5    1   0.1897  1.1589  0.1021  11.00000  0.05    0.36
Q6    1   0.2947  0.9097  0.3989  11.00000  0.05    0.35
Q7    1   0.1133  0.7932  0.3590  11.00000  0.05    0.34
Q8    1   0.2896  1.2202  0.1318  11.00000  0.05    0.34
Q9    1   0.2459  0.9620  0.2722  11.00000  0.05    0.34
Q10   1   0.2969  0.7793  0.4664  11.00000  0.05    0.32
Q11   1   0.1805  0.8811  0.2370  11.00000  0.05    0.31
Q12   1   0.1946  0.5576  0.6328  11.00000  0.05    0.30
Q13   1   0.2428  0.7430  0.1634  11.00000  0.05    0.30
Q14   1   0.2215  0.6786  0.2132  11.00000  0.05    0.27
Q15   1   0.1646  0.7205  0.4406  11.00000  0.05    0.26
Q16   1   0.3213  0.5565  0.8080  11.00000  0.05    0.25
Q17   1   0.2568  0.6385  0.6809  11.00000  0.05    0.25
Q18   1   0.2432  0.9227  0.5361  11.00000  0.05    0.21
Q19   1   0.1806  0.5995  0.3994  11.00000  0.05    0.20
Q20   1  -0.0983  0.9399  0.2791  11.00000  0.05    0.20
Q21   1  -0.0615  0.9478  0.2042  11.00000  0.05    0.19
Q22   1   0.0270  0.7450  0.4771  11.00000  0.05    0.19
Q23   1   0.0444  0.7688  0.1584  11.00000  0.05    0.19
Q24   1  -0.0439  0.7687  0.2559  11.00000  0.05    0.19
Q25   1   0.3265  0.8691  0.5153  11.00000  0.05    0.18
;
_shelx_res_checksum              16732
loop_
_space_group_symop_operation_xyz
'x, y, z'
'-x, -y, -z'
loop_
_atom_site_type_symbol
_atom_site_label
_atom_site_fract_x
_atom_site_fract_y
_atom_site_fract_z
_atom_site_U_iso_or_equiv
_atom_site_adp_type
_atom_site_calc_flag
_atom_site_occupancy
_atom_site_disorder_assembly
_atom_site_disorder_group
B B1 0.15455(18) 0.78905(15) 0.23090(14) 0.0188(2) Uani d 1 . .
O O2 0.13709(12) 0.70576(10) 0.39554(9) 0.01995(18) Uani d 1 . .
C C3 0.22058(15) 0.73233(13) 0.48953(12) 0.0164(2) Uani d 1 . .
N N4 0.29568(14) 0.85773(12) 0.46315(11) 0.01862(19) Uani d 1 . .
C C5 0.28404(15) 0.97126(13) 0.33165(12) 0.0164(2) Uani d 1 . .
C C6 0.34857(16) 1.11463(14) 0.31052(13) 0.0197(2) Uani d 1 . .
H H6 0.3972 1.1305 0.3887 0.024 Uiso calc 1 . .
C C7 0.34090(17) 1.23032(14) 0.17748(14) 0.0210(2) Uani d 1 . .
H H7 0.3832 1.3266 0.1640 0.025 Uiso calc 1 . .
C C8 0.27020(17) 1.20624(14) 0.06084(14) 0.0208(2) Uani d 1 . .
H H8 0.2650 1.2851 -0.0321 0.025 Uiso calc 1 . .
C C9 0.20907(16) 1.06668(14) 0.08436(13) 0.0195(2) Uani d 1 . .
H H9 0.1610 1.0494 0.0065 0.023 Uiso calc 1 . .
N N10 0.21565(13) 0.95164(11) 0.21723(11) 0.01670(18) Uani d 1 . .
F F11 0.30603(12) 0.66520(9) 0.11001(9) 0.02947(19) Uani d 1 . .
F F12 -0.03083(11) 0.84862(10) 0.20964(9) 0.02895(19) Uani d 1 . .
N N13 0.22392(14) 0.62404(12) 0.62289(11) 0.01902(19) Uani d 1 . .
C C14 0.30258(17) 0.64630(15) 0.74086(14) 0.0224(2) Uani d 1 . .
H H14A 0.4464 0.5634 0.7136 0.034 Uiso calc 1 . .
H H14B 0.2221 0.6202 0.8534 0.034 Uiso calc 1 . .
H H14C 0.2920 0.7703 0.7349 0.034 Uiso calc 1 . .
C C15 0.17249(17) 0.46669(14) 0.64885(14) 0.0209(2) Uani d 1 . .
H H15A 0.1228 0.4640 0.5627 0.031 Uiso calc 1 . .
H H15B 0.0654 0.4734 0.7582 0.031 Uiso calc 1 . .
H H15C 0.2948 0.3572 0.6431 0.031 Uiso calc 1 . .
loop_
_atom_site_aniso_label
_atom_site_aniso_U_11
_atom_site_aniso_U_22
_atom_site_aniso_U_33
_atom_site_aniso_U_12
_atom_site_aniso_U_13
_atom_site_aniso_U_23
B1 0.0235(5) 0.0213(5) 0.0191(5) -0.0118(4) -0.0131(4) 0.0033(4)
O2 0.0243(4) 0.0259(4) 0.0202(4) -0.0156(3) -0.0140(3) 0.0046(3)
C3 0.0150(4) 0.0196(4) 0.0177(5) -0.0071(3) -0.0085(4) -0.0002(3)
N4 0.0215(4) 0.0211(4) 0.0200(4) -0.0112(3) -0.0121(3) 0.0028(3)
C5 0.0150(4) 0.0181(4) 0.0180(4) -0.0063(3) -0.0079(4) -0.0009(3)
C6 0.0215(5) 0.0210(4) 0.0217(5) -0.0108(4) -0.0104(4) 0.0003(4)
C7 0.0211(5) 0.0199(4) 0.0244(5) -0.0100(4) -0.0089(4) 0.0016(4)
C8 0.0213(5) 0.0211(5) 0.0219(5) -0.0088(4) -0.0109(4) 0.0043(4)
C9 0.0205(5) 0.0218(5) 0.0194(5) -0.0087(4) -0.0114(4) 0.0032(4)
N10 0.0176(4) 0.0185(4) 0.0175(4) -0.0078(3) -0.0097(3) 0.0018(3)
F11 0.0409(4) 0.0244(3) 0.0238(4) -0.0160(3) -0.0076(3) -0.0028(3)
F12 0.0332(4) 0.0329(4) 0.0387(4) -0.0203(3) -0.0277(3) 0.0119(3)
N13 0.0229(4) 0.0225(4) 0.0195(4) -0.0127(3) -0.0130(3) 0.0039(3)
C14 0.0258(5) 0.0276(5) 0.0217(5) -0.0123(4) -0.0155(4) 0.0028(4)
C15 0.0236(5) 0.0211(4) 0.0241(5) -0.0120(4) -0.0133(4) 0.0047(4)
loop_
_atom_type_symbol
_atom_type_description
_atom_type_scat_dispersion_real
_atom_type_scat_dispersion_imag
_atom_type_scat_source
C C 0.0033 0.0016 'International Tables Vol C Tables 4.2.6.8 and 6.1.1.4'
H H 0.0000 0.0000 'International Tables Vol C Tables 4.2.6.8 and 6.1.1.4'
B B 0.0013 0.0007 'International Tables Vol C Tables 4.2.6.8 and 6.1.1.4'
F F 0.0171 0.0103 'International Tables Vol C Tables 4.2.6.8 and 6.1.1.4'
N N 0.0061 0.0033 'International Tables Vol C Tables 4.2.6.8 and 6.1.1.4'
O O 0.0106 0.0060 'International Tables Vol C Tables 4.2.6.8 and 6.1.1.4'
loop_
_geom_angle_atom_site_label_1
_geom_angle_atom_site_label_2
_geom_angle_atom_site_label_3
_geom_angle_site_symmetry_1
_geom_angle_site_symmetry_3
_geom_angle
_geom_angle_publ_flag
F12 B1 F11 . . 110.15(9) ?
F12 B1 O2 . . 109.68(9) ?
F11 B1 O2 . . 109.64(9) ?
F12 B1 N10 . . 109.81(8) ?
F11 B1 N10 . . 108.87(9) ?
O2 B1 N10 . . 108.66(8) ?
C3 O2 B1 . . 122.28(8) ?
O2 C3 N4 . . 125.25(9) ?
O2 C3 N13 . . 115.67(8) ?
N4 C3 N13 . . 119.07(9) ?
C3 N4 C5 . . 118.59(8) ?
N4 C5 N10 . . 122.56(9) ?
N4 C5 C6 . . 118.86(9) ?
N10 C5 C6 . . 118.58(9) ?
C7 C6 C5 . . 120.15(9) ?
C7 C6 H6 . . 119.9 ?
C5 C6 H6 . . 119.9 ?
C6 C7 C8 . . 119.99(9) ?
C6 C7 H7 . . 120.0 ?
C8 C7 H7 . . 120.0 ?
C9 C8 C7 . . 118.57(9) ?
C9 C8 H8 . . 120.7 ?
C7 C8 H8 . . 120.7 ?
N10 C9 C8 . . 121.58(9) ?
N10 C9 H9 . . 119.2 ?
C8 C9 H9 . . 119.2 ?
C5 N10 C9 . . 121.13(8) ?
C5 N10 B1 . . 120.06(8) ?
C9 N10 B1 . . 118.72(8) ?
C3 N13 C14 . . 120.81(8) ?
C3 N13 C15 . . 122.67(8) ?
C14 N13 C15 . . 116.17(8) ?
N13 C14 H14A . . 109.5 ?
N13 C14 H14B . . 109.5 ?
H14A C14 H14B . . 109.5 ?
N13 C14 H14C . . 109.5 ?
H14A C14 H14C . . 109.5 ?
H14B C14 H14C . . 109.5 ?
N13 C15 H15A . . 109.5 ?
N13 C15 H15B . . 109.5 ?
H15A C15 H15B . . 109.5 ?
N13 C15 H15C . . 109.5 ?
H15A C15 H15C . . 109.5 ?
H15B C15 H15C . . 109.5 ?
loop_
_geom_bond_atom_site_label_1
_geom_bond_atom_site_label_2
_geom_bond_site_symmetry_2
_geom_bond_distance
_geom_bond_publ_flag
B1 F12 . 1.3805(12) ?
B1 F11 . 1.3855(14) ?
B1 O2 . 1.4652(13) ?
B1 N10 . 1.5664(13) ?
O2 C3 . 1.3204(11) ?
C3 N4 . 1.3293(12) ?
C3 N13 . 1.3404(13) ?
N4 C5 . 1.3560(13) ?
C5 N10 . 1.3630(12) ?
C5 C6 . 1.4201(13) ?
C6 C7 . 1.3723(14) ?
C6 H6 . 0.9500 ?
C7 C8 . 1.4091(14) ?
C7 H7 . 0.9500 ?
C8 C9 . 1.3704(14) ?
C8 H8 . 0.9500 ?
C9 N10 . 1.3677(13) ?
C9 H9 . 0.9500 ?
N13 C14 . 1.4588(12) ?
N13 C15 . 1.4629(13) ?
C14 H14A . 0.9800 ?
C14 H14B . 0.9800 ?
C14 H14C . 0.9800 ?
C15 H15A . 0.9800 ?
C15 H15B . 0.9800 ?
C15 H15C . 0.9800 ?
loop_
_geom_torsion_atom_site_label_1
_geom_torsion_atom_site_label_2
_geom_torsion_atom_site_label_3
_geom_torsion_atom_site_label_4
_geom_torsion_site_symmetry_1
_geom_torsion_site_symmetry_2
_geom_torsion_site_symmetry_3
_geom_torsion_site_symmetry_4
_geom_torsion
_geom_torsion_publ_flag
F12 B1 O2 C3 . . . . -138.58(9) ?
F11 B1 O2 C3 . . . . 100.35(11) ?
N10 B1 O2 C3 . . . . -18.53(13) ?
B1 O2 C3 N4 . . . . 12.67(16) ?
B1 O2 C3 N13 . . . . -168.64(9) ?
O2 C3 N4 C5 . . . . 1.28(16) ?
N13 C3 N4 C5 . . . . -177.37(9) ?
C3 N4 C5 N10 . . . . -6.12(16) ?
C3 N4 C5 C6 . . . . 174.90(9) ?
N4 C5 C6 C7 . . . . 179.20(10) ?
N10 C5 C6 C7 . . . . 0.19(16) ?
C5 C6 C7 C8 . . . . -0.44(16) ?
C6 C7 C8 C9 . . . . 0.39(16) ?
C7 C8 C9 N10 . . . . -0.10(16) ?
N4 C5 N10 C9 . . . . -178.87(9) ?
C6 C5 N10 C9 . . . . 0.11(15) ?
N4 C5 N10 B1 . . . . -2.32(15) ?
C6 C5 N10 B1 . . . . 176.65(9) ?
C8 C9 N10 C5 . . . . -0.15(16) ?
C8 C9 N10 B1 . . . . -176.74(10) ?
F12 B1 N10 C5 . . . . 133.56(10) ?
F11 B1 N10 C5 . . . . -105.77(10) ?
O2 B1 N10 C5 . . . . 13.59(13) ?
F12 B1 N10 C9 . . . . -49.82(13) ?
F11 B1 N10 C9 . . . . 70.86(11) ?
O2 B1 N10 C9 . . . . -169.79(8) ?
O2 C3 N13 C14 . . . . -176.83(9) ?
N4 C3 N13 C14 . . . . 1.94(15) ?
O2 C3 N13 C15 . . . . 10.31(15) ?
N4 C3 N13 C15 . . . . -170.92(9) ?

_cod_database_fobs_code 2022507
