#------------------------------------------------------------------------------
#$Date: 2020-04-10 08:12:25 +0300 (Fri, 10 Apr 2020) $
#$Revision: 250606 $
#$URL: file:///home/coder/svn-repositories/cod/cif/2/02/20/2022027.cif $
#------------------------------------------------------------------------------
#
# This file is available in the Crystallography Open Database (COD),
# http://www.crystallography.net/. The original data for this entry
# were provided by IUCr Journals, http://journals.iucr.org/.
#
# The file may be used within the scientific community so long as
# proper attribution is given to the journal article from which the
# data were obtained.
#
data_2022027
loop_
_publ_author_name
'Jha, Kunal Kumar'
'Gruza, Barbara'
'Kumar, Prashant'
'Chodkiewicz, Michal Leszek'
'Dominiak, Paulina Maria'
_publ_section_title
;
 TAAM: a reliable and user friendly tool for hydrogen-atom location using
 routine X-ray diffraction data
;
_journal_issue                   3
_journal_name_full
'Acta Crystallographica Section B Structural Science, Crystal Engineering and Materials'
_journal_paper_doi               10.1107/S2052520620002917
_journal_volume                  76
_journal_year                    2020
_chemical_absolute_configuration unk
_chemical_formula_moiety         '2(Cl), C6 H16 N2 O3, H2 O'
_chemical_formula_sum            'C6 H18 Cl2 N2 O4'
_chemical_formula_weight         253.13
_space_group_crystal_system      triclinic
_space_group_IT_number           1
_space_group_name_Hall           'P 1'
_space_group_name_H-M_alt        'P 1'
_symmetry_Int_Tables_number      1
_audit_creation_date             2019-09-26
_audit_creation_method
;
Olex2 1.2
(compiled 2018.05.29 svn.r3508 for OlexSys, GUI svn.r5506)
;
_cell_angle_alpha                79.382(4)
_cell_angle_beta                 73.191(5)
_cell_angle_gamma                69.544(5)
_cell_formula_units_Z            1
_cell_length_a                   5.4491(3)
_cell_length_b                   7.3962(4)
_cell_length_c                   8.1337(4)
_cell_measurement_temperature    100
_cell_volume                     292.75(3)
_computing_molecular_graphics    'Olex2 (Dolomanov et al., 2009)'
_computing_publication_material  'Olex2 (Dolomanov et al., 2009)'
_computing_structure_refinement  'olex2.refine (Bourhis et al., 2015)'
_diffrn_ambient_temperature      100
_diffrn_measured_fraction_theta_full 0.9959
_diffrn_measured_fraction_theta_max 0.9959
_diffrn_measurement_device_type  'Oxford Diffraction Xcalibur S'
_diffrn_radiation_type           'Mo K\a'
_diffrn_radiation_wavelength     0.7107
_diffrn_reflns_av_R_equivalents  0.0000
_diffrn_reflns_av_unetI/netI     0.0261
_diffrn_reflns_limit_h_max       12
_diffrn_reflns_limit_h_min       -12
_diffrn_reflns_limit_k_max       16
_diffrn_reflns_limit_k_min       -16
_diffrn_reflns_limit_l_max       18
_diffrn_reflns_limit_l_min       -18
_diffrn_reflns_number            12708
_diffrn_reflns_theta_full        26.4976
_diffrn_reflns_theta_max         26.50
_diffrn_reflns_theta_min         3.77
_exptl_absorpt_coefficient_mu    0.549
_exptl_crystal_density_diffrn    1.4357
_exptl_crystal_F_000             134.3603
_refine_diff_density_max         0.3038
_refine_diff_density_min         -0.0985
_refine_diff_density_rms         0.0413
_refine_ls_abs_structure_details
'Flack, H. D. (1983). Acta Cryst. A39, 876-881.'
_refine_ls_abs_structure_Flack   0.01(2)
_refine_ls_d_res_high            0.7965
_refine_ls_d_res_low             5.4094
_refine_ls_goodness_of_fit_ref   1.0353
_refine_ls_hydrogen_treatment    refall
_refine_ls_matrix_type           full
_refine_ls_number_constraints    0
_refine_ls_number_parameters     199
_refine_ls_number_reflns         2436
_refine_ls_number_restraints     3
_refine_ls_restrained_S_all      1.0353
_refine_ls_R_factor_all          0.0175
_refine_ls_R_factor_gt           0.0172
_refine_ls_shift/su_max          0.0006
_refine_ls_shift/su_mean         0.0000
_refine_ls_structure_factor_coef Fsqd
_refine_ls_weighting_details
'w=1/[\s^2^(Fo^2^)+(0.0335P)^2^] where P=(Fo^2^+2Fc^2^)/3'
_refine_ls_weighting_scheme      calc
_refine_ls_wR_factor_gt          0.0407
_refine_ls_wR_factor_ref         0.0408
_reflns_Friedel_coverage         0.994
_reflns_limit_h_max              6
_reflns_limit_h_min              -6
_reflns_limit_k_max              9
_reflns_limit_k_min              -9
_reflns_limit_l_max              10
_reflns_limit_l_min              -10
_reflns_number_gt                2401
_reflns_number_total             2436
_reflns_threshold_expression     I>=2u(I)
_iucr_refine_instructions_details
;
TITL L-hydroxylysine3
CELL 0.71073 5.4491 7.3962 8.1337 79.382 73.191 69.544
ZERR 1 0 0 0 0 0 0
LATT -1
SFAC C H N O Cl
UNIT 6 18 2 4 2

ACTA 
BOND $H
OMIT -10 53
WGHT 0.033532 0
FVAR 1.014271
REM <olex2.extras>
REM <HklSrc "%.\\808328bb618966ca663538082d8df677.hkl">
REM </olex2.extras>

Cl(1  5     0.80718  0.22589  0.15310  11.00000  0.01406  0.01256  0.02276 =
 0.00058 -0.00735 -0.00332 

Cl(2  5     0.73971  0.55302  0.62207  11.00000  0.01611  0.01507  0.01656 =
 0.00125 -0.00622 -0.00654 

O(1)  4     1.30650 -0.53646  1.04093  11.00000  0.01341  0.02239  0.02397 =
 -0.00830 -0.00802 -0.00033 
H(1)  2     1.47096 -0.60022  1.06831  11.00000  0.03098 
O(2)  4     1.24226 -0.35417  1.25073  11.00000  0.01367  0.02314  0.02318 =
 -0.00782 -0.00857 -0.00115 
O(3)  4     0.78905 -0.03685  0.60297  11.00000  0.01717  0.01660  0.01493 =
 0.00007 -0.00236 -0.00415 
H(3)  2     0.75684 -0.17384  0.62394  11.00000  0.03194 
N(1)  3     0.71902 -0.18629  1.26786  11.00000  0.01345  0.01487  0.01385 =
 0.00032 -0.00297 -0.00257 
H(1a  2     0.78194 -0.06057  1.26404  11.00000  0.04035 
H(1b  2     0.50831 -0.12500  1.27438  11.00000  0.03562 
H(1c  2     0.74149 -0.26907  1.38868  11.00000  0.02955 
N(2)  3     0.37623  0.32145  0.56010  11.00000  0.01492  0.01353  0.01630 =
 0.00104 -0.00637 -0.00478 
H(2a  2     0.48028  0.24765  0.44995  11.00000  0.02367 
H(2b  2     0.18214  0.41561  0.54355  11.00000  0.03356 
H(2c  2     0.47891  0.41491  0.56840  11.00000  0.04732 
C(1)  1     1.16220 -0.40153  1.14592  11.00000  0.01009  0.01390  0.01550 =
 -0.00009 -0.00517 -0.00409 
C(2)  1     0.87709 -0.30534  1.12053  11.00000  0.00963  0.01251  0.01559 =
 0.00122 -0.00516 -0.00357 
H(2)  2     0.79202 -0.41679  1.12929  11.00000  0.03006 
C(3)  1     0.88526 -0.18084  0.94698  11.00000  0.01119  0.01572  0.01260 =
 0.00060 -0.00408 -0.00317 
H(3a  2     0.98756 -0.07505  0.94334  11.00000  0.03247 
H(3b  2     1.00725 -0.27906  0.84524  11.00000  0.03021 
C(4)  1     0.60496 -0.06844  0.91574  11.00000  0.01083  0.01576  0.01315 =
 0.00059 -0.00415 -0.00382 
H(4a  2     0.50576 -0.16779  0.90632  11.00000  0.02562 
H(4b  2     0.47909  0.02028  1.02308  11.00000  0.02316 
C(5)  1     0.62755  0.06686  0.74982  11.00000  0.01130  0.01296  0.01375 =
 0.00051 -0.00466 -0.00418 
H(5)  2     0.73093  0.16211  0.75941  11.00000  0.03191 
C(6)  1     0.35051  0.18467  0.71996  11.00000  0.01169  0.01662  0.01578 =
 0.00067 -0.00579 -0.00376 
H(6a  2     0.23459  0.26325  0.82704  11.00000  0.04123 
H(6b  2     0.24962  0.08098  0.71161  11.00000  0.04395 

O(1W  4     0.21620  0.07574  0.38416  11.00000  0.01187  0.02376  0.02131 =
 -0.00486 -0.00409 -0.00455 
H(1d  2     0.09970  0.02926  0.45764  11.00000  0.03842 
H(1e  2     0.12668  0.15228  0.29571  11.00000  0.03165 
HKLF 4

END
Q1 1 0.888889 0.125 0.08 11 0.05 0.3
Q2 1 0.777778 0.5 0.56 11 0.05 0.29
Q3 1 0.666667 0.666667 0.68 11 0.05 0.29
Q4 1 0.722222 0.291667 0.24 11 0.05 0.27
Q5 1 1.222222 -0.416667 1.04 11 0.05 0.15
Q6 1 0.888889 -0.166667 0.6 11 0.05 0.14
Q7 1 0.722222 0 0.68 11 0.05 0.14
Q8 1 0.777778 -0.208333 1.16 11 0.05 0.13
Q9 1 0.277778 0.291667 0.8 11 0.05 0.1
Q10 1 0.277778 -0.041667 0.32 11 0.05 0.1
Q11 1 1.166667 -0.25 1.32 11 0.05 0.1
Q12 1 0.111111 0.208333 0.44 11 0.05 0.09
Q13 1 0.388889 0.166667 0.6 11 0.05 0.09
Q14 1 0.833333 -0.083333 1 11 0.05 0.09
Q15 1 0.666667 -0.083333 1.36 11 0.05 0.09
Q16 1 1.277778 -0.708333 1.04 11 0.05 0.08
Q17 1 0.833333 -0.333333 1.24 11 0.05 0.08
Q18 1 0.444444 0.083333 0.72 11 0.05 0.07
Q19 1 0.277778 0.458333 0.6 11 0.05 0.07
Q20 1 0.777778 -0.416667 1.08 11 0.05 0.07

  REM The information below was added by Olex2.
  REM
  REM R1 = 0.0172 for 2401 Fo > 4sig(Fo) and 0.0175 for all 2436 data
  REM 199 parameters refined using 3 restraints
  REM Highest difference peak 0.3038, deepest hole -0.0985
  REM Mean Shift 0.0000, Max Shift 0.0006.

  REM +++ Tabular Listing of Refinement Information +++
  REM R1_all = 0.0175
  REM R1_gt = 0.0172
  REM wR_ref = 0.0408
  REM GOOF = 1.0353
  REM Shift_max = 0.0006
  REM Shift_mean = 0.0000
  REM Reflections_all = 2436
  REM Reflections_gt = 2401
  REM Parameters = 199
  REM Hole = -0.0985
  REM Peak = 0.3038
  REM Flack = 0.01(2)

  
;
_cod_data_source_file            41_TAAM_iso_0.8.cif
_cod_data_source_block           41_TAAM_iso_0.8
_cod_original_sg_symbol_Hall     ' P 1'
_cod_database_code               2022027
_olex2_refinement_description
;
;
_iucr_refine_fcf_details
;
data_L-hydroxylysine3
_computing_structure_refinement   'olex2.refine (Bourhis et al., 2015)'
_shelx_refln_list_code            4
loop_
  _space_group_symop_id
  _space_group_symop_operation_xyz
  1  x,y,z

_space_group_crystal_system       triclinic
_space_group_IT_number            1
_space_group_name_H-M_alt         'P 1'
_space_group_name_Hall            ' P 1'
_symmetry_space_group_name_H-M    'P 1'
_symmetry_space_group_name_Hall   ' P 1'
_symmetry_Int_Tables_number       1
_cell_length_a                    5.4491
_cell_length_b                    7.3962
_cell_length_c                    8.1337
_cell_angle_alpha                 79.382
_cell_angle_beta                  73.191
_cell_angle_gamma                 69.544
_cell_volume                      292.747821
loop_
  _refln_index_h
  _refln_index_k
  _refln_index_l
  _refln_F_squared_calc
  _refln_F_squared_meas
  _refln_F_squared_sigma
  _refln_F_squared_weight
  _refln_observed_status
-6 -7 -3 21.000 20.822 0.496 118.731 o
-6 -6 -5 161.079 160.273 0.992 2.918 o
-6 -6 -4 50.501 51.412 0.603 26.864 o
-6 -6 -3 58.814 58.518 0.758 19.707 o
-6 -6 -2 37.650 38.046 0.554 45.877 o
-6 -6 -1 54.496 57.507 0.622 22.782 o
-6 -6 0 19.792 20.054 0.369 151.039 o
-6 -5 -6 81.510 80.214 0.651 11.224 o
-6 -5 -5 40.084 40.214 0.496 42.660 o
-6 -5 -4 19.438 19.742 0.486 131.812 o
-6 -5 -3 129.220 132.132 1.322 4.216 o
-6 -5 -2 113.894 118.776 1.186 5.345 o
-6 -5 -1 80.971 82.275 0.758 10.929 o
-6 -5 0 44.402 44.170 0.525 35.305 o
-6 -5 1 19.039 18.761 0.428 149.555 o
-6 -4 -7 60.142 57.215 0.583 20.513 o
-6 -4 -6 8.163 7.679 0.282 579.195 o
-6 -4 -5 63.885 66.625 0.787 16.424 o
-6 -4 -4 57.797 58.926 1.137 17.205 o
-6 -4 -3 42.916 45.424 0.982 28.149 o
-6 -4 -2 17.871 17.273 0.914 73.960 o
-6 -4 -1 20.855 21.142 0.972 60.984 o
-6 -4 0 150.888 158.407 1.128 3.164 o
-6 -4 1 6.732 6.659 0.292 646.797 o
-6 -3 -7 51.670 49.769 0.593 26.741 o
-6 -3 -6 19.755 19.383 0.418 144.273 o
-6 -3 -5 84.942 88.234 1.030 9.347 o
-6 -3 -4 11.214 10.916 0.748 125.470 o
-6 -3 -3 78.653 83.082 1.682 8.731 o
-6 -3 -2 17.396 17.575 0.865 80.400 o
-6 -3 -1 117.998 123.889 2.012 4.336 o
-6 -3 0 21.051 21.230 0.535 111.474 o
-6 -3 1 74.432 74.965 0.943 12.272 o
-6 -3 2 18.474 18.518 0.457 147.911 o
-6 -2 -7 3.238 2.945 0.233 1338.990 o
-6 -2 -6 119.777 119.204 1.040 5.111 o
-6 -2 -5 30.746 31.864 0.651 57.978 o
-6 -2 -4 293.337 304.769 3.111 0.805 o
-6 -2 -3 99.013 104.224 1.769 6.032 o
-6 -2 -2 51.347 46.358 5.959 2.291 o
-6 -2 -1 35.505 31.573 6.484 2.023 o
-6 -2 0 37.946 38.999 0.836 37.361 o
-6 -2 1 52.531 52.287 0.690 24.575 o
-6 -2 2 5.891 5.531 0.282 750.312 o
-6 -1 -6 78.637 77.658 0.972 11.188 o
-6 -1 -5 0.969 0.826 0.331 796.131 o
-6 -1 -4 4.485 4.141 0.544 276.032 o
-6 -1 -3 8.730 5.959 5.580 2.812 o
-6 -1 -2 73.696 83.393 7.786 1.304 o
-6 -1 -1 40.744 41.837 1.215 25.979 o
-6 -1 0 72.908 78.999 1.186 11.362 o
-6 -1 1 25.390 25.662 0.457 93.444 o
-6 0 -5 82.891 79.291 1.205 9.794 o
-6 0 -4 1.285 1.205 0.262 1241.400 o
-6 0 -3 181.604 180.647 1.759 2.190 o
-6 0 -2 10.402 10.547 0.515 225.963 o
-6 0 -1 38.807 39.378 0.710 39.629 o
-6 0 0 4.987 4.928 0.350 584.009 o
-6 0 1 70.693 71.330 0.914 13.521 o
-6 1 -4 40.790 40.185 0.914 32.643 o
-6 1 -3 4.542 4.471 0.340 632.435 o
-6 1 -2 61.947 62.863 0.894 17.009 o
-6 1 -1 168.368 165.639 1.750 2.536 o
-5 -8 -4 61.592 59.636 1.303 14.938 o
-5 -8 -3 70.581 68.229 1.040 13.373 o
-5 -8 -2 34.546 33.740 0.661 49.897 o
-5 -8 -1 36.186 35.052 0.593 48.914 o
-5 -7 -6 21.182 20.617 0.525 113.763 o
-5 -7 -5 43.738 45.065 1.128 25.308 o
-5 -7 -4 78.891 76.472 1.944 8.248 o
-5 -7 -3 6.562 5.444 0.476 324.963 o
-5 -7 -2 46.947 46.289 1.069 24.378 o
-5 -7 -1 6.312 5.891 0.340 553.187 o
-5 -7 0 88.041 85.036 0.855 9.483 o
-5 -7 1 1.862 1.915 0.243 1391.770 o
-5 -6 -7 37.924 36.695 0.457 48.975 o
-5 -6 -6 16.728 17.060 0.593 130.848 o
-5 -6 -5 134.044 135.009 1.409 3.936 o
-5 -6 -4 25.178 24.146 0.778 67.573 o
-5 -6 -3 129.787 132.054 1.682 3.989 o
-5 -6 -2 2.952 3.013 0.379 570.899 o
-5 -6 -1 231.071 224.886 2.197 1.375 o
-5 -6 0 24.002 22.678 0.632 85.716 o
-5 -6 1 176.385 174.815 1.468 2.375 o
-5 -6 2 17.410 17.273 0.389 178.937 o
-5 -5 -8 63.730 62.873 0.622 17.855 o
-5 -5 -7 23.887 23.436 0.486 100.858 o
-5 -5 -6 155.544 165.250 1.886 2.750 o
-5 -5 -5 3.070 2.800 0.321 777.088 o
-5 -5 -4 21.617 21.764 0.710 85.053 o
-5 -5 -3 101.423 102.367 1.876 5.787 o
-5 -5 -2 2.253 1.973 0.331 766.293 o
-5 -5 -1 65.194 65.410 1.137 14.421 o
-5 -5 0 81.619 82.576 1.254 9.617 o
-5 -5 1 155.079 150.834 1.439 3.065 o
-5 -5 2 10.863 10.343 0.467 253.388 o
-5 -5 3 105.812 102.747 1.060 6.512 o
-5 -4 -8 17.775 17.341 0.350 185.861 o
-5 -4 -7 57.947 56.972 1.147 17.374 o
-5 -4 -6 81.078 79.019 1.050 10.482 o
-5 -4 -5 59.209 61.697 0.875 18.206 o
-5 -4 -4 219.704 228.162 1.546 1.511 o
-5 -4 -3 431.703 460.736 8.185 0.307 o
-5 -4 -2 225.966 239.583 2.634 1.316 o
-5 -4 -1 25.860 27.091 0.923 53.857 o
-5 -4 0 94.202 98.479 1.283 7.354 o
-5 -4 1 7.449 7.485 0.447 334.133 o
-5 -4 2 88.134 87.009 1.964 7.009 o
-5 -4 3 36.424 37.395 0.612 46.330 o
-5 -4 4 29.399 28.559 0.457 75.484 o
-5 -3 -8 76.269 76.025 0.719 12.453 o
-5 -3 -7 77.714 77.007 1.283 10.448 o
-5 -3 -6 23.367 23.728 0.700 79.019 o
-5 -3 -5 179.628 181.406 1.643 2.237 o
-5 -3 -4 93.576 96.214 0.972 7.992 o
-5 -3 -3 26.956 28.442 0.710 64.936 o
-5 -3 -2 190.654 200.866 2.294 1.843 o
-5 -3 -1 125.389 133.726 1.847 4.009 o
-5 -3 0 5.783 5.803 0.505 299.194 o
-5 -3 1 109.440 128.321 9.030 0.908 o
-5 -3 2 3.246 2.906 0.535 295.491 o
-5 -3 3 151.691 153.439 1.341 3.147 o
-5 -3 4 65.663 64.253 0.710 16.606 o
-5 -2 -8 74.958 72.068 0.817 12.856 o
-5 -2 -7 17.317 17.001 0.651 115.841 o
-5 -2 -6 167.500 166.144 1.691 2.562 o
-5 -2 -5 15.565 16.068 0.535 155.493 o
-5 -2 -4 58.871 62.241 1.361 14.870 o
-5 -2 -3 15.320 15.815 0.719 111.458 o
-5 -2 -2 205.182 213.532 2.236 1.636 o
-5 -2 -1 110.845 114.353 8.000 1.123 o
-5 -2 0 10.683 10.022 0.564 198.939 o
-5 -2 1 117.982 119.602 8.797 0.941 o
-5 -2 2 36.665 31.573 4.841 3.536 o
-5 -2 3 126.007 134.659 10.061 0.732 o
-5 -2 4 78.954 79.058 0.972 11.020 o
-5 -1 -8 33.745 32.272 0.428 61.500 o
-5 -1 -7 40.404 40.204 1.254 25.785 o
-5 -1 -6 55.087 50.916 5.482 2.634 o
-5 -1 -5 109.437 109.502 1.837 5.207 o
-5 -1 -4 123.826 129.177 1.857 4.140 o
-5 -1 -3 16.372 15.942 0.680 115.553 o
-5 -1 -2 69.721 69.949 1.215 12.614 o
-5 -1 -1 13.793 13.327 2.207 17.274 o
-5 -1 0 287.402 316.298 13.618 0.308 o
-5 -1 1 6.561 4.831 4.783 3.828 o
-5 -1 2 111.790 118.300 8.953 0.926 o
-5 -1 3 8.609 7.057 5.910 2.506 o
-5 -1 4 73.293 69.930 1.128 12.306 o
-5 0 -8 7.523 7.407 0.262 665.196 o
-5 0 -7 110.737 106.907 1.157 5.923 o
-5 0 -6 1.694 1.157 5.366 3.047 o
-5 0 -5 212.669 214.951 11.334 0.488 o
-5 0 -4 19.274 17.040 4.326 4.593 o
-5 0 -3 200.364 211.141 11.052 0.519 o
-5 0 -2 22.188 19.091 4.753 3.798 o
-5 0 -1 129.077 137.760 9.137 0.851 o
-5 0 0 47.165 44.909 5.424 2.755 o
-5 0 1 29.596 26.382 3.898 5.446 o
-5 0 2 84.325 85.891 7.961 1.227 o
-5 0 3 21.927 21.230 0.535 107.628 o
-5 0 4 73.689 71.748 0.865 13.001 o
-5 1 -7 62.672 60.763 0.787 17.732 o
-5 1 -6 23.562 22.280 0.574 94.253 o
-5 1 -5 26.300 21.201 6.114 2.305 o
-5 1 -4 118.846 116.851 8.787 0.944 o
-5 1 -3 75.403 67.189 6.756 1.701 o
-5 1 -2 50.813 45.745 5.696 2.495 o
-5 1 -1 92.945 99.597 8.107 1.156 o
-5 1 0 60.850 64.642 6.814 1.728 o
-5 1 1 88.461 87.553 7.864 1.243 o
-5 1 2 0.118 0.010 0.068 18915.400 o
-5 1 3 19.779 19.130 0.389 150.857 o
-5 2 -6 195.543 195.568 1.409 1.950 o
-5 2 -5 9.718 8.846 0.311 445.984 o
-5 2 -4 67.338 67.937 1.516 11.809 o
-5 2 -3 6.792 7.786 6.523 2.059 o
-5 2 -2 98.704 98.897 8.603 1.032 o
-5 2 -1 8.540 7.057 4.481 4.353 o
-5 2 0 41.456 45.201 5.968 2.329 o
-5 2 1 38.356 39.009 0.953 33.994 o
-5 2 2 100.138 99.111 0.875 7.332 o
-5 3 -4 0.737 0.671 0.262 1262.940 o
-5 3 -3 119.354 118.824 1.478 4.832 o
-5 3 -2 23.132 22.746 0.564 96.097 o
-5 3 -1 76.164 75.704 1.166 11.165 o
-5 3 0 168.054 168.166 1.730 2.523 o
-5 3 1 102.910 101.493 0.914 6.943 o
-4 -8 -6 22.744 21.862 0.632 90.818 o
-4 -8 -5 47.458 48.282 0.904 25.960 o
-4 -8 -4 26.397 25.837 0.826 60.283 o
-4 -8 -3 14.860 14.318 0.525 169.406 o
-4 -8 -2 22.755 22.212 0.642 89.097 o
-4 -8 -1 25.562 24.447 0.651 77.106 o
-4 -8 0 65.420 64.438 1.060 14.901 o
-4 -8 1 67.063 66.217 0.904 15.042 o
-4 -7 -7 44.583 43.752 0.748 31.697 o
-4 -7 -6 59.579 59.393 1.011 17.527 o
-4 -7 -5 64.788 63.456 1.225 14.251 o
-4 -7 -4 77.747 76.822 1.264 10.518 o
-4 -7 -3 36.568 35.120 0.700 44.893 o
-4 -7 -2 246.192 240.439 1.827 1.245 o
-4 -7 -1 14.778 14.474 0.428 206.336 o
-4 -7 0 149.747 142.154 1.439 3.318 o
-4 -7 1 73.367 71.738 1.108 12.199 o
-4 -7 2 116.216 113.371 1.439 5.157 o
-4 -7 3 20.418 19.490 0.418 139.379 o
-4 -6 -8 5.351 5.026 0.301 720.734 o
-4 -6 -7 78.802 81.050 1.166 10.349 o
-4 -6 -6 29.631 29.716 0.700 59.313 o
-4 -6 -5 228.715 220.288 2.148 1.415 o
-4 -6 -4 33.430 33.400 0.817 45.627 o
-4 -6 -3 93.745 92.627 1.273 7.678 o
-4 -6 -2 1.748 1.536 0.243 1409.900 o
-4 -6 -1 156.840 153.605 1.371 3.008 o
-4 -6 0 27.491 25.993 0.612 73.454 o
-4 -6 1 53.340 53.424 0.904 21.823 o
-4 -6 2 81.458 81.391 1.166 9.949 o
-4 -6 3 42.839 42.936 0.729 33.764 o
-4 -6 4 89.910 89.293 0.807 9.044 o
-4 -5 -9 6.165 6.114 0.292 687.804 o
-4 -5 -8 43.320 43.169 0.564 36.203 o
-4 -5 -7 35.218 35.645 0.768 43.956 o
-4 -5 -6 261.220 254.524 1.847 1.113 o
-4 -5 -5 31.270 31.475 0.642 57.868 o
-4 -5 -4 85.012 84.763 1.225 9.128 o
-4 -5 -3 211.645 202.849 2.430 1.598 o
-4 -5 -2 49.773 52.180 0.748 25.528 o
-4 -5 -1 241.175 248.128 1.653 1.264 o
-4 -5 0 0.506 0.505 0.204 2090.720 o
-4 -5 1 46.878 47.631 1.011 24.925 o
-4 -5 2 14.443 14.396 0.612 144.025 o
-4 -5 3 31.473 30.367 0.739 53.697 o
-4 -5 4 4.790 5.337 0.350 583.807 o
-4 -5 5 52.783 53.619 0.622 24.690 o
-4 -4 -9 135.075 135.991 0.904 4.094 o
-4 -4 -8 137.538 137.478 1.691 3.636 o
-4 -4 -7 74.343 71.660 1.244 11.521 o
-4 -4 -6 67.334 70.649 1.166 13.236 o
-4 -4 -5 15.413 15.893 0.467 178.882 o
-4 -4 -4 298.722 310.718 1.915 0.822 o
-4 -4 -3 1.085 1.235 0.369 636.166 o
-4 -4 -2 130.920 140.268 1.400 3.959 o
-4 -4 -1 11.800 12.190 0.457 237.882 o
-4 -4 0 461.482 486.865 5.784 0.311 o
-4 -4 1 20.045 20.229 0.496 125.257 o
-4 -4 2 195.440 189.542 1.925 1.916 o
-4 -4 3 3.113 3.538 0.379 563.651 o
-4 -4 4 156.050 152.448 1.876 2.878 o
-4 -4 5 36.271 34.984 0.496 51.898 o
-4 -3 -9 81.018 80.710 0.729 11.113 o
-4 -3 -8 23.180 21.667 0.719 80.069 o
-4 -3 -7 102.196 100.968 1.293 6.585 o
-4 -3 -6 16.656 16.875 0.574 136.301 o
-4 -3 -5 125.519 128.380 1.137 4.550 o
-4 -3 -4 41.864 40.263 0.622 38.012 o
-4 -3 -3 7.387 7.485 0.292 596.976 o
-4 -3 -2 62.574 65.449 1.225 14.527 o
-4 -3 -1 27.350 29.074 0.603 70.741 o
-4 -3 0 71.192 76.268 0.943 12.784 o
-4 -3 1 73.907 74.013 0.972 12.368 o
-4 -3 2 235.900 246.038 2.761 1.218 o
-4 -3 3 24.004 22.727 0.700 78.678 o
-4 -3 4 72.034 70.241 1.225 12.119 o
-4 -3 5 7.601 7.417 0.408 380.416 o
-4 -2 -9 8.429 8.243 0.399 369.266 o
-4 -2 -8 78.215 76.472 1.186 10.720 o
-4 -2 -7 54.322 51.830 0.768 23.042 o
-4 -2 -6 166.081 160.360 1.400 2.719 o
-4 -2 -5 66.378 68.880 0.992 14.470 o
-4 -2 -4 400.418 405.407 6.882 0.383 o
-4 -2 -3 606.978 627.678 11.101 0.160 o
-4 -2 -2 486.496 504.041 7.757 0.264 o
-4 -2 -1 137.526 145.449 1.623 3.548 o
-4 -2 0 110.913 121.857 2.780 3.901 o
-4 -2 1 158.983 171.432 1.964 2.597 o
-4 -2 2 1.478 1.341 0.369 632.226 o
-4 -2 3 147.216 147.325 2.139 3.030 o
-4 -2 4 17.463 17.196 0.836 84.489 o
-4 -2 5 165.915 167.923 2.430 2.364 o
-4 -2 6 10.176 9.555 0.331 396.961 o
-4 -1 -9 38.565 37.434 0.603 43.796 o
-4 -1 -7 65.817 63.689 1.400 13.043 o
-4 -1 -6 219.144 212.842 2.586 1.470 o
-4 -1 -5 59.178 54.999 0.875 19.408 o
-4 -1 -4 119.202 118.445 1.118 5.112 o
-4 -1 -3 6.392 5.920 0.447 360.034 o
-4 -1 -2 107.167 108.919 1.380 5.864 o
-4 -1 -1 54.786 54.581 0.943 20.613 o
-4 -1 0 254.980 284.453 11.188 0.430 o
-4 -1 1 39.544 36.258 0.992 33.161 o
-4 -1 2 246.120 263.117 6.950 0.734 o
-4 -1 3 69.196 67.947 1.487 11.648 o
-4 -1 4 159.680 157.823 2.313 2.595 o
-4 -1 5 31.387 30.746 1.118 37.451 o
-4 -1 6 43.248 42.683 0.583 36.174 o
-4 0 -9 100.699 101.541 0.797 7.249 o
-4 0 -8 27.078 27.636 1.079 43.861 o
-4 0 -7 154.796 150.319 2.323 2.756 o
-4 0 -6 0.535 0.350 0.340 756.208 o
-4 0 -5 369.273 357.756 12.792 0.280 o
-4 0 -4 13.389 11.091 3.062 9.181 o
-4 0 -3 192.335 196.754 1.905 1.913 o
-4 0 -2 190.153 201.780 9.400 0.671 o
-4 0 -1 224.730 241.488 10.362 0.525 o
-4 0 0 59.276 63.038 5.512 2.543 o
-4 0 1 57.626 50.479 5.094 2.986 o
-4 0 2 28.253 28.219 1.011 45.716 o
-4 0 3 58.932 57.731 1.458 14.674 o
-4 0 4 55.329 53.415 1.468 15.898 o
-4 0 5 99.762 100.015 1.390 6.675 o
-4 0 6 32.042 31.329 0.583 59.370 o
-4 1 -8 77.749 75.879 0.865 11.796 o
-4 1 -7 52.827 50.498 1.497 16.591 o
-4 1 -6 124.471 120.059 2.187 4.025 o
-4 1 -5 73.483 71.048 6.260 1.944 o
-4 1 -4 23.679 20.160 3.879 5.619 o
-4 1 -3 38.306 36.297 4.442 4.113 o
-4 1 -2 114.414 116.997 7.660 1.192 o
-4 1 -1 145.280 150.426 8.632 0.888 o
-4 1 0 41.180 36.287 4.510 3.969 o
-4 1 1 423.675 451.852 11.101 0.263 o
-4 1 2 113.319 112.866 1.993 4.775 o
-4 1 3 272.241 269.153 3.256 0.940 o
-4 1 4 2.670 2.887 0.574 260.012 o
-4 1 5 54.341 53.667 0.865 21.706 o
-4 2 -7 0.861 0.894 0.272 1170.640 o
-4 2 -6 60.957 60.647 1.701 12.429 o
-4 2 -5 41.484 38.698 1.303 24.738 o
-4 2 -4 215.158 216.643 11.286 0.488 o
-4 2 -3 3.757 2.547 3.956 5.600 o
-4 2 -2 115.676 123.743 8.321 1.032 o
-4 2 -1 2.242 1.050 7.806 1.440 o
-4 2 0 81.921 81.147 1.750 8.307 o
-4 2 1 65.949 64.788 1.604 11.845 o
-4 2 2 30.050 28.987 1.166 37.293 o
-4 2 3 52.892 50.285 1.536 16.239 o
-4 2 4 55.858 55.505 1.098 18.664 o
-4 2 5 31.921 31.534 0.525 62.126 o
-4 3 -6 48.621 50.790 0.719 26.948 o
-4 3 -5 138.830 138.188 2.634 3.073 o
-4 3 -4 38.753 37.269 1.351 25.270 o
-4 3 -3 185.127 183.651 10.916 0.557 o
-4 3 -2 68.099 63.563 6.474 1.871 o
-4 3 -1 138.731 132.336 9.060 0.851 o
-4 3 0 75.834 72.797 1.750 9.376 o
-4 3 1 32.533 31.047 1.215 33.348 o
-4 3 2 44.240 43.587 1.487 19.978 o
-4 3 3 14.232 13.930 0.486 190.381 o
-4 3 4 75.665 74.722 0.700 12.761 o
-4 4 -5 68.877 71.932 0.758 14.456 o
-4 4 -4 22.310 22.163 0.496 109.246 o
-4 4 -3 67.844 68.618 1.196 13.202 o
-4 4 -2 3.290 2.284 7.174 1.704 o
-4 4 -1 55.455 48.428 6.143 2.144 o
-4 4 0 77.011 75.169 1.876 8.701 o
-4 4 1 93.792 92.812 2.139 6.094 o
-4 4 2 20.401 20.637 0.583 108.064 o
-4 4 3 39.520 39.096 0.574 42.326 o
-4 5 -2 96.222 97.566 0.992 7.634 o
-4 5 -1 45.530 46.377 0.700 30.783 o
-4 5 0 33.774 34.158 0.612 52.611 o
-3 -9 -4 10.967 10.965 0.943 85.642 o
-3 -9 -3 72.719 75.111 1.390 10.953 o
-3 -9 -2 29.871 30.610 0.894 48.207 o
-3 -9 -1 67.479 71.845 1.390 12.057 o
-3 -9 0 32.523 33.400 0.817 46.722 o
-3 -8 -6 19.342 19.169 0.778 85.758 o
-3 -8 -5 143.942 140.501 1.808 3.349 o
-3 -8 -4 96.341 97.770 1.429 6.972 o
-3 -8 -3 185.641 186.285 1.555 2.126 o
-3 -8 -2 8.582 8.593 0.496 266.908 o
-3 -8 -1 178.299 175.709 1.546 2.321 o
-3 -8 0 31.220 32.719 0.739 52.306 o
-3 -8 1 77.405 78.397 1.176 10.726 o
-3 -8 2 2.294 2.469 0.360 647.019 o
-3 -7 -8 66.192 67.335 0.914 15.077 o
-3 -7 -7 14.632 14.542 0.564 157.317 o
-3 -7 -6 130.732 131.257 1.409 4.127 o
-3 -7 -5 99.902 101.920 1.118 6.949 o
-3 -7 -4 87.728 86.095 1.264 8.648 o
-3 -7 -3 15.288 15.427 0.457 185.410 o
-3 -7 -2 141.725 137.255 1.526 3.589 o
-3 -7 -1 8.395 8.185 0.369 409.200 o
-3 -7 0 173.551 173.522 1.497 2.430 o
-3 -7 1 103.773 102.951 1.244 6.453 o
-3 -7 2 46.715 44.987 0.885 27.619 o
-3 -7 3 56.761 57.974 1.050 18.365 o
-3 -7 4 49.523 49.293 0.817 25.681 o
-3 -6 -8 5.342 4.734 0.399 465.268 o
-3 -6 -7 115.738 114.353 1.322 5.256 o
-3 -6 -6 9.052 8.885 0.428 320.231 o
-3 -6 -5 57.755 55.767 1.050 18.401 o
-3 -6 -4 43.524 42.207 0.797 32.219 o
-3 -6 -3 191.374 191.214 1.283 2.049 o
-3 -6 -2 41.535 41.060 0.612 38.139 o
-3 -6 -1 81.485 81.420 0.904 10.596 o
-3 -6 0 21.416 21.648 0.525 110.347 o
-3 -6 1 281.902 274.432 1.866 0.961 o
-3 -6 2 77.512 76.054 1.060 11.255 o
-3 -6 3 36.000 33.847 0.768 44.094 o
-3 -6 4 22.444 21.726 0.671 87.350 o
-3 -6 5 21.110 21.171 0.486 118.820 o
-3 -5 -9 41.868 42.722 0.748 34.291 o
-3 -5 -8 71.272 70.299 1.060 12.934 o
-3 -5 -7 95.679 95.369 1.157 7.556 o
-3 -5 -6 110.309 108.521 1.166 5.889 o
-3 -5 -5 140.942 137.818 1.157 3.758 o
-3 -5 -4 82.246 80.661 0.855 10.645 o
-3 -5 -3 107.953 105.303 0.894 6.408 o
-3 -5 -2 25.241 24.185 0.476 94.997 o
-3 -5 -1 257.953 253.882 1.478 1.151 o
-3 -5 0 38.711 38.688 0.632 42.102 o
-3 -5 1 216.803 214.854 1.546 1.597 o
-3 -5 2 10.620 10.362 0.408 300.987 o
-3 -5 3 258.396 252.881 1.866 1.132 o
-3 -5 4 18.281 18.284 0.583 122.520 o
-3 -5 5 124.562 123.772 1.351 4.569 o
-3 -5 6 34.771 35.538 0.544 52.345 o
-3 -4 -9 9.437 9.614 0.389 347.318 o
-3 -4 -8 51.094 50.673 0.885 23.697 o
-3 -4 -7 6.730 6.620 0.369 469.555 o
-3 -4 -6 162.974 159.427 1.351 2.806 o
-3 -4 -5 3.022 3.218 0.253 1176.020 o
-3 -4 -4 111.179 110.319 1.186 5.758 o
-3 -4 -3 183.350 176.390 1.419 2.257 o
-3 -4 -2 631.374 650.618 5.405 0.180 o
-3 -4 -1 50.426 51.743 0.622 26.613 o
-3 -4 0 258.910 263.039 1.847 1.102 o
-3 -4 1 87.125 85.901 0.923 9.424 o
-3 -4 2 167.726 168.545 1.662 2.543 o
-3 -4 3 218.035 205.202 1.925 1.593 o
-3 -4 4 49.493 50.246 0.846 25.081 o
-3 -4 5 54.963 53.833 0.923 20.870 o
-3 -4 6 62.975 64.127 0.622 17.899 o
-3 -3 -10 19.309 19.762 0.360 158.011 o
-3 -3 -9 53.328 52.569 0.885 22.209 o
-3 -3 -8 23.986 23.689 0.622 85.282 o
-3 -3 -7 133.790 127.184 1.555 4.008 o
-3 -3 -6 5.106 5.064 0.311 696.670 o
-3 -3 -5 400.065 389.932 5.492 0.424 o
-3 -3 -4 247.640 235.326 2.323 1.217 o
-3 -3 -3 167.008 166.932 1.380 2.638 o
-3 -3 -2 353.541 383.059 4.510 0.520 o
-3 -3 -1 90.485 93.891 0.778 8.734 o
-3 -3 0 140.463 154.655 1.011 3.548 o
-3 -3 1 102.236 110.815 1.157 6.376 o
-3 -3 2 64.827 68.384 0.817 15.759 o
-3 -3 3 46.514 47.193 0.885 27.084 o
-3 -3 4 99.867 99.840 1.108 7.051 o
-3 -3 5 48.768 48.321 0.826 26.259 o
-3 -3 6 82.116 82.149 1.108 9.955 o
-3 -3 7 6.415 6.260 0.233 877.596 o
-3 -2 -10 126.254 131.208 0.797 4.610 o
-3 -2 -9 85.958 87.407 1.118 9.089 o
-3 -2 -8 281.957 285.056 1.818 0.940 o
-3 -2 -7 130.050 125.755 1.186 4.385 o
-3 -2 -6 108.540 102.329 1.176 6.208 o
-3 -2 -5 127.558 125.473 1.662 4.205 o
-3 -2 -4 8.581 8.855 0.301 500.196 o
-3 -2 -3 328.616 346.160 4.831 0.588 o
-3 -2 -2 145.681 160.992 1.623 3.111 o
-3 -2 -1 888.480 969.774 6.095 0.090 o
-3 -2 0 125.831 133.493 1.458 4.246 o
-3 -2 1 691.901 759.489 6.785 0.141 o
-3 -2 2 1.874 1.915 0.233 1501.230 o
-3 -2 3 213.569 220.852 1.711 1.584 o
-3 -2 4 13.675 13.434 0.379 249.541 o
-3 -2 5 87.620 85.502 1.186 8.860 o
-3 -2 6 36.491 36.462 0.846 39.663 o
-3 -2 7 56.513 55.505 0.593 22.492 o
-3 -1 -9 5.661 4.899 0.642 197.360 o
-3 -1 -8 131.671 131.276 1.390 4.102 o
-3 -1 -7 37.641 34.858 0.496 49.804 o
-3 -1 -6 98.792 92.511 0.855 7.800 o
-3 -1 -5 54.990 51.908 0.807 22.348 o
-3 -1 -4 309.844 325.008 2.557 0.743 o
-3 -1 -3 22.254 22.396 0.651 89.202 o
-3 -1 -2 128.350 127.155 1.448 4.278 o
-3 -1 -1 30.592 30.532 2.216 14.711 o
-3 -1 0 191.353 199.175 2.168 1.866 o
-3 -1 1 88.562 92.550 1.176 8.379 o
-3 -1 2 91.769 94.329 1.001 8.238 o
-3 -1 3 27.037 26.401 0.574 77.083 o
-3 -1 4 188.726 183.495 1.507 2.110 o
-3 -1 5 59.102 56.642 0.894 18.991 o
-3 -1 6 18.014 17.662 0.826 84.119 o
-3 -1 7 28.926 29.385 0.486 73.902 o
-3 0 -9 97.907 98.644 1.089 7.299 o
-3 0 -8 2.687 2.595 0.331 748.689 o
-3 0 -7 194.169 191.107 1.594 1.972 o
-3 0 -6 152.564 146.859 1.273 3.232 o
-3 0 -5 308.912 295.428 7.368 0.553 o
-3 0 -4 115.804 115.063 6.202 1.640 o
-3 0 -3 459.385 469.835 8.243 0.284 o
-3 0 -2 460.087 479.215 12.161 0.223 o
-3 0 -1 811.088 860.874 16.389 0.084 o
-3 0 0 66.781 68.705 2.741 6.948 o
-3 0 1 87.971 91.617 1.341 8.165 o
-3 0 2 321.015 329.032 4.928 0.617 o
-3 0 3 3.701 4.403 0.437 420.218 o
-3 0 4 353.255 355.560 9.235 0.388 o
-3 0 5 2.380 2.488 0.437 443.249 o
-3 0 6 135.872 137.585 2.226 3.389 o
-3 0 7 7.832 7.845 0.301 548.765 o
-3 1 -9 13.339 12.909 0.467 212.146 o
-3 1 -8 51.882 50.479 1.439 17.398 o
-3 1 -7 52.226 51.500 1.380 17.744 o
-3 1 -6 32.910 32.146 1.060 37.784 o
-3 1 -5 286.674 275.141 2.848 0.895 o
-3 1 -4 38.234 38.824 4.034 4.891 o
-3 1 -3 290.361 287.749 10.382 0.434 o
-3 1 -2 75.304 66.392 4.996 2.844 o
-3 1 -1 192.194 212.735 5.930 1.101 o
-3 1 0 24.727 25.964 0.826 62.961 o
-3 1 1 629.796 621.058 9.001 0.168 o
-3 1 2 39.787 38.717 0.758 37.761 o
-3 1 3 151.678 152.652 1.857 2.981 o
-3 1 4 86.041 84.511 1.701 7.889 o
-3 1 5 81.245 80.865 1.750 8.386 o
-3 1 6 32.549 32.233 1.215 32.978 o
-3 1 7 62.954 63.427 0.710 17.607 o
-3 2 -8 72.576 73.264 0.982 12.669 o
-3 2 -7 60.829 59.743 1.614 13.064 o
-3 2 -6 284.431 286.184 3.315 0.857 o
-3 2 -5 13.518 13.453 0.758 112.508 o
-3 2 -4 406.968 383.924 7.242 0.379 o
-3 2 -3 20.071 16.467 1.905 21.765 o
-3 2 -2 164.280 167.233 5.385 1.469 o
-3 2 -1 138.294 140.268 1.837 3.497 o
-3 2 0 46.365 49.390 1.186 22.322 o
-3 2 1 187.208 182.990 2.313 1.986 o
-3 2 2 152.747 152.059 1.944 2.930 o
-3 2 3 53.227 52.997 1.322 17.815 o
-3 2 4 31.739 32.729 1.128 36.132 o
-3 2 5 43.851 42.586 1.380 21.788 o
-3 2 6 37.039 37.949 0.739 41.502 o
-3 3 -8 33.824 34.032 0.622 52.256 o
-3 3 -7 125.778 124.453 1.079 4.659 o
-3 3 -6 37.081 37.278 0.894 37.307 o
-3 3 -5 60.721 59.529 1.021 17.088 o
-3 3 -4 17.793 17.565 0.554 132.923 o
-3 3 -3 40.590 38.600 0.680 38.893 o
-3 3 -2 129.106 123.451 4.812 2.121 o
-3 3 -1 197.599 187.821 2.313 1.834 o
-3 3 0 340.201 338.578 3.227 0.626 o
-3 3 1 60.858 60.588 1.448 14.036 o
-3 3 2 482.438 487.808 11.393 0.223 o
-3 3 3 108.953 106.878 2.061 5.034 o
-3 3 4 90.950 89.381 1.973 6.702 o
-3 3 5 25.414 25.905 1.205 40.083 o
-3 3 6 56.180 58.809 0.700 21.136 o
-3 4 -7 24.324 24.233 0.447 101.583 o
-3 4 -6 46.141 46.319 0.612 31.611 o
-3 4 -5 126.825 124.521 1.575 4.311 o
-3 4 -4 52.563 52.588 0.972 21.646 o
-3 4 -3 66.228 64.749 1.691 11.364 o
-3 4 -2 41.853 41.711 1.303 23.956 o
-3 4 -1 17.560 17.137 0.836 84.346 o
-3 4 0 12.888 12.705 0.758 115.441 o
-3 4 1 25.193 23.553 1.001 52.046 o
-3 4 2 3.014 3.305 0.535 295.644 o
-3 4 3 120.675 120.176 2.313 4.046 o
-3 4 4 32.701 31.767 1.322 29.967 o
-3 4 5 72.178 72.107 0.758 13.645 o
-3 5 -5 5.519 5.920 0.262 836.969 o
-3 5 -4 170.238 177.002 1.934 2.358 o
-3 5 -3 9.354 9.983 0.846 107.235 o
-3 5 -2 192.619 193.624 3.033 1.718 o
-3 5 -1 23.105 23.028 0.748 75.678 o
-3 5 0 234.258 233.605 3.052 1.237 o
-3 5 1 54.409 52.093 1.536 15.682 o
-3 5 2 29.297 28.180 1.215 36.292 o
-3 5 3 59.498 59.772 0.894 18.304 o
-3 5 4 22.569 22.834 0.525 102.869 o
-3 6 -3 33.682 33.653 0.729 48.562 o
-3 6 -2 58.538 60.977 1.186 16.344 o
-3 6 -1 34.710 34.051 0.739 46.577 o
-3 6 0 72.410 72.438 0.875 13.167 o
-3 6 1 20.796 21.327 0.447 126.301 o
-3 6 2 38.845 38.989 0.583 42.979 o
-2 -9 -4 23.599 24.156 0.836 65.713 o
-2 -9 -3 127.387 137.216 2.352 3.547 o
-2 -9 -2 48.149 50.119 1.079 22.829 o
-2 -9 -1 58.100 62.299 1.264 15.727 o
-2 -9 0 50.241 52.715 0.982 22.516 o
-2 -8 -6 18.571 18.498 0.603 116.961 o
-2 -8 -5 103.525 104.146 1.507 6.105 o
-2 -8 -4 0.766 0.661 0.369 640.097 o
-2 -8 -3 37.535 38.678 1.166 29.465 o
-2 -8 -2 35.750 35.976 0.846 40.643 o
-2 -8 -1 117.553 121.089 1.254 5.035 o
-2 -8 0 14.971 14.989 0.632 134.656 o
-2 -8 1 71.981 72.671 1.341 11.448 o
-2 -8 2 17.820 18.897 0.603 119.382 o
-2 -8 3 91.559 94.280 1.108 8.091 o
-2 -7 -7 0.963 1.021 0.292 1018.520 o
-2 -7 -6 191.845 195.617 1.662 1.963 o
-2 -7 -5 35.328 34.440 0.846 41.870 o
-2 -7 -4 110.578 112.049 1.098 5.818 o
-2 -7 -3 32.155 31.747 0.680 54.290 o
-2 -7 -2 245.556 246.349 1.925 1.224 o
-2 -7 -1 6.932 6.979 0.340 515.911 o
-2 -7 0 66.302 64.477 1.098 14.478 o
-2 -7 1 89.914 91.762 1.060 8.485 o
-2 -7 2 53.056 51.908 0.729 24.025 o
-2 -7 3 61.052 61.424 0.855 17.758 o
-2 -7 4 86.343 86.222 1.069 9.216 o
-2 -6 -8 9.655 9.857 0.476 263.313 o
-2 -6 -7 57.970 57.847 0.923 18.962 o
-2 -6 -6 26.576 26.702 0.622 74.107 o
-2 -6 -5 193.905 191.359 1.798 1.943 o
-2 -6 -4 326.919 315.550 1.691 0.729 o
-2 -6 -3 84.160 82.226 0.904 10.130 o
-2 -6 -2 27.789 27.422 0.467 81.345 o
-2 -6 -1 122.240 123.626 1.040 4.871 o
-2 -6 0 165.661 166.368 1.584 2.622 o
-2 -6 1 149.354 146.217 1.235 3.341 o
-2 -6 2 130.100 128.574 1.060 4.385 o
-2 -6 3 67.579 67.364 0.836 15.065 o
-2 -6 4 208.491 210.237 1.555 1.701 o
-2 -6 5 49.847 49.594 0.836 25.183 o
-2 -6 6 89.019 90.324 0.778 9.136 o
-2 -5 -9 35.557 35.694 1.050 34.709 o
-2 -5 -8 32.137 32.593 0.632 55.821 o
-2 -5 -7 88.753 88.263 1.079 8.782 o
-2 -5 -6 104.549 103.019 1.098 6.558 o
-2 -5 -5 99.137 96.341 0.992 7.417 o
-2 -5 -4 231.079 216.701 1.137 1.490 o
-2 -5 -3 219.230 205.027 1.818 1.594 o
-2 -5 -2 5.422 5.784 0.282 769.457 o
-2 -5 -1 490.157 487.273 5.103 0.297 o
-2 -5 0 31.034 29.774 0.515 66.495 o
-2 -5 1 184.650 183.525 1.273 2.204 o
-2 -5 2 348.481 341.951 5.152 0.544 o
-2 -5 3 32.323 32.778 0.564 58.338 o
-2 -5 4 44.563 42.625 0.680 33.333 o
-2 -5 5 56.119 56.584 0.836 20.594 o
-2 -5 6 17.332 17.176 0.399 177.365 o
-2 -4 -9 44.498 44.044 1.118 25.346 o
-2 -4 -8 112.688 112.098 1.283 5.526 o
-2 -4 -7 75.732 75.636 0.846 12.254 o
-2 -4 -6 181.183 177.576 1.653 2.240 o
-2 -4 -5 7.873 7.883 0.321 508.067 o
-2 -4 -4 248.969 234.509 2.304 1.213 o
-2 -4 -3 288.143 277.260 3.276 0.862 o
-2 -4 -2 435.001 444.435 4.608 0.370 o
-2 -4 -1 9.088 9.478 0.321 442.063 o
-2 -4 0 480.529 514.870 4.870 0.296 o
-2 -4 1 75.967 80.030 0.680 12.208 o
-2 -4 2 368.377 377.334 5.220 0.481 o
-2 -4 3 64.431 65.225 0.719 16.793 o
-2 -4 4 153.632 151.661 1.176 3.167 o
-2 -4 5 63.000 61.998 0.826 17.206 o
-2 -4 6 23.752 23.329 0.564 92.856 o
-2 -4 7 111.344 115.364 0.797 5.882 o
-2 -3 -10 16.960 17.653 0.408 175.802 o
-2 -3 -9 76.658 76.384 1.118 11.187 o
-2 -3 -8 51.594 52.938 1.079 20.839 o
-2 -3 -7 190.431 180.200 1.779 2.064 o
-2 -3 -6 176.849 171.170 1.303 2.429 o
-2 -3 -5 107.059 108.064 0.962 6.313 o
-2 -3 -4 89.962 87.223 0.748 9.257 o
-2 -3 -3 114.522 109.648 1.293 5.482 o
-2 -3 -2 109.642 107.986 1.137 5.978 o
-2 -3 -1 279.666 270.660 3.383 0.900 o
-2 -3 0 272.604 319.593 3.674 0.820 o
-2 -3 1 122.418 128.030 0.914 4.819 o
-2 -3 2 579.659 608.732 6.697 0.201 o
-2 -3 3 3.020 2.741 0.282 984.520 o
-2 -3 4 202.796 202.898 1.283 1.831 o
-2 -3 5 26.664 25.643 0.515 83.979 o
-2 -3 6 104.612 101.250 1.060 6.663 o
-2 -3 7 20.462 21.356 0.418 133.047 o
-2 -2 -10 21.318 21.317 0.389 132.473 o
-2 -2 -9 55.114 56.321 0.943 20.145 o
-2 -2 -8 20.226 19.412 0.544 117.899 o
-2 -2 -7 74.886 72.020 1.069 12.035 o
-2 -2 -6 54.290 52.248 0.719 23.399 o
-2 -2 -5 200.285 188.754 1.448 1.928 o
-2 -2 -4 238.658 234.324 1.458 1.341 o
-2 -2 -3 551.119 556.941 6.727 0.225 o
-2 -2 -2 416.997 415.050 5.667 0.386 o
-2 -2 -1 1140.130 1212.220 7.611 0.055 o
-2 -2 0 190.019 207.671 2.838 1.713 o
-2 -2 1 314.689 345.489 3.655 0.664 o
-2 -2 2 182.311 194.830 1.176 2.167 o
-2 -2 3 260.025 276.949 2.362 1.033 o
-2 -2 4 105.801 102.659 0.962 6.613 o
-2 -2 5 421.057 407.302 8.039 0.338 o
-2 -2 6 21.220 19.869 0.515 116.889 o
-2 -2 7 96.470 96.788 1.118 7.474 o
-2 -2 8 45.679 47.009 0.525 32.886 o
-2 -1 -10 52.864 53.463 0.574 25.099 o
-2 -1 -9 31.067 31.961 0.855 47.730 o
-2 -1 -8 77.768 77.687 1.166 10.755 o
-2 -1 -7 22.598 21.308 0.428 119.270 o
-2 -1 -6 209.847 202.033 1.254 1.759 o
-2 -1 -5 157.911 149.600 1.040 3.117 o
-2 -1 -4 290.298 286.825 5.648 0.697 o
-2 -1 -3 48.181 48.127 2.838 8.225 o
-2 -1 -2 505.515 559.643 9.439 0.221 o
-2 -1 -1 74.149 82.508 1.944 8.406 o
-2 -1 0 409.511 477.339 4.015 0.388 o
-2 -1 1 45.131 46.980 1.458 19.584 o
-2 -1 2 424.705 472.955 6.182 0.342 o
-2 -1 3 326.612 303.788 2.304 0.733 o
-2 -1 4 111.517 109.172 0.768 6.101 o
-2 -1 5 132.661 125.541 0.885 4.415 o
-2 -1 6 52.472 50.771 0.680 25.119 o
-2 -1 7 100.162 99.315 1.759 6.129 o
-2 -1 8 6.343 6.085 0.311 623.117 o
-2 0 -10 10.458 10.333 0.311 401.010 o
-2 0 -9 173.291 182.805 1.866 2.279 o
-2 0 -8 142.293 142.144 1.186 3.631 o
-2 0 -7 135.664 131.014 1.050 4.113 o
-2 0 -6 26.381 24.622 0.437 93.371 o
-2 0 -5 349.744 335.321 5.638 0.530 o
-2 0 -4 204.030 199.807 1.711 1.787 o
-2 0 -3 166.421 156.103 5.842 1.371 o
-2 0 -2 2014.770 2075.700 20.404 0.017 o
-2 0 -1 432.021 478.058 9.769 0.274 o
-2 0 0 2214.690 2491.880 21.337 0.014 o
-2 0 1 70.071 68.151 1.769 10.259 o
-2 0 2 185.178 200.020 1.701 2.015 o
-2 0 3 41.154 41.886 0.865 32.788 o
-2 0 4 98.601 96.642 1.419 6.852 o
-2 0 5 21.523 20.685 0.399 131.660 o
-2 0 6 87.036 83.500 1.069 9.300 o
-2 0 7 0.751 0.690 0.350 712.841 o
-2 0 8 74.953 75.986 0.748 12.649 o
-2 1 -9 14.041 14.328 0.467 198.274 o
-2 1 -8 53.700 54.241 1.361 17.146 o
-2 1 -7 172.939 168.001 1.468 2.496 o
-2 1 -6 122.253 118.649 1.750 4.490 o
-2 1 -5 264.717 253.960 2.401 1.064 o
-2 1 -4 11.199 10.838 0.525 212.122 o
-2 1 -3 155.801 154.382 6.600 1.241 o
-2 1 -2 209.659 209.780 7.368 0.846 o
-2 1 -1 68.362 62.737 2.625 7.397 o
-2 1 0 40.929 45.405 0.875 31.455 o
-2 1 1 383.008 394.840 5.589 0.439 o
-2 1 2 22.305 21.541 0.603 96.405 o
-2 1 3 515.649 514.656 5.832 0.264 o
-2 1 4 15.441 15.193 0.642 129.608 o
-2 1 5 174.688 171.461 2.148 2.278 o
-2 1 6 78.829 81.663 1.662 8.844 o
-2 1 7 45.458 45.541 1.341 21.262 o
-2 1 8 50.727 52.608 0.583 26.538 o
-2 2 -9 4.877 5.171 0.428 416.202 o
-2 2 -8 142.388 142.241 2.362 3.093 o
-2 2 -7 31.732 30.445 1.079 38.712 o
-2 2 -6 78.407 78.863 1.594 9.253 o
-2 2 -5 171.811 166.212 2.158 2.362 o
-2 2 -4 599.885 596.630 11.033 0.167 o
-2 2 -3 127.540 123.024 1.682 4.240 o
-2 2 -2 265.628 272.896 5.541 0.787 o
-2 2 -1 124.899 129.420 1.507 4.335 o
-2 2 0 707.805 745.685 10.673 0.126 o
-2 2 1 156.432 164.113 1.866 2.749 o
-2 2 2 17.974 18.003 0.603 120.683 o
-2 2 3 125.609 129.109 1.584 4.262 o
-2 2 4 77.688 75.646 1.371 10.264 o
-2 2 5 225.660 224.273 2.595 1.376 o
-2 2 6 5.990 5.366 0.603 218.862 o
-2 2 7 40.926 40.564 1.409 22.732 o
-2 2 8 1.956 1.721 0.253 1293.100 o
-2 3 -8 13.934 14.250 0.486 191.594 o
-2 3 -7 69.948 70.785 1.740 10.232 o
-2 3 -6 58.990 57.031 1.487 14.527 o
-2 3 -5 105.245 105.488 1.905 5.447 o
-2 3 -4 121.883 118.047 1.283 4.873 o
-2 3 -3 270.812 250.762 1.789 1.074 o
-2 3 -2 319.487 319.156 6.143 0.575 o
-2 3 -1 103.356 103.932 1.458 6.185 o
-2 3 0 149.553 151.612 1.789 3.069 o
-2 3 1 70.025 69.531 1.341 12.038 o
-2 3 2 520.345 510.525 7.174 0.249 o
-2 3 3 86.121 83.811 1.254 8.985 o
-2 3 4 149.057 145.157 2.022 3.063 o
-2 3 5 4.106 3.713 0.525 299.083 o
-2 3 6 141.317 142.669 2.352 3.118 o
-2 3 7 32.941 34.450 0.710 49.808 o
-2 4 -7 91.732 95.116 0.875 8.385 o
-2 4 -6 16.995 16.904 0.671 113.412 o
-2 4 -5 110.469 112.914 1.458 5.465 o
-2 4 -4 2.751 2.790 0.331 744.538 o
-2 4 -3 380.292 367.409 9.225 0.359 o
-2 4 -2 9.570 9.497 0.408 325.944 o
-2 4 -1 112.424 109.046 0.943 5.920 o
-2 4 0 22.073 21.959 0.807 73.291 o
-2 4 1 298.397 293.387 2.916 0.816 o
-2 4 2 177.511 173.911 2.236 2.196 o
-2 4 3 26.146 25.439 0.943 53.361 o
-2 4 4 29.942 29.045 1.050 41.968 o
-2 4 5 22.000 21.521 1.021 55.587 o
-2 4 6 30.885 31.699 0.855 48.113 o
-2 4 7 16.395 17.108 0.418 180.578 o
-2 5 -6 148.752 151.000 0.992 3.359 o
-2 5 -5 9.012 8.992 0.535 232.676 o
-2 5 -4 105.872 106.295 1.468 5.931 o
-2 5 -3 14.364 14.007 0.564 160.654 o
-2 5 -2 81.404 80.516 1.157 10.043 o
-2 5 -1 427.576 424.751 3.470 0.405 o
-2 5 0 64.673 64.166 1.050 15.175 o
-2 5 1 181.550 180.618 1.740 2.195 o
-2 5 2 36.208 36.977 1.215 29.521 o
-2 5 3 164.060 161.527 2.557 2.404 o
-2 5 4 55.762 55.514 1.526 15.085 o
-2 5 5 31.860 32.933 0.690 53.376 o
-2 5 6 15.156 14.532 0.389 217.986 o
-2 6 -5 37.038 37.570 0.525 47.861 o
-2 6 -4 41.204 41.974 0.680 36.614 o
-2 6 -3 17.477 17.283 0.671 110.929 o
-2 6 -2 4.480 4.442 0.408 463.844 o
-2 6 -1 66.126 66.508 1.157 13.982 o
-2 6 0 4.557 4.569 0.408 461.520 o
-2 6 1 10.242 9.448 0.525 226.396 o
-2 6 2 97.958 102.066 1.468 6.622 o
-2 6 3 18.868 19.052 0.544 125.453 o
-2 6 4 106.123 110.611 1.040 6.219 o
-2 7 -2 7.683 7.465 0.418 365.763 o
-2 7 -1 182.224 189.503 1.351 2.184 o
-2 7 0 36.716 38.309 0.642 44.494 o
-2 7 1 96.551 101.065 1.001 7.426 o
-2 7 2 12.691 13.269 0.379 265.534 o
-1 -9 -2 4.345 4.141 0.642 202.982 o
-1 -9 -1 36.013 39.154 0.982 34.974 o
-1 -9 0 26.283 26.858 1.215 38.737 o
-1 -8 -5 44.947 46.717 0.992 26.465 o
-1 -8 -4 19.001 18.732 0.671 102.960 o
-1 -8 -3 154.438 155.733 10.352 0.654 o
-1 -8 -2 6.175 5.842 0.603 216.826 o
-1 -8 -1 79.467 81.556 1.633 8.867 o
-1 -8 0 5.572 5.609 0.632 201.993 o
-1 -8 1 76.453 77.288 1.847 8.745 o
-1 -8 2 6.737 5.988 0.476 319.925 o
-1 -8 3 35.356 35.179 0.778 43.738 o
-1 -7 -7 35.023 37.463 0.972 36.721 o
-1 -7 -6 100.916 104.564 1.186 6.678 o
-1 -7 -5 9.223 9.847 0.486 260.898 o
-1 -7 -4 111.928 111.291 1.351 5.531 o
-1 -7 -3 24.492 24.807 0.807 65.896 o
-1 -7 -2 230.173 233.693 7.145 0.789 o
-1 -7 -1 34.331 32.681 3.004 8.512 o
-1 -7 0 243.945 244.006 7.942 0.675 o
-1 -7 1 102.592 102.698 1.283 6.503 o
-1 -7 2 92.803 93.424 1.069 8.070 o
-1 -7 3 137.586 139.831 1.400 3.737 o
-1 -7 4 14.192 14.464 0.544 166.869 o
-1 -7 5 72.919 75.743 1.196 11.598 o
-1 -6 -8 15.107 15.806 0.748 106.354 o
-1 -6 -7 90.758 94.377 1.118 8.153 o
-1 -6 -6 31.651 31.670 0.642 57.019 o
-1 -6 -5 14.565 14.134 0.515 175.700 o
-1 -6 -4 41.739 40.224 0.739 35.695 o
-1 -6 -3 24.379 22.824 0.447 104.417 o
-1 -6 -2 160.997 159.933 3.577 2.098 o
-1 -6 -1 21.233 17.371 1.769 24.522 o
-1 -6 0 165.873 161.488 1.701 2.635 o
-1 -6 1 25.552 25.614 0.496 89.412 o
-1 -6 2 161.447 164.210 1.312 2.797 o
-1 -6 3 20.642 20.510 0.544 113.423 o
-1 -6 4 50.840 52.054 0.885 23.485 o
-1 -6 5 0.068 0.068 0.058 25748.800 o
-1 -6 6 58.911 61.006 0.797 18.944 o
-1 -5 -9 25.209 25.973 0.583 82.041 o
-1 -5 -8 37.311 38.144 1.021 33.348 o
-1 -5 -7 97.252 98.771 0.972 7.504 o
-1 -5 -6 33.437 33.925 0.632 52.571 o
-1 -5 -5 512.174 490.666 3.694 0.292 o
-1 -5 -4 120.536 118.309 1.011 5.113 o
-1 -5 -3 283.886 274.879 3.587 0.864 o
-1 -5 -2 3.309 2.644 0.797 135.778 o
-1 -5 -1 275.879 265.819 4.452 0.849 o
-1 -5 0 57.693 53.308 2.469 9.089 o
-1 -5 1 45.704 46.114 0.593 32.317 o
-1 -5 2 11.886 11.383 0.340 324.712 o
-1 -5 3 175.333 178.625 1.390 2.375 o
-1 -5 4 32.651 33.147 0.680 52.406 o
-1 -5 5 148.908 147.345 1.478 3.256 o
-1 -5 6 31.125 31.747 0.661 56.933 o
-1 -5 7 37.070 38.008 0.525 47.497 o
-1 -4 -9 14.848 15.446 0.496 175.313 o
-1 -4 -8 120.714 121.031 1.682 4.559 o
-1 -4 -7 20.974 20.617 0.457 125.715 o
-1 -4 -6 166.994 166.630 1.273 2.664 o
-1 -4 -5 85.801 84.093 0.817 9.929 o
-1 -4 -4 239.541 228.307 1.526 1.353 o
-1 -4 -3 46.361 45.220 0.603 32.009 o
-1 -4 -2 338.684 342.767 3.111 0.628 o
-1 -4 -1 70.658 66.897 1.808 10.100 o
-1 -4 0 384.445 390.456 5.084 0.453 o
-1 -4 1 400.253 411.132 5.074 0.419 o
-1 -4 2 540.703 533.825 6.007 0.242 o
-1 -4 3 436.780 431.050 7.981 0.317 o
-1 -4 4 78.005 78.951 0.943 11.266 o
-1 -4 5 222.931 221.688 1.701 1.498 o
-1 -4 6 6.087 6.163 0.389 454.057 o
-1 -4 7 123.051 123.208 1.264 4.707 o
-1 -3 -9 41.794 42.625 0.885 31.639 o
-1 -3 -8 14.597 13.726 0.525 173.472 o
-1 -3 -7 153.521 152.302 1.682 3.005 o
-1 -3 -6 6.491 6.795 0.243 812.819 o
-1 -3 -5 250.492 238.922 1.322 1.251 o
-1 -3 -4 505.269 491.308 5.123 0.285 o
-1 -3 -3 353.902 341.309 6.620 0.484 o
-1 -3 -2 275.684 267.258 3.966 0.882 o
-1 -3 -1 41.735 47.281 1.507 19.910 o
-1 -3 0 586.556 618.161 8.068 0.188 o
-1 -3 1 219.648 226.616 5.298 1.051 o
-1 -3 2 272.853 288.040 3.742 0.870 o
-1 -3 3 374.139 398.845 7.145 0.407 o
-1 -3 4 191.928 201.284 1.400 1.961 o
-1 -3 5 52.415 51.830 0.680 24.856 o
-1 -3 6 92.849 91.801 0.962 8.317 o
-1 -3 7 11.754 11.519 0.418 267.457 o
-1 -3 8 24.433 24.583 0.389 106.303 o
-1 -2 -10 46.031 48.282 0.554 31.694 o
-1 -2 -9 49.882 51.509 1.147 21.013 o
-1 -2 -8 183.480 185.624 1.594 2.156 o
-1 -2 -7 238.148 235.608 1.594 1.332 o
-1 -2 -6 79.137 76.452 0.972 11.206 o
-1 -2 -5 233.986 231.330 1.273 1.399 o
-1 -2 -4 22.052 21.823 0.437 119.454 o
-1 -2 -3 534.652 519.439 7.320 0.238 o
-1 -2 -2 584.079 535.002 4.520 0.229 o
-1 -2 0 377.400 390.262 5.356 0.456 o
-1 -2 1 2378.030 2560.260 67.889 0.008 o
-1 -2 2 166.287 174.941 4.053 1.805 o
-1 -2 3 424.441 449.344 5.395 0.366 o
-1 -2 4 163.738 170.198 1.040 2.739 o
-1 -2 5 66.920 68.656 0.729 15.514 o
-1 -2 6 103.112 102.290 0.953 6.854 o
-1 -2 7 44.742 44.345 0.690 32.323 o
-1 -2 8 97.268 99.986 0.836 7.604 o
-1 -1 -10 38.598 39.456 0.554 43.706 o
-1 -1 -9 18.148 17.964 0.719 99.093 o
-1 -1 -8 99.297 97.429 1.341 6.881 o
-1 -1 -7 21.669 21.978 0.515 109.868 o
-1 -1 -6 229.094 221.717 1.390 1.470 o
-1 -1 -5 9.116 9.643 0.360 387.407 o
-1 -1 -4 530.446 515.113 4.092 0.268 o
-1 -1 -3 501.122 479.293 7.057 0.271 o
-1 -1 -2 59.998 60.200 1.905 11.412 o
-1 -1 -1 65.411 79.330 1.419 11.647 o
-1 -1 0 711.055 724.777 4.695 0.147 o
-1 -1 1 1300.550 1575.080 40.788 0.023 o
-1 -1 2 240.999 274.305 4.996 0.910 o
-1 -1 3 92.223 101.036 0.943 7.923 o
-1 -1 4 177.631 176.040 1.176 2.393 o
-1 -1 5 152.031 147.413 1.030 3.307 o
-1 -1 6 66.608 64.516 0.603 16.716 o
-1 -1 7 70.974 71.349 0.817 13.813 o
-1 -1 8 2.322 1.964 0.262 1180.030 o
-1 -1 9 35.305 36.297 0.496 52.413 o
-1 0 -9 73.578 74.353 1.254 11.389 o
-1 0 -8 50.832 52.063 0.992 22.290 o
-1 0 -7 144.710 142.387 1.478 3.443 o
-1 0 -6 331.050 312.400 1.954 0.716 o
-1 0 -5 72.564 68.627 0.787 13.862 o
-1 0 -4 531.400 516.960 5.463 0.257 o
-1 0 -3 703.423 696.840 7.718 0.143 o
-1 0 -2 770.491 838.060 6.979 0.116 o
-1 0 -1 239.459 276.473 5.230 0.889 o
-1 0 0 503.390 588.212 7.281 0.237 o
-1 0 1 558.836 545.869 5.696 0.232 o
-1 0 2 552.389 558.934 6.746 0.224 o
-1 0 3 95.696 96.370 3.179 4.290 o
-1 0 4 506.869 505.995 5.745 0.273 o
-1 0 5 21.954 21.920 0.369 129.416 o
-1 0 6 586.957 559.740 5.900 0.214 o
-1 0 7 66.987 65.740 0.748 15.825 o
-1 0 8 37.934 39.087 1.108 30.470 o
-1 0 9 20.287 20.890 0.389 140.770 o
-1 1 -9 35.761 36.277 0.535 50.482 o
-1 1 -8 21.546 22.416 0.904 64.817 o
-1 1 -7 61.906 62.251 1.312 14.506 o
-1 1 -6 29.061 27.723 0.593 68.948 o
-1 1 -5 148.855 142.008 0.953 3.500 o
-1 1 -4 1.932 1.750 0.272 1124.370 o
-1 1 -3 190.757 203.034 4.841 1.327 o
-1 1 -2 261.286 254.854 4.821 0.888 o
-1 1 -1 1075.740 1166.020 13.307 0.057 o
-1 1 0 123.265 125.493 2.838 3.461 o
-1 1 1 1114.360 1097.940 7.903 0.061 o
-1 1 2 348.516 341.115 4.860 0.554 o
-1 1 3 843.759 812.738 8.399 0.103 o
-1 1 4 394.091 397.708 7.271 0.384 o
-1 1 5 35.909 35.052 1.964 16.606 o
-1 1 6 79.996 75.150 3.033 5.447 o
-1 1 7 41.624 41.798 3.140 7.427 o
-1 1 8 119.722 126.620 2.148 4.107 o
-1 1 9 46.220 47.349 0.564 31.792 o
-1 2 -9 10.019 10.537 0.369 346.392 o
-1 2 -8 65.291 65.390 6.620 1.804 o
-1 2 -7 42.905 41.701 1.147 26.209 o
-1 2 -6 244.324 236.356 2.605 1.211 o
-1 2 -5 16.686 16.204 0.690 111.976 o
-1 2 -4 280.339 274.519 6.979 0.646 o
-1 2 -3 288.160 283.754 5.307 0.727 o
-1 2 -2 406.190 406.447 7.290 0.367 o
-1 2 -1 1879.310 1813.140 55.913 0.013 o
-1 2 0 12.642 13.385 1.128 60.154 o
-1 2 1 151.816 147.102 2.265 2.875 o
-1 2 2 421.020 405.951 4.180 0.414 o
-1 2 3 428.514 410.043 4.442 0.398 o
-1 2 4 58.333 54.124 1.837 12.497 o
-1 2 5 111.255 108.628 3.179 3.685 o
-1 2 6 10.515 9.098 1.740 27.928 o
-1 2 7 125.334 132.910 5.317 1.880 o
-1 2 8 8.722 9.711 0.768 128.654 o
-1 2 9 25.634 26.780 0.496 87.129 o
-1 3 -8 33.596 33.701 0.797 45.997 o
-1 3 -7 101.080 100.122 1.983 5.715 o
-1 3 -6 95.361 93.580 1.672 6.804 o
-1 3 -5 139.961 139.695 1.876 3.438 o
-1 3 -4 225.261 215.719 2.109 1.464 o
-1 3 -3 189.159 187.218 1.458 2.084 o
-1 3 -2 59.073 57.118 0.748 19.946 o
-1 3 -1 218.503 218.402 5.745 1.012 o
-1 3 0 524.954 505.762 8.126 0.238 o
-1 3 1 64.824 65.070 1.060 14.971 o
-1 3 2 616.665 618.258 5.589 0.191 o
-1 3 3 41.009 41.361 0.914 32.054 o
-1 3 4 320.997 317.533 4.948 0.629 o
-1 3 5 26.556 26.197 1.507 28.705 o
-1 3 6 43.201 39.077 2.819 8.849 o
-1 3 7 18.204 18.168 0.972 66.606 o
-1 3 8 88.892 95.067 1.118 8.314 o
-1 4 -8 8.567 8.914 0.360 409.689 o
-1 4 -7 68.519 67.043 1.789 10.440 o
-1 4 -6 4.011 3.762 0.408 476.675 o
-1 4 -5 224.600 220.929 2.002 1.459 o
-1 4 -4 262.677 254.378 2.012 1.096 o
-1 4 -3 343.560 343.399 7.184 0.476 o
-1 4 -2 51.199 49.419 0.787 25.067 o
-1 4 -1 104.571 100.958 0.836 6.900 o
-1 4 0 125.074 122.771 1.166 4.682 o
-1 4 1 113.960 111.719 1.108 5.609 o
-1 4 2 11.644 10.809 0.525 208.473 o
-1 4 3 115.145 115.403 1.584 5.030 o
-1 4 4 81.851 81.595 1.419 9.203 o
-1 4 5 130.575 129.702 1.993 3.805 o
-1 4 6 53.268 53.172 1.468 16.424 o
-1 4 7 27.026 26.148 1.166 40.532 o
-1 4 8 37.001 37.414 0.515 48.296 o
-1 5 -7 66.486 67.752 0.690 15.920 o
-1 5 -6 58.681 60.452 1.254 15.884 o
-1 5 -5 34.954 35.218 0.914 39.592 o
-1 5 -4 130.385 128.778 1.584 4.086 o
-1 5 -3 68.876 66.430 1.079 13.765 o
-1 5 -2 70.278 67.023 0.758 14.723 o
-1 5 -1 27.691 26.907 0.496 80.351 o
-1 5 0 211.403 207.573 1.662 1.674 o
-1 5 1 165.496 161.274 1.487 2.700 o
-1 5 2 32.244 32.962 0.700 52.330 o
-1 5 3 296.284 291.345 1.983 0.864 o
-1 5 4 13.839 13.570 0.748 113.511 o
-1 5 5 225.175 230.699 3.004 1.310 o
-1 5 6 7.549 7.106 0.748 141.072 o
-1 5 7 56.741 59.412 0.690 20.832 o
-1 6 -6 31.381 32.700 0.457 65.112 o
-1 6 -5 19.399 19.130 0.496 131.913 o
-1 6 -4 72.490 73.954 1.303 11.415 o
-1 6 -3 40.341 40.156 0.953 32.112 o
-1 6 -2 288.205 290.655 2.333 0.883 o
-1 6 -1 68.359 66.858 0.846 14.886 o
-1 6 0 139.933 141.230 1.507 3.592 o
-1 6 1 44.197 44.656 0.875 29.466 o
-1 6 2 151.218 152.944 1.604 3.080 o
-1 6 3 6.023 5.541 0.389 462.107 o
-1 6 4 25.343 25.283 1.128 44.026 o
-1 6 5 16.901 18.527 1.069 59.054 o
-1 6 6 41.078 42.790 0.593 38.106 o
-1 7 -4 2.088 2.245 0.292 972.614 o
-1 7 -3 103.032 108.180 1.060 6.517 o
-1 7 -2 66.283 68.695 1.254 13.225 o
-1 7 -1 27.860 29.298 0.768 58.765 o
-1 7 0 200.492 203.335 1.954 1.774 o
-1 7 1 91.348 95.952 1.371 7.576 o
-1 7 2 69.623 73.079 1.215 12.340 o
-1 7 3 28.716 29.832 0.651 63.772 o
-1 7 4 36.435 37.395 0.632 45.731 o
-1 7 5 60.535 61.483 0.817 18.161 o
-1 8 -1 11.368 10.965 0.399 291.689 o
-1 8 0 64.670 67.529 0.836 15.831 o
-1 8 1 3.490 3.354 0.262 1066.830 o
-1 8 2 20.532 21.657 0.515 115.896 o
0 -8 -4 10.079 9.623 7.106 1.734 o
0 -8 -3 71.438 70.377 7.213 1.520 o
0 -8 -2 26.790 27.908 6.367 2.121 o
0 -8 -1 74.228 72.749 4.841 2.969 o
0 -8 0 148.608 150.397 7.009 1.183 o
0 -8 1 104.831 98.353 8.301 1.086 o
0 -8 2 32.550 32.885 1.196 33.366 o
0 -7 -6 67.993 69.162 1.798 10.330 o
0 -7 -5 15.915 15.903 0.933 75.918 o
0 -7 -4 145.265 149.007 6.571 1.303 o
0 -7 -3 14.486 11.538 2.216 17.143 o
0 -7 -2 91.937 92.725 3.704 3.769 o
0 -7 -1 35.351 32.972 3.091 8.049 o
0 -7 0 83.335 79.534 4.724 2.935 o
0 -7 1 88.548 90.839 1.614 7.580 o
0 -7 2 2.090 1.973 0.321 815.023 o
0 -7 3 120.410 123.743 1.555 4.611 o
0 -7 4 6.196 5.638 0.486 316.868 o
0 -7 5 78.484 80.370 1.235 10.246 o
0 -6 -7 21.166 22.153 0.817 73.948 o
0 -6 -6 46.121 45.152 1.390 20.445 o
0 -6 -5 35.123 34.304 0.758 45.206 o
0 -6 -4 218.367 217.537 1.584 1.567 o
0 -6 -3 56.889 52.695 0.982 19.819 o
0 -6 -2 98.738 94.649 3.461 3.875 o
0 -6 -1 9.718 8.408 1.468 38.964 o
0 -6 0 43.764 40.904 2.245 12.350 o
0 -6 1 7.708 7.427 0.331 502.934 o
0 -6 2 92.980 91.393 0.885 8.440 o
0 -6 3 53.380 50.800 0.739 24.051 o
0 -6 4 182.617 185.653 1.478 2.188 o
0 -6 5 38.326 38.212 0.680 41.547 o
0 -6 6 73.761 76.579 1.011 12.023 o
0 -5 -8 22.341 23.718 0.719 79.607 o
0 -5 -7 115.811 120.506 1.633 4.831 o
0 -5 -6 6.446 6.532 0.360 497.033 o
0 -5 -5 52.192 49.983 0.671 25.597 o
0 -5 -4 14.706 13.677 0.408 220.047 o
0 -5 -3 307.492 300.541 4.384 0.708 o
0 -5 -2 4.438 3.451 0.719 163.534 o
0 -5 -1 484.227 480.012 4.258 0.313 o
0 -5 0 46.066 41.283 1.264 22.960 o
0 -5 1 458.850 454.797 6.639 0.314 o
0 -5 2 264.437 260.405 1.721 1.086 o
0 -5 3 67.418 64.370 0.778 15.770 o
0 -5 4 178.811 174.319 1.614 2.311 o
0 -5 5 28.227 27.062 0.554 74.439 o
0 -5 6 114.777 115.879 1.166 5.392 o
0 -5 7 7.475 7.184 0.476 304.508 o
0 -4 -9 12.796 13.317 0.379 263.543 o
0 -4 -8 31.165 30.153 0.758 53.377 o
0 -4 -7 11.279 11.597 0.583 180.529 o
0 -4 -6 133.019 134.805 1.487 3.936 o
0 -4 -5 35.074 32.836 0.496 55.846 o
0 -4 -4 106.735 102.601 0.778 6.704 o
0 -4 -3 146.719 138.120 3.985 2.241 o
0 -4 -2 168.493 163.802 2.061 2.466 o
0 -4 -1 371.355 364.959 3.091 0.539 o
0 -4 0 47.768 44.433 1.341 20.654 o
0 -4 1 225.715 228.502 3.111 1.301 o
0 -4 2 92.822 95.271 1.312 7.575 o
0 -4 3 129.264 128.078 1.001 4.458 o
0 -4 4 21.963 21.424 0.476 115.358 o
0 -4 5 109.831 107.354 0.982 6.124 o
0 -4 6 0.171 0.379 0.214 1915.400 o
0 -4 7 97.957 98.149 1.303 7.018 o
0 -4 8 3.960 3.937 0.262 1014.770 o
0 -3 -9 129.047 137.012 1.001 4.278 o
0 -3 -8 31.544 32.097 0.758 51.395 o
0 -3 -7 118.609 118.057 1.244 5.065 o
0 -3 -6 259.333 256.429 1.925 1.114 o
0 -3 -5 30.550 29.619 0.622 61.983 o
0 -3 -4 473.166 440.683 5.259 0.327 o
0 -3 -3 636.557 635.347 7.213 0.173 o
0 -3 -2 650.834 640.548 5.716 0.174 o
0 -3 -1 97.102 97.906 1.458 6.861 o
0 -3 0 320.065 338.111 2.994 0.683 o
0 -3 1 46.865 50.110 1.390 19.420 o
0 -3 2 384.900 418.471 7.038 0.388 o
0 -3 3 158.163 165.230 1.060 2.915 o
0 -3 4 122.060 122.197 1.050 4.910 o
0 -3 5 9.889 9.915 0.301 436.507 o
0 -3 6 111.066 108.618 1.196 5.811 o
0 -3 7 38.634 38.027 0.787 38.463 o
0 -3 8 13.195 13.473 0.457 215.395 o
0 -2 -9 44.659 45.337 0.632 32.922 o
0 -2 -8 61.384 61.327 0.972 16.938 o
0 -2 -7 225.427 224.011 1.643 1.472 o
0 -2 -6 15.352 15.368 0.428 195.750 o
0 -2 -5 396.895 385.198 5.269 0.436 o
0 -2 -4 2.069 1.934 0.224 1606.880 o
0 -2 -3 66.901 66.654 2.080 9.384 o
0 -2 -2 394.251 384.187 4.015 0.467 o
0 -2 -1 1190.760 1244.560 11.140 0.050 o
0 -2 0 231.582 253.280 2.333 1.261 o
0 -2 1 300.959 315.190 3.645 0.741 o
0 -2 2 932.016 1013.590 24.661 0.053 o
0 -2 3 1146.860 1212.650 14.979 0.050 o
0 -2 4 384.168 396.114 3.976 0.474 o
0 -2 5 136.943 146.392 0.992 3.806 o
0 -2 6 102.595 103.932 1.069 6.706 o
0 -2 7 100.462 99.617 1.166 6.937 o
0 -2 8 170.386 174.280 1.390 2.501 o
0 -2 9 8.758 8.846 0.272 545.204 o
0 -1 -9 1.537 1.662 0.233 1532.840 o
0 -1 -8 54.148 54.600 1.069 19.675 o
0 -1 -7 28.354 27.636 0.729 61.765 o
0 -1 -6 312.839 302.194 1.701 0.794 o
0 -1 -5 182.998 176.798 1.147 2.301 o
0 -1 -4 143.972 144.030 0.943 3.625 o
0 -1 -3 495.725 479.750 7.708 0.266 o
0 -1 -2 915.288 938.940 10.916 0.081 o
0 -1 -1 170.885 144.934 1.964 2.622 o
0 -1 1 47.772 33.487 1.390 21.863 o
0 -1 2 747.215 819.173 8.146 0.119 o
0 -1 3 661.716 691.746 6.931 0.158 o
0 -1 4 44.817 47.077 0.603 32.511 o
0 -1 5 480.253 485.738 6.173 0.293 o
0 -1 6 27.279 27.256 0.544 77.453 o
0 -1 7 118.513 114.577 1.157 5.227 o
0 -1 8 7.913 8.000 0.340 469.910 o
0 -1 9 4.316 4.053 0.224 1251.570 o
0 0 -9 149.729 159.223 0.875 3.243 o
0 0 -8 123.685 125.084 1.254 4.640 o
0 0 -7 60.081 60.452 1.001 17.275 o
0 0 -6 169.229 162.460 1.487 2.614 o
0 0 -5 115.333 111.612 1.089 5.544 o
0 0 -4 248.511 245.620 1.847 1.213 o
0 0 -3 196.014 191.632 3.334 1.634 o
0 0 -2 1326.250 1363.530 34.148 0.028 o
0 0 2 1328.880 1451.640 34.586 0.027 o
0 0 3 199.092 214.135 4.102 1.378 o
0 0 4 246.033 248.001 5.560 0.883 o
0 0 5 112.654 108.773 1.030 5.846 o
0 0 6 160.280 154.130 1.118 2.984 o
0 0 7 57.923 55.971 0.642 21.396 o
0 0 8 123.442 121.741 1.225 4.748 o
0 0 9 146.900 156.083 0.982 3.342 o
0 1 -9 3.398 3.237 0.243 1224.620 o
0 1 -8 7.906 7.903 0.369 424.379 o
0 1 -7 117.185 115.315 1.011 5.382 o
0 1 -6 27.474 27.402 0.418 85.836 o
0 1 -5 472.258 453.971 5.385 0.321 o
0 1 -4 45.562 44.413 0.622 32.706 o
0 1 -3 687.213 692.475 7.135 0.150 o
0 1 -2 754.846 737.326 6.299 0.131 o
0 1 -1 47.060 33.225 1.118 26.780 o
0 1 1 168.938 139.345 1.682 2.804 o
0 1 2 914.847 946.328 9.866 0.083 o
0 1 3 495.787 501.504 7.738 0.259 o
0 1 4 137.339 140.317 3.606 2.541 o
0 1 5 185.904 184.643 1.322 2.170 o
0 1 6 326.140 315.005 4.578 0.636 o
0 1 7 29.953 28.880 0.544 68.470 o
0 1 8 57.679 58.586 0.836 19.585 o
0 1 9 1.584 1.759 0.224 1654.520 o
0 2 -9 8.972 9.322 0.321 448.054 o
0 2 -8 171.818 177.284 6.882 1.079 o
0 2 -7 100.774 100.802 1.157 6.875 o
0 2 -6 102.663 102.377 0.836 7.002 o
0 2 -5 138.018 146.859 4.714 1.968 o
0 2 -4 376.319 359.846 4.977 0.489 o
0 2 -3 1129.330 1054.070 9.643 0.060 o
0 2 -2 917.887 918.391 7.708 0.087 o
0 2 -1 292.881 303.603 4.802 0.720 o
0 2 0 229.447 238.495 3.315 1.223 o
0 2 1 1186.210 1207.350 11.869 0.050 o
0 2 2 400.022 390.418 5.735 0.418 o
0 2 3 63.016 67.480 1.448 12.945 o
0 2 4 2.181 1.516 0.719 168.132 o
0 2 5 387.972 388.386 5.307 0.444 o
0 2 6 14.961 14.474 0.418 208.382 o
0 2 7 218.184 213.464 2.401 1.499 o
0 2 8 63.163 62.610 1.458 13.320 o
0 2 9 43.908 44.812 0.914 28.927 o
0 3 -8 12.753 12.938 0.554 178.425 o
0 3 -7 38.909 34.596 4.948 3.366 o
0 3 -6 112.410 116.880 4.540 2.492 o
0 3 -5 11.151 9.837 1.468 38.415 o
0 3 -4 123.948 120.312 1.614 4.489 o
0 3 -3 160.658 152.137 1.283 2.958 o
0 3 -2 394.289 389.397 4.685 0.449 o
0 3 -1 47.263 45.065 1.827 15.192 o
0 3 0 323.536 319.438 5.278 0.607 o
0 3 1 98.053 95.971 2.080 5.854 o
0 3 2 662.578 647.022 5.395 0.170 o
0 3 3 643.019 634.832 5.657 0.178 o
0 3 4 484.093 475.891 5.074 0.306 o
0 3 5 31.948 29.424 1.205 34.524 o
0 3 6 260.826 259.180 5.259 0.845 o
0 3 7 118.639 122.858 8.428 1.006 o
0 3 8 32.641 29.774 5.094 3.240 o
0 3 9 126.262 134.873 1.273 4.306 o
0 4 -8 3.731 3.810 0.262 1034.940 o
0 4 -7 94.441 100.666 8.642 1.030 o
0 4 -6 0.161 0.797 4.102 5.213 o
0 4 -5 111.319 108.375 1.409 5.596 o
0 4 -4 22.099 21.055 0.612 96.715 o
0 4 -3 130.640 126.232 1.322 4.277 o
0 4 -2 92.312 89.235 1.040 8.393 o
0 4 -1 228.974 223.632 1.954 1.418 o
0 4 0 49.005 47.806 0.661 28.358 o
0 4 1 361.355 351.749 4.588 0.531 o
0 4 2 159.775 153.673 3.674 2.115 o
0 4 3 145.203 147.121 3.334 2.504 o
0 4 4 103.026 103.378 3.276 3.866 o
0 4 5 32.779 30.649 1.633 22.944 o
0 4 6 134.539 134.688 6.007 1.554 o
0 4 7 11.938 11.568 3.013 9.496 o
0 4 8 32.535 32.272 5.706 2.600 o
0 4 9 12.750 13.385 0.418 241.240 o
0 5 -7 7.611 7.290 0.350 472.198 o
0 5 -6 115.560 119.466 2.362 4.190 o
0 5 -5 28.816 27.781 0.817 55.584 o
0 5 -4 174.075 170.664 1.789 2.382 o
0 5 -3 71.686 67.665 1.069 13.078 o
0 5 -2 262.120 250.869 1.915 1.114 o
0 5 -1 459.021 450.403 6.396 0.319 o
0 5 0 47.896 45.201 0.593 30.941 o
0 5 1 486.903 476.027 6.250 0.291 o
0 5 2 4.596 4.258 0.350 604.742 o
0 5 3 306.595 307.462 5.988 0.619 o
0 5 4 14.581 13.259 1.779 25.883 o
0 5 5 50.768 47.543 2.790 8.307 o
0 5 6 6.609 5.366 3.140 8.860 o
0 5 7 112.887 117.075 6.357 1.592 o
0 5 8 21.794 22.834 0.496 110.073 o
0 6 -6 72.258 74.839 0.885 12.912 o
0 6 -5 39.727 41.371 1.448 22.369 o
0 6 -4 183.823 184.633 2.041 2.075 o
0 6 -3 54.288 51.714 1.040 20.439 o
0 6 -2 89.101 88.895 1.273 8.327 o
0 6 -1 7.768 7.903 0.311 530.376 o
0 6 0 44.834 44.656 0.768 30.845 o
0 6 1 10.031 10.848 0.437 282.324 o
0 6 2 98.936 96.535 1.108 7.276 o
0 6 3 54.278 51.840 1.011 20.708 o
0 6 4 222.404 229.309 5.871 0.961 o
0 6 5 34.287 33.478 2.644 10.579 o
0 6 6 47.517 44.219 4.083 4.595 o
0 6 7 22.800 23.971 0.447 109.018 o
0 7 -5 77.197 81.906 0.836 11.430 o
0 7 -4 6.535 6.503 0.301 632.595 o
0 7 -3 117.953 119.923 1.711 4.680 o
0 7 -2 2.705 2.887 0.389 549.002 o
0 7 -1 89.086 91.937 1.361 7.999 o
0 7 0 81.021 80.865 1.137 10.123 o
0 7 1 35.953 35.772 0.797 42.095 o
0 7 2 94.638 98.197 1.283 7.328 o
0 7 3 12.752 12.549 0.768 113.833 o
0 7 4 147.191 149.298 2.459 2.863 o
0 7 5 15.689 16.710 0.855 85.948 o
0 7 6 67.507 70.581 0.807 14.788 o
0 8 -2 33.916 34.887 0.642 50.712 o
0 8 -1 104.597 108.326 1.487 5.924 o
0 8 0 147.656 154.791 1.721 3.103 o
0 8 1 75.510 78.863 1.244 10.763 o
0 8 2 26.760 27.859 0.632 71.515 o
0 8 3 71.441 71.067 0.962 13.201 o
0 8 4 10.069 10.100 0.379 340.066 o
1 -8 -2 19.588 16.894 7.942 1.382 o
1 -8 -1 3.547 2.731 4.734 3.912 o
1 -8 0 65.020 62.231 5.201 2.770 o
1 -8 1 12.278 9.468 8.058 1.348 o
1 -7 -5 59.026 59.684 1.604 13.456 o
1 -7 -4 36.099 31.504 4.462 4.128 o
1 -7 -3 29.202 29.988 3.791 5.715 o
1 -7 -2 70.027 71.310 4.423 3.489 o
1 -7 -1 93.283 91.859 5.074 2.476 o
1 -7 0 200.126 206.067 7.640 0.841 o
1 -7 1 25.366 27.247 4.870 3.584 o
1 -7 2 65.863 67.062 1.526 12.073 o
1 -7 3 103.836 104.632 1.390 6.214 o
1 -7 4 2.022 2.139 0.331 769.441 o
1 -6 -6 40.334 42.411 1.030 29.693 o
1 -6 -5 16.703 17.837 0.894 77.779 o
1 -6 -4 28.583 27.830 1.021 45.117 o
1 -6 -3 6.358 5.181 2.080 20.086 o
1 -6 -2 151.196 148.278 5.512 1.573 o
1 -6 -1 44.382 42.557 1.993 14.321 o
1 -6 0 140.692 138.402 4.345 2.145 o
1 -6 1 68.905 63.971 3.859 4.391 o
1 -6 2 289.190 287.574 8.486 0.529 o
1 -6 3 39.075 38.105 0.826 36.994 o
1 -6 4 73.670 73.011 1.176 11.775 o
1 -6 5 19.535 18.041 0.583 117.329 o
1 -6 6 34.426 34.528 0.817 43.818 o
1 -5 -7 57.296 60.025 1.021 18.083 o
1 -5 -6 7.576 6.911 0.486 295.315 o
1 -5 -5 224.511 228.900 1.993 1.429 o
1 -5 -4 14.406 14.824 0.710 118.315 o
1 -5 -3 291.306 284.765 7.640 0.576 o
1 -5 -2 34.614 32.117 1.439 26.163 o
1 -5 -1 164.635 154.577 3.412 2.145 o
1 -5 0 214.265 213.046 3.402 1.392 o
1 -5 1 28.085 24.671 1.633 25.183 o
1 -5 2 67.511 64.584 2.877 6.617 o
1 -5 3 64.411 63.728 0.865 16.304 o
1 -5 4 130.346 127.709 1.468 4.177 o
1 -5 5 33.307 33.497 0.700 50.358 o
1 -5 6 57.124 57.381 0.962 19.044 o
1 -5 7 65.759 66.450 0.982 14.969 o
1 -4 -8 36.836 37.103 0.700 43.363 o
1 -4 -7 27.284 27.548 0.690 66.517 o
1 -4 -6 53.651 53.230 0.865 22.107 o
1 -4 -5 128.417 128.321 1.390 4.286 o
1 -4 -4 85.911 86.280 1.332 8.689 o
1 -4 -3 114.770 112.477 2.984 3.730 o
1 -4 -2 10.161 8.253 0.807 116.503 o
1 -4 -1 106.775 104.409 2.372 4.805 o
1 -4 0 125.265 122.411 2.070 4.049 o
1 -4 1 105.282 100.433 2.382 4.941 o
1 -4 2 51.718 49.808 2.313 10.586 o
1 -4 3 350.720 346.510 2.284 0.616 o
1 -4 4 262.559 269.027 2.391 1.038 o
1 -4 5 228.313 225.362 1.973 1.415 o
1 -4 6 4.104 4.355 0.340 647.542 o
1 -4 7 68.319 68.200 0.933 14.350 o
1 -4 8 8.577 8.943 0.379 383.393 o
1 -3 -8 89.246 93.959 1.254 8.088 o
1 -3 -7 16.777 16.496 0.544 143.976 o
1 -3 -6 45.249 45.541 0.748 30.540 o
1 -3 -5 25.401 26.061 0.535 85.672 o
1 -3 -4 314.626 302.825 1.779 0.785 o
1 -3 -3 41.802 40.535 0.787 34.465 o
1 -3 -2 615.584 600.557 5.278 0.196 o
1 -3 -1 64.287 61.259 1.546 12.730 o
1 -3 0 524.294 506.569 3.898 0.276 o
1 -3 1 218.947 218.499 3.266 1.360 o
1 -3 2 60.568 60.880 2.207 9.738 o
1 -3 3 194.790 184.652 1.866 1.963 o
1 -3 4 216.091 205.833 1.429 1.658 o
1 -3 5 143.262 141.959 1.137 3.620 o
1 -3 6 97.004 93.658 1.079 7.626 o
1 -3 7 98.973 99.860 1.060 7.189 o
1 -3 8 34.118 33.701 0.690 49.433 o
1 -2 -9 22.645 24.204 0.399 115.091 o
1 -2 -8 8.909 9.341 0.603 192.633 o
1 -2 -7 124.823 125.016 1.283 4.573 o
1 -2 -6 10.227 10.061 0.399 318.781 o
1 -2 -5 113.936 110.727 1.030 5.702 o
1 -2 -4 60.625 58.168 0.661 19.674 o
1 -2 -3 447.272 421.047 4.608 0.369 o
1 -2 -2 430.430 406.408 4.199 0.402 o
1 -2 -1 154.251 157.337 2.012 2.815 o
1 -2 0 15.120 15.368 0.612 138.162 o
1 -2 1 1879.180 1822.130 20.938 0.020 o
1 -2 2 402.062 427.181 5.842 0.392 o
1 -2 3 286.164 310.845 4.724 0.732 o
1 -2 4 279.262 286.067 4.841 0.779 o
1 -2 5 17.277 17.147 0.525 143.925 o
1 -2 6 245.666 241.751 2.012 1.232 o
1 -2 7 41.881 40.719 0.651 37.168 o
1 -2 8 65.758 64.904 1.021 14.965 o
1 -2 9 10.191 10.479 0.369 343.428 o
1 -1 -9 46.501 48.166 0.505 31.954 o
1 -1 -8 123.135 127.291 1.390 4.530 o
1 -1 -7 39.263 40.156 0.923 33.577 o
1 -1 -6 78.844 76.948 1.137 10.735 o
1 -1 -5 34.281 33.983 0.564 53.764 o
1 -1 -4 386.089 371.569 4.462 0.478 o
1 -1 -3 825.671 769.083 6.911 0.113 o
1 -1 -2 345.514 345.295 4.510 0.568 o
1 -1 -1 1119.580 1138.810 7.738 0.059 o
1 -1 0 121.351 121.332 2.372 3.955 o
1 -1 1 1066.600 1181.000 37.444 0.032 o
1 -1 2 263.494 295.788 3.684 0.894 o
1 -1 3 185.469 222.776 4.092 1.443 o
1 -1 4 1.866 1.759 0.301 927.568 o
1 -1 5 140.196 146.548 1.701 3.418 o
1 -1 6 27.858 27.052 0.476 81.018 o
1 -1 7 65.781 63.427 0.748 16.519 o
1 -1 8 20.875 20.549 0.574 107.789 o
1 -1 9 36.514 36.530 0.661 45.299 o
1 0 -9 19.939 21.084 0.350 149.505 o
1 0 -8 39.355 40.399 0.690 39.009 o
1 0 -7 64.805 64.642 0.787 16.445 o
1 0 -6 597.341 585.568 6.843 0.198 o
1 0 -5 23.032 23.096 0.467 107.599 o
1 0 -4 514.187 493.271 5.512 0.274 o
1 0 -3 95.204 91.821 0.865 8.198 o
1 0 -2 551.535 541.262 6.931 0.227 o
1 0 -1 558.113 567.459 6.134 0.224 o
1 0 0 497.059 557.194 3.655 0.279 o
1 0 1 242.873 300.901 5.453 0.819 o
1 0 2 773.246 923.951 7.320 0.107 o
1 0 3 706.159 766.653 8.068 0.133 o
1 0 4 540.688 583.857 5.716 0.231 o
1 0 5 71.942 74.839 0.748 13.419 o
1 0 6 329.811 330.743 1.944 0.694 o
1 0 7 143.774 140.764 1.176 3.610 o
1 0 8 49.996 50.236 0.787 25.504 o
1 0 9 75.269 75.859 1.030 11.751 o
1 1 -9 34.050 35.500 0.447 56.930 o
1 1 -8 2.325 2.187 0.311 854.997 o
1 1 -7 67.151 69.415 0.894 14.658 o
1 1 -6 65.254 64.652 0.797 16.264 o
1 1 -5 144.468 140.190 0.953 3.668 o
1 1 -4 178.556 171.695 0.933 2.450 o
1 1 -3 89.733 91.043 1.157 8.370 o
1 1 -2 231.978 219.102 3.295 1.269 o
1 1 -1 1302.320 1320.210 12.403 0.042 o
1 1 0 710.578 684.261 5.842 0.149 o
1 1 1 64.274 78.572 1.254 12.655 o
1 1 2 53.184 51.947 1.011 21.121 o
1 1 3 508.108 541.991 4.909 0.268 o
1 1 4 541.226 554.608 5.949 0.237 o
1 1 5 8.234 8.865 0.272 568.671 o
1 1 6 236.011 232.623 1.604 1.358 o
1 1 7 21.631 21.220 0.447 121.937 o
1 1 8 100.025 97.789 1.011 7.247 o
1 1 9 18.386 18.926 0.690 101.539 o
1 1 10 36.867 37.414 0.447 50.317 o
1 2 -8 98.925 105.527 0.953 7.071 o
1 2 -7 46.166 46.805 0.748 29.448 o
1 2 -6 100.626 102.309 0.982 7.031 o
1 2 -5 69.221 70.027 0.748 14.645 o
1 2 -4 170.966 167.233 1.235 2.587 o
1 2 -3 418.552 409.946 5.930 0.382 o
1 2 -2 169.128 162.830 2.362 2.374 o
1 2 -1 2375.800 2259.820 81.186 0.007 o
1 2 0 382.716 393.431 5.142 0.452 o
1 2 2 582.740 566.963 4.909 0.220 o
1 2 3 518.637 532.085 6.503 0.251 o
1 2 4 22.635 16.156 2.469 13.357 o
1 2 5 228.981 221.406 3.694 1.230 o
1 2 6 77.076 74.761 0.826 12.134 o
1 2 7 232.839 229.814 1.643 1.390 o
1 2 8 180.420 182.164 1.701 2.208 o
1 2 9 51.420 51.344 1.021 21.866 o
1 2 10 45.409 47.786 0.535 32.659 o
1 3 -8 21.979 22.046 0.574 100.459 o
1 3 -7 12.352 12.637 0.700 132.103 o
1 3 -6 92.529 94.154 1.060 8.076 o
1 3 -5 52.998 53.395 0.768 23.307 o
1 3 -4 195.925 199.039 1.312 1.935 o
1 3 -3 373.945 357.183 7.961 0.406 o
1 3 -2 291.212 278.854 5.317 0.725 o
1 3 -1 222.015 209.109 2.751 1.441 o
1 3 0 583.265 611.250 7.660 0.193 o
1 3 1 40.096 39.028 1.137 28.581 o
1 3 2 271.382 270.028 3.859 0.900 o
1 3 3 352.197 344.935 5.531 0.522 o
1 3 4 507.379 499.813 5.784 0.274 o
1 3 5 254.916 242.470 9.721 0.531 o
1 3 6 5.119 5.375 0.379 503.644 o
1 3 7 161.845 152.856 1.293 2.920 o
1 3 8 15.525 15.290 0.515 164.359 o
1 3 9 42.223 43.198 0.729 34.172 o
1 4 -7 125.961 127.048 2.051 3.960 o
1 4 -6 6.316 4.073 4.783 3.829 o
1 4 -5 217.422 216.769 2.800 1.441 o
1 4 -4 75.244 75.714 1.565 9.921 o
1 4 -3 433.403 415.331 7.776 0.330 o
1 4 -2 533.609 502.243 7.611 0.240 o
1 4 -1 391.367 374.515 3.947 0.480 o
1 4 0 381.395 365.640 3.655 0.509 o
1 4 1 76.289 71.232 1.448 10.498 o
1 4 2 342.708 343.662 4.326 0.581 o
1 4 3 47.804 43.325 1.896 14.609 o
1 4 4 225.226 217.916 6.406 0.906 o
1 4 5 87.274 85.736 4.413 3.140 o
1 4 6 161.678 166.912 6.542 1.205 o
1 4 7 21.254 18.751 3.597 6.544 o
1 4 8 116.847 120.535 8.962 0.914 o
1 4 9 15.184 16.233 0.437 189.605 o
1 5 -7 37.334 38.192 0.651 43.523 o
1 5 -6 31.849 32.681 1.303 30.702 o
1 5 -5 152.730 151.738 2.508 2.707 o
1 5 -4 33.394 33.283 1.157 33.880 o
1 5 -3 177.431 178.596 2.391 2.125 o
1 5 -2 12.015 11.470 0.632 157.582 o
1 5 -1 48.947 47.563 0.758 27.258 o
1 5 0 56.813 53.940 0.758 21.485 o
1 5 1 273.454 265.586 3.723 0.911 o
1 5 2 3.256 2.625 0.972 91.823 o
1 5 3 292.731 288.808 5.930 0.671 o
1 5 4 121.754 119.709 4.063 2.659 o
1 5 5 520.201 527.099 11.402 0.201 o
1 5 6 32.954 29.628 3.120 8.065 o
1 5 7 98.621 101.133 5.803 1.958 o
1 5 8 38.112 35.509 4.792 3.577 o
1 5 9 24.951 26.226 0.486 91.350 o
1 6 -6 56.885 59.286 0.797 20.042 o
1 6 -5 0.042 0.165 0.369 642.878 o
1 6 -4 49.286 49.886 1.497 17.564 o
1 6 -3 20.494 19.840 0.943 64.915 o
1 6 -2 163.061 159.534 2.333 2.513 o
1 6 -1 24.577 25.244 0.690 75.114 o
1 6 0 165.233 166.154 1.478 2.659 o
1 6 1 19.849 18.693 0.690 97.222 o
1 6 2 160.409 159.281 1.672 2.777 o
1 6 3 24.506 23.990 0.642 81.417 o
1 6 4 40.542 39.621 2.625 10.073 o
1 6 5 14.225 11.188 2.275 16.335 o
1 6 6 29.688 28.724 2.848 9.659 o
1 6 7 92.651 97.896 4.695 2.736 o
1 6 8 14.984 16.078 0.437 192.271 o
1 7 -5 73.290 77.395 0.914 12.351 o
1 7 -4 14.908 15.378 0.651 129.125 o
1 7 -3 135.048 141.017 2.518 3.195 o
1 7 -2 94.592 96.380 2.012 6.162 o
1 7 -1 104.160 104.312 2.012 5.395 o
1 7 0 246.942 244.453 2.838 1.152 o
1 7 1 33.665 34.634 1.050 36.535 o
1 7 2 228.844 231.194 2.294 1.359 o
1 7 3 23.900 20.851 2.479 13.028 o
1 7 4 110.157 109.337 4.501 2.593 o
1 7 5 8.772 6.668 3.081 9.168 o
1 7 6 98.772 104.195 4.841 2.520 o
1 7 7 34.997 36.822 0.544 50.948 o
1 8 -3 37.051 37.317 0.642 44.697 o
1 8 -2 6.606 6.075 0.486 310.302 o
1 8 -1 74.034 74.703 1.876 9.025 o
1 8 0 5.286 4.714 4.705 3.958 o
1 8 1 79.243 78.581 1.526 9.381 o
1 8 2 6.085 6.493 0.612 209.586 o
1 8 3 155.777 157.950 6.668 1.218 o
1 8 4 18.477 18.168 0.875 76.615 o
1 8 5 47.155 48.574 0.972 25.095 o
1 9 0 28.267 28.763 0.768 58.532 o
1 9 1 35.811 37.716 0.690 44.531 o
1 9 2 3.585 3.587 0.331 709.224 o
2 -7 -2 12.052 11.082 6.853 1.862 o
2 -7 -1 95.933 87.670 7.757 1.254 o
2 -7 0 36.657 32.593 6.795 1.844 o
2 -7 1 182.383 194.645 11.917 0.484 o
2 -6 -4 105.662 109.726 1.565 5.723 o
2 -6 -3 18.926 18.401 5.346 3.027 o
2 -6 -2 98.684 99.510 4.841 2.547 o
2 -6 -1 10.434 7.290 3.120 8.919 o
2 -6 0 3.043 2.595 2.391 15.316 o
2 -6 1 66.849 63.310 3.383 5.384 o
2 -6 2 5.127 4.802 3.519 7.068 o
2 -6 3 17.771 17.351 0.622 119.098 o
2 -6 4 40.688 40.097 1.312 24.602 o
2 -6 5 36.081 35.675 0.982 36.297 o
2 -5 -6 15.115 14.697 0.729 111.936 o
2 -5 -5 34.587 35.393 0.933 39.216 o
2 -5 -4 54.939 54.387 1.050 19.610 o
2 -5 -3 160.457 165.648 2.255 2.531 o
2 -5 -2 35.542 31.009 2.615 10.777 o
2 -5 -1 179.691 174.232 4.520 1.566 o
2 -5 0 62.522 58.158 3.334 5.730 o
2 -5 1 428.184 424.333 9.828 0.291 o
2 -5 2 79.344 77.940 4.501 3.219 o
2 -5 3 14.485 14.853 0.729 113.713 o
2 -5 4 108.917 113.206 1.351 5.653 o
2 -5 5 8.623 7.738 0.467 296.676 o
2 -5 6 146.024 143.826 1.876 3.218 o
2 -4 -7 16.367 16.224 0.768 98.655 o
2 -4 -6 30.759 31.368 0.700 55.954 o
2 -4 -5 21.296 21.939 0.554 106.036 o
2 -4 -4 29.959 28.909 0.564 67.290 o
2 -4 -3 29.358 29.541 0.525 70.252 o
2 -4 -2 182.195 172.453 4.073 1.668 o
2 -4 -1 304.563 300.765 5.298 0.667 o
2 -4 0 22.795 21.803 1.954 20.005 o
2 -4 1 112.911 113.323 3.616 3.196 o
2 -4 2 9.611 7.388 2.061 20.235 o
2 -4 3 385.365 380.279 2.926 0.504 o
2 -4 4 3.073 2.936 0.321 774.910 o
2 -4 5 110.884 113.877 1.341 5.526 o
2 -4 6 16.852 16.389 0.593 131.891 o
2 -4 7 96.772 98.528 1.565 6.693 o
2 -3 -7 33.748 34.440 1.011 37.808 o
2 -3 -6 138.903 137.362 1.341 3.759 o
2 -3 -5 4.008 3.791 0.301 810.584 o
2 -3 -4 148.865 145.012 1.128 3.405 o
2 -3 -3 86.763 84.832 0.787 9.791 o
2 -3 -2 511.477 488.032 6.066 0.272 o
2 -3 -1 72.495 68.093 2.333 7.892 o
2 -3 0 150.686 142.465 3.655 2.310 o
2 -3 1 105.243 102.358 2.586 4.638 o
2 -3 2 314.547 312.070 7.184 0.541 o
2 -3 3 262.506 252.978 1.584 1.123 o
2 -3 4 113.959 108.064 0.885 5.893 o
2 -3 5 105.732 104.049 1.205 6.316 o
2 -3 6 56.159 54.163 0.933 20.243 o
2 -3 7 68.185 66.926 1.244 13.070 o
2 -3 8 13.367 13.201 0.564 169.639 o
2 -2 -8 2.020 1.740 0.224 1619.740 o
2 -2 -7 42.564 42.148 0.855 31.834 o
2 -2 -6 6.356 5.998 0.486 313.334 o
2 -2 -5 230.840 228.735 1.526 1.418 o
2 -2 -4 76.753 74.188 0.797 12.334 o
2 -2 -3 126.558 129.012 1.186 4.464 o
2 -2 -2 16.012 16.000 0.399 196.252 o
2 -2 -1 155.361 144.924 2.722 2.631 o
2 -2 0 704.849 681.520 5.521 0.152 o
2 -2 1 126.088 121.498 3.461 2.982 o
2 -2 2 270.953 311.963 5.706 0.709 o
2 -2 3 130.831 127.456 1.546 4.117 o
2 -2 4 611.914 650.910 11.188 0.155 o
2 -2 5 174.030 185.265 2.187 2.176 o
2 -2 6 75.511 75.276 1.069 11.632 o
2 -2 7 31.934 29.376 1.079 38.980 o
2 -2 8 141.241 137.595 1.478 3.620 o
2 -2 9 4.728 4.510 0.311 724.195 o
2 -1 -8 49.802 52.054 0.603 27.102 o
2 -1 -7 46.505 46.416 0.758 29.206 o
2 -1 -6 75.217 75.801 0.885 12.223 o
2 -1 -5 171.115 167.408 1.186 2.591 o
2 -1 -4 16.288 15.971 0.418 186.980 o
2 -1 -3 514.120 503.099 5.998 0.267 o
2 -1 -2 23.494 23.067 0.408 112.492 o
2 -1 -1 374.405 372.094 3.976 0.508 o
2 -1 0 41.605 39.475 2.177 13.248 o
2 -1 1 65.596 62.251 3.985 4.267 o
2 -1 2 210.358 252.035 5.706 0.984 o
2 -1 3 145.424 160.555 3.908 2.154 o
2 -1 4 10.277 10.109 0.350 365.605 o
2 -1 5 264.934 270.845 1.789 1.053 o
2 -1 6 124.815 129.293 1.896 4.074 o
2 -1 7 178.539 177.721 2.411 2.112 o
2 -1 8 52.809 51.636 0.904 22.454 o
2 -1 9 15.009 15.164 0.428 200.283 o
2 0 -8 72.600 73.235 0.671 13.683 o
2 0 -7 0.934 0.972 0.253 1352.000 o
2 0 -6 89.289 86.163 0.914 9.146 o
2 0 -5 21.313 21.842 0.467 119.032 o
2 0 -4 101.901 99.821 0.826 7.190 o
2 0 -3 41.969 40.340 0.486 40.502 o
2 0 -2 189.940 196.628 1.419 2.015 o
2 0 -1 71.314 69.376 2.032 9.004 o
2 0 0 2213.840 2412.100 21.201 0.014 o
2 0 1 426.043 477.514 4.452 0.364 o
2 0 2 2027.350 2320.000 60.909 0.010 o
2 0 3 172.554 181.950 1.653 2.343 o
2 0 4 199.219 206.533 1.448 1.834 o
2 0 5 354.821 362.743 5.337 0.510 o
2 0 6 24.048 22.202 0.758 73.575 o
2 0 7 132.434 130.567 1.458 4.050 o
2 0 8 139.824 137.867 1.137 3.802 o
2 0 9 170.104 170.567 1.526 2.512 o
2 0 10 10.767 10.615 0.301 398.871 o
2 1 -8 6.251 6.192 0.243 853.984 o
2 1 -7 101.862 104.691 1.235 6.543 o
2 1 -6 50.233 50.839 0.817 24.872 o
2 1 -5 129.299 127.097 1.157 4.403 o
2 1 -4 106.152 104.389 0.953 6.528 o
2 1 -3 331.583 324.833 4.209 0.628 o
2 1 -2 427.380 415.293 4.938 0.388 o
2 1 -1 49.941 47.961 3.470 5.938 o
2 1 0 421.500 474.627 4.637 0.368 o
2 1 1 74.111 82.294 1.361 10.331 o
2 1 2 504.777 586.491 6.552 0.243 o
2 1 3 46.914 49.487 0.787 27.533 o
2 1 4 279.094 299.307 3.256 0.856 o
2 1 5 158.892 159.476 1.546 2.844 o
2 1 6 210.608 218.635 2.158 1.572 o
2 1 7 22.346 21.113 0.399 125.344 o
2 1 8 83.927 82.829 0.933 10.057 o
2 1 9 30.164 30.717 0.855 49.635 o
2 1 10 54.202 53.833 0.525 24.614 o
2 2 -8 45.730 47.184 0.467 33.492 o
2 2 -7 97.513 103.271 1.409 6.694 o
2 2 -6 20.818 20.520 0.651 96.733 o
2 2 -5 431.379 424.109 5.784 0.365 o
2 2 -4 103.952 101.755 1.108 6.642 o
2 2 -3 258.864 260.288 1.623 1.121 o
2 2 -2 179.639 183.340 1.866 2.178 o
2 2 -1 311.685 313.887 6.464 0.579 o
2 2 0 188.915 193.313 4.471 1.444 o
2 2 1 1123.510 1206.750 7.495 0.057 o
2 2 2 415.773 399.584 3.966 0.428 o
2 2 3 558.585 560.615 4.617 0.235 o
2 2 4 238.632 245.289 2.615 1.217 o
2 2 5 196.497 198.203 1.682 1.887 o
2 2 6 52.283 51.295 1.011 21.622 o
2 2 7 73.801 71.864 0.923 12.768 o
2 2 8 20.861 20.190 0.612 102.729 o
2 2 9 53.298 53.531 1.040 20.471 o
2 2 10 22.041 22.046 0.379 127.120 o
2 3 -7 20.590 22.075 0.574 105.840 o
2 3 -6 103.205 106.178 1.322 6.286 o
2 3 -5 26.613 26.352 0.661 71.428 o
2 3 -4 196.143 193.819 1.516 1.940 o
2 3 -3 2.817 2.848 0.214 1602.990 o
2 3 -2 578.615 556.192 9.798 0.190 o
2 3 -1 118.879 116.783 1.409 4.959 o
2 3 0 272.522 290.286 6.007 0.712 o
2 3 1 282.385 251.209 5.405 0.780 o
2 3 2 112.324 115.724 2.139 4.605 o
2 3 3 116.901 112.049 2.070 4.562 o
2 3 4 94.261 91.937 2.275 5.848 o
2 3 5 111.856 111.884 3.431 3.394 o
2 3 6 176.579 169.138 1.779 2.355 o
2 3 7 191.522 180.336 1.409 2.107 o
2 3 8 51.494 51.344 0.855 23.660 o
2 3 9 77.070 76.734 1.614 9.470 o
2 3 10 16.946 17.390 0.369 188.643 o
2 4 -7 110.603 115.335 0.865 5.888 o
2 4 -6 23.951 23.339 1.118 46.568 o
2 4 -5 63.014 62.620 1.575 12.666 o
2 4 -4 156.018 151.476 2.236 2.755 o
2 4 -3 70.219 68.462 1.419 11.749 o
2 4 -2 360.630 341.018 2.887 0.587 o
2 4 -1 80.076 78.222 1.273 10.059 o
2 4 0 481.820 469.689 5.930 0.301 o
2 4 1 8.019 6.989 0.885 103.358 o
2 4 2 430.465 428.979 5.132 0.375 o
2 4 3 287.819 275.170 2.615 0.902 o
2 4 4 249.117 248.215 3.616 1.061 o
2 4 5 7.831 6.600 1.176 60.692 o
2 4 6 182.366 184.604 4.462 1.523 o
2 4 7 74.731 75.004 3.538 4.662 o
2 4 8 112.530 110.465 8.554 1.006 o
2 4 9 44.279 44.267 0.894 29.202 o
2 5 -6 16.609 16.593 0.457 169.113 o
2 5 -5 56.315 55.291 1.526 14.990 o
2 5 -4 43.927 43.558 1.322 22.463 o
2 5 -3 34.811 34.100 1.108 34.105 o
2 5 -2 345.964 336.186 3.149 0.618 o
2 5 -1 192.565 189.513 2.119 1.918 o
2 5 0 30.991 28.034 0.797 53.239 o
2 5 1 494.216 475.861 5.152 0.298 o
2 5 2 5.822 5.162 0.875 109.563 o
2 5 3 215.032 204.132 3.606 1.387 o
2 5 4 233.242 227.092 5.657 0.952 o
2 5 5 96.871 98.052 3.976 3.317 o
2 5 6 108.943 106.518 5.521 2.010 o
2 5 7 84.337 81.517 5.171 2.538 o
2 5 8 33.394 30.484 4.053 4.981 o
2 5 9 37.338 38.571 0.622 44.096 o
2 6 -6 89.820 92.297 0.885 8.753 o
2 6 -5 49.693 50.372 0.719 26.427 o
2 6 -4 207.175 211.432 3.033 1.509 o
2 6 -3 66.473 64.175 1.614 11.761 o
2 6 -2 131.468 128.341 2.139 3.701 o
2 6 -1 147.899 143.184 1.973 3.136 o
2 6 0 162.634 160.224 1.983 2.628 o
2 6 1 124.388 123.704 2.693 3.568 o
2 6 2 27.981 25.818 1.011 47.224 o
2 6 3 79.604 77.405 2.566 6.460 o
2 6 4 329.972 330.062 7.310 0.499 o
2 6 5 184.460 190.728 5.842 1.197 o
2 6 6 28.196 24.311 2.770 10.334 o
2 6 7 56.709 54.756 4.569 3.594 o
2 6 8 10.034 10.741 0.428 290.922 o
2 7 -4 89.278 90.567 0.953 8.811 o
2 7 -3 59.978 60.132 1.711 12.570 o
2 7 -2 53.692 52.763 1.526 15.853 o
2 7 -1 86.971 88.088 1.876 7.251 o
2 7 0 64.346 60.851 1.429 13.433 o
2 7 1 7.941 6.211 2.158 18.594 o
2 7 2 247.441 250.373 5.803 0.851 o
2 7 3 31.695 28.297 1.876 19.195 o
2 7 4 114.349 114.547 4.685 2.392 o
2 7 5 35.373 32.438 2.984 8.570 o
2 7 6 196.812 210.091 6.795 0.957 o
2 7 7 1.035 1.244 0.233 1572.110 o
2 8 -3 89.970 92.433 0.778 8.885 o
2 8 -2 18.264 18.634 0.700 100.830 o
2 8 -1 73.418 73.546 1.876 9.150 o
2 8 0 14.851 13.016 4.559 4.175 o
2 8 1 116.009 117.133 7.524 1.221 o
2 8 2 35.677 29.483 4.228 4.581 o
2 8 3 38.071 36.530 3.752 5.600 o
2 8 4 1.021 1.264 3.111 9.065 o
2 8 5 102.962 108.754 1.896 5.495 o
2 8 6 17.965 18.858 0.661 108.040 o
2 9 0 51.056 52.783 0.992 22.037 o
2 9 2 48.641 49.526 1.361 19.302 o
2 9 3 127.249 133.357 2.158 3.741 o
2 9 4 23.078 22.367 0.690 82.527 o
3 -6 -2 37.808 38.367 1.400 24.486 o
3 -6 0 73.794 72.486 7.621 1.368 o
3 -6 1 34.616 29.366 6.454 2.046 o
3 -6 2 57.581 60.297 1.565 13.934 o
3 -6 3 33.608 33.206 1.303 29.670 o
3 -5 -4 21.656 21.667 0.642 93.409 o
3 -5 -3 60.085 61.599 1.516 13.648 o
3 -5 -2 30.863 30.999 0.817 50.389 o
3 -5 -1 54.099 54.824 1.448 16.191 o
3 -5 0 235.916 243.248 2.625 1.239 o
3 -5 1 23.555 20.209 3.188 8.174 o
3 -5 2 194.588 199.826 2.557 1.759 o
3 -5 3 9.073 9.186 0.496 258.694 o
3 -5 4 168.165 176.536 2.547 2.229 o
3 -5 5 5.475 6.114 0.505 300.540 o
3 -4 -5 70.137 71.203 0.972 13.429 o
3 -4 -4 31.901 31.145 0.700 54.280 o
3 -4 -3 124.044 125.512 1.235 4.626 o
3 -4 -2 2.857 2.868 0.340 702.050 o
3 -4 -1 24.200 23.281 0.661 81.311 o
3 -4 0 12.868 13.239 0.486 205.914 o
3 -4 1 15.805 15.407 0.632 129.880 o
3 -4 2 42.246 43.597 1.186 25.381 o
3 -4 3 65.466 64.127 1.021 15.137 o
3 -4 4 50.585 50.790 0.914 23.582 o
3 -4 5 129.926 128.030 1.565 4.129 o
3 -4 6 45.716 44.695 1.011 26.287 o
3 -4 7 25.954 25.847 0.836 60.323 o
3 -3 -6 57.745 60.306 0.933 18.538 o
3 -3 -5 25.693 26.275 0.593 79.379 o
3 -3 -4 89.883 89.264 0.953 8.816 o
3 -3 -3 107.193 106.061 0.962 6.377 o
3 -3 -2 475.415 467.395 2.294 0.342 o
3 -3 -1 59.247 58.868 0.739 19.599 o
3 -3 0 336.783 330.996 4.763 0.590 o
3 -3 1 194.941 184.050 1.283 2.050 o
3 -3 2 131.946 127.437 1.827 3.904 o
3 -3 3 43.302 44.180 0.836 30.934 o
3 -3 4 15.982 16.544 0.535 151.290 o
3 -3 5 59.839 59.558 0.826 18.679 o
3 -3 6 37.178 37.774 0.894 37.004 o
3 -3 7 122.667 117.736 1.555 4.644 o
3 -3 8 33.558 34.343 0.933 40.671 o
3 -2 -6 37.437 36.977 0.710 42.449 o
3 -2 -5 45.420 44.326 0.719 31.329 o
3 -2 -4 32.437 33.371 0.593 56.322 o
3 -2 -3 56.540 54.445 0.671 22.174 o
3 -2 -2 161.088 159.865 1.021 2.917 o
3 -2 -1 193.260 186.878 1.235 2.059 o
3 -2 0 48.591 51.441 0.778 26.073 o
3 -2 1 138.349 129.925 0.914 4.082 o
3 -2 2 161.527 159.816 2.051 2.631 o
3 -2 3 19.602 18.702 0.535 124.472 o
3 -2 4 414.734 434.170 8.224 0.328 o
3 -2 5 13.539 13.424 0.399 241.138 o
3 -2 6 290.412 302.680 3.198 0.814 o
3 -2 7 61.184 63.262 1.118 15.792 o
3 -2 8 76.538 75.014 1.235 10.933 o
3 -1 -7 62.469 62.805 0.729 17.775 o
3 -1 -6 33.946 33.371 0.671 50.678 o
3 -1 -5 76.659 74.897 0.894 12.006 o
3 -1 -4 84.051 82.353 0.865 10.218 o
3 -1 -3 143.860 140.093 1.030 3.666 o
3 -1 -2 39.705 38.931 0.515 43.532 o
3 -1 -1 626.007 613.126 7.349 0.180 o
3 -1 0 25.241 25.934 0.544 85.510 o
3 -1 1 194.945 202.003 1.137 1.947 o
3 -1 2 73.712 76.870 1.361 10.780 o
3 -1 3 289.615 288.526 1.886 0.898 o
3 -1 4 36.514 34.839 0.680 45.768 o
3 -1 5 272.984 282.189 1.886 0.983 o
3 -1 6 32.978 33.915 0.768 47.783 o
3 -1 7 50.340 49.769 0.972 23.251 o
3 -1 8 51.556 50.751 1.497 16.874 o
3 -1 9 12.712 12.151 0.350 293.525 o
3 0 -7 7.925 8.039 0.350 452.729 o
3 0 -6 138.012 139.082 1.487 3.695 o
3 0 -5 2.303 2.187 0.301 908.375 o
3 0 -4 363.119 353.411 2.090 0.585 o
3 0 -3 3.634 4.413 0.282 908.899 o
3 0 -2 320.729 317.251 6.707 0.549 o
3 0 -1 89.668 93.813 0.836 8.754 o
3 0 0 69.277 72.059 0.719 14.477 o
3 0 1 817.330 878.955 7.427 0.104 o
3 0 2 456.718 500.950 4.841 0.321 o
3 0 3 460.351 498.783 6.464 0.299 o
3 0 4 118.919 128.224 1.186 4.834 o
3 0 5 312.522 320.993 2.858 0.731 o
3 0 6 155.144 154.800 2.090 2.794 o
3 0 7 187.197 193.333 2.615 1.862 o
3 0 8 2.858 2.712 0.574 259.688 o
3 0 9 98.642 97.634 0.836 7.585 o
3 1 -7 27.645 28.277 0.486 79.121 o
3 1 -6 18.240 18.003 0.593 121.424 o
3 1 -5 58.426 55.825 0.885 19.460 o
3 1 -4 187.897 183.544 1.458 2.128 o
3 1 -3 24.843 25.886 0.544 86.865 o
3 1 -2 90.453 93.668 1.157 8.155 o
3 1 -1 88.473 92.861 1.030 8.637 o
3 1 0 182.979 191.612 1.118 2.188 o
3 1 1 29.845 33.235 0.447 68.599 o
3 1 2 120.570 119.204 0.992 5.098 o
3 1 3 22.688 22.902 0.505 104.689 o
3 1 4 313.969 343.467 4.540 0.633 o
3 1 5 54.640 55.388 0.807 21.721 o
3 1 6 102.700 98.071 1.429 6.475 o
3 1 7 39.172 35.480 1.050 32.241 o
3 1 8 137.225 129.527 2.158 3.502 o
3 1 9 6.393 6.134 0.340 546.641 o
3 2 -7 57.002 57.799 0.710 20.930 o
3 2 -6 34.883 34.634 0.904 40.258 o
3 2 -5 86.760 86.222 1.001 9.301 o
3 2 -4 13.234 13.939 0.418 231.640 o
3 2 -3 215.072 210.713 1.361 1.650 o
3 2 -2 1.883 1.789 0.165 2815.040 o
3 2 -1 685.308 678.584 7.835 0.150 o
3 2 0 124.005 127.592 1.147 4.631 o
3 2 1 897.188 957.993 6.260 0.089 o
3 2 2 147.674 160.244 1.128 3.225 o
3 2 3 325.402 344.459 3.937 0.630 o
3 2 4 10.258 10.498 0.350 361.541 o
3 2 5 124.005 128.642 1.516 4.381 o
3 2 6 109.386 110.873 1.478 5.566 o
3 2 7 128.045 123.869 1.866 4.076 o
3 2 8 274.749 264.351 3.120 0.948 o
3 2 9 84.911 85.881 1.322 8.846 o
3 2 10 126.044 129.886 0.700 4.686 o
3 3 -7 6.378 6.532 0.233 869.365 o
3 3 -6 82.866 86.173 1.390 8.897 o
3 3 -5 47.736 48.477 0.817 26.946 o
3 3 -4 100.884 102.377 0.875 7.119 o
3 3 -3 45.805 43.529 0.544 34.028 o
3 3 -2 71.602 71.417 0.865 13.489 o
3 3 -1 107.820 110.163 1.021 6.133 o
3 3 0 141.096 146.353 1.332 3.549 o
3 3 1 91.542 92.462 1.244 7.950 o
3 3 2 355.372 364.580 4.899 0.521 o
3 3 3 165.255 165.746 1.662 2.616 o
3 3 4 247.492 256.254 4.685 0.949 o
3 3 5 401.020 401.587 3.995 0.445 o
3 3 6 5.729 5.521 0.418 416.281 o
3 3 7 140.438 132.842 1.993 3.460 o
3 3 8 23.535 23.611 0.642 84.694 o
3 3 9 56.560 55.718 1.021 19.057 o
3 3 10 18.937 19.062 0.331 170.591 o
3 4 -6 64.423 64.613 0.710 16.937 o
3 4 -5 51.860 51.101 1.478 16.942 o
3 4 -4 51.700 51.364 1.380 17.911 o
3 4 -3 217.250 210.460 2.518 1.504 o
3 4 -2 165.869 159.418 1.283 2.760 o
3 4 -1 84.906 77.726 1.351 9.252 o
3 4 0 257.133 244.745 2.187 1.143 o
3 4 1 51.117 47.223 2.858 8.005 o
3 4 2 632.980 633.082 7.932 0.171 o
3 4 3 183.242 180.064 3.548 1.758 o
3 4 4 106.856 109.046 2.848 4.152 o
3 4 5 2.811 2.411 0.331 747.900 o
3 4 6 156.360 158.358 4.180 1.941 o
3 4 7 6.198 5.132 1.837 25.697 o
3 4 8 49.131 48.642 5.959 2.296 o
3 4 9 8.546 8.680 0.389 374.616 o
3 5 -6 35.824 36.219 0.525 50.730 o
3 5 -5 126.161 125.337 1.273 4.512 o
3 5 -4 18.893 18.625 0.953 67.217 o
3 5 -3 254.383 252.201 2.974 1.080 o
3 5 -2 10.645 10.187 0.661 156.449 o
3 5 -1 218.806 213.231 2.450 1.489 o
3 5 0 39.978 38.075 1.030 31.305 o
3 5 1 250.792 245.124 5.405 0.887 o
3 5 2 24.992 20.413 1.371 35.121 o
3 5 3 112.064 109.298 2.722 4.119 o
3 5 4 82.255 78.037 1.633 8.758 o
3 5 5 142.878 144.914 3.480 2.486 o
3 5 6 109.340 108.278 3.188 3.729 o
3 5 7 97.349 93.288 5.531 2.142 o
3 5 8 73.038 69.463 5.094 2.763 o
3 5 9 41.071 41.556 0.642 37.758 o
3 6 -5 21.496 21.103 0.457 121.501 o
3 6 -4 22.040 21.220 1.098 50.436 o
3 6 -3 36.329 34.858 1.264 28.846 o
3 6 -2 82.292 82.849 1.779 8.112 o
3 6 -1 275.573 281.158 6.328 0.693 o
3 6 0 22.369 22.542 0.904 63.440 o
3 6 1 79.466 79.971 4.238 3.496 o
3 6 2 42.292 41.546 2.051 14.162 o
3 6 3 191.860 194.830 3.840 1.551 o
3 6 4 44.301 41.274 1.876 15.589 o
3 6 5 61.741 57.381 3.392 5.625 o
3 6 6 9.391 6.795 2.654 12.314 o
3 6 7 117.277 117.911 5.210 2.056 o
3 6 8 5.381 5.745 0.350 560.528 o
3 7 -4 50.147 50.800 0.758 25.597 o
3 7 -3 55.178 57.021 0.875 20.566 o
3 7 -2 46.008 45.172 1.409 20.222 o
3 7 -1 102.443 103.310 2.061 5.444 o
3 7 0 181.133 180.365 2.615 2.011 o
3 7 1 8.578 5.968 2.207 17.773 o
3 7 2 140.695 137.916 4.481 2.086 o
3 7 3 15.334 13.113 1.818 24.754 o
3 7 4 84.795 81.770 4.083 3.571 o
3 7 5 101.069 97.099 4.617 2.699 o
3 7 6 127.080 119.398 5.327 1.915 o
3 7 7 15.205 15.388 0.486 176.054 o
3 7 8 65.681 67.918 0.962 14.899 o
3 8 -2 2.249 2.518 0.331 760.295 o
3 8 -1 78.634 80.739 1.040 10.752 o
3 8 0 30.744 29.978 5.230 3.089 o
3 8 1 176.668 181.308 9.516 0.695 o
3 8 2 9.239 7.845 3.392 7.565 o
3 8 3 186.891 189.396 7.553 0.907 o
3 8 4 93.607 90.713 4.588 2.857 o
3 8 5 147.011 148.443 2.187 3.000 o
3 8 6 17.706 17.507 0.642 115.200 o
3 9 0 31.461 32.272 0.807 49.197 o
3 9 1 68.951 72.088 1.157 12.812 o
3 9 2 29.990 30.270 1.108 39.064 o
3 9 3 72.900 73.342 1.157 11.955 o
3 9 4 10.120 10.421 0.379 335.888 o
4 -5 0 32.757 32.904 7.397 1.568 o
4 -5 1 45.081 46.309 1.565 18.367 o
4 -5 2 94.393 94.581 2.022 6.213 o
4 -4 -3 37.590 38.212 0.836 38.054 o
4 -4 -2 20.301 21.103 0.787 80.064 o
4 -4 -1 95.503 97.245 1.429 7.062 o
4 -4 0 76.370 77.386 1.205 10.871 o
4 -4 1 56.823 54.367 1.507 15.133 o
4 -4 2 2.903 2.663 0.535 297.567 o
4 -4 3 67.669 67.996 1.235 13.114 o
4 -4 4 23.746 24.078 0.778 70.477 o
4 -4 5 70.655 76.861 1.409 11.057 o
4 -3 -4 78.643 78.115 1.186 10.531 o
4 -3 -3 14.762 14.241 0.544 163.776 o
4 -3 -2 43.134 42.479 0.768 32.970 o
4 -3 -1 33.497 33.031 0.836 45.012 o
4 -3 0 76.936 76.530 1.128 11.099 o
4 -3 1 141.114 137.857 1.196 3.736 o
4 -3 2 67.566 65.011 1.584 11.673 o
4 -3 3 183.416 182.776 1.886 2.124 o
4 -3 4 38.413 37.094 0.875 36.754 o
4 -3 5 137.296 141.143 1.653 3.606 o
4 -3 6 47.533 47.261 1.098 23.471 o
4 -2 -5 32.333 32.700 0.700 52.395 o
4 -2 -4 54.201 54.669 0.817 21.991 o
4 -2 -3 51.965 50.197 0.729 25.068 o
4 -2 -2 33.319 32.243 0.680 52.074 o
4 -2 -1 65.085 62.445 0.817 16.545 o
4 -2 0 82.185 79.145 0.943 10.572 o
4 -2 1 2.153 2.129 0.233 1471.880 o
4 -2 2 118.601 119.476 1.118 5.117 o
4 -2 3 3.770 5.181 0.515 307.108 o
4 -2 4 215.998 217.829 2.654 1.467 o
4 -2 5 40.875 39.320 0.865 34.004 o
4 -2 6 62.559 64.992 0.943 16.232 o
4 -2 7 0.898 1.176 0.399 548.460 o
4 -1 -5 53.626 53.395 0.826 22.453 o
4 -1 -4 2.743 2.829 0.340 705.227 o
4 -1 -3 272.150 265.119 1.915 1.026 o
4 -1 -2 112.615 108.909 1.147 5.747 o
4 -1 -1 416.450 403.142 6.892 0.368 o
4 -1 0 40.932 39.271 0.661 38.641 o
4 -1 1 142.687 139.695 1.157 3.669 o
4 -1 2 116.071 117.123 1.040 5.374 o
4 -1 3 34.755 35.840 0.797 43.384 o
4 -1 4 21.210 22.445 0.661 91.132 o
4 -1 5 74.025 72.963 1.137 11.860 o
4 -1 6 121.066 127.835 2.139 4.047 o
4 -1 7 54.185 50.586 1.487 16.340 o
4 -1 8 75.738 74.644 0.865 12.292 o
4 0 -6 30.802 30.552 0.515 66.133 o
4 0 -5 101.636 100.715 1.322 6.599 o
4 0 -4 57.150 55.281 0.953 19.492 o
4 0 -3 61.111 59.733 0.923 17.583 o
4 0 -2 30.116 29.521 0.787 53.937 o
4 0 -1 62.562 59.655 0.817 17.785 o
4 0 0 60.236 59.840 0.778 18.797 o
4 0 1 217.106 220.823 1.380 1.580 o
4 0 2 192.777 202.023 1.711 1.905 o
4 0 3 195.589 210.674 1.711 1.821 o
4 0 4 12.352 12.209 0.486 215.820 o
4 0 5 378.618 383.409 2.527 0.519 o
4 0 6 0.453 0.350 0.243 1480.440 o
4 0 7 160.965 158.475 1.759 2.747 o
4 0 8 27.318 26.712 0.778 61.280 o
4 0 9 99.449 101.444 1.040 7.102 o
4 1 -6 41.795 41.643 0.574 38.334 o
4 1 -5 31.707 30.581 0.943 44.018 o
4 1 -4 151.575 151.243 1.448 3.145 o
4 1 -3 68.134 64.272 1.137 13.884 o
4 1 -2 242.018 233.780 1.662 1.307 o
4 1 -1 41.044 40.253 0.680 37.601 o
4 1 0 257.713 271.865 1.623 1.096 o
4 1 1 54.594 55.184 0.700 22.694 o
4 1 2 110.665 118.300 1.166 5.562 o
4 1 3 6.120 5.677 0.350 539.602 o
4 1 4 113.758 117.152 1.293 5.312 o
4 1 5 58.524 58.265 0.962 18.406 o
4 1 6 210.337 213.940 1.876 1.629 o
4 1 7 66.067 65.575 1.526 12.162 o
4 1 8 49.521 47.650 1.458 18.220 o
4 1 9 38.860 39.067 0.651 41.219 o
4 2 -6 10.642 10.275 0.311 396.591 o
4 2 -5 170.456 171.899 1.341 2.531 o
4 2 -4 17.346 17.147 0.447 163.756 o
4 2 -3 153.295 148.618 1.098 3.238 o
4 2 -2 1.540 1.507 0.194 2170.080 o
4 2 -1 159.251 159.806 1.565 2.827 o
4 2 0 113.821 119.340 1.040 5.441 o
4 2 1 135.413 143.797 1.312 3.781 o
4 2 2 486.048 520.217 5.269 0.287 o
4 2 3 609.145 666.297 5.550 0.185 o
4 2 4 401.948 435.346 5.939 0.386 o
4 2 5 66.613 68.005 0.953 14.702 o
4 2 6 165.789 166.970 1.584 2.614 o
4 2 7 56.513 56.428 1.400 15.815 o
4 2 8 75.082 71.368 1.721 9.649 o
4 2 9 7.753 7.825 0.311 532.393 o
4 3 -5 7.273 7.543 0.321 535.341 o
4 3 -4 72.359 71.174 0.826 13.484 o
4 3 -3 23.005 22.338 0.467 109.470 o
4 3 -2 232.037 225.012 1.361 1.434 o
4 3 -1 73.036 70.212 0.729 13.758 o
4 3 0 72.501 75.422 0.729 13.288 o
4 3 1 28.042 29.764 0.612 67.698 o
4 3 2 60.501 62.387 0.855 17.781 o
4 3 3 5.822 5.910 0.467 342.386 o
4 3 4 42.477 39.932 0.671 36.575 o
4 3 5 128.610 129.906 1.497 4.184 o
4 3 6 16.561 15.932 0.671 116.886 o
4 3 7 100.306 93.765 1.701 6.394 o
4 3 8 23.503 22.552 1.001 54.590 o
4 3 9 85.578 84.637 0.797 9.957 o
4 4 -5 35.458 35.062 0.467 54.120 o
4 4 -4 156.639 156.754 2.411 2.625 o
4 4 -3 2.559 2.722 0.311 839.962 o
4 4 -2 194.791 190.951 1.623 1.961 o
4 4 -1 20.964 21.531 0.574 105.429 o
4 4 0 456.768 452.503 2.644 0.365 o
4 4 1 11.770 10.858 0.515 212.272 o
4 4 2 128.621 133.765 1.604 4.047 o
4 4 3 1.079 1.060 0.272 1163.820 o
4 4 4 298.396 298.879 2.129 0.837 o
4 4 5 14.127 14.056 0.574 158.749 o
4 4 6 68.148 67.966 1.205 13.161 o
4 4 7 72.372 68.793 1.390 11.498 o
4 4 8 139.280 135.145 2.080 3.412 o
4 4 9 132.040 133.998 1.011 4.213 o
4 5 -5 52.731 53.006 0.535 25.626 o
4 5 -4 4.771 5.385 0.321 670.962 o
4 5 -3 33.442 32.924 1.166 33.672 o
4 5 -2 15.130 15.864 0.807 95.689 o
4 5 -1 46.969 46.066 1.215 22.348 o
4 5 0 0.298 0.360 0.311 905.541 o
4 5 1 246.091 250.315 7.611 0.692 o
4 5 2 50.512 49.633 2.712 8.608 o
4 5 3 212.433 224.293 5.463 1.063 o
4 5 4 86.799 84.365 2.858 5.323 o
4 5 5 30.750 28.151 1.837 20.030 o
4 5 6 268.924 280.847 5.482 0.771 o
4 5 7 33.618 31.436 3.470 6.616 o
4 5 8 45.031 43.976 0.894 28.815 o
4 5 9 5.894 5.745 0.282 744.229 o
4 6 -4 87.776 89.235 0.778 9.368 o
4 6 -3 42.007 42.829 0.661 35.848 o
4 6 -2 83.331 82.324 1.827 7.914 o
4 6 -1 53.687 55.971 1.448 16.151 o
4 6 0 27.745 25.789 0.982 49.027 o
4 6 1 158.651 158.319 6.445 1.257 o
4 6 2 1.619 1.030 2.119 19.525 o
4 6 3 92.859 94.649 3.791 3.626 o
4 6 4 32.988 28.141 3.383 6.990 o
4 6 5 221.559 223.758 8.156 0.719 o
4 6 6 29.748 28.199 4.073 4.999 o
4 6 7 75.058 74.829 5.346 2.513 o
4 6 8 5.279 4.909 0.262 888.140 o
4 7 -3 20.701 20.433 0.457 127.797 o
4 7 -2 114.920 113.770 0.933 5.615 o
4 7 -1 72.315 72.204 1.789 9.668 o
4 7 0 147.648 144.331 2.411 2.928 o
4 7 1 14.869 12.928 4.277 4.736 o
4 7 2 245.706 255.224 8.146 0.645 o
4 7 3 36.482 29.415 3.927 5.243 o
4 7 4 79.939 76.180 5.094 2.666 o
4 7 5 64.473 56.535 4.501 3.573 o
4 7 6 60.619 58.255 3.888 4.582 o
4 7 7 44.951 45.220 0.651 32.427 o
4 8 -1 71.232 71.534 0.758 13.932 o
4 8 0 63.660 63.981 1.079 15.292 o
4 8 1 24.015 22.843 0.962 56.462 o
4 8 2 22.235 21.677 0.671 88.028 o
4 8 3 15.173 15.232 0.817 94.706 o
4 8 4 27.644 23.884 6.231 2.215 o
4 8 5 47.778 48.360 0.943 25.231 o
4 8 6 23.087 22.785 0.574 95.036 o
5 -3 -1 101.265 98.722 1.332 6.690 o
5 -3 0 165.536 168.283 1.623 2.596 o
5 -3 1 74.297 72.350 1.954 8.846 o
5 -3 2 23.308 22.221 0.846 67.106 o
5 -3 3 120.911 119.777 1.779 4.499 o
5 -3 4 0.830 0.671 0.360 674.599 o
5 -2 -2 100.910 99.782 1.361 6.637 o
5 -2 -1 38.928 38.105 0.826 37.128 o
5 -2 0 44.525 42.761 0.817 30.917 o
5 -2 1 8.569 8.156 0.399 367.397 o
5 -2 2 95.756 93.007 1.526 7.050 o
5 -2 3 6.332 6.348 0.515 282.444 o
5 -2 4 68.224 69.288 1.283 12.650 o
5 -2 5 10.437 9.555 0.583 192.437 o
5 -2 6 200.779 197.726 2.041 1.789 o
5 -1 -3 18.285 18.109 0.535 133.040 o
5 -1 -2 0.188 0.340 0.272 1183.120 o
5 -1 -1 87.072 84.346 1.166 9.036 o
5 -1 0 60.208 57.060 0.894 18.526 o
5 -1 1 94.233 92.141 1.079 7.973 o
5 -1 2 49.610 47.514 0.797 26.380 o
5 -1 3 76.627 76.083 1.293 10.643 o
5 -1 4 119.042 124.968 1.623 4.592 o
5 -1 5 24.536 23.835 0.778 69.136 o
5 -1 6 22.814 22.766 0.651 86.976 o
5 -1 7 60.562 61.502 0.826 18.089 o
5 0 -4 75.198 74.528 0.855 12.439 o
5 0 -3 21.550 20.258 0.661 93.478 o
5 0 -2 83.150 79.213 1.157 9.891 o
5 0 -1 32.008 29.745 0.700 55.235 o
5 0 0 47.719 46.260 0.797 27.902 o
5 0 1 134.710 132.482 1.312 4.005 o
5 0 2 21.483 21.609 0.710 85.624 o
5 0 3 201.485 211.549 1.964 1.719 o
5 0 4 19.426 20.880 0.729 89.764 o
5 0 5 213.016 217.634 2.090 1.563 o
5 0 6 1.756 1.896 0.399 539.856 o
5 0 7 108.450 112.010 1.254 5.814 o
5 0 8 7.036 7.086 0.321 552.311 o
5 1 -4 72.772 71.407 0.739 13.651 o
5 1 -3 9.142 9.400 0.486 264.246 o
5 1 -2 111.997 108.073 1.293 5.679 o
5 1 -1 6.730 6.445 0.389 437.108 o
5 1 0 281.399 278.514 1.614 0.964 o
5 1 1 14.082 14.328 0.574 158.198 o
5 1 2 67.655 69.590 1.108 13.551 o
5 1 3 16.636 18.022 0.632 120.509 o
5 1 4 123.213 130.217 1.526 4.375 o
5 1 5 106.716 110.095 1.497 5.727 o
5 1 6 58.066 57.546 1.108 17.556 o
5 1 7 39.065 38.610 0.962 33.370 o
5 1 8 34.516 33.769 0.535 54.616 o
5 2 -4 79.890 79.864 0.612 11.619 o
5 2 -3 128.259 126.883 1.429 4.299 o
5 2 -2 38.081 36.919 0.778 39.832 o
5 2 -1 116.093 119.612 1.565 4.898 o
5 2 0 10.249 9.711 0.486 250.465 o
5 2 1 113.753 119.048 1.390 5.179 o
5 2 2 203.480 213.357 1.886 1.699 o
5 2 3 13.797 14.805 0.554 165.022 o
5 2 4 61.518 65.546 1.050 15.819 o
5 2 5 14.036 14.503 0.817 98.212 o
5 2 6 172.587 175.525 1.750 2.375 o
5 2 7 16.996 17.312 0.671 112.651 o
5 2 8 74.297 74.508 0.797 12.799 o
5 3 -4 66.540 65.264 0.603 16.620 o
5 3 -3 145.809 144.487 1.789 3.254 o
5 3 -2 3.687 3.558 0.311 785.435 o
5 3 -1 111.310 110.222 1.448 5.504 o
5 3 0 6.144 5.745 0.399 439.792 o
5 3 1 122.858 130.198 1.458 4.435 o
5 3 2 190.726 199.768 1.769 1.935 o
5 3 3 27.169 28.753 0.710 64.213 o
5 3 4 93.886 96.428 1.633 6.876 o
5 3 5 176.091 180.608 2.304 2.152 o
5 3 6 22.890 23.125 0.690 82.021 o
5 3 7 78.483 78.776 1.623 9.158 o
5 3 8 77.523 78.387 0.807 11.761 o
5 4 -4 30.977 30.377 0.476 67.898 o
5 4 -3 35.664 35.820 0.496 52.211 o
5 4 -2 91.315 92.802 1.818 6.863 o
5 4 -1 7.485 7.942 0.661 174.568 o
5 4 0 93.542 95.058 1.215 7.680 o
5 4 1 25.952 28.005 0.690 68.850 o
5 4 2 230.535 238.446 1.925 1.353 o
5 4 3 432.014 464.391 7.232 0.322 o
5 4 4 221.018 246.485 5.366 0.997 o
5 4 5 61.328 62.153 1.235 15.148 o
5 4 6 79.205 80.302 1.409 9.634 o
5 4 7 57.919 56.690 1.351 15.821 o
5 4 8 18.404 18.129 0.408 161.325 o
5 5 -3 106.153 106.625 0.768 6.597 o
5 5 -2 9.948 9.507 0.292 454.400 o
5 5 -1 153.303 151.408 1.584 3.054 o
5 5 0 86.228 82.392 7.329 1.419 o
5 5 1 63.226 63.641 1.254 14.411 o
5 5 2 2.308 2.187 0.457 408.941 o
5 5 3 100.000 94.708 3.927 3.339 o
5 5 4 20.958 18.343 1.750 24.956 o
5 5 5 2.425 1.555 2.187 18.319 o
5 5 6 153.141 159.233 4.656 1.799 o
5 5 7 23.928 24.049 0.680 79.102 o
5 5 8 63.878 63.777 0.700 17.292 o
5 6 -2 16.972 16.671 0.350 198.228 o
5 6 -1 174.426 175.855 1.789 2.333 o
5 6 0 25.646 20.277 5.638 2.705 o
5 6 1 226.561 231.350 8.476 0.673 o
5 6 2 2.796 1.886 3.354 7.795 o
5 6 3 128.442 125.532 5.842 1.674 o
5 6 4 25.128 21.035 3.723 6.052 o
5 6 5 137.208 130.382 6.513 1.395 o
5 6 6 16.095 16.331 0.817 91.297 o
5 6 7 38.496 39.038 0.710 40.137 o
5 7 -1 1.918 1.662 0.233 1507.150 o
5 7 0 88.461 87.126 1.254 8.531 o
5 7 1 6.597 6.163 0.369 478.675 o
5 7 2 48.906 45.366 4.199 4.344 o
5 7 3 6.750 4.180 5.560 2.834 o
5 7 4 78.062 76.219 1.555 9.573 o
5 7 5 46.075 45.230 1.273 22.043 o
5 7 6 19.182 18.557 0.923 69.755 o
5 8 1 37.557 36.025 0.612 45.732 o
5 8 2 34.638 33.973 0.700 48.154 o
5 8 3 70.349 69.347 0.943 13.704 o
5 8 4 59.333 60.015 1.079 17.023 o
6 -1 1 165.920 162.110 1.711 2.626 o
6 -1 2 63.453 63.611 1.390 13.565 o
6 -1 3 3.924 3.499 0.428 440.765 o
6 -1 4 40.771 40.651 1.128 27.965 o
6 0 -1 73.173 70.338 0.953 12.951 o
6 0 0 4.567 4.238 0.292 816.907 o
6 0 1 37.040 34.537 1.021 34.870 o
6 0 2 10.750 10.391 0.632 166.681 o
6 0 3 180.200 180.113 2.187 2.125 o
6 0 4 1.313 1.128 0.301 947.683 o
6 0 5 85.709 87.340 1.166 9.020 o
6 1 -1 25.040 24.788 0.399 102.108 o
6 1 0 74.300 72.535 0.797 13.006 o
6 1 1 40.173 39.330 1.011 31.203 o
6 1 2 74.218 74.567 1.341 10.948 o
6 1 3 7.896 7.407 0.544 241.288 o
6 1 4 4.059 3.820 0.476 358.517 o
6 1 5 1.324 1.380 0.321 836.018 o
6 1 6 75.782 78.163 0.914 11.809 o
6 2 -2 6.285 5.774 0.272 755.435 o
6 2 -1 51.849 51.150 0.564 26.474 o
6 2 0 40.464 40.817 0.535 41.038 o
6 2 1 35.149 35.840 0.943 38.198 o
6 2 2 52.311 54.017 1.137 19.767 o
6 2 3 99.920 104.039 1.536 6.313 o
6 2 4 293.948 305.703 2.566 0.825 o
6 2 5 31.114 31.563 0.710 54.739 o
6 2 6 119.639 124.093 0.972 5.030 o
6 2 7 3.142 2.916 0.233 1349.540 o
6 3 -2 18.986 18.401 0.447 146.945 o
6 3 -1 72.683 70.085 0.690 13.978 o
6 3 0 21.840 21.677 0.408 125.258 o
6 3 1 118.184 123.568 1.633 4.653 o
6 3 2 17.267 17.886 0.690 107.027 o
6 3 3 79.020 80.797 1.303 9.942 o
6 3 4 11.202 11.101 0.612 170.243 o
6 3 5 86.698 88.350 1.273 8.616 o
6 3 6 19.700 20.063 0.428 140.426 o
6 3 7 50.864 51.966 0.651 25.989 o
6 4 -1 7.169 6.834 0.292 621.945 o
6 4 0 149.186 149.318 1.040 3.358 o
6 4 1 21.136 22.134 0.739 82.443 o
6 4 2 17.503 18.897 0.700 102.859 o
6 4 3 42.699 44.792 1.361 22.098 o
6 4 4 54.476 55.300 1.458 15.959 o
6 4 5 63.531 65.828 0.778 16.699 o
6 4 6 8.074 7.942 0.340 465.980 o
6 4 7 60.224 60.938 0.778 18.604 o
6 5 -1 17.156 16.195 0.379 189.703 o
6 5 0 43.946 41.935 0.544 36.519 o
6 5 1 81.882 77.366 0.826 11.039 o
6 5 2 111.550 112.574 1.682 5.189 o
6 5 3 129.590 131.335 1.497 4.120 o
6 5 4 19.343 18.284 0.612 112.388 o
6 5 5 40.995 41.069 0.710 36.619 o
6 5 6 83.829 85.211 0.885 10.001 o
6 6 0 20.310 19.733 0.369 148.303 o
6 6 1 54.643 53.483 0.544 24.325 o
6 6 2 37.634 36.015 0.535 47.856 o
6 6 3 62.334 60.550 0.855 17.483 o
6 6 4 50.846 52.034 0.992 22.290 o
6 6 5 158.888 160.730 1.701 2.785 o
6 7 3 20.454 20.229 0.437 133.250 o
;
_olex2_submission_special_instructions 'No special instructions were received'
loop_
_space_group_symop_id
_space_group_symop_operation_xyz
1 x,y,z
loop_
_atom_site_label
_atom_site_type_symbol
_atom_site_fract_x
_atom_site_fract_y
_atom_site_fract_z
_atom_site_U_iso_or_equiv
_atom_site_adp_type
_atom_site_occupancy
_atom_site_refinement_flags_posn
Cl(1 Cl 0.80718(4) 0.22589(3) 0.15310(3) 0.01637(7) Uani 1.000000 .
Cl(2 Cl 0.73971(4) 0.55302(3) 0.62207(3) 0.01534(6) Uani 1.000000 .
O(1) O 1.30650(15) -0.53646(12) 1.04093(9) 0.01977(18) Uani 1.000000 .
H(1) H 1.471(5) -0.600(3) 1.068(3) 0.031(5) Uiso 1.000000 .
O(2) O 1.24226(15) -0.35417(12) 1.25073(10) 0.01958(16) Uani 1.000000 .
O(3) O 0.78905(15) -0.03685(11) 0.60297(10) 0.01711(16) Uani 1.000000 .
H(3) H 0.757(4) -0.174(3) 0.624(2) 0.032(4) Uiso 1.000000 .
N(1) N 0.71902(17) -0.18629(13) 1.26786(11) 0.01489(18) Uani 1.000000 .
H(1a H 0.782(5) -0.061(4) 1.264(3) 0.040(5) Uiso 1.000000 .
H(1b H 0.508(5) -0.125(3) 1.274(3) 0.036(5) Uiso 1.000000 .
H(1c H 0.741(4) -0.269(3) 1.389(3) 0.030(5) Uiso 1.000000 .
N(2) N 0.37623(18) 0.32145(13) 0.56010(11) 0.01460(17) Uani 1.000000 .
H(2a H 0.480(4) 0.248(3) 0.450(3) 0.024(4) Uiso 1.000000 .
H(2b H 0.182(5) 0.416(3) 0.544(3) 0.034(5) Uiso 1.000000 .
H(2c H 0.479(5) 0.415(4) 0.568(3) 0.047(6) Uiso 1.000000 .
C(1) C 1.16220(19) -0.40153(14) 1.14592(12) 0.01280(19) Uani 1.000000 .
C(2) C 0.87709(19) -0.30534(14) 1.12053(13) 0.01244(19) Uani 1.000000 .
H(2) H 0.792(4) -0.417(3) 1.129(2) 0.030(4) Uiso 1.000000 .
C(3) C 0.8853(2) -0.18084(15) 0.94698(13) 0.01347(19) Uani 1.000000 .
H(3a H 0.988(4) -0.075(3) 0.943(2) 0.032(4) Uiso 1.000000 .
H(3b H 1.007(4) -0.279(3) 0.845(2) 0.030(4) Uiso 1.000000 .
C(4) C 0.60496(19) -0.06844(15) 0.91574(13) 0.01334(19) Uani 1.000000 .
H(4a H 0.506(3) -0.168(3) 0.906(2) 0.026(4) Uiso 1.000000 .
H(4b H 0.479(3) 0.020(3) 1.023(2) 0.023(4) Uiso 1.000000 .
C(5) C 0.62755(19) 0.06686(15) 0.74982(13) 0.01246(19) Uani 1.000000 .
H(5) H 0.731(4) 0.162(3) 0.759(2) 0.032(4) Uiso 1.000000 .
C(6) C 0.3505(2) 0.18467(16) 0.71996(13) 0.0146(2) Uani 1.000000 .
H(6a H 0.235(4) 0.263(3) 0.827(3) 0.041(5) Uiso 1.000000 .
H(6b H 0.250(4) 0.081(3) 0.712(3) 0.044(5) Uiso 1.000000 .
O(1W O 0.21620(15) 0.07574(12) 0.38416(10) 0.01888(16) Uani 1.000000 .
H(1d H 0.100(5) 0.029(3) 0.458(3) 0.038(5) Uiso 1.000000 .
H(1e H 0.127(4) 0.152(3) 0.296(3) 0.032(5) Uiso 1.000000 .
loop_
_atom_site_aniso_label
_atom_site_aniso_U_11
_atom_site_aniso_U_22
_atom_site_aniso_U_33
_atom_site_aniso_U_12
_atom_site_aniso_U_13
_atom_site_aniso_U_23
Cl(1 0.01406(12) 0.01256(12) 0.02276(12) -0.00332(9) -0.00735(8) 0.00058(9)
Cl(2 0.01611(12) 0.01507(12) 0.01656(11) -0.00654(9) -0.00622(8) 0.00125(8)
O(1) 0.0134(4) 0.0224(5) 0.0240(4) -0.0003(3) -0.0080(3) -0.0083(3)
O(2) 0.0137(4) 0.0231(4) 0.0232(4) -0.0012(3) -0.0086(3) -0.0078(3)
O(3) 0.0172(4) 0.0166(4) 0.0149(4) -0.0041(3) -0.0024(3) 0.0001(3)
N(1) 0.0135(4) 0.0149(4) 0.0139(4) -0.0026(3) -0.0030(3) 0.0003(3)
N(2) 0.0149(4) 0.0135(4) 0.0163(4) -0.0048(3) -0.0064(3) 0.0010(3)
C(1) 0.0101(4) 0.0139(5) 0.0155(4) -0.0041(4) -0.0052(4) -0.0001(4)
C(2) 0.0096(5) 0.0125(5) 0.0156(5) -0.0036(4) -0.0052(3) 0.0012(4)
C(3) 0.0112(5) 0.0157(5) 0.0126(4) -0.0032(4) -0.0041(3) 0.0006(4)
C(4) 0.0108(4) 0.0158(5) 0.0132(4) -0.0038(4) -0.0042(3) 0.0006(4)
C(5) 0.0113(5) 0.0130(5) 0.0137(4) -0.0042(4) -0.0047(4) 0.0005(4)
C(6) 0.0117(5) 0.0166(5) 0.0158(4) -0.0038(4) -0.0058(4) 0.0007(4)
O(1W 0.0119(4) 0.0238(4) 0.0213(4) -0.0045(3) -0.0041(3) -0.0049(3)
loop_
_atom_type_symbol
_atom_type_description
_atom_type_scat_dispersion_real
_atom_type_scat_dispersion_imag
_atom_type_scat_source
_atom_type_scat_dispersion_source
C C 0.00347 0.00161
'Clementi & Roetti, C., At. Data Nucl. Data Tables 1974, 14, (177-478); Clementi & Raimondi, J. Chem. Phys., 1963, 38, (2686-2689)'
'Henke, Gullikson and Davis, At. Data and Nucl. Data Tables, 1993, 54, 2'
H H 0.00000 0.00000
'Clementi & Roetti, C., At. Data Nucl. Data Tables 1974, 14, (177-478); Clementi & Raimondi, J. Chem. Phys., 1963, 38, (2686-2689)'
'Henke, Gullikson and Davis, At. Data and Nucl. Data Tables, 1993, 54, 2'
N N 0.00653 0.00323
'Clementi & Roetti, C., At. Data Nucl. Data Tables 1974, 14, (177-478); Clementi & Raimondi, J. Chem. Phys., 1963, 38, (2686-2689)'
'Henke, Gullikson and Davis, At. Data and Nucl. Data Tables, 1993, 54, 2'
O O 0.01158 0.00611
'Clementi & Roetti, C., At. Data Nucl. Data Tables 1974, 14, (177-478); Clementi & Raimondi, J. Chem. Phys., 1963, 38, (2686-2689)'
'Henke, Gullikson and Davis, At. Data and Nucl. Data Tables, 1993, 54, 2'
loop_
_geom_angle_atom_site_label_1
_geom_angle_atom_site_label_2
_geom_angle_atom_site_label_3
_geom_angle
_geom_angle_site_symmetry_1
_geom_angle_site_symmetry_3
_geom_angle_publ_flag
C(1) O(1) H(1) 109.5(12) . . ?
C(5) O(3) H(3) 107.5(10) . . ?
H(1b N(1) H(1a 103.5(17) . . ?
H(1c N(1) H(1a 106.0(16) . . ?
H(1c N(1) H(1b 107.8(15) . . ?
C(2) N(1) H(1a 113.2(12) . . ?
C(2) N(1) H(1b 114.6(12) . . ?
C(2) N(1) H(1c 111.2(11) . . ?
H(2b N(2) H(2a 109.2(15) . . ?
H(2c N(2) H(2a 108.3(17) . . ?
H(2c N(2) H(2b 104.9(17) . . ?
C(6) N(2) H(2a 111.8(10) . . ?
C(6) N(2) H(2b 111.6(11) . . ?
C(6) N(2) H(2c 110.9(14) . . ?
O(2) C(1) O(1) 125.15(10) . . ?
C(2) C(1) O(1) 112.20(9) . . ?
C(2) C(1) O(2) 122.64(9) . . ?
C(1) C(2) N(1) 106.96(8) . . ?
H(2) C(2) N(1) 107.9(10) . . ?
H(2) C(2) C(1) 107.6(10) . . ?
C(3) C(2) N(1) 111.61(8) . . ?
C(3) C(2) C(1) 110.01(8) . . ?
C(3) C(2) H(2) 112.6(10) . . ?
H(3a C(3) C(2) 108.7(9) . . ?
H(3b C(3) C(2) 107.1(10) . . ?
H(3b C(3) H(3a 108.6(13) . . ?
C(4) C(3) C(2) 113.52(8) . . ?
C(4) C(3) H(3a 107.9(10) . . ?
C(4) C(3) H(3b 110.9(9) . . ?
H(4a C(4) C(3) 110.0(9) . . ?
H(4b C(4) C(3) 110.4(9) . . ?
H(4b C(4) H(4a 108.4(12) . . ?
C(5) C(4) C(3) 110.57(8) . . ?
C(5) C(4) H(4a 109.3(9) . . ?
C(5) C(4) H(4b 108.1(9) . . ?
C(4) C(5) O(3) 111.82(8) . . ?
H(5) C(5) O(3) 105.7(10) . . ?
H(5) C(5) C(4) 108.5(10) . . ?
C(6) C(5) O(3) 109.66(8) . . ?
C(6) C(5) C(4) 111.28(8) . . ?
C(6) C(5) H(5) 109.7(10) . . ?
C(5) C(6) N(2) 110.53(8) . . ?
H(6a C(6) N(2) 109.7(12) . . ?
H(6a C(6) C(5) 109.2(12) . . ?
H(6b C(6) N(2) 112.0(11) . . ?
H(6b C(6) C(5) 107.5(11) . . ?
H(6b C(6) H(6a 107.8(15) . . ?
H(1e O(1W H(1d 105.8(19) . . ?
loop_
_geom_bond_atom_site_label_1
_geom_bond_atom_site_label_2
_geom_bond_distance
_geom_bond_site_symmetry_2
_geom_bond_publ_flag
O(1) H(1) 0.93(2) . ?
O(1) C(1) 1.3118(12) . ?
O(2) C(1) 1.2132(13) . ?
O(3) H(3) 1.06(2) . ?
O(3) C(5) 1.4308(12) . ?
N(1) H(1a 1.09(3) . ?
N(1) H(1b 1.07(2) . ?
N(1) H(1c 1.07(2) . ?
N(1) C(2) 1.4883(14) . ?
N(2) H(2a 1.05(2) . ?
N(2) H(2b 1.07(2) . ?
N(2) H(2c 1.05(3) . ?
N(2) C(6) 1.4976(13) . ?
C(1) C(2) 1.5236(14) . ?
C(2) H(2) 1.06(2) . ?
C(2) C(3) 1.5348(14) . ?
C(3) H(3a 1.10(2) . ?
C(3) H(3b 1.105(19) . ?
C(3) C(4) 1.5322(13) . ?
C(4) H(4a 1.077(19) . ?
C(4) H(4b 1.102(18) . ?
C(4) C(5) 1.5265(14) . ?
C(5) H(5) 1.07(2) . ?
C(5) C(6) 1.5204(14) . ?
C(6) H(6a 1.05(2) . ?
C(6) H(6b 1.11(2) . ?
O(1W H(1d 0.86(3) . ?
O(1W H(1e 0.97(2) . ?
loop_
_refln_index_h
_refln_index_k
_refln_index_l
_refln_F_squared_meas
_refln_F_squared_sigma
-1 0 0 605.12 7.49
1 0 0 573.21 3.76
-2 0 0 2563.51 21.95
2 0 0 2481.43 21.81
-3 0 0 70.68 2.82
3 0 0 74.13 0.74
-4 0 0 64.85 5.67
4 0 0 61.56 0.8
-5 0 0 46.2 5.58
5 0 0 47.59 0.82
-6 0 0 5.07 0.36
6 0 0 4.36 0.3
-7 0 0 14.36 0.55
7 0 0 14.11 0.53
-8 0 0 7.59 0.5
8 0 0 8.33 0.41
-9 0 0 1.41 0.41
9 0 0 1.23 0.34
-10 0 0 2.55 0.57
10 0 0 2.58 0.41
-11 0 0 4.1 0.61
11 0 0 3.35 0.5
10 -1 0 7.38 0.52
-10 1 0 7.07 0.7
9 -1 0 14.8 0.53
-9 1 0 14.35 0.67
8 -1 0 10.51 0.55
-8 1 0 11.3 0.7
7 -1 0 103.02 1.11
-7 1 0 108.18 1.64
6 -1 0 70.63 1.02
-6 1 0 75.31 1.24
5 -1 0 58.7 0.92
-5 1 0 66.5 7.01
4 -1 0 40.4 0.68
-4 1 0 37.33 4.64
3 -1 0 26.68 0.56
-3 1 0 26.71 0.85
2 -1 0 40.61 2.24
-2 1 0 46.71 0.9
1 -1 0 124.82 2.44
-1 1 0 129.1 2.92
-1 -1 0 745.61 4.83
1 1 0 703.93 6.01
-2 -1 0 491.06 4.13
2 1 0 488.27 4.77
-3 -1 0 204.9 2.23
3 1 0 197.12 1.15
-4 -1 0 292.63 11.51
4 1 0 279.68 1.67
-5 -1 0 325.39 14.01
5 1 0 286.52 1.66
-6 -1 0 81.27 1.22
6 1 0 74.62 0.82
-7 -1 0 79.33 0.83
7 1 0 78.75 0.75
-8 -1 0 25.69 0.9
8 1 0 28.45 0.6
-9 -1 0 4.78 0.48
9 1 0 4.82 0.39
-10 -1 0 4.86 0.64
10 1 0 3.9 0.44
-11 -1 0 0.73 0.48
11 1 0 0.91 0.54
10 -2 0 6.8 0.59
-10 2 0 7.61 1.02
9 -2 0 15.14 0.6
-9 2 0 14.8 0.69
8 -2 0 2.18 0.39
-8 2 0 2.58 0.37
7 -2 0 44.76 0.77
-7 2 0 45.25 1.12
6 -2 0 15.02 0.52
-6 2 0 12.26 0.49
5 -2 0 43.99 0.84
-5 2 0 46.5 6.14
4 -2 0 81.42 0.97
-4 2 0 83.48 1.8
3 -2 0 52.92 0.8
-3 2 0 50.81 1.22
2 -2 0 701.11 5.68
-2 2 0 767.12 10.98
1 -2 0 15.81 0.63
-1 2 0 13.77 1.16
0 -2 0 260.56 2.4
0 2 0 245.35 3.41
-1 -2 0 401.48 5.51
1 2 0 404.74 5.29
-2 -2 0 213.64 2.92
2 2 0 198.87 4.6
-3 -2 0 137.33 1.5
3 2 0 131.26 1.18
-4 -2 0 125.36 2.86
4 2 0 122.77 1.07
-5 -2 0 10.31 0.58
5 2 0 9.99 0.5
-6 -2 0 40.12 0.86
6 2 0 41.99 0.55
-7 -2 0 23.95 0.49
7 2 0 24.2 0.45
-8 -2 0 9.68 0.44
8 2 0 10.21 0.35
-9 -2 0 14.46 0.64
9 2 0 14.11 0.5
-10 -2 0 6.21 0.65
10 2 0 6.44 0.52
-11 -2 0 4.54 0.63
11 2 0 4.59 0.43
10 -3 0 2.1 0.61
-10 3 0 2.41 0.81
9 -3 0 4.37 0.68
-9 3 0 4.54 0.63
8 -3 0 1.09 0.44
-8 3 0 1.16 0.35
7 -3 0 6.58 0.57
-7 3 0 7.35 0.43
6 -3 0 5.88 0.48
-6 3 0 5.9 0.32
5 -3 0 173.12 1.67
-5 3 0 173 1.78
4 -3 0 78.73 1.16
-4 3 0 74.89 1.8
3 -3 0 340.51 4.9
-3 3 0 348.31 3.32
2 -3 0 146.56 3.76
-2 3 0 155.97 1.84
1 -3 0 521.13 4.01
-1 3 0 520.3 8.36
0 -3 0 347.83 3.08
0 3 0 328.62 5.43
-1 -3 0 635.93 8.3
1 3 0 628.82 7.88
-2 -3 0 328.78 3.78
2 3 0 298.63 6.18
-3 -3 0 159.1 1.04
3 3 0 150.56 1.37
-4 -3 0 78.46 0.97
4 3 0 77.59 0.75
-5 -3 0 5.97 0.52
5 3 0 5.91 0.41
-6 -3 0 21.84 0.55
6 3 0 22.3 0.42
-7 -3 0 11.36 0.37
7 3 0 11.25 0.34
-8 -3 0 10.27 0.45
8 3 0 9.97 0.41
-9 -3 0 20.56 0.88
9 3 0 20.09 0.54
-10 -3 0 1.61 0.52
10 3 0 1.19 0.4
-11 -3 0 6.59 0.53
11 3 0 6.37 0.51
9 -4 0 4.9 0.68
-9 4 0 5.24 0.64
8 -4 0 14.47 0.81
-8 4 0 14.7 0.67
7 -4 0 7.78 0.86
-7 4 0 7.96 0.64
6 -4 0 43.81 1.97
-6 4 0 44.37 0.77
5 -4 0 10.14 0.98
-5 4 0 9.79 0.34
4 -4 0 79.61 1.24
-4 4 0 77.33 1.93
3 -4 0 13.62 0.5
-3 4 0 13.07 0.78
2 -4 0 22.43 2.01
-2 4 0 22.59 0.83
1 -4 0 125.93 2.13
-1 4 0 126.3 1.2
0 -4 0 45.71 1.38
0 4 0 49.18 0.68
-1 -4 0 401.68 5.23
1 4 0 376.15 3.76
-2 -4 0 529.67 5.01
2 4 0 483.19 6.1
-3 -4 0 270.6 1.9
3 4 0 251.78 2.25
-4 -4 0 500.86 5.95
4 4 0 465.51 2.72
-5 -4 0 101.31 1.32
5 4 0 97.79 1.25
-6 -4 0 162.96 1.16
6 4 0 153.61 1.07
-7 -4 0 31.99 0.5
7 4 0 30.22 0.56
-8 -4 0 32.44 0.79
8 4 0 32.87 0.65
-9 -4 0 17.19 0.58
9 4 0 15.6 0.5
-10 -4 0 1.55 0.51
10 4 0 1.5 0.38
-11 -4 0 2.74 0.47
11 4 0 2.67 0.37
9 -5 0 1 0.72
-9 5 0 0.05 0.09
8 -5 0 7.39 0.95
-8 5 0 7.06 0.51
7 -5 0 5.83 0.82
-7 5 0 5.07 0.44
6 -5 0 17.98 1.44
-6 5 0 16.67 0.54
5 -5 0 63.43 2.17
-5 5 0 62.72 0.84
4 -5 0 33.85 7.61
-4 5 0 35.14 0.63
3 -5 0 250.24 2.7
-3 5 0 240.32 3.14
2 -5 0 59.83 3.43
-2 5 0 66.01 1.08
1 -5 0 219.17 3.5
-1 5 0 213.54 1.71
0 -5 0 42.47 1.3
0 5 0 46.5 0.61
-1 -5 0 54.84 2.54
1 5 0 55.49 0.78
-2 -5 0 30.63 0.53
2 5 0 28.84 0.82
-3 -5 0 39.8 0.65
3 5 0 39.17 1.06
-4 -5 0 0.52 0.21
4 5 0 0.37 0.32
-5 -5 0 84.95 1.29
5 5 0 84.76 7.54
-6 -5 0 45.44 0.54
6 5 0 43.14 0.56
-7 -5 0 34.94 0.58
7 5 0 33.35 0.53
-8 -5 0 27.79 0.65
8 5 0 25.48 0.67
-9 -5 0 25.67 0.79
9 5 0 23.26 0.62
-10 -5 0 6.83 0.96
10 5 0 6.93 0.47
-11 -5 0 11.05 1.07
11 5 0 10.24 0.47
-8 6 0 0.58 0.66
7 -6 0 0.92 0.9
-7 6 0 0.93 0.41
6 -6 0 13.27 0.97
-6 6 0 13.73 0.57
5 -6 0 28.91 1.62
-5 6 0 29.27 0.68
-4 6 0 7.68 0.36
3 -6 0 74.57 7.84
-3 6 0 74.52 0.9
2 -6 0 2.67 2.46
-2 6 0 4.7 0.42
1 -6 0 142.38 4.47
-1 6 0 145.29 1.55
0 -6 0 42.08 2.31
0 6 0 45.94 0.79
-1 -6 0 166.13 1.75
1 6 0 170.93 1.52
-2 -6 0 171.15 1.63
2 6 0 164.83 2.04
-3 -6 0 22.27 0.54
3 6 0 23.19 0.93
-4 -6 0 26.74 0.63
4 6 0 26.53 1.01
-5 -6 0 23.33 0.65
5 6 0 20.86 5.8
-6 -6 0 20.63 0.38
6 6 0 20.3 0.38
-7 -6 0 4.41 0.35
7 6 0 3.98 0.26
-8 -6 0 13.81 0.51
8 6 0 13.41 0.44
-9 -6 0 6.57 0.45
9 6 0 7.07 0.4
-10 -6 0 14.41 0.58
10 6 0 13.42 0.5
-11 -6 0 1.99 0.51
11 6 0 1.63 0.36
-8 7 0 2.82 0.48
7 -7 0 9.21 0.98
-7 7 0 9.14 0.63
6 -7 0 2.09 0.78
-6 7 0 2.01 0.41
5 -7 0 39.2 1.89
-5 7 0 40.13 0.82
4 -7 0 1.06 0.72
-4 7 0 0.85 0.31
-3 7 0 2.13 0.25
2 -7 0 33.53 6.99
-2 7 0 39.41 0.66
1 -7 0 211.99 7.86
-1 7 0 209.18 2.01
0 -7 0 81.82 4.86
0 7 0 83.19 1.17
-1 -7 0 251.02 8.17
1 7 0 251.48 2.92
-2 -7 0 66.33 1.13
2 7 0 62.6 1.47
-3 -7 0 178.51 1.54
3 7 0 185.55 2.69
-4 -7 0 146.24 1.48
4 7 0 148.48 2.48
-5 -7 0 87.48 0.88
5 7 0 89.63 1.29
-6 -7 0 90.4 0.86
6 7 0 84.78 0.72
-7 -7 0 49.92 0.79
7 7 0 45.49 0.65
-8 -7 0 3 0.33
8 7 0 2.93 0.32
-9 -7 0 15.8 0.58
9 7 0 14.72 0.5
-10 -7 0 8.94 0.52
10 7 0 8.94 0.49
-11 -7 0 1.83 0.52
11 7 0 1.89 0.48
-7 8 0 12.41 0.56
6 -8 0 15.98 1.09
-6 8 0 15.86 0.62
5 -8 0 19.16 1.08
-5 8 0 20.16 0.65
4 -8 0 5.34 0.93
-4 8 0 5.45 0.41
-3 8 0 44.71 0.71
-2 8 0 65.18 0.71
1 -8 0 64.02 5.35
-1 8 0 69.47 0.86
0 -8 0 154.72 7.21
0 8 0 159.24 1.77
-1 -8 0 5.77 0.65
1 8 0 4.85 4.84
-2 -8 0 15.42 0.65
2 8 0 13.39 4.69
-3 -8 0 33.66 0.76
3 8 0 30.84 5.38
-4 -8 0 66.29 1.09
4 8 0 65.82 1.11
-5 -8 0 12.32 0.37
5 8 0 11.96 0.38
-6 -8 0 95.43 0.98
6 8 0 92.98 0.85
-7 -8 0 18.88 0.48
7 8 0 19.72 0.48
-8 -8 0 52.2 0.79
8 8 0 50.1 0.74
-9 -8 0 10.31 0.46
9 8 0 9.77 0.49
-10 -8 0 8.52 0.51
10 8 0 7.82 0.53
-11 -8 0 2.88 0.8
11 8 0 2.41 0.42
-7 9 0 13.53 0.8
-6 9 0 1.27 0.46
5 -9 0 1.78 1.25
-5 9 0 1.82 0.53
-4 9 0 27.14 0.73
-3 9 0 38.26 0.7
-2 9 0 49.04 0.73
-1 9 0 49.02 0.69
0 9 0 26.89 0.57
-1 -9 0 27.63 1.25
1 9 0 29.59 0.79
-2 -9 0 54.23 1.01
2 9 0 54.3 1.02
-3 -9 0 34.36 0.84
3 9 0 33.2 0.83
-4 -9 0 38.85 0.91
4 9 0 37.25 0.57
-5 -9 0 34.81 0.65
5 9 0 35.08 0.67
-6 -9 0 2.31 0.29
6 9 0 2.16 0.34
-7 -9 0 7.3 0.38
7 9 0 7.24 0.4
-8 -9 0 3.45 0.39
8 9 0 3.01 0.37
-9 -9 0 0.44 0.42
9 9 0 0.41 0.36
-10 -9 0 4.52 0.45
10 9 0 4.43 0.56
-11 -9 0 5.49 0.45
11 9 0 5 0.53
-6 10 0 2.86 0.57
-5 10 0 1.33 0.44
-4 10 0 3.09 0.48
-3 10 0 0.45 0.34
-2 10 0 0.63 0.3
-1 10 0 8.23 0.45
0 10 0 13.76 0.49
-1 -10 0 52.6 1.3
1 10 0 51.35 0.87
-2 -10 0 55.48 1.09
2 10 0 57.36 1.13
-3 -10 0 46.71 1.02
3 10 0 44.05 0.81
-4 -10 0 69.74 1.15
4 10 0 73.96 0.92
-5 -10 0 17.59 0.53
5 10 0 18.76 0.55
-6 -10 0 27.51 0.66
6 10 0 29.49 0.69
-7 -10 0 8.55 0.41
7 10 0 8.95 0.49
-8 -10 0 3.24 0.41
8 10 0 2.85 0.42
-9 -10 0 2.63 0.47
9 10 0 2.53 0.42
-10 -10 0 0.64 0.43
10 10 0 0.47 0.52
-5 11 0 14.11 0.84
-4 11 0 16.32 0.89
-3 11 0 17.74 0.73
-2 11 0 5.42 0.64
-1 11 0 5.67 0.49
0 11 0 0.16 0.67
-1 -11 0 0.72 0.57
1 11 0 0.76 0.42
-2 -11 0 3 0.58
2 11 0 3.07 0.52
-3 -11 0 13.93 0.86
3 11 0 14.65 0.73
-4 -11 0 8.17 0.76
4 11 0 8.6 0.63
-5 -11 0 25.23 0.64
5 11 0 24.79 0.9
-6 -11 0 19.64 0.61
6 11 0 19.89 0.62
-7 -11 0 26.82 0.79
7 11 0 27.15 0.72
-8 -11 0 23.6 0.8
8 11 0 22.91 0.7
-9 -11 0 10.46 0.62
9 11 0 10.58 0.5
-10 -11 0 5.58 0.46
10 11 0 4.79 0.46
-4 12 0 5.56 0.66
-3 12 0 6.12 0.69
-2 12 0 17.54 0.73
-1 12 0 20.22 0.74
0 12 0 33.01 0.86
1 12 0 42.73 1.15
-2 -12 0 42.08 1.36
2 12 0 43.65 1.69
-3 -12 0 20.01 1.04
3 12 0 21.17 1.23
-4 -12 0 25.88 1.17
4 12 0 26.35 0.97
-5 -12 0 0.18 0.38
5 12 0 0.76 0.68
-6 -12 0 5.38 0.45
6 12 0 5.88 0.95
-7 -12 0 3.06 0.4
7 12 0 3.09 0.61
-8 -12 0 0.26 0.44
8 12 0 0.51 0.91
-9 -12 0 1.97 0.46
9 12 0 1.64 0.43
-10 -12 0 3.77 0.44
-3 13 0 2.06 0.62
-2 13 0 1.5 0.48
-1 13 0 0 1.05
0 13 0 9.63 0.75
1 13 0 10.61 0.74
2 13 0 3.72 0.87
-3 -13 0 14.46 1.38
3 13 0 15.78 0.83
-4 -13 0 10.01 0.59
4 13 0 11.38 0.77
-5 -13 0 17.11 0.71
5 13 0 19.17 1.34
-6 -13 0 14.87 0.59
6 13 0 15 1.28
-7 -13 0 2.2 0.43
7 13 0 2.02 0.92
-8 -13 0 5.48 0.54
8 13 0 5.15 0.69
-9 -13 0 0.71 0.43
9 13 0 0.2 0.2
-2 14 0 2.26 0.48
-1 14 0 1.34 0.64
0 14 0 0.42 0.66
1 14 0 0.64 0.99
2 14 0 2.48 0.89
-3 -14 0 10.23 1.4
3 14 0 11.4 0.79
-4 -14 0 0.17 0.74
4 14 0 0.68 0.63
-5 -14 0 18.64 0.85
5 14 0 19.63 1.34
-6 -14 0 2.4 0.5
6 14 0 2.64 0.68
-7 -14 0 4.8 0.66
7 14 0 5.04 0.97
-8 -14 0 10.39 0.73
8 14 0 11.72 1.18
0 15 0 3.99 0.64
1 15 0 16.55 1.31
2 15 0 1.95 0.82
3 15 0 7.68 1.07
4 15 0 1.81 0.6
-5 -15 0 0.31 0.79
5 15 0 0.39 0.82
-6 -15 0 0.79 0.74
6 15 0 0.8 0.83
-7 -15 0 2.79 0.58
7 15 0 3 0.9
-4 -16 0 5.2 0.86
-5 -16 0 6.76 0.95
5 16 0 6.84 0.95
6 15 -1 2.89 0.87
-6 -15 1 3.03 0.87
-5 -15 1 2.69 0.83
4 15 -1 11.81 0.8
-4 -15 1 9.52 1
2 15 -1 5.58 1.01
1 15 -1 0.36 0.73
0 15 -1 0.87 0.59
-8 -14 1 0.12 0.4
7 14 -1 8.13 1.11
-7 -14 1 7.25 0.68
6 14 -1 3.38 0.95
-6 -14 1 3.12 0.61
5 14 -1 19.57 1.35
-5 -14 1 18.79 0.77
4 14 -1 10.79 0.79
-4 -14 1 9.81 0.78
3 14 -1 18.77 0.93
-3 -14 1 17.6 1.56
2 14 -1 29.58 1.58
1 14 -1 12.93 1.21
0 14 -1 14.7 0.85
-1 14 -1 8.07 0.73
-2 14 -1 0.37 0.64
9 13 -1 2.49 0.61
-9 -13 1 3.06 0.42
8 13 -1 2.65 0.48
-8 -13 1 2.89 0.47
7 13 -1 1.6 0.82
-7 -13 1 1.18 0.41
6 13 -1 16.02 0.86
-6 -13 1 14.83 0.61
5 13 -1 2.75 0.85
-5 -13 1 2.2 0.51
4 13 -1 4.71 0.64
-4 -13 1 4.05 0.78
3 13 -1 1.53 0.59
-3 -13 1 1.04 0.82
-2 -13 1 7.18 0.83
1 13 -1 4.94 0.64
0 13 -1 13.39 0.82
-1 13 -1 3.91 0.51
-2 13 -1 17.62 0.73
-3 13 -1 16.02 0.87
9 12 -1 10.45 0.79
-9 -12 1 10.85 0.55
8 12 -1 18.3 0.75
-8 -12 1 16.6 0.72
7 12 -1 19.93 0.66
-7 -12 1 18.71 0.62
6 12 -1 12.88 0.64
-6 -12 1 11.52 0.48
5 12 -1 7.8 0.66
-5 -12 1 7.1 0.54
4 12 -1 22.9 0.74
-4 -12 1 22.77 0.97
3 12 -1 8.33 0.55
-3 -12 1 7.09 0.79
2 12 -1 11.56 0.73
-2 -12 1 11.88 0.9
1 12 -1 11.25 0.72
-1 -12 1 10.25 0.86
0 12 -1 0.87 0.56
0 -12 1 0.35 2
-1 12 -1 0.66 0.41
-2 12 -1 3.55 0.5
-3 12 -1 0.3 0.44
-4 12 -1 1.03 0.51
10 11 -1 0.29 0.68
-10 -11 1 0.38 0.44
9 11 -1 0.47 0.48
-9 -11 1 0.31 0.36
8 11 -1 0.56 0.35
-8 -11 1 0.75 0.43
7 11 -1 13.88 0.58
-7 -11 1 14.23 0.55
6 11 -1 9.27 0.57
-6 -11 1 9.13 0.44
5 11 -1 31.59 0.82
-5 -11 1 31.01 0.7
4 11 -1 42.59 0.9
-4 -11 1 40.66 1
3 11 -1 31.09 0.78
-3 -11 1 29.72 0.94
2 11 -1 43.39 0.89
-2 -11 1 43.09 1.09
1 11 -1 20.22 0.81
-1 -11 1 18.66 0.96
0 11 -1 25.19 0.62
0 -11 1 26 1.55
-1 11 -1 19.32 0.55
-2 11 -1 1.66 0.32
-3 11 -1 5.68 0.5
-4 11 -1 1.72 0.59
-5 11 -1 0.33 0.33
10 10 -1 4.93 0.54
-10 -10 1 5.39 0.45
9 10 -1 11.24 0.57
-9 -10 1 12.75 0.57
8 10 -1 3.41 0.44
-8 -10 1 3.26 0.48
7 10 -1 8.14 0.49
-7 -10 1 8.39 0.46
6 10 -1 3.16 0.38
-6 -10 1 2.89 0.33
5 10 -1 4.33 0.38
-5 -10 1 4.32 0.37
4 10 -1 2 0.33
-4 -10 1 1.79 0.31
3 10 -1 7.39 0.46
-3 -10 1 7.89 0.56
2 10 -1 21.31 0.53
-2 -10 1 21.29 0.77
1 10 -1 52.27 1.1
-1 -10 1 50.84 1.35
0 10 -1 54.5 0.93
0 -10 1 53.42 1.94
-1 10 -1 70.96 0.88
-2 10 -1 44.18 0.75
-3 10 -1 47.97 0.82
-4 10 -1 13.31 0.52
-5 10 -1 15.32 0.73
-6 10 -1 1.09 0.51
10 9 -1 3.46 0.66
-10 -9 1 3.39 0.6
9 9 -1 8.66 0.62
-9 -9 1 9.03 0.51
8 9 -1 20.93 0.67
-8 -9 1 20.96 0.72
7 9 -1 33.66 0.76
-7 -9 1 35.9 0.69
6 9 -1 41.01 0.78
-6 -9 1 40.48 0.67
5 9 -1 46.14 0.77
-5 -9 1 47.89 0.76
4 9 -1 47.86 0.75
-4 -9 1 47.59 0.71
3 9 -1 25.53 0.5
-3 -9 1 26.07 0.78
2 9 -1 48.01 0.8
-2 -9 1 49.58 1.23
1 9 -1 4.95 0.37
-1 -9 1 4.97 0.76
0 9 -1 23.42 0.55
-1 9 -1 8.11 0.4
-2 9 -1 2.18 0.3
-3 9 -1 0.46 0.33
-4 9 -1 15.51 0.59
4 -9 1 15.29 1.33
-5 9 -1 6.74 0.49
5 -9 1 6.8 1.23
-6 9 -1 23.31 0.81
-7 9 -1 5.84 0.53
11 8 -1 0.13 0.24
-11 -8 1 0.11 0.4
10 8 -1 1.87 0.38
-10 -8 1 2 0.4
9 8 -1 1.5 0.43
-9 -8 1 1.58 0.38
8 8 -1 6.43 0.42
-8 -8 1 7.43 0.46
7 8 -1 1.06 0.28
-7 -8 1 1.54 0.32
6 8 -1 31.87 0.6
-6 -8 1 31.54 0.52
5 8 -1 27.41 0.6
-5 -8 1 25.86 0.56
4 8 -1 73.59 0.78
-4 -8 1 68.12 0.93
3 8 -1 83.06 1.07
-3 -8 1 80.65 1.21
2 8 -1 75.66 1.93
-2 -8 1 74.76 1.38
1 8 -1 76.85 1.93
-1 -8 1 79.51 1.9
0 8 -1 111.44 1.53
0 -8 1 101.18 8.54
-1 8 -1 11.28 0.41
1 -8 1 9.74 8.29
-2 8 -1 18.1 0.6
-3 8 -1 3.92 0.32
-4 8 -1 3.08 0.45
4 -8 1 2.77 0.9
-5 8 -1 2.6 0.48
5 -8 1 1.93 0.98
-6 8 -1 3.79 0.54
6 -8 1 3.08 1.24
-7 8 -1 5.67 0.53
11 7 -1 6.74 0.5
-11 -7 1 7.26 0.68
10 7 -1 12.49 0.53
-10 -7 1 13.02 0.51
9 7 -1 9.44 0.43
-9 -7 1 9.97 0.59
8 7 -1 2.87 0.33
-8 -7 1 3.31 0.34
7 7 -1 9.5 0.38
-7 -7 1 10.51 0.38
6 7 -1 1.77 0.26
-6 -7 1 1.7 0.25
5 7 -1 1.71 0.24
-5 -7 1 1.97 0.25
4 7 -1 74.28 1.84
-4 -7 1 73.8 1.14
3 7 -1 106.28 2.12
-3 -7 1 105.91 1.28
2 7 -1 90.62 1.93
-2 -7 1 94.4 1.09
1 7 -1 107.31 2.07
-1 -7 1 105.65 1.32
0 7 -1 94.58 1.4
0 -7 1 93.45 1.66
-1 7 -1 30.14 0.79
1 -7 1 28.03 5.01
-2 7 -1 194.95 1.39
2 -7 1 200.24 12.26
-3 7 -1 27.12 0.7
-4 7 -1 164.87 1.44
4 -7 1 168.9 3.25
-5 7 -1 21.67 0.64
5 -7 1 21.38 1.06
-6 7 -1 6.79 0.48
6 -7 1 6.81 0.84
-7 7 -1 0.94 0.45
7 -7 1 1.17 1.02
-8 7 -1 7.64 0.69
11 6 -1 0.13 0.2
-11 -6 1 0 0.08
10 6 -1 12.79 0.49
-10 -6 1 14.66 0.84
9 6 -1 3.43 0.33
-9 -6 1 4.47 0.42
8 6 -1 29.25 0.58
-8 -6 1 31.55 0.7
7 6 -1 71.42 0.72
-7 -6 1 75.38 0.85
6 6 -1 63.61 0.63
-6 -6 1 63.42 0.69
5 6 -1 180.91 1.84
-5 -6 1 179.84 1.51
4 6 -1 57.58 1.49
-4 -6 1 54.96 0.93
3 6 -1 289.24 6.51
-3 -6 1 282.32 1.92
2 6 -1 147.3 2.03
-2 -6 1 150.42 1.27
1 6 -1 25.97 0.71
-1 -6 1 26.35 0.51
0 6 -1 8.13 0.32
0 -6 1 7.64 0.34
-1 6 -1 68.78 0.87
1 -6 1 65.81 3.97
-2 6 -1 68.42 1.19
2 -6 1 65.13 3.48
-3 6 -1 35.03 0.76
3 -6 1 30.21 6.64
-4 6 -1 39.22 0.7
4 -6 1 40.43 1.61
-5 6 -1 6.56 0.42
5 -6 1 5.55 0.68
-6 6 -1 17.41 0.53
6 -6 1 18.17 1.05
-7 6 -1 29.41 0.67
7 -6 1 29.75 1.35
-8 6 -1 9.92 0.75
11 5 -1 0.11 0.2
-11 -5 1 0.22 0.5
10 5 -1 1.78 0.33
-10 -5 1 1.67 0.55
9 5 -1 24.31 0.58
-9 -5 1 24.6 0.6
8 5 -1 2.36 0.29
-8 -5 1 2.17 0.35
7 5 -1 29.84 0.54
-7 -5 1 30.18 0.62
6 5 -1 16.66 0.39
-6 -5 1 19.3 0.44
5 5 -1 155.76 1.63
-5 -5 1 155.17 1.48
4 5 -1 47.39 1.25
-4 -5 1 49 1.04
3 5 -1 219.36 2.52
-3 -5 1 221.03 1.59
2 5 -1 194.96 2.18
-2 -5 1 188.8 1.31
1 5 -1 48.93 0.78
-1 -5 1 47.44 0.61
0 5 -1 463.35 6.58
0 -5 1 467.87 6.83
-1 5 -1 27.68 0.51
1 -5 1 25.38 1.68
-2 5 -1 436.96 3.57
2 -5 1 436.53 10.11
-3 5 -1 23.69 0.77
3 -5 1 20.79 3.28
-4 5 -1 47.71 0.72
4 -5 1 47.64 1.61
-5 5 -1 4.59 0.35
5 -5 1 4.75 0.85
-6 5 -1 3.74 0.34
6 -5 1 3.95 0.69
-7 5 -1 2.84 0.36
7 -5 1 2.69 0.71
-8 5 -1 1.71 0.42
8 -5 1 1.68 0.97
-9 5 -1 1.86 0.55
9 -5 1 1.6 0.89
11 4 -1 0.95 0.38
-11 -4 1 0.66 0.5
10 4 -1 9.53 0.5
-10 -4 1 10.21 0.6
9 4 -1 13.1 0.48
-9 -4 1 13.89 0.78
8 4 -1 35.97 0.64
-8 -4 1 34.51 0.71
7 4 -1 5.64 0.32
-7 -4 1 5.81 0.36
6 4 -1 7.03 0.3
-6 -4 1 6.85 0.3
5 4 -1 8.17 0.68
-5 -4 1 7.7 0.46
4 4 -1 22.15 0.59
-4 -4 1 20.81 0.51
3 4 -1 79.96 1.39
-3 -4 1 88.37 0.95
2 4 -1 80.47 1.31
-2 -4 1 82.33 0.7
1 4 -1 385.28 4.06
-1 -4 1 422.95 5.22
0 4 -1 230.06 2.01
0 -4 1 235.07 3.2
-1 4 -1 103.86 0.86
1 -4 1 103.32 2.45
-2 4 -1 112.18 0.97
2 -4 1 116.58 3.72
-3 4 -1 17.63 0.86
3 -4 1 15.85 0.65
-4 4 -1 49.82 6.32
4 -4 1 55.93 1.55
-5 4 -1 11.56 0.36
5 -4 1 11.6 1
-6 4 -1 20.93 0.49
6 -4 1 21.55 1.03
-7 4 -1 4.35 0.39
7 -4 1 4.91 0.74
-8 4 -1 5.95 0.52
8 -4 1 6.41 0.64
-9 4 -1 0.21 0.48
9 -4 1 0.2 0.8
11 3 -1 6.47 0.46
-11 -3 1 6.46 0.54
10 3 -1 5.61 0.42
-10 -3 1 6.23 0.54
9 3 -1 18.72 0.6
-9 -3 1 18.96 0.88
8 3 -1 31.27 0.6
-8 -3 1 33.83 0.82
7 3 -1 67.89 0.76
-7 -3 1 71.32 0.79
6 3 -1 72.1 0.71
-6 -3 1 77.12 0.97
5 3 -1 113.39 1.49
-5 -3 1 132.01 9.29
4 3 -1 72.23 0.75
-4 -3 1 76.14 1
3 3 -1 113.33 1.05
-3 -3 1 114 1.19
2 3 -1 120.14 1.45
-2 -3 1 131.71 0.94
1 3 -1 215.12 2.83
-1 -3 1 233.13 5.45
0 3 -1 46.36 1.88
0 -3 1 51.55 1.43
-1 3 -1 224.68 5.91
1 -3 1 224.78 3.36
-2 3 -1 106.92 1.5
2 -3 1 105.3 2.66
-3 3 -1 193.22 2.38
3 -3 1 189.34 1.32
-4 3 -1 136.14 9.32
4 -3 1 141.82 1.23
-5 3 -1 77.88 1.2
5 -3 1 74.43 2.01
-6 3 -1 90.91 1.17
6 -3 1 91.25 1.83
-7 3 -1 24.38 0.63
7 -3 1 25.7 0.85
-8 3 -1 27.22 0.71
8 -3 1 28.35 0.79
-9 3 -1 4.35 0.5
9 -3 1 3.87 0.54
-10 3 -1 2 0.52
10 -3 1 2.54 0.61
11 2 -1 1.14 0.42
-11 -2 1 0.86 0.42
10 2 -1 0.98 0.45
-10 -2 1 0.84 0.41
9 2 -1 3.88 0.41
-9 -2 1 4.15 0.57
8 2 -1 10.84 0.43
-8 -2 1 11.84 0.56
7 2 -1 20.77 0.43
-7 -2 1 20.44 0.48
6 2 -1 52.62 0.58
-6 -2 1 53.79 0.71
5 2 -1 123.05 1.61
-5 -2 1 123.04 9.05
4 2 -1 164.4 1.61
-4 -2 1 176.36 2.02
3 2 -1 698.09 8.06
-3 -2 1 781.32 6.98
2 2 -1 322.91 6.65
-2 -2 1 355.42 3.76
1 2 -1 2324.78 83.52
-1 -2 1 2633.85 69.84
0 2 -1 312.33 4.94
0 -2 1 324.25 3.75
-1 2 -1 1865.26 57.52
1 -2 1 1874.51 21.54
-2 2 -1 133.14 1.55
2 -2 1 124.99 3.56
-3 2 -1 144.3 1.89
3 -2 1 133.66 0.94
-4 2 -1 1.08 8.03
4 -2 1 2.19 0.24
-5 2 -1 7.26 4.61
5 -2 1 8.39 0.41
-6 2 -1 7.07 0.41
6 -2 1 7.39 0.49
-7 2 -1 9.46 0.51
7 -2 1 9.62 0.59
-8 2 -1 4.24 0.4
8 -2 1 4.26 0.46
-9 2 -1 10.23 0.53
9 -2 1 10.6 0.62
-10 2 -1 2.75 0.85
10 -2 1 2.94 0.63
11 1 -1 5.27 0.49
-11 -1 1 4.43 0.62
10 1 -1 1.09 0.47
-10 -1 1 1.64 0.54
9 1 -1 7.34 0.43
-9 -1 1 7.31 0.53
8 1 -1 12.95 0.46
-8 -1 1 13.02 0.59
7 1 -1 5.81 0.33
-7 -1 1 6.2 0.43
6 1 -1 25.5 0.41
-6 -1 1 26.4 0.47
5 1 -1 6.63 0.4
-5 -1 1 4.97 4.92
4 1 -1 41.41 0.7
-4 -1 1 37.3 1.02
3 1 -1 95.53 1.06
-3 -1 1 95.21 1.21
2 1 -1 49.34 3.57
-2 -1 1 48.33 1.5
1 1 -1 1358.16 12.76
-1 -1 1 1620.36 41.96
0 1 -1 34.18 1.15
0 -1 1 34.45 1.43
-1 1 -1 1199.54 13.69
1 -1 1 1214.95 38.52
-2 1 -1 64.54 2.7
2 -1 1 64.04 4.1
-3 1 -1 218.85 6.1
3 -1 1 207.81 1.17
-4 1 -1 154.75 8.88
4 -1 1 143.71 1.19
-5 1 -1 102.46 8.34
5 -1 1 94.79 1.11
-6 1 -1 170.4 1.8
6 -1 1 166.77 1.76
-7 1 -1 9.11 0.48
7 -1 1 8.79 0.56
-8 1 -1 9.29 0.54
8 -1 1 9.11 0.54
-9 1 -1 0.87 0.4
9 -1 1 0.8 0.35
-10 1 -1 3.23 0.49
10 -1 1 3.42 0.53
10 0 -1 7.53 0.52
-10 0 1 7.61 0.71
9 0 -1 5.06 0.41
-9 0 1 5.12 0.44
8 0 -1 36.13 0.67
-8 0 1 37.09 1.07
7 0 -1 8.46 0.35
-7 0 1 8.84 0.48
6 0 -1 72.36 0.98
-6 0 1 73.38 0.94
5 0 -1 30.6 0.72
-5 0 1 27.14 4.01
4 0 -1 61.37 0.84
-4 0 1 51.93 5.24
3 0 -1 96.51 0.86
-3 0 1 94.25 1.38
2 0 -1 71.37 2.09
-2 0 1 70.11 1.82
1 0 -1 583.77 6.31
-1 0 1 561.56 5.86
-1 0 -1 284.42 5.38
1 0 1 309.55 5.61
-2 0 -1 491.8 10.05
2 0 1 491.24 4.58
-3 0 -1 885.62 16.86
3 0 1 904.22 7.64
-4 0 -1 248.43 10.66
4 0 1 227.17 1.42
-5 0 -1 141.72 9.4
5 0 1 136.29 1.35
-6 0 -1 40.51 0.73
6 0 1 35.53 1.05
-7 0 -1 50.06 0.76
7 0 1 55.02 0.77
-8 0 -1 19.49 0.68
8 0 1 19.69 0.66
-9 0 -1 6.76 0.65
9 0 1 7.04 0.43
-10 0 -1 4.15 0.51
10 0 1 3.78 0.43
-11 0 -1 5.65 0.66
11 0 1 5.39 0.56
10 -1 -1 0.17 0.22
-10 1 1 0.37 0.54
9 -1 -1 3.2 0.4
-9 1 1 3.33 0.48
8 -1 -1 15.43 0.5
-8 1 1 14.42 0.54
7 -1 -1 5.48 0.35
-7 1 1 5.29 0.37
6 -1 -1 91.02 1.04
-6 1 1 90.93 1.05
5 -1 -1 86.77 1.2
-5 1 1 90.07 8.09
4 -1 -1 414.73 7.09
-4 1 1 464.84 11.42
3 -1 -1 630.75 7.56
-3 1 1 638.91 9.26
2 -1 -1 382.79 4.09
-2 1 1 406.19 5.75
1 -1 -1 1171.54 7.96
-1 1 1 1129.5 8.13
0 -1 -1 149.1 2.02
0 1 1 143.35 1.73
-1 -1 -1 81.61 1.46
1 1 1 80.83 1.29
-2 -1 -1 84.88 2
2 1 1 84.66 1.4
-3 -1 -1 31.41 2.28
3 1 1 34.19 0.46
-4 -1 -1 56.15 0.97
4 1 1 56.77 0.72
-5 -1 -1 13.71 2.27
5 1 1 14.74 0.59
-6 -1 -1 43.04 1.25
6 1 1 40.46 1.04
-7 -1 -1 42.63 0.7
7 1 1 40.23 0.66
-8 -1 -1 111.12 1.37
8 1 1 111.58 0.98
-9 -1 -1 5.73 0.61
9 1 1 5.01 0.39
-10 -1 -1 28.43 1.07
10 1 1 29.32 0.69
-11 -1 -1 1.73 0.56
11 1 1 1.88 0.44
10 -2 -1 8.38 0.76
-10 2 1 8.34 0.99
9 -2 -1 5.4 0.49
-9 2 1 5.93 0.54
8 -2 -1 3.13 0.41
-8 2 1 3.51 0.46
7 -2 -1 7.18 0.36
-7 2 1 7.02 0.37
6 -2 -1 26.54 0.57
-6 2 1 25.96 0.51
5 -2 -1 39.2 0.85
-5 2 1 40.13 0.98
4 -2 -1 64.24 0.84
-4 2 1 66.65 1.65
3 -2 -1 192.25 1.27
-3 2 1 188.25 2.38
2 -2 -1 149.09 2.8
-2 2 1 168.83 1.92
1 -2 -1 161.86 2.07
-1 2 1 151.33 2.33
0 -2 -1 1280.33 11.46
0 2 1 1242.05 12.21
-2 -2 -1 1247.07 7.83
2 2 1 1241.44 7.71
-3 -2 -1 997.65 6.27
3 2 1 985.53 6.44
-4 -2 -1 149.63 1.67
4 2 1 147.93 1.35
-5 -2 -1 117.64 8.23
5 2 1 122.47 1.43
-6 -2 -1 32.48 6.67
6 2 1 36.87 0.97
-7 -2 -1 39.24 0.58
7 2 1 39.02 0.58
-8 -2 -1 13.05 0.42
8 2 1 12.3 0.39
-9 -2 -1 15.32 0.64
9 2 1 15.5 0.43
-10 -2 -1 2.69 0.57
10 2 1 2.83 0.43
-11 -2 -1 0.66 0.51
11 2 1 0.49 0.37
-9 3 1 9.49 0.74
8 -3 -1 8.65 0.7
-8 3 1 8.64 0.56
7 -3 -1 23.29 0.74
-7 3 1 21.63 0.62
6 -3 -1 45.71 0.84
-6 3 1 47.35 0.68
5 -3 -1 101.56 1.37
-5 3 1 104.41 0.94
4 -3 -1 33.98 0.86
-4 3 1 31.94 1.25
3 -3 -1 60.56 0.76
-3 3 1 62.33 1.49
2 -3 -1 70.05 2.4
-2 3 1 71.53 1.38
1 -3 -1 63.02 1.59
-1 3 1 66.94 1.09
0 -3 -1 100.72 1.5
0 3 1 98.73 2.14
-1 -3 -1 48.64 1.55
1 3 1 40.15 1.17
-2 -3 -1 278.44 3.48
2 3 1 258.43 5.56
-3 -3 -1 96.59 0.8
3 3 1 95.12 1.28
-4 -3 -1 29.91 0.62
4 3 1 30.62 0.63
-5 -3 -1 137.57 1.9
5 3 1 133.94 1.5
-6 -3 -1 127.45 2.07
6 3 1 127.12 1.68
-7 -3 -1 37.69 0.57
7 3 1 37.04 0.52
-8 -3 -1 61.86 0.89
8 3 1 60.09 0.71
-9 -3 -1 12.72 0.52
9 3 1 13.78 0.48
-10 -3 -1 9.76 0.71
10 3 1 9.54 0.46
-11 -3 -1 3.2 0.58
11 3 1 3.25 0.45
9 -4 -1 3.83 0.9
-9 4 1 4.37 0.89
8 -4 -1 11.55 0.77
-8 4 1 12.21 0.64
7 -4 -1 6.22 0.82
-7 4 1 5.47 0.48
6 -4 -1 39.72 1.29
-6 4 1 39.84 0.66
5 -4 -1 19.22 0.69
-5 4 1 16.48 0.4
4 -4 -1 100.04 1.47
-4 4 1 95.48 2.2
3 -4 -1 23.95 0.68
-3 4 1 24.23 1.03
2 -4 -1 309.41 5.45
-2 4 1 301.82 3
1 -4 -1 107.41 2.44
-1 4 1 114.93 1.14
0 -4 -1 375.45 3.18
0 4 1 361.86 4.72
-1 -4 -1 68.82 1.86
1 4 1 73.28 1.49
-2 -4 -1 9.75 0.33
2 4 1 7.19 0.91
-3 -4 -1 53.23 0.64
3 4 1 48.58 2.94
-4 -4 -1 12.54 0.47
4 4 1 11.17 0.53
-5 -4 -1 27.87 0.95
5 4 1 28.81 0.71
-6 -4 -1 21.75 1
6 4 1 22.77 0.76
-7 -4 -1 18.79 0.4
7 4 1 18.09 0.39
-8 -4 -1 15.3 0.45
8 4 1 14.3 0.4
-9 -4 -1 6 0.43
9 4 1 5.65 0.38
-10 -4 -1 9.59 0.72
10 4 1 8.46 0.47
-11 -4 -1 5.82 0.64
11 4 1 5.84 0.45
9 -5 -1 2.5 0.85
8 -5 -1 6.78 0.95
-8 5 1 7.23 0.62
7 -5 -1 2.01 0.73
-7 5 1 1.96 0.43
6 -5 -1 0.37 1.18
-6 5 1 0.14 0.17
5 -5 -1 5.38 0.9
-5 5 1 5.19 0.42
4 -5 -1 38.99 1
-4 5 1 38.44 0.67
3 -5 -1 56.4 1.49
-3 5 1 53.59 1.58
2 -5 -1 179.24 4.65
-2 5 1 185.81 1.79
1 -5 -1 159.02 3.51
-1 5 1 165.91 1.53
0 -5 -1 493.81 4.38
0 5 1 489.71 6.43
-1 -5 -1 273.46 4.58
1 5 1 273.22 3.83
-2 -5 -1 501.28 5.25
2 5 1 489.54 5.3
-3 -5 -1 261.18 1.52
3 5 1 252.17 5.56
-4 -5 -1 255.26 1.7
4 5 1 257.51 7.83
-5 -5 -1 67.29 1.17
5 5 1 65.47 1.29
-6 -5 -1 84.64 0.78
6 5 1 79.59 0.85
-7 -5 -1 0.9 0.24
7 5 1 0.58 0.26
-8 -5 -1 12.73 0.36
8 5 1 11.36 0.44
-9 -5 -1 11.76 0.59
9 5 1 11.24 0.48
-10 -5 -1 0.75 0.49
10 5 1 0.68 0.39
-11 -5 -1 5.79 0.95
11 5 1 5.14 0.4
-8 6 1 8.27 1.05
7 -6 -1 9.94 0.97
-7 6 1 9.75 0.54
6 -6 -1 31.09 1.86
-6 6 1 32.84 0.78
5 -6 -1 15.73 1.31
-5 6 1 15.59 0.55
-4 6 1 48.19 0.72
-3 6 1 21.94 0.46
2 -6 -1 7.5 3.21
-2 6 1 9.72 0.54
1 -6 -1 43.78 2.05
-1 6 1 45.94 0.9
0 -6 -1 8.65 1.51
0 6 1 11.16 0.45
-1 -6 -1 17.87 1.82
1 6 1 19.23 0.71
-2 -6 -1 127.18 1.07
2 6 1 127.26 2.77
-3 -6 -1 83.76 0.93
3 6 1 82.27 4.36
-4 -6 -1 158.02 1.41
4 6 1 162.87 6.63
-5 -6 -1 231.35 2.26
5 6 1 238 8.72
-6 -6 -1 59.16 0.64
6 6 1 55.02 0.56
-7 -6 -1 84.99 0.8
7 6 1 78.24 0.71
-8 -6 -1 25.55 0.56
8 6 1 24.38 0.52
-9 -6 -1 23.85 0.76
9 6 1 23.25 0.62
-10 -6 -1 15.68 0.69
10 6 1 14.09 0.5
-11 -6 -1 2.73 0.84
11 6 1 2.29 0.34
8 -7 -1 0.83 0.84
-8 7 1 1.03 0.55
7 -7 -1 10.69 1
-7 7 1 10.74 0.56
6 -7 -1 3.25 0.78
-6 7 1 2.13 0.41
5 -7 -1 24.24 1.61
-5 7 1 22.54 0.65
-4 7 1 14.66 0.47
-3 7 1 53.76 0.65
2 -7 -1 90.19 7.98
-2 7 1 103.97 1.03
1 -7 -1 94.5 5.22
-1 7 1 98.71 1.41
0 -7 -1 33.92 3.18
0 7 1 36.8 0.82
-1 -7 -1 33.62 3.09
1 7 1 35.63 1.08
-2 -7 -1 7.18 0.35
2 7 1 6.39 2.22
-3 -7 -1 8.42 0.38
3 7 1 6.14 2.27
-4 -7 -1 14.89 0.44
4 7 1 13.3 4.4
-5 -7 -1 6.06 0.35
5 7 1 6.34 0.38
-6 -7 -1 50.9 0.64
6 7 1 50.15 0.56
-7 -7 -1 56.48 0.68
7 7 1 53.58 0.62
-8 -7 -1 2.23 0.36
8 7 1 2.68 0.29
-9 -7 -1 29.34 0.82
9 7 1 27.04 0.66
-10 -7 -1 3.59 0.51
10 7 1 2.88 0.41
-11 -7 -1 1.89 0.46
11 7 1 1.92 0.38
-7 8 1 2.72 0.58
6 -8 -1 0.17 2.55
-6 8 1 0.21 0.18
5 -8 -1 35.35 1.93
-5 8 1 35.48 0.95
-4 8 1 12.02 0.47
-3 8 1 24.49 0.5
-2 8 1 33.02 0.48
1 -8 -1 2.81 4.87
-1 8 1 3.45 0.27
0 -8 -1 74.84 4.98
0 8 1 81.13 1.28
-1 -8 -1 83.9 1.68
1 8 1 80.84 1.57
-2 -8 -1 124.57 1.29
2 8 1 120.5 7.74
-3 -8 -1 180.76 1.59
3 8 1 186.52 9.79
-4 -8 -1 25.15 0.67
4 8 1 23.5 0.99
-5 -8 -1 36.06 0.61
5 8 1 37.06 0.63
-6 -8 -1 6.31 0.31
6 8 1 7.07 0.28
-7 -8 -1 16.98 0.48
7 8 1 16.84 0.41
-8 -8 -1 3.28 0.38
8 8 1 3.22 0.31
-9 -8 -1 6 0.45
9 8 1 5.87 0.36
-10 -8 -1 0.81 0.4
10 8 1 1 0.36
-11 -8 -1 6.22 0.47
11 8 1 5.28 0.7
-7 9 1 1.35 0.61
-6 9 1 9.26 0.52
5 -9 -1 10.65 0.96
-5 9 1 10.26 0.52
4 -9 -1 50.93 2.14
-4 9 1 52.54 0.84
-3 9 1 18.51 0.44
-2 9 1 10.71 0.42
-1 9 1 6.98 0.35
0 9 1 89.78 0.98
-1 -9 -1 40.28 1.01
1 9 1 38.8 0.71
-2 -9 -1 64.09 1.3
-3 -9 -1 73.91 1.43
3 9 1 74.16 1.19
-4 -9 -1 28.84 0.98
4 9 1 30.84 0.67
-5 -9 -1 130.77 1.16
5 9 1 131.12 1.32
-6 -9 -1 34.83 0.65
6 9 1 34.27 0.68
-7 -9 -1 80.48 0.9
7 9 1 79.24 1.21
-8 -9 -1 30.77 0.84
8 9 1 28.39 0.58
-9 -9 -1 10.69 0.44
9 9 1 9.5 0.43
-10 -9 -1 13.9 0.58
10 9 1 13.07 0.53
-11 -9 -1 0.47 0.48
11 9 1 0.66 0.47
-6 10 1 7.98 0.72
-5 10 1 6.6 0.68
-4 10 1 11.28 0.78
-3 10 1 4.75 0.51
-2 10 1 27 0.78
-1 10 1 43.31 0.9
0 10 1 48.49 0.8
-1 -10 -1 116.93 1.83
1 10 1 114.42 1.26
-2 -10 -1 13.86 0.75
2 10 1 13.38 0.52
-3 -10 -1 33.09 1.07
3 10 1 32.76 0.89
-4 -10 -1 5.19 0.59
4 10 1 5.04 0.42
-5 -10 -1 2.5 0.32
5 10 1 2.47 0.5
-6 -10 -1 10.15 0.41
6 10 1 9.58 0.54
-7 -10 -1 15.99 0.53
7 10 1 17.28 0.59
-8 -10 -1 11.28 0.48
8 10 1 11.84 0.55
-9 -10 -1 11.38 0.68
9 10 1 12.38 0.57
-10 -10 -1 5.8 0.41
10 10 1 5.35 0.48
-11 -10 -1 2.07 0.47
11 10 1 1.64 0.49
-5 11 1 0.33 0.72
-4 11 1 3.1 0.6
-3 11 1 9.47 0.61
-2 11 1 15.53 0.83
-1 11 1 29.07 0.82
0 11 1 12.7 0.58
1 11 1 26.05 0.71
-2 -11 -1 3 0.57
2 11 1 3.36 0.42
-3 -11 -1 32.39 1.12
3 11 1 33.82 0.97
-4 -11 -1 3.91 0.45
4 11 1 3.79 0.53
-5 -11 -1 23.23 0.7
5 11 1 23.33 0.91
-6 -11 -1 3.23 0.38
6 11 1 3.28 0.61
-7 -11 -1 6.98 0.51
7 11 1 7.1 0.56
-8 -11 -1 1.43 0.36
8 11 1 1.42 0.46
-9 -11 -1 0.03 0.05
9 11 1 0.08 0.79
-10 -11 -1 0.01 0.2
10 11 1 0.19 0.69
-4 12 1 0 0.33
-3 12 1 0.36 0.39
-2 12 1 0.94 0.54
-1 12 1 1.73 0.44
0 12 1 3.86 0.48
1 12 1 9.46 0.55
2 12 1 30.76 0.99
-3 -12 -1 19.88 1.42
3 12 1 21.09 0.87
-4 -12 -1 53.92 1.27
4 12 1 52.65 1.25
-5 -12 -1 26.84 0.77
5 12 1 28.56 1.45
-6 -12 -1 24.05 0.67
6 12 1 24.38 1
-7 -12 -1 11.52 0.6
7 12 1 12.94 0.84
-8 -12 -1 2.37 0.45
8 12 1 2.6 0.51
-9 -12 -1 3.92 0.52
9 12 1 3.31 0.52
-10 -12 -1 0.31 0.45
10 12 1 0.48 0.56
-3 13 1 11.12 0.64
-2 13 1 15.1 0.7
-1 13 1 10.53 0.79
0 13 1 15.64 0.69
1 13 1 1.72 0.43
2 13 1 1.29 0.78
-4 -13 -1 4.82 0.75
4 13 1 4.76 0.63
-5 -13 -1 0.46 0.56
5 13 1 0.87 0.6
-6 -13 -1 8.37 0.55
6 13 1 9.14 1.08
-7 -13 -1 5.31 0.46
7 13 1 5.76 1
-8 -13 -1 10.2 0.63
8 13 1 10.36 1.15
-9 -13 -1 13.76 0.82
9 13 1 13.15 0.86
-2 14 1 1.73 0.56
-1 14 1 2.38 0.59
0 14 1 9.98 0.61
1 14 1 2.29 0.6
-2 -14 -1 32.56 1.98
2 14 1 32.06 1.61
-3 -14 -1 8.69 1.29
3 14 1 8.93 1.1
-4 -14 -1 21.66 1.73
4 14 1 21.9 0.78
-5 -14 -1 11.01 0.73
5 14 1 11.41 0.8
-6 -14 -1 0.46 0.81
6 14 1 0.29 1.02
-7 -14 -1 4.41 0.52
7 14 1 4.36 0.98
-8 -14 -1 0.02 0.06
0 15 1 0.6 0.78
1 15 1 4.12 0.93
2 15 1 8.21 1.08
3 15 1 1.34 0.9
-5 -15 -1 2.88 0.82
5 15 1 3.17 0.62
-6 -15 -1 6.85 0.69
6 15 1 7.45 1.02
-7 -15 -1 8.24 1.04
7 15 1 7 1.03
2 16 1 1.59 0.81
3 16 1 0.72 0.89
4 16 1 2.78 0.91
-5 -16 -1 1.85 0.82
5 16 1 1.87 0.86
6 15 -2 0.95 0.81
-6 -15 2 0.9 0.48
-5 -15 2 0 0.41
4 15 -2 2.91 0.87
3 15 -2 0.6 1.28
2 15 -2 3.96 0.96
1 15 -2 8.41 1.11
0 15 -2 4.37 0.96
7 14 -2 7.68 0.93
-7 -14 2 7.86 0.57
6 14 -2 7.47 0.7
-6 -14 2 6.71 0.99
5 14 -2 5.5 1
-5 -14 2 5.15 0.94
3 14 -2 1.4 0.58
-3 -14 2 1.26 0.93
2 14 -2 0.63 0.78
-2 -14 2 0.09 2.79
1 14 -2 2.1 0.97
0 14 -2 2.02 0.84
-1 14 -2 6.92 1.05
-2 14 -2 0.86 0.94
8 13 -2 8.78 0.73
-8 -13 2 8.55 0.51
7 13 -2 1.14 0.47
-7 -13 2 1.28 0.7
6 13 -2 12.16 0.81
-6 -13 2 11.9 0.58
5 13 -2 8.43 0.73
-5 -13 2 8.3 0.61
4 13 -2 11.67 0.8
-4 -13 2 10.53 0.7
3 13 -2 28.37 1.04
-3 -13 2 25.36 1.26
2 13 -2 17.79 1.29
-2 -13 2 15.28 1.04
1 13 -2 11.95 0.78
-1 -13 2 9.91 0.92
0 13 -2 4.13 0.64
-1 13 -2 3.08 0.63
-2 13 -2 3.76 0.67
-3 13 -2 3.59 0.51
9 12 -2 3.29 0.49
-9 -12 2 3.1 0.37
8 12 -2 2.09 0.48
-8 -12 2 2.14 0.49
7 12 -2 0.03 0.22
-7 -12 2 0.27 0.42
6 12 -2 5.35 0.53
-6 -12 2 4.87 0.46
5 12 -2 15.41 0.67
-5 -12 2 13.58 0.57
4 12 -2 14.25 0.55
-4 -12 2 12.98 0.99
3 12 -2 22.97 0.74
-3 -12 2 22.07 1.16
2 12 -2 17.56 0.67
-2 -12 2 18.31 0.86
1 12 -2 61.55 1.31
-1 -12 2 59.2 1.36
0 12 -2 27.79 0.81
0 -12 2 28.05 1.24
-1 12 -2 25.55 0.81
1 -12 2 23.06 1.66
-2 12 -2 25.59 0.63
-3 12 -2 1.89 0.4
-4 12 -2 15.67 0.69
9 11 -2 2.32 0.61
-9 -11 2 2.53 0.41
8 11 -2 7.36 0.59
-8 -11 2 8.02 0.59
7 11 -2 3.49 0.49
-7 -11 2 4.08 0.45
6 11 -2 7.78 0.49
-6 -11 2 7.58 0.43
5 11 -2 23.4 0.66
-5 -11 2 22.94 0.7
4 11 -2 13.22 0.47
-4 -11 2 12.44 0.58
3 11 -2 7.65 0.43
-3 -11 2 7.32 0.62
2 11 -2 0.02 0.02
-2 -11 2 0.06 0.27
1 11 -2 9.52 0.64
-1 -11 2 8.09 0.77
0 11 -2 15.59 0.77
0 -11 2 13.29 1.27
-1 11 -2 6.36 0.51
1 -11 2 5.48 1.06
-2 11 -2 5.25 0.41
-3 11 -2 10.54 0.49
-4 11 -2 16.26 0.57
-5 11 -2 2.92 0.58
10 10 -2 0 0.07
-10 -10 2 0.17 0.48
9 10 -2 2.7 0.53
-9 -10 2 2.76 0.37
8 10 -2 10.33 0.55
-8 -10 2 10.88 0.54
7 10 -2 42.93 0.79
-7 -10 2 40.96 1.02
6 10 -2 17.48 0.6
-6 -10 2 17.66 0.52
5 10 -2 48.98 0.98
-5 -10 2 47.34 0.89
4 10 -2 11.11 0.54
-4 -10 2 10.76 0.52
3 10 -2 45.38 0.8
-3 -10 2 46.43 1.12
2 10 -2 15.68 0.5
-2 -10 2 15.29 0.71
1 10 -2 22.26 0.65
-1 -10 2 21.13 0.98
0 10 -2 6.56 0.56
0 -10 2 6.62 0.96
-1 10 -2 5.14 0.4
-2 10 -2 0.66 0.39
-3 10 -2 5.19 0.36
-4 10 -2 0.1 0.22
-5 10 -2 5.91 0.61
-6 10 -2 0.97 0.43
10 9 -2 0.58 0.46
-10 -9 2 0.78 0.36
9 9 -2 0.08 0.18
-9 -9 2 0.33 0.26
8 9 -2 1.02 0.38
-8 -9 2 1.09 0.35
7 9 -2 0.03 0.4
-7 -9 2 0.18 0.22
6 9 -2 18.62 0.59
-6 -9 2 18.97 0.51
5 9 -2 20.82 0.53
-5 -9 2 20.96 0.53
4 9 -2 47.73 0.8
-4 -9 2 48.21 0.73
3 9 -2 73.49 0.82
-3 -9 2 73.13 1.01
2 9 -2 68.48 0.89
-2 -9 2 67.28 1.49
1 9 -2 99.86 1.05
-1 -9 2 105.19 2.54
0 9 -2 52.82 0.94
-1 9 -2 85.7 1.03
-2 9 -2 22.53 0.61
-3 9 -2 31.23 0.65
-4 9 -2 6.15 0.47
-5 9 -2 2.74 0.51
-6 9 -2 0.9 0.42
-7 9 -2 1.33 0.45
10 8 -2 3.4 0.52
-10 -8 2 3.92 0.5
9 8 -2 13.97 0.55
-9 -8 2 15.35 0.53
8 8 -2 8.89 0.47
-8 -8 2 10.14 0.45
7 8 -2 16.47 0.48
-7 -8 2 16.93 0.51
6 8 -2 21.21 0.59
-6 -8 2 23.6 0.53
5 8 -2 12.57 0.42
-5 -8 2 12.5 0.43
4 8 -2 26.87 0.53
-4 -8 2 27.13 0.55
3 8 -2 2.59 0.34
-3 -8 2 2.54 0.37
2 8 -2 19.17 0.72
-2 -8 2 19.44 0.62
1 8 -2 6.25 0.5
-1 -8 2 6.16 0.49
0 8 -2 35.89 0.66
0 -8 2 33.83 1.23
-1 8 -2 69.49 0.86
1 -8 2 71.85 1.82
-2 8 -2 42.85 0.87
-3 8 -2 107.28 1.4
3 -8 2 113.29 2.62
-4 8 -2 28.65 0.71
4 -8 2 28.01 1.58
-5 8 -2 33.58 0.94
5 -8 2 34.2 1.86
-6 8 -2 10.07 0.83
6 -8 2 8.87 1.31
-7 8 -2 2.36 0.56
11 7 -2 0.19 0.27
-11 -7 2 0.15 0.38
10 7 -2 3.08 0.41
-10 -7 2 3.15 0.58
9 7 -2 9.26 0.54
-9 -7 2 9.34 0.59
8 7 -2 19.8 0.57
-8 -7 2 19.67 0.61
7 7 -2 34.63 0.6
-7 -7 2 34.2 0.65
6 7 -2 68.73 0.83
-6 -7 2 69.49 0.73
5 7 -2 30.5 0.47
-5 -7 2 31.09 0.52
4 7 -2 117.04 0.96
-4 -7 2 116.63 1.48
3 7 -2 46.47 1.45
-3 -7 2 46.28 0.91
2 7 -2 54.28 1.57
-2 -7 2 53.4 0.75
1 7 -2 99.15 2.07
-1 -7 2 96.11 1.1
0 7 -2 2.97 0.4
0 -7 2 2.03 0.33
-1 7 -2 70.67 1.29
1 -7 2 68.99 1.57
-2 7 -2 7.68 0.43
-3 7 -2 28.62 0.73
3 -7 2 28.66 1.34
-4 7 -2 6.61 0.42
4 -7 2 6.05 0.95
-5 7 -2 1.37 0.43
5 -7 2 1.29 0.86
-6 7 -2 5.76 0.46
6 -7 2 5.32 1.15
-7 7 -2 15.06 0.62
7 -7 2 16.44 1.58
-8 7 -2 8.8 0.72
11 6 -2 2.24 0.43
-11 -6 2 2.35 0.81
10 6 -2 0.54 0.38
-10 -6 2 0.11 0.21
9 6 -2 6.43 0.41
-9 -6 2 6.68 0.41
8 6 -2 0.78 0.29
-8 -6 2 1.02 0.31
7 6 -2 23.64 0.47
-7 -6 2 25.55 0.54
6 6 -2 4.12 0.26
-6 -6 2 4.62 0.28
5 6 -2 17.15 0.36
-5 -6 2 17.77 0.4
4 6 -2 84.69 1.88
-4 -6 2 83.73 1.2
3 6 -2 85.23 1.83
-3 -6 2 78.24 1.09
2 6 -2 132.03 2.2
-2 -6 2 132.27 1.09
1 6 -2 164.12 2.4
-1 -6 2 168.93 1.35
0 6 -2 91.45 1.31
0 -6 2 94.02 0.91
-1 6 -2 299.01 2.4
1 -6 2 295.84 8.73
-2 6 -2 4.57 0.42
2 -6 2 4.94 3.62
-3 6 -2 62.73 1.22
3 -6 2 62.03 1.61
-4 6 -2 13.72 0.41
4 -6 2 13.94 0.75
-5 6 -2 0.95 0.29
5 -6 2 1.18 0.53
-6 6 -2 0.02 0.1
6 -6 2 0 0.8
-7 6 -2 1.4 0.36
7 -6 2 1.27 0.93
-8 6 -2 2.43 0.46
-9 6 -2 0.27 0.58
11 5 -2 5.54 0.47
-11 -5 2 6.41 0.89
10 5 -2 13.1 0.54
-10 -5 2 13.58 0.82
9 5 -2 17.39 0.52
-9 -5 2 17.97 0.7
8 5 -2 26.84 0.53
-8 -5 2 27.74 0.67
7 5 -2 10.17 0.36
-7 -5 2 11.71 0.41
6 5 -2 41.64 0.52
-6 -5 2 46.17 0.65
5 5 -2 9.78 0.3
-5 -5 2 10.64 0.48
4 5 -2 16.32 0.83
-4 -5 2 14.81 0.63
3 5 -2 10.48 0.68
-3 -5 2 10.66 0.42
2 5 -2 345.85 3.24
-2 -5 2 351.78 5.3
1 5 -2 11.8 0.65
-1 -5 2 11.71 0.35
0 5 -2 258.08 1.97
0 -5 2 267.89 1.77
-1 5 -2 68.95 0.78
1 -5 2 66.44 2.96
-2 5 -2 82.83 1.19
2 -5 2 80.18 4.63
-3 5 -2 199.19 3.12
3 -5 2 205.57 2.63
-4 5 -2 100.37 1.02
4 -5 2 97.3 2.08
-5 5 -2 221.15 1.42
5 -5 2 222.11 2.69
-6 5 -2 63.12 0.96
6 -5 2 60.68 1.61
-7 5 -2 24.48 0.61
7 -5 2 25.45 1.22
-8 5 -2 3.04 0.44
8 -5 2 2.79 0.89
-9 5 -2 4 0.5
9 -5 2 4.51 0.94
11 4 -2 0.55 0.38
-11 -4 2 0.81 0.74
10 4 -2 2.42 0.4
-10 -4 2 2.12 0.45
9 4 -2 16.8 0.53
-9 -4 2 18.64 0.6
8 4 -2 12.29 0.41
-8 -4 2 11.4 0.44
7 4 -2 33.07 0.57
-7 -4 2 35.83 0.68
6 4 -2 116.66 0.91
-6 -4 2 118.31 0.95
5 4 -2 95.47 1.87
-5 -4 2 89.51 2.02
4 4 -2 196.44 1.67
-4 -4 2 194.99 1.98
3 4 -2 164 1.32
-3 -4 2 173.39 1.71
2 4 -2 350.82 2.97
-2 -4 2 388.18 5.37
1 4 -2 516.68 7.83
-1 -4 2 549.17 6.18
0 4 -2 91.8 1.07
0 -4 2 98.01 1.35
-1 4 -2 50.84 0.81
1 -4 2 51.24 2.38
-2 4 -2 9.77 0.42
2 -4 2 7.6 2.12
-3 4 -2 42.91 1.34
3 -4 2 44.85 1.22
-4 4 -2 2.35 7.38
4 -4 2 2.74 0.55
-5 4 -2 28.73 0.56
5 -4 2 28.36 0.99
-6 4 -2 1.31 0.31
6 -4 2 0.55 0.59
-7 4 -2 13.19 0.6
7 -4 2 14.64 0.98
-8 4 -2 17.22 0.64
8 -4 2 17.66 0.83
-9 4 -2 6.88 0.55
9 -4 2 6.8 0.98
11 3 -2 0.86 0.34
-11 -3 2 0.75 0.44
10 3 -2 2.79 0.42
-10 -3 2 2.6 0.46
9 3 -2 1.51 0.34
-9 -3 2 1.44 0.41
8 3 -2 19.22 0.57
-8 -3 2 18.99 0.67
7 3 -2 4.32 0.31
-7 -3 2 4.15 0.34
6 3 -2 18.93 0.46
-6 -3 2 19.05 0.47
5 3 -2 3.66 0.32
-5 -3 2 2.99 0.55
4 3 -2 231.48 1.4
-4 -3 2 253.11 2.84
3 3 -2 73.47 0.89
-3 -3 2 70.35 0.84
2 3 -2 572.18 10.08
-2 -3 2 626.23 6.89
1 3 -2 286.87 5.47
-1 -3 2 296.32 3.85
0 3 -2 400.59 4.82
0 -3 2 430.5 7.24
-1 3 -2 58.76 0.77
1 -3 2 62.63 2.27
-2 3 -2 328.33 6.32
2 -3 2 321.04 7.39
-3 3 -2 127 4.95
3 -3 2 131.1 1.88
-4 3 -2 65.39 6.66
4 -3 2 66.88 1.63
-5 3 -2 23.4 0.58
5 -3 2 22.86 0.87
-6 3 -2 2.17 0.31
6 -3 2 2.48 0.53
-7 3 -2 0.15 0.34
7 -3 2 0.01 0.05
-8 3 -2 1.72 0.36
8 -3 2 1.48 0.41
-9 3 -2 0.12 1.5
-10 3 -2 3.3 0.86
10 -3 2 2.44 0.52
10 2 -2 5.82 0.41
-10 -2 2 6.12 0.65
9 2 -2 11.13 0.52
-9 -2 2 11.24 0.61
8 2 -2 22 0.6
-8 -2 2 21.44 0.88
7 2 -2 57.95 0.74
-7 -2 2 55.11 0.95
6 2 -2 5.94 0.28
-6 -2 2 5.69 0.29
5 2 -2 37.98 0.8
-5 -2 2 32.48 4.98
4 2 -2 1.55 0.2
-4 -2 2 1.38 0.38
3 2 -2 1.84 0.17
-3 -2 2 1.97 0.24
2 2 -2 188.61 1.92
-2 -2 2 200.43 1.21
1 2 -2 167.51 2.43
-1 -2 2 179.97 4.17
0 2 -2 944.79 7.93
0 -2 2 1042.73 25.37
-1 2 -2 418.13 7.5
1 -2 2 439.46 6.01
-2 2 -2 280.74 5.7
2 -2 2 320.93 5.87
-3 2 -2 172.04 5.54
3 -2 2 164.41 2.11
-4 2 -2 127.3 8.56
4 -2 2 122.91 1.15
-5 2 -2 101.74 8.85
5 -2 2 95.68 1.57
-6 2 -2 29.74 0.67
6 -2 2 31.04 0.76
-7 2 -2 21.86 0.66
7 -2 2 21.23 1.03
-8 2 -2 8.63 0.54
8 -2 2 9.86 0.55
-9 2 -2 0.59 0.36
9 -2 2 0.47 0.49
-10 2 -2 1.31 0.41
10 -2 2 1.38 0.48
10 1 -2 1.07 0.36
-10 -1 2 1.15 0.44
9 1 -2 5.65 0.45
-9 -1 2 6.29 0.53
8 1 -2 12.22 0.46
-8 -1 2 12.9 0.6
7 1 -2 34.69 0.57
-7 -1 2 34.91 0.8
6 1 -2 86.79 0.77
-6 -1 2 93.87 1.12
5 1 -2 111.18 1.33
-5 -1 2 121.7 9.21
4 1 -2 240.5 1.71
-4 -1 2 270.68 7.15
3 1 -2 96.36 1.19
-3 -1 2 97.04 1.03
2 1 -2 427.23 5.08
-2 -1 2 486.55 6.36
1 1 -2 225.4 3.39
-1 -1 2 282.19 5.14
0 1 -2 758.52 6.48
0 -1 2 842.72 8.38
-1 1 -2 262.18 4.96
1 -1 2 304.29 3.79
-2 1 -2 215.81 7.58
2 -1 2 259.28 5.87
-3 1 -2 68.3 5.14
3 -1 2 79.08 1.4
-4 1 -2 120.36 7.88
4 -1 2 120.49 1.07
-5 1 -2 47.06 5.86
5 -1 2 48.88 0.82
-6 1 -2 64.67 0.92
6 -1 2 65.44 1.43
-7 1 -2 89.3 1.46
7 -1 2 89 1.32
-8 1 -2 31.18 0.82
8 -1 2 33.36 0.91
-9 1 -2 50.34 1.08
9 -1 2 50.17 1.04
-10 1 -2 6.61 0.55
10 -1 2 6.71 0.52
10 0 -2 0.8 0.46
-10 0 2 0.93 0.46
9 0 -2 1.06 0.4
-9 0 2 1.36 0.42
8 0 -2 5.62 0.39
-8 0 2 5.71 0.49
7 0 -2 5.09 0.32
-7 0 2 5.72 0.38
6 0 -2 12.1 0.35
-6 0 2 11.42 0.48
5 0 -2 81.49 1.19
-5 0 2 88.36 8.19
4 0 -2 30.37 0.81
-4 0 2 29.03 1.04
3 0 -2 326.37 6.9
-3 0 2 338.49 5.07
2 0 -2 202.28 1.46
-2 0 2 205.77 1.75
1 0 -2 556.82 7.13
-1 0 2 575 6.94
0 0 -2 1402.72 35.13
0 0 2 1493.37 35.58
-1 0 -2 862.15 7.18
1 0 2 950.51 7.53
-2 0 -2 2135.37 20.99
2 0 2 2386.69 62.66
-3 0 -2 492.99 12.51
3 0 2 515.35 4.98
-4 0 -2 207.58 9.67
4 0 2 207.83 1.76
-5 0 -2 19.64 4.89
5 0 2 22.23 0.73
-6 0 -2 10.85 0.53
6 0 2 10.69 0.65
-7 0 -2 7.79 0.38
7 0 2 7.23 0.42
-8 0 -2 6.2 0.47
8 0 2 6.16 0.41
-9 0 -2 10.45 0.59
9 0 2 11.32 0.53
-10 0 -2 8.72 0.59
10 0 2 8.9 0.61
-11 0 -2 9.69 0.61
11 0 2 9.95 0.64
10 -1 -2 4.21 0.55
9 -1 -2 9.5 0.53
-9 1 2 8.73 0.59
8 -1 -2 15.3 0.5
-8 1 2 14.2 0.55
7 -1 -2 16.93 0.43
-7 1 2 15.86 0.53
6 -1 -2 31.67 0.55
-6 1 2 32.09 0.56
5 -1 -2 0.35 0.28
-5 1 2 0.01 0.07
4 -1 -2 112.04 1.18
-4 1 2 116.11 2.05
3 -1 -2 40.05 0.53
-3 1 2 39.83 0.78
2 -1 -2 23.73 0.42
-2 1 2 22.16 0.62
1 -1 -2 355.22 4.64
-1 1 2 350.92 5
0 -1 -2 965.93 11.23
0 1 2 973.53 10.15
-1 -1 -2 61.93 1.96
1 1 2 53.44 1.04
-2 -1 -2 575.73 9.71
2 1 2 603.35 6.74
-3 -1 -2 130.81 1.49
3 1 2 122.63 1.02
-4 -1 -2 112.05 1.42
4 1 2 121.7 1.2
-5 -1 -2 71.96 1.25
5 1 2 71.59 1.14
-6 -1 -2 85.79 8.01
6 1 2 76.71 1.38
-7 -1 -2 115.32 1.09
7 1 2 112.61 1.19
-8 -1 -2 12.58 0.48
8 1 2 11.99 0.47
-9 -1 -2 4 0.57
9 1 2 3.87 0.34
-10 -1 -2 3.35 0.58
10 1 2 3.47 0.46
-11 -1 -2 2.9 0.48
11 1 2 2.99 0.46
10 -2 -2 4.45 0.54
-10 2 2 3.65 0.59
9 -2 -2 3.61 0.55
-9 2 2 4.43 0.91
8 -2 -2 8.03 0.68
-8 2 2 9.29 0.49
7 -2 -2 53.99 0.79
-7 2 2 53.63 0.79
6 -2 -2 17.3 0.51
-6 2 2 17.28 0.45
5 -2 -2 102.65 1.4
-5 2 2 101.96 0.9
4 -2 -2 33.17 0.7
-4 2 2 29.82 1.2
3 -2 -2 164.46 1.05
-3 2 2 156.43 2
2 -2 -2 16.46 0.41
-2 2 2 18.52 0.62
1 -2 -2 418.09 4.32
-1 2 2 417.62 4.3
0 -2 -2 395.23 4.13
0 2 2 401.64 5.9
-1 -2 -2 550.38 4.65
1 2 2 583.26 5.05
-2 -2 -2 426.98 5.83
2 2 2 411.07 4.08
-3 -2 -2 165.62 1.67
3 2 2 164.85 1.16
-4 -2 -2 518.53 7.98
4 2 2 535.17 5.42
-5 -2 -2 219.67 2.3
5 2 2 219.49 1.94
-6 -2 -2 47.69 6.13
6 2 2 55.57 1.17
-7 -2 -2 80.9 0.72
7 2 2 81.4 0.78
-8 -2 -2 14.37 0.43
8 2 2 17.28 0.47
-9 -2 -2 37.56 0.9
9 2 2 37.79 0.68
-10 -2 -2 2.1 0.57
10 2 2 2.33 0.33
-11 -2 -2 10.17 1.07
11 2 2 10.22 0.57
9 -3 -2 0.06 0.17
-9 3 2 0.39 0.65
8 -3 -2 0.35 0.51
-8 3 2 0.26 0.37
7 -3 -2 12.71 0.62
-7 3 2 12.29 0.46
6 -3 -2 9.29 0.5
-6 3 2 8.69 0.34
5 -3 -2 78.01 1.53
-5 3 2 76.46 0.73
4 -3 -2 43.7 0.79
-4 3 2 44.84 1.53
3 -3 -2 480.83 2.36
-3 3 2 501.83 11.72
2 -3 -2 502.06 6.24
-2 3 2 525.2 7.38
1 -3 -2 617.82 5.43
-1 3 2 636.03 5.75
0 -3 -2 658.96 5.88
0 3 2 665.62 5.55
-1 -3 -2 274.94 4.08
1 3 2 277.79 3.97
-2 -3 -2 111.09 1.17
2 3 2 119.05 2.2
-3 -3 -2 394.07 4.64
3 3 2 375.06 5.04
-4 -3 -2 67.33 1.26
4 3 2 64.18 0.88
-5 -3 -2 206.64 2.36
5 3 2 205.51 1.82
-6 -3 -2 18.08 0.89
6 3 2 18.4 0.71
-7 -3 -2 5.78 0.31
7 3 2 5.15 0.29
-8 -3 -2 24.35 0.53
8 3 2 24.21 0.49
-9 -3 -2 34.56 0.65
9 3 2 33.48 0.61
-10 -3 -2 10.48 0.75
10 3 2 9.81 0.49
-11 -3 -2 12.91 1.15
11 3 2 13.13 0.61
9 -4 -2 17.86 1.28
-9 4 2 17.41 1.29
8 -4 -2 2.61 0.63
-8 4 2 2.95 0.58
7 -4 -2 16.04 1.56
-7 4 2 17.09 0.58
6 -4 -2 6.93 0.49
-6 4 2 6.53 0.36
5 -4 -2 2.44 0.53
-5 4 2 2.22 0.25
4 -4 -2 21.71 0.81
-4 4 2 21.23 0.6
3 -4 -2 2.95 0.35
-3 4 2 3.4 0.55
2 -4 -2 177.41 4.19
-2 4 2 178.91 2.3
1 -4 -2 8.49 0.83
-1 4 2 11.12 0.54
0 -4 -2 168.51 2.12
0 4 2 158.09 3.78
-1 -4 -2 352.62 3.2
1 4 2 353.54 4.45
-2 -4 -2 457.21 4.74
2 4 2 441.31 5.28
-3 -4 -2 669.32 5.56
3 4 2 651.28 8.16
-4 -4 -2 144.3 1.44
4 4 2 137.61 1.65
-5 -4 -2 246.47 2.71
5 4 2 245.3 1.98
-6 -4 -2 17.77 0.94
6 4 2 19.44 0.72
-7 -4 -2 77.62 0.79
7 4 2 77.8 0.7
-8 -4 -2 9.8 0.36
8 4 2 9.31 0.35
-9 -4 -2 20.89 0.54
9 4 2 19.61 0.56
-10 -4 -2 5.27 0.44
10 4 2 4.99 0.42
-11 -4 -2 2.06 0.82
11 4 2 1.96 0.39
9 -5 -2 4.51 0.63
-9 5 2 4.44 0.63
8 -5 -2 17.74 1.27
-8 5 2 16.66 1.28
7 -5 -2 6.42 0.87
-7 5 2 5.95 0.52
6 -5 -2 36.06 1.96
-6 5 2 33.09 0.84
5 -5 -2 30.13 1.07
-5 5 2 30.43 0.68
4 -5 -2 81.44 1.51
-4 5 2 79.83 0.94
3 -5 -2 31.89 0.84
-3 5 2 28.99 1.25
2 -5 -2 31.9 2.69
-2 5 2 38.04 1.25
1 -5 -2 33.04 1.48
-1 5 2 33.91 0.72
0 -5 -2 3.55 0.74
0 5 2 4.38 0.36
-1 -5 -2 2.72 0.82
1 5 2 2.7 1
-2 -5 -2 5.95 0.29
2 5 2 5.31 0.9
-3 -5 -2 24.88 0.49
3 5 2 21 1.41
-4 -5 -2 53.68 0.77
4 5 2 51.06 2.79
-5 -5 -2 2.03 0.34
5 5 2 2.25 0.47
-6 -5 -2 122.19 1.22
6 5 2 115.81 1.73
-7 -5 -2 18.71 0.35
7 5 2 19.57 0.36
-8 -5 -2 57.34 0.85
8 5 2 54.16 0.65
-9 -5 -2 16.93 0.51
9 5 2 16.74 0.54
-10 -5 -2 10.99 0.52
10 5 2 10.33 0.5
-11 -5 -2 2.99 0.56
11 5 2 2.91 0.41
8 -6 -2 5.43 0.94
-8 6 2 6.5 0.69
7 -6 -2 2.27 0.84
-7 6 2 2.07 0.43
6 -6 -2 26.68 1.8
-6 6 2 26.49 0.72
5 -6 -2 6.43 1.09
-5 6 2 7.67 0.45
4 -6 -2 63.38 2
-4 6 2 62.04 0.89
3 -6 -2 39.47 1.44
-3 6 2 40.11 0.6
2 -6 -2 102.37 4.98
-2 6 2 105 1.51
1 -6 -2 152.54 5.67
-1 6 2 157.34 1.65
0 -6 -2 97.37 3.56
0 6 2 99.31 1.14
-1 -6 -2 164.53 3.68
1 6 2 163.86 1.72
-2 -6 -2 28.21 0.48
2 6 2 26.56 1.04
-3 -6 -2 42.24 0.63
3 6 2 42.74 2.11
-4 -6 -2 1.58 0.25
4 6 2 1.06 2.18
-5 -6 -2 3.1 0.39
5 6 2 1.94 3.45
-6 -6 -2 39.14 0.57
6 6 2 37.05 0.55
-7 -6 -2 3.81 0.25
7 6 2 3.66 0.26
-8 -6 -2 47.9 0.66
8 6 2 43.61 0.65
-9 -6 -2 2.23 0.37
9 6 2 1.95 0.36
-10 -6 -2 8.32 0.57
10 6 2 7.96 0.47
-11 -6 -2 4.54 0.51
11 6 2 3.89 0.42
-8 7 2 1.83 0.54
-7 7 2 7.41 0.49
6 -7 -2 1.32 1.06
-6 7 2 0.89 0.36
5 -7 -2 8.18 1.2
-5 7 2 8.69 0.48
-4 7 2 0.69 0.31
-3 7 2 4.22 0.31
2 -7 -2 11.4 7.05
-2 7 2 13.65 0.39
1 -7 -2 73.36 4.55
-1 7 2 75.18 1.25
0 -7 -2 95.39 3.81
0 7 2 101.02 1.32
-1 -7 -2 240.41 7.35
1 7 2 237.84 2.36
-2 -7 -2 253.43 1.98
2 7 2 257.57 5.97
-3 -7 -2 141.2 1.57
3 7 2 141.88 4.61
-4 -7 -2 247.35 1.88
4 7 2 262.56 8.38
-5 -7 -2 47.62 1.1
5 7 2 46.67 4.32
-6 -7 -2 133.73 0.98
6 7 2 130.2 1.01
-7 -7 -2 44.76 0.68
7 7 2 42.3 0.55
-8 -7 -2 23.59 0.48
8 7 2 21.19 0.46
-9 -7 -2 15.14 0.5
9 7 2 14.14 0.47
-10 -7 -2 3.53 0.49
10 7 2 3.01 0.4
-11 -7 -2 1.55 0.41
11 7 2 1.31 0.38
-7 8 2 1.55 0.39
6 -8 -2 13.49 1.05
-6 8 2 13.68 0.8
5 -8 -2 23.26 1.7
-5 8 2 24.09 0.68
-4 8 2 18.35 0.49
-3 8 2 38.72 0.62
-2 8 2 11.17 0.36
1 -8 -2 17.38 8.17
-1 8 2 22.28 0.53
0 -8 -2 28.71 6.55
0 8 2 28.66 0.65
-1 -8 -2 6.01 0.62
1 8 2 6.68 0.63
-2 -8 -2 37.01 0.87
2 8 2 30.33 4.35
-3 -8 -2 8.84 0.51
3 8 2 8.07 3.49
-4 -8 -2 22.85 0.66
4 8 2 22.3 0.69
-5 -8 -2 34.71 0.68
5 8 2 34.95 0.72
-6 -8 -2 99.77 1.13
6 8 2 99.99 0.92
-7 -8 -2 17.75 0.48
7 8 2 17.42 0.41
-8 -8 -2 26.88 0.55
8 8 2 26.02 0.5
-9 -8 -2 17.14 0.62
9 8 2 17.21 0.5
-10 -8 -2 8.78 0.59
10 8 2 8.94 0.44
-11 -8 -2 12.97 0.8
11 8 2 11.02 0.51
-6 9 2 2.35 0.5
5 -9 -2 5.37 1.24
-5 9 2 5.27 0.54
-4 9 2 5.59 0.55
-3 9 2 17.81 0.52
-2 9 2 36.03 0.64
-1 9 2 65.27 0.7
0 9 2 97.83 1.18
-1 -9 -2 4.26 0.66
1 9 2 3.69 0.34
-2 -9 -2 51.56 1.11
2 9 2 50.95 1.4
-3 -9 -2 31.49 0.92
3 9 2 31.14 1.14
-4 -9 -2 28.16 0.78
4 9 2 30.49 0.84
-5 -9 -2 3.16 0.36
5 9 2 2.74 0.46
-6 -9 -2 5.81 0.35
6 9 2 6.17 0.39
-7 -9 -2 4.09 0.34
7 9 2 4.76 0.36
-8 -9 -2 17.19 0.53
8 9 2 17.46 0.48
-9 -9 -2 1.98 0.37
9 9 2 1.28 0.32
-10 -9 -2 8.71 0.51
10 9 2 7.99 0.42
-11 -9 -2 3.31 0.61
11 9 2 2.43 0.53
-6 10 2 0.35 0.5
-5 10 2 0.2 0.46
-4 10 2 17.83 0.72
-3 10 2 9.77 0.42
-2 10 2 15.37 0.57
-1 10 2 17.34 0.78
0 10 2 8.35 0.48
1 10 2 39.23 0.96
-2 -10 -2 89.15 2.21
2 10 2 87.14 1.32
-3 -10 -2 81.75 1.52
3 10 2 79.57 1.28
-4 -10 -2 146.11 1.76
4 10 2 149.51 1.81
-5 -10 -2 41.18 0.82
5 10 2 39.45 1.04
-6 -10 -2 33.45 0.76
6 10 2 34.39 1.03
-7 -10 -2 5.7 0.4
7 10 2 5.84 0.51
-8 -10 -2 8.07 0.5
8 10 2 8.93 0.59
-9 -10 -2 1.6 0.4
9 10 2 1.64 0.49
-10 -10 -2 1.31 0.48
10 10 2 1.39 0.58
-11 -10 -2 1.47 0.45
11 10 2 1.2 0.59
-5 11 2 7.93 0.71
-4 11 2 9.05 0.75
-3 11 2 36.2 0.95
-2 11 2 21.96 0.76
-1 11 2 5.13 0.49
0 11 2 4.77 0.46
1 11 2 20.33 0.66
2 11 2 4.89 0.54
-3 -11 -2 23.59 1.35
3 11 2 24.36 0.68
-4 -11 -2 16.4 0.72
4 11 2 17.42 0.76
-5 -11 -2 15.61 0.59
5 11 2 15.84 0.62
-6 -11 -2 37.78 0.73
6 11 2 40.8 1.16
-7 -11 -2 25.07 0.65
7 11 2 24.17 0.98
-8 -11 -2 28.29 0.67
8 11 2 28.43 0.87
-9 -11 -2 18.27 0.59
9 11 2 16.94 0.75
-10 -11 -2 9.83 0.61
10 11 2 9.55 0.64
-4 12 2 2.31 0.81
-3 12 2 4.3 0.53
-2 12 2 3.85 0.61
-1 12 2 9.62 0.6
0 12 2 12.65 0.62
1 12 2 31.19 0.82
2 12 2 28.32 0.97
-3 -12 -2 20.43 1.53
3 12 2 21.31 0.7
-4 -12 -2 11.58 0.87
4 12 2 11.03 0.73
-5 -12 -2 0.92 0.5
5 12 2 0.72 0.56
-6 -12 -2 0.16 0.31
6 12 2 0.52 0.52
-7 -12 -2 2.02 0.37
7 12 2 2.17 0.57
-8 -12 -2 2.19 0.38
8 12 2 2.38 0.62
-9 -12 -2 5.05 0.44
9 12 2 5.31 1.03
-10 -12 -2 1.18 0.45
10 12 2 1.36 0.65
-3 13 2 0.86 0.62
-2 13 2 4.32 0.54
-1 13 2 11.17 0.64
0 13 2 11.4 0.63
1 13 2 19.07 0.71
-2 -13 -2 5.77 1.13
2 13 2 6.95 0.66
-3 -13 -2 13.17 1.38
3 13 2 13.2 0.77
-4 -13 -2 4.28 1.04
4 13 2 5.62 0.63
-5 -13 -2 3.5 0.55
5 13 2 3.69 0.61
-6 -13 -2 6.09 0.5
6 13 2 6.38 0.98
-7 -13 -2 0.67 0.48
7 13 2 0.75 0.8
-8 -13 -2 5.34 0.48
8 13 2 5.7 0.7
-9 -13 -2 0.03 0.16
9 13 2 0.09 0.51
-2 14 2 0.15 0.43
-1 14 2 1.28 0.55
0 14 2 2.35 0.58
1 14 2 0.57 0.44
-2 -14 -2 5.09 1.19
2 14 2 5.47 0.66
-3 -14 -2 6.24 1.25
3 14 2 7.11 1.02
-4 -14 -2 8.75 0.93
4 14 2 9.09 0.74
-5 -14 -2 26.03 1.88
5 14 2 25.44 1.02
-6 -14 -2 15.85 0.82
6 14 2 17.04 1.34
-7 -14 -2 13.74 0.72
7 14 2 13.73 1.24
-8 -14 -2 9.67 0.61
8 14 2 9.71 1.14
-9 -14 -2 1.96 0.46
9 14 2 2.61 0.89
0 15 2 5.47 0.54
1 15 2 20.15 0.94
2 15 2 1.65 0.85
3 15 2 4.54 0.96
4 15 2 0.53 0.5
-5 -15 -2 0.42 1.12
5 15 2 0.47 0.49
-6 -15 -2 0.88 0.83
6 15 2 0.98 0.96
-7 -15 -2 1.02 0.68
7 15 2 1.64 0.96
-8 -15 -2 1.16 0.44
2 16 2 0.44 0.73
4 16 2 3.85 0.9
5 16 2 5.83 0.95
-6 -16 -2 5.27 0.86
6 16 2 5.13 0.96
5 15 -3 6.74 1
-5 -15 3 5.88 0.64
4 15 -3 2.36 0.85
-4 -15 3 1.99 0.75
3 15 -3 1.94 0.92
2 15 -3 1.41 0.86
1 15 -3 0.14 0.38
7 14 -3 1.41 0.9
-7 -14 3 1.91 0.56
6 14 -3 2.47 0.89
-6 -14 3 1.91 0.83
5 14 -3 8.73 1.1
-5 -14 3 10.06 1.05
4 14 -3 10.24 0.78
-4 -14 3 9.54 1.03
3 14 -3 12.6 0.82
2 14 -3 17.41 1.33
1 14 -3 9.71 1.11
0 14 -3 10.22 0.76
-1 14 -3 7.7 0.72
8 13 -3 0.1 0.24
-8 -13 3 0.07 0.15
7 13 -3 0.44 0.6
-7 -13 3 0.44 0.51
6 13 -3 0.41 0.47
-6 -13 3 0.48 0.78
5 13 -3 0.59 0.41
-5 -13 3 0.23 0.19
4 13 -3 0.01 0.06
-4 -13 3 0 0.12
3 13 -3 1.7 0.44
-3 -13 3 1.51 0.82
2 13 -3 2.05 0.54
-2 -13 3 1.52 0.82
1 13 -3 4.13 0.5
-1 -13 3 2.99 0.87
0 13 -3 17.46 0.72
0 -13 3 14.35 1.04
-1 13 -3 10.13 0.61
-2 13 -3 6.96 0.57
-3 13 -3 7.7 0.57
8 12 -3 5.07 0.54
-8 -12 3 4.31 0.45
7 12 -3 14.98 0.71
-7 -12 3 14.51 0.55
6 12 -3 30.47 0.9
-6 -12 3 28.6 0.75
5 12 -3 18.16 0.9
-5 -12 3 16.56 0.73
4 12 -3 22.65 0.77
-4 -12 3 21.68 0.76
3 12 -3 0.37 0.46
-3 -12 3 0 0.17
2 12 -3 3.78 0.47
-2 -12 3 3.83 0.6
1 12 -3 0.5 0.69
-1 -12 3 0.37 1.09
0 12 -3 3.32 0.47
0 -12 3 2.67 0.79
-1 12 -3 2.22 0.54
1 -12 3 1.82 1.22
-2 12 -3 20.6 0.77
2 -12 3 18.8 1.61
-3 12 -3 1.55 0.42
-4 12 -3 5.73 0.54
9 11 -3 1.72 0.59
-9 -11 3 1.55 0.34
8 11 -3 6.27 0.69
-8 -11 3 6.31 0.43
7 11 -3 10.77 0.64
-7 -11 3 11.81 0.51
6 11 -3 3.94 0.5
-6 -11 3 3.64 0.38
5 11 -3 25.78 0.97
-5 -11 3 27.49 0.77
4 11 -3 24.43 0.95
-4 -11 3 24.55 0.77
3 11 -3 21.06 0.71
-3 -11 3 22.22 0.72
2 11 -3 67.34 1.13
-2 -11 3 66.34 1.42
1 11 -3 36.95 0.87
-1 -11 3 34.4 1.31
0 11 -3 29.74 1
0 -11 3 29.69 1.76
-1 11 -3 16.96 0.83
1 -11 3 15.71 1.44
-2 11 -3 6.87 0.49
-3 11 -3 15.65 0.56
-4 11 -3 0.68 0.36
-5 11 -3 0.11 0.4
9 10 -3 4.54 0.53
-9 -10 3 4.39 0.44
8 10 -3 11.32 0.66
-8 -10 3 11.81 0.5
7 10 -3 3.36 0.48
-7 -10 3 3.15 0.38
6 10 -3 3.28 0.48
-6 -10 3 3.3 0.36
5 10 -3 5.23 0.44
-5 -10 3 4.94 0.39
4 10 -3 26.68 0.69
-4 -10 3 25.19 0.63
3 10 -3 17.06 0.56
-3 -10 3 15.5 0.76
2 10 -3 29.41 0.61
-2 -10 3 29.24 1.15
1 10 -3 8.31 0.45
-1 -10 3 7.61 0.75
0 10 -3 93.07 1.56
0 -10 3 95.02 2.74
-1 10 -3 22.48 0.76
-2 10 -3 50.82 0.92
-3 10 -3 20.39 0.59
-4 10 -3 10.65 0.5
-5 10 -3 14.1 0.62
-6 10 -3 4.22 0.84
10 9 -3 10.88 0.79
-10 -9 3 11.48 0.76
9 9 -3 9.15 0.63
-9 -9 3 9.47 0.46
8 9 -3 17.62 0.65
-8 -9 3 16.91 0.55
7 9 -3 8.62 0.58
-7 -9 3 10.05 0.47
6 9 -3 16.78 0.59
-6 -9 3 17.07 0.54
5 9 -3 23.58 0.58
-5 -9 3 23.39 0.57
4 9 -3 32.5 0.63
-4 -9 3 32.25 0.57
3 9 -3 39.7 0.59
-3 -9 3 38.27 1.01
2 9 -3 5.25 0.37
-2 -9 3 5.65 0.62
1 9 -3 0.96 0.26
-1 -9 3 0.97 0.68
0 9 -3 1.42 0.34
0 -9 3 1.44 0.68
-1 9 -3 23.07 0.72
-2 9 -3 3.33 0.37
-3 9 -3 12.5 0.63
-4 9 -3 7.64 0.5
-5 9 -3 12.18 0.88
-6 9 -3 2.34 0.49
-7 9 -3 4.44 0.51
10 8 -3 4.64 0.54
-10 -8 3 4.86 0.51
9 8 -3 1.47 0.48
-9 -8 3 1.82 0.46
8 8 -3 1.56 0.39
-8 -8 3 1.88 0.34
7 8 -3 19.19 0.62
-7 -8 3 19.87 0.57
6 8 -3 31.63 0.59
-6 -8 3 31.21 0.75
5 8 -3 36.75 0.66
-5 -8 3 36.74 0.66
4 8 -3 57.23 0.86
-4 -8 3 56.6 0.7
3 8 -3 47.06 0.75
-3 -8 3 46.33 1.02
2 8 -3 95.09 0.8
-2 -8 3 96.99 1.14
1 8 -3 38.39 0.66
-1 -8 3 36.19 0.8
0 8 -3 84.01 1
0 -8 3 84.04 1.41
-1 8 -3 1.64 0.29
1 -8 3 1.35 0.57
-2 8 -3 29.43 0.77
-3 8 -3 4.73 0.46
3 -8 3 4.78 0.9
-4 8 -3 2.41 0.38
4 -8 3 2 0.67
-5 8 -3 5.06 0.53
5 -8 3 4.55 0.78
-6 8 -3 5.05 0.56
6 -8 3 4.25 0.93
-7 8 -3 2.55 0.82
10 7 -3 4.54 0.42
-10 -7 3 4.87 0.5
9 7 -3 1.48 0.37
-9 -7 3 1.89 0.55
8 7 -3 3.89 0.39
-8 -7 3 3.81 0.32
7 7 -3 3.56 0.32
-7 -7 3 3.96 0.32
6 7 -3 0.37 0.21
-6 -7 3 0.51 0.29
5 7 -3 5.77 0.34
-5 -7 3 6.19 0.35
4 7 -3 21.02 0.47
-4 -7 3 20.05 0.43
3 7 -3 58.66 0.9
-3 -7 3 59.64 1.08
2 7 -3 61.86 1.76
-2 -7 3 63.19 0.88
1 7 -3 145.07 2.59
-1 -7 3 143.85 1.44
0 7 -3 123.37 1.76
0 -7 3 127.3 1.6
-1 7 -3 111.29 1.09
1 -7 3 107.64 1.43
-2 7 -3 135.88 1.42
2 -7 3 138.3 2.38
-3 7 -3 37.91 0.84
3 -7 3 38.18 1.5
-4 7 -3 73.28 1.19
4 -7 3 72.33 2.23
-5 7 -3 19.57 0.61
5 -7 3 19.36 1.43
-6 7 -3 26.36 0.72
6 -7 3 26.28 1.75
-7 7 -3 10.17 0.65
7 -7 3 7.33 1.27
10 6 -3 4.61 0.48
-10 -6 3 4.62 0.88
9 6 -3 8.35 0.43
-9 -6 3 8.04 0.56
8 6 -3 14.18 0.47
-8 -6 3 15.05 0.65
7 6 -3 17.41 0.43
-7 -6 3 17.7 0.44
6 6 -3 24.64 0.45
-6 -6 3 26.8 0.5
5 6 -3 55.06 0.59
-5 -6 3 54.36 0.66
4 6 -3 44.06 0.68
-4 -6 3 44.17 0.75
3 6 -3 35.86 1.3
-3 -6 3 34.82 0.79
2 6 -3 66.02 1.66
-2 -6 3 69.3 0.86
1 6 -3 20.41 0.97
-1 -6 3 21.1 0.56
0 6 -3 53.2 1.07
0 -6 3 52.26 0.76
-1 6 -3 41.31 0.98
1 -6 3 39.2 0.85
-2 6 -3 17.78 0.69
2 -6 3 17.85 0.64
-3 6 -3 34.62 0.75
3 -6 3 34.16 1.34
-4 6 -3 120.59 1.18
4 -6 3 121.41 2.71
-5 6 -3 16.23 0.54
5 -6 3 15.3 1.26
-6 6 -3 34.32 0.68
6 -6 3 35.09 1.91
-7 6 -3 5.45 0.46
7 -6 3 4.75 1.2
-8 6 -3 3.34 0.48
-9 6 -3 8.63 0.57
10 5 -3 0.74 0.36
-10 -5 3 1.01 0.53
9 5 -3 2.87 0.35
-9 -5 3 2.64 0.45
8 5 -3 13.08 0.42
-8 -5 3 13.43 0.53
7 5 -3 38.04 0.57
-7 -5 3 37.15 0.58
6 5 -3 56.58 0.58
-6 -5 3 56.49 0.66
5 5 -3 109.69 0.79
-5 -5 3 105.7 1.09
4 5 -3 33.87 1.2
-4 -5 3 31.24 0.76
3 5 -3 259.45 3.06
-3 -5 3 260.15 1.92
2 5 -3 35.08 1.14
-2 -5 3 33.72 0.58
1 5 -3 183.73 2.46
-1 -5 3 183.76 1.43
0 5 -3 69.61 1.1
0 -5 3 66.22 0.8
-1 5 -3 68.34 1.11
1 -5 3 65.56 0.89
-2 5 -3 14.41 0.58
2 -5 3 15.28 0.75
-3 5 -3 10.27 0.87
3 -5 3 9.45 0.51
-4 5 -3 28.24 0.68
4 -5 3 28.16 0.91
-5 5 -3 13.8 0.48
5 -5 3 12.85 0.78
-6 5 -3 5.57 0.37
6 -5 3 5.01 0.68
-7 5 -3 5.55 0.4
7 -5 3 4.68 0.77
-8 5 -3 10.39 0.56
8 -5 3 9.28 0.97
-9 5 -3 15.96 0.69
10 4 -3 0.98 0.4
-10 -4 3 1.45 0.55
9 4 -3 1.03 0.35
-9 -4 3 1.19 0.52
8 4 -3 4.48 0.39
-8 -4 3 4.12 0.45
7 4 -3 10.44 0.34
-7 -4 3 10.07 0.39
6 4 -3 48.78 0.55
-6 -4 3 48.81 0.59
5 4 -3 36.85 0.51
-5 -4 3 38.47 0.63
4 4 -3 2.8 0.32
-4 -4 3 3.64 0.39
3 4 -3 216.51 2.59
-3 -4 3 211.1 1.98
2 4 -3 70.43 1.46
-2 -4 3 67.1 0.74
1 4 -3 427.27 8
-1 -4 3 443.44 8.21
0 4 -3 129.86 1.36
0 -4 3 131.76 1.03
-1 4 -3 353.27 7.39
1 -4 3 356.47 2.35
-2 4 -3 377.97 9.49
2 -4 3 391.21 3.01
-3 4 -3 66.61 1.74
3 -4 3 65.97 1.05
-4 4 -3 70.59 1.23
4 -4 3 69.95 1.27
-5 4 -3 4.82 0.39
5 -4 3 3.8 0.51
-6 4 -3 1.34 0.32
6 -4 3 1.25 0.54
-7 4 -3 1.35 0.35
7 -4 3 1.01 0.63
-8 4 -3 0.05 0.07
8 -4 3 0.29 0.63
-9 4 -3 2.23 0.46
9 -4 3 1.64 0.93
10 3 -3 7.77 0.43
-10 -3 3 7.53 0.56
9 3 -3 15.74 0.53
-9 -3 3 16.05 0.86
8 3 -3 27.86 0.56
-8 -3 3 28.08 0.8
7 3 -3 36.56 0.62
-7 -3 3 40.55 1.06
6 3 -3 17.83 0.38
-6 -3 3 18.37 0.43
5 3 -3 148.64 1.84
-5 -3 3 157.85 1.38
4 3 -3 22.98 0.48
-4 -3 3 23.38 0.72
3 3 -3 44.78 0.56
-3 -3 3 48.55 0.91
2 3 -3 2.93 0.22
-2 -3 3 2.82 0.29
1 3 -3 367.45 8.19
-1 -3 3 410.31 7.35
0 3 -3 156.51 1.32
0 -3 3 169.98 1.09
-1 3 -3 192.6 1.5
1 -3 3 189.96 1.92
-2 3 -3 257.97 1.84
2 -3 3 260.25 1.63
-3 3 -3 39.71 0.7
3 -3 3 45.45 0.86
-4 3 -3 188.93 11.23
4 -3 3 188.03 1.94
-5 3 -3 122.24 1.52
5 -3 3 123.22 1.83
-6 3 -3 164.58 1.93
6 -3 3 166.14 2.37
-7 3 -3 88.89 1.57
7 -3 3 92.54 1.98
-8 3 -3 20.16 0.73
8 -3 3 19.97 0.83
-9 3 -3 14.07 0.62
9 -3 3 13.83 0.66
-10 3 -3 0.39 0.29
10 -3 3 0.84 0.44
10 2 -3 2.97 0.4
-10 -2 3 3.01 0.47
9 2 -3 0.92 0.34
-9 -2 3 0.89 0.41
8 2 -3 3.77 0.36
-8 -2 3 4.37 0.47
7 2 -3 17.01 0.51
-7 -2 3 16.78 0.6
6 2 -3 30.25 0.47
-6 -2 3 29.86 0.68
5 2 -3 130.53 1.47
-5 -2 3 138.53 10.35
4 2 -3 152.89 1.13
-4 -2 3 151.56 2.2
3 2 -3 216.77 1.4
-3 -2 3 227.2 1.76
2 2 -3 267.77 1.67
-2 -2 3 284.91 2.43
1 2 -3 421.73 6.1
-1 -2 3 462.26 5.55
0 2 -3 1084.37 9.92
0 -2 3 1247.51 15.41
-1 2 -3 291.91 5.46
1 -2 3 319.78 4.86
-2 2 -3 126.56 1.73
2 -2 3 131.12 1.59
-3 2 -3 16.94 1.96
3 -2 3 19.24 0.55
-4 2 -3 2.62 4.07
4 -2 3 5.33 0.53
-5 2 -3 8.01 6.71
5 -2 3 6.53 0.53
-6 2 -3 14.15 0.51
6 -2 3 13.88 0.77
-7 2 -3 4.12 0.41
7 -2 3 3.17 0.45
-8 2 -3 15.89 0.65
8 -2 3 15.55 0.61
-9 2 -3 0.45 0.44
9 -2 3 0.42 0.51
-10 2 -3 11.33 0.63
10 -2 3 11.71 0.66
10 1 -3 5.25 0.49
-10 -1 3 5.29 0.64
9 1 -3 5.7 0.38
-9 -1 3 5.78 0.65
8 1 -3 4.93 0.41
-8 -1 3 4.65 0.47
7 1 -3 23.97 0.5
-7 -1 3 24.04 0.71
6 1 -3 10.83 0.35
-6 -1 3 10.43 0.47
5 1 -3 9.67 0.5
-5 -1 3 7.26 6.08
4 1 -3 66.12 1.17
-4 -1 3 69.9 1.53
3 1 -3 26.63 0.56
-3 -1 3 27.16 0.59
2 1 -3 334.17 4.33
-2 -1 3 312.52 2.37
1 1 -3 93.66 1.19
-1 -1 3 103.94 0.97
0 1 -3 712.38 7.34
0 -1 3 711.63 7.13
-1 1 -3 208.87 4.98
1 -1 3 229.18 4.21
-2 1 -3 158.82 6.79
2 -1 3 165.17 4.02
-3 1 -3 296.02 10.68
3 -1 3 296.82 1.94
-4 1 -3 37.34 4.57
4 -1 3 36.87 0.82
-5 1 -3 69.12 6.95
5 -1 3 78.27 1.33
-6 1 -3 4.6 0.35
6 -1 3 3.6 0.44
-7 1 -3 17.26 0.59
7 -1 3 17.86 0.68
-8 1 -3 2.02 0.39
8 -1 3 2.01 0.4
-9 1 -3 1.04 0.39
9 -1 3 1.1 0.44
-10 1 -3 4.23 0.51
10 -1 3 4.34 0.56
-11 1 -3 0.02 0.04
11 -1 3 0.26 0.39
10 0 -3 0.59 0.54
-10 0 3 0.69 0.57
9 0 -3 12.11 0.54
-9 0 3 12.91 0.65
8 0 -3 8.23 0.43
-8 0 3 8.14 0.54
7 0 -3 29.79 0.53
-7 0 3 29.87 0.78
6 0 -3 52.11 0.64
-6 0 3 50.34 0.77
5 0 -3 20.84 0.68
-5 0 3 21.84 0.55
4 0 -3 61.45 0.95
-4 0 3 59.39 1.5
3 0 -3 4.54 0.29
-3 0 3 4.53 0.45
2 0 -3 41.5 0.5
-2 0 3 43.09 0.89
1 0 -3 94.46 0.89
-1 0 3 99.14 3.27
0 0 -3 197.14 3.43
0 0 3 220.29 4.22
-1 0 -3 716.87 7.94
1 0 3 788.69 8.3
-2 0 -3 160.59 6.01
2 0 3 187.18 1.7
-3 0 -3 483.34 8.48
3 0 3 513.12 6.65
-4 0 -3 202.41 1.96
4 0 3 216.73 1.76
-5 0 -3 217.21 11.37
5 0 3 217.63 2.02
-6 0 -3 185.84 1.81
6 0 3 185.29 2.25
-7 0 -3 18.18 0.49
7 0 3 19.19 0.68
-8 0 -3 54.2 1.01
8 0 3 53.05 0.95
-9 0 -3 4.99 0.48
9 0 3 5.45 0.51
-10 0 -3 4.17 0.61
10 0 3 4.46 0.43
-11 0 -3 1.84 0.45
11 0 3 2.36 0.45
10 -1 -3 0.5 0.51
-10 1 3 0.65 0.68
9 -1 -3 1.6 0.45
-9 1 3 1.88 0.46
8 -1 -3 5.05 0.41
-8 1 3 5.75 0.51
7 -1 -3 3.05 0.35
-7 1 3 3.16 0.42
6 -1 -3 71.65 0.74
-6 1 3 70.72 0.92
5 -1 -3 18.63 0.55
-5 1 3 19.68 0.4
4 -1 -3 272.74 1.97
-4 1 3 276.89 3.35
3 -1 -3 144.12 1.06
-3 1 3 157.04 1.91
2 -1 -3 517.56 6.17
-2 1 3 529.45 6
1 -1 -3 791.19 7.11
-1 1 3 836.1 8.64
0 -1 -3 493.54 7.93
0 1 3 515.92 7.96
-1 -1 -3 493.07 7.26
1 1 3 557.57 5.05
-2 -1 -3 49.51 2.92
2 1 3 50.91 0.81
-3 -1 -3 23.04 0.67
3 1 3 23.56 0.52
-4 -1 -3 6.09 0.46
4 1 3 5.84 0.36
-5 -1 -3 16.4 0.7
5 1 3 18.54 0.65
-6 -1 -3 6.13 5.74
6 1 3 7.62 0.56
-7 -1 -3 18.27 0.49
7 1 3 20.17 0.55
-8 -1 -3 74.1 0.97
8 1 3 73.37 1.08
-9 -1 -3 15.2 0.55
9 1 3 16.73 0.52
-10 -1 -3 54.74 1.39
10 1 3 56.08 0.89
-11 -1 -3 5.11 0.52
11 1 3 5.54 0.51
9 -2 -3 0.35 0.39
-9 2 3 0.57 0.45
8 -2 -3 7.81 0.52
-8 2 3 9.1 0.58
7 -2 -3 1.15 0.37
-7 2 3 1.35 0.39
6 -2 -3 4.78 0.37
-6 2 3 4.71 0.35
5 -2 -3 4.51 0.37
-5 2 3 3.88 0.25
4 -2 -3 51.64 0.75
-4 2 3 51.73 1.58
3 -2 -3 56.01 0.69
-3 2 3 54.52 1.36
2 -2 -3 132.72 1.22
-2 2 3 132.82 1.63
1 -2 -3 433.15 4.74
-1 2 3 421.83 4.57
0 -2 -3 68.57 2.14
0 2 3 69.42 1.49
-1 -2 -3 534.37 7.53
1 2 3 547.38 6.69
-2 -2 -3 572.95 6.92
2 2 3 576.73 4.75
-3 -2 -3 356.11 4.97
3 2 3 354.36 4.05
-4 -2 -3 645.72 11.42
4 2 3 685.45 5.71
-5 -2 -3 16.27 0.74
5 2 3 15.23 0.57
-6 -2 -3 107.22 1.82
6 2 3 107.03 1.58
-7 -2 -3 14.79 0.4
7 2 3 15.28 0.44
-8 -2 -3 5.05 0.36
8 2 3 4.7 0.32
-9 -2 -3 1.14 0.41
9 2 3 1.2 0.32
-10 -2 -3 2.72 0.58
10 2 3 3.3 0.36
-11 -2 -3 4.04 0.61
11 2 3 4.51 0.48
9 -3 -3 6.35 0.72
-9 3 3 6.3 0.67
8 -3 -3 15.25 0.62
-8 3 3 15.72 0.69
7 -3 -3 34.95 0.78
-7 3 3 33.42 1.07
6 -3 -3 31.31 0.79
-6 3 3 29.83 0.53
5 -3 -3 20.48 0.67
-5 3 3 19.25 0.39
4 -3 -3 14.65 0.56
-4 3 3 14.33 0.5
3 -3 -3 109.11 0.99
-3 3 3 109.95 2.12
2 -3 -3 87.27 0.81
-2 3 3 86.22 1.29
1 -3 -3 41.7 0.81
-1 3 3 42.55 0.94
0 -3 -3 653.61 7.42
0 3 3 653.08 5.82
-1 -3 -3 351.12 6.81
1 3 3 354.85 5.69
-2 -3 -3 112.8 1.33
2 3 3 115.27 2.13
-3 -3 -3 171.73 1.42
3 3 3 170.51 1.71
-4 -3 -3 7.7 0.3
4 3 3 6.08 0.48
-5 -3 -3 29.26 0.73
5 3 3 29.58 0.73
-6 -3 -3 85.47 1.73
6 3 3 83.12 1.34
-7 -3 -3 52.92 0.59
7 3 3 52.12 0.54
-8 -3 -3 74.53 0.83
8 3 3 74.32 0.85
-9 -3 -3 16.92 0.66
9 3 3 16.49 0.47
-10 -3 -3 2.05 0.53
10 3 3 2.32 0.36
-11 -3 -3 2.87 0.57
11 3 3 2.89 0.42
9 -4 -3 2.5 0.85
-9 4 3 2.57 0.59
8 -4 -3 0.81 0.69
-8 4 3 1.03 0.56
7 -4 -3 17.53 0.82
-7 4 3 18.34 0.88
6 -4 -3 44.26 1.18
-6 4 3 47.55 0.67
5 -4 -3 70.06 1.59
-5 4 3 71.39 0.76
4 -4 -3 39.31 0.86
-4 4 3 40.22 0.59
3 -4 -3 129.12 1.27
-3 4 3 123.63 2.38
2 -4 -3 30.39 0.54
-2 4 3 26.17 0.97
1 -4 -3 115.71 3.07
-1 4 3 118.72 1.63
0 -4 -3 142.09 4.1
0 4 3 151.35 3.43
-1 -4 -3 46.52 0.62
1 4 3 44.57 1.95
-2 -4 -3 285.23 3.37
2 4 3 283.08 2.69
-3 -4 -3 181.46 1.46
3 4 3 185.24 3.65
-4 -4 -3 1.27 0.38
4 4 3 1.09 0.28
-5 -4 -3 473.98 8.42
5 4 3 477.74 7.44
-6 -4 -3 46.73 1.01
6 4 3 46.08 1.4
-7 -4 -3 117.55 0.88
7 4 3 117.71 0.85
-8 -4 -3 33.69 0.59
8 4 3 35.19 0.53
-9 -4 -3 10.87 0.44
9 4 3 10.67 0.43
-10 -4 -3 17.65 0.71
10 4 3 17.85 0.52
-11 -4 -3 5.53 0.94
11 4 3 4.61 0.42
8 -5 -3 1.95 0.81
-8 5 3 3.22 0.61
7 -5 -3 0.36 0.77
-7 5 3 0.33 0.55
6 -5 -3 8.64 0.86
-6 5 3 8.56 0.46
5 -5 -3 29.64 1.13
-5 5 3 29.68 0.61
4 -5 -3 5.74 0.61
-4 5 3 5.83 0.32
3 -5 -3 63.37 1.56
-3 5 3 61.49 0.92
2 -5 -3 170.41 2.32
-2 5 3 166.17 2.63
1 -5 -3 292.95 7.86
-1 5 3 299.72 2.04
0 -5 -3 309.18 4.51
0 5 3 316.3 6.16
-1 -5 -3 282.78 3.69
1 5 3 297.11 6.1
-2 -5 -3 210.92 1.87
2 5 3 210 3.71
-3 -5 -3 108.33 0.92
3 5 3 112.44 2.8
-4 -5 -3 208.68 2.5
4 5 3 230.74 5.62
-5 -5 -3 105.31 1.93
5 5 3 97.43 4.04
-6 -5 -3 135.93 1.36
6 5 3 135.11 1.54
-7 -5 -3 20.83 0.4
7 5 3 19.35 0.36
-8 -5 -3 8.06 0.37
8 5 3 7.97 0.33
-9 -5 -3 2.33 0.33
9 5 3 2.11 0.31
-10 -5 -3 6.41 0.41
10 5 3 6.25 0.44
-11 -5 -3 5.16 0.93
11 5 3 4.78 0.43
-12 -5 -3 4.67 0.91
12 5 3 3.66 0.37
-8 6 3 6.53 0.69
7 -6 -3 11.25 0.75
-7 6 3 10.92 0.77
6 -6 -3 7.44 1.24
-6 6 3 7.1 0.49
5 -6 -3 23.63 1.52
-5 6 3 22.77 0.65
4 -6 -3 0.81 0.57
-4 6 3 0.95 0.3
-3 6 3 3.55 0.31
2 -6 -3 18.93 5.5
-2 6 3 19.6 0.56
1 -6 -3 5.33 2.14
-1 6 3 5.7 0.4
0 -6 -3 54.21 1.01
0 6 3 53.33 1.04
-1 -6 -3 23.48 0.46
1 6 3 24.68 0.66
-2 -6 -3 84.59 0.93
2 6 3 79.63 2.64
-3 -6 -3 196.71 1.32
3 6 3 200.43 3.95
-4 -6 -3 95.29 1.31
4 6 3 97.37 3.9
-5 -6 -3 135.85 1.73
5 6 3 129.14 6.01
-6 -6 -3 60.2 0.78
6 6 3 62.29 0.88
-7 -6 -3 41.09 0.49
7 6 3 37.68 0.5
-8 -6 -3 29.09 0.5
8 6 3 28.65 0.46
-9 -6 -3 6.43 0.39
9 6 3 4.95 0.36
-10 -6 -3 10.15 0.51
10 6 3 9.68 0.49
-11 -6 -3 0.88 0.53
11 6 3 0.67 0.36
-12 -6 -3 2.51 0.8
12 6 3 1.91 0.38
-7 7 3 10.97 0.63
6 -7 -3 3.55 1.16
-6 7 3 4.21 0.49
5 -7 -3 35.81 2.01
-5 7 3 33.4 0.7
4 -7 -3 25.23 1.49
-4 7 3 26.17 0.55
3 -7 -3 53.99 1.87
-3 7 3 52.35 0.85
-2 7 3 33.42 0.57
1 -7 -3 30.85 3.9
-1 7 3 30.69 0.67
0 -7 -3 11.87 2.28
0 7 3 12.91 0.79
-1 -7 -3 25.52 0.83
1 7 3 21.45 2.55
-2 -7 -3 32.66 0.7
2 7 3 29.11 1.93
-3 -7 -3 15.87 0.47
3 7 3 13.49 1.87
-4 -7 -3 36.13 0.72
4 7 3 30.26 4.04
-5 -7 -3 5.6 0.49
5 7 3 4.3 5.72
-6 -7 -3 21.42 0.51
6 7 3 20.81 0.45
-7 -7 -3 32.17 0.53
7 7 3 31.02 0.52
-8 -7 -3 11.16 0.37
8 7 3 10.46 0.36
-9 -7 -3 28.7 0.7
9 7 3 27.59 0.58
-10 -7 -3 10.62 0.74
10 7 3 9.81 0.44
-11 -7 -3 7.41 0.56
11 7 3 6.76 0.46
-7 8 3 0.53 0.46
6 -8 -3 0 0.55
-6 8 3 0.14 0.29
5 -8 -3 8.72 1.31
-5 8 3 9.01 0.58
-4 8 3 2.44 0.39
3 -8 -3 43.45 1.8
-3 8 3 43.75 0.82
-2 8 3 32.38 0.67
1 -8 -3 100.46 8.76
-1 8 3 105.64 1.06
0 -8 -3 72.4 7.42
0 8 3 73.11 0.99
-1 -8 -3 160.21 10.65
1 8 3 162.49 6.86
-2 -8 -3 39.79 1.2
2 8 3 37.58 3.86
-3 -8 -3 191.64 1.6
3 8 3 194.84 7.77
-4 -8 -3 14.73 0.54
4 8 3 15.67 0.84
-5 -8 -3 70.19 1.07
5 8 3 71.34 0.97
-6 -8 -3 3.42 0.3
6 8 3 3.11 0.33
-7 -8 -3 2.15 0.29
7 8 3 2.18 0.31
-8 -8 -3 0.07 0.11
8 8 3 0.07 0.22
-9 -8 -3 23.72 0.55
9 8 3 22.28 0.54
-10 -8 -3 0.4 0.36
10 8 3 0.27 0.45
-11 -8 -3 5.1 0.53
11 8 3 4.41 0.43
-6 9 3 3.97 0.51
5 -9 -3 0.43 2.04
-5 9 3 1.14 0.51
-4 9 3 11.03 0.56
-3 9 3 3.54 0.4
-2 9 3 7.84 0.39
-1 9 3 3.78 0.34
0 9 3 21.91 0.53
1 9 3 11 0.46
-2 -9 -3 141.16 2.42
2 9 3 137.19 2.22
-3 -9 -3 77.27 1.43
3 9 3 75.45 1.19
-4 -9 -3 76.89 1.18
4 9 3 75.34 1
-5 -9 -3 83.42 1.07
5 9 3 87.74 1.14
-6 -9 -3 24.43 0.63
6 9 3 23.19 0.68
-7 -9 -3 69.85 0.88
7 9 3 72.79 0.8
-8 -9 -3 38.19 0.65
8 9 3 37.02 0.64
-9 -9 -3 15.48 0.53
9 9 3 14.95 0.53
-10 -9 -3 19.16 0.64
10 9 3 17.33 0.58
-11 -9 -3 0.31 0.35
11 9 3 0.24 0.33
-5 10 3 5.62 0.68
4 -10 -3 18.58 1.57
-4 10 3 19.22 0.75
-3 10 3 9.73 0.42
-2 10 3 13.95 0.56
-1 10 3 7.88 0.39
0 10 3 1.34 0.32
1 10 3 21.31 0.64
2 10 3 0.65 0.64
-3 -10 -3 32.67 1.05
3 10 3 32.28 0.89
-4 -10 -3 0.9 0.42
4 10 3 1.06 0.46
-5 -10 -3 5.05 0.4
5 10 3 5.57 0.56
-6 -10 -3 13.74 0.65
6 10 3 12.99 0.73
-7 -10 -3 38.45 0.7
7 10 3 39.12 1.14
-8 -10 -3 8.73 0.47
8 10 3 7.79 0.56
-9 -10 -3 8.08 0.44
9 10 3 8.43 0.72
-10 -10 -3 8.11 0.43
10 10 3 8.64 0.62
-11 -10 -3 2.11 0.47
11 10 3 2.44 0.62
-5 11 3 0.17 0.42
-4 11 3 2.28 0.46
-3 11 3 3.21 0.42
-2 11 3 25.19 0.8
-1 11 3 19.1 0.71
0 11 3 83.86 1.25
1 11 3 44.42 0.9
2 11 3 21.94 1.18
-3 -11 -3 12.03 1.16
3 11 3 13.36 0.69
-4 -11 -3 3.22 0.58
4 11 3 2.59 0.74
-5 -11 -3 10.25 0.59
5 11 3 11.8 0.71
-6 -11 -3 3.79 0.51
6 11 3 3.87 0.59
-7 -11 -3 0.94 0.37
7 11 3 1.01 0.53
-8 -11 -3 3.43 0.41
8 11 3 4.14 0.64
-9 -11 -3 2.24 0.38
9 11 3 2.6 0.66
-10 -11 -3 2.5 0.37
10 11 3 1.96 0.6
-11 -11 -3 1.82 0.45
11 11 3 1.77 0.93
-4 12 3 0.2 0.4
-3 12 3 1.33 0.53
-2 12 3 6.87 0.56
-1 12 3 2.77 0.6
0 12 3 10.26 0.59
-1 -12 -3 3.31 0.93
1 12 3 4.35 0.47
-2 -12 -3 16.21 1.37
2 12 3 18.14 0.83
-3 -12 -3 43.38 2.05
3 12 3 43.91 0.93
-4 -12 -3 46.71 2.16
4 12 3 42.8 1.14
-5 -12 -3 81.57 1.39
5 12 3 79.02 1.49
-6 -12 -3 32.09 0.8
6 12 3 32.64 1.1
-7 -12 -3 25.37 0.67
7 12 3 27.86 1.06
-8 -12 -3 8.3 0.49
8 12 3 9.23 0.8
-9 -12 -3 1.62 0.38
9 12 3 1.86 0.62
-10 -12 -3 2.01 0.37
10 12 3 2.09 0.63
-3 13 3 4.58 0.65
-2 13 3 21.71 0.97
-1 13 3 10.36 0.63
0 13 3 14.6 0.68
-1 -13 -3 7.04 1.14
1 13 3 8.33 0.57
-2 -13 -3 0 0.5
2 13 3 0.43 0.57
-3 -13 -3 7.43 1.2
3 13 3 7.96 0.68
-4 -13 -3 1.43 0.72
4 13 3 1.8 0.56
-5 -13 -3 1.01 0.51
5 13 3 1.27 0.59
-6 -13 -3 3.13 0.65
6 13 3 3.75 0.9
-7 -13 -3 3.85 0.43
7 13 3 4.74 0.68
-8 -13 -3 5.72 0.46
8 13 3 6.07 0.73
-9 -13 -3 6.56 0.48
9 13 3 6.53 0.74
-10 -13 -3 6.1 0.46
10 13 3 6.3 0.73
-2 14 3 1.2 0.6
-1 14 3 2.62 0.6
0 14 3 2.25 0.49
1 14 3 3.81 0.63
-2 -14 -3 12.03 1.39
2 14 3 12.83 0.82
-3 -14 -3 5.11 1.21
3 14 3 5.59 0.97
-4 -14 -3 10.53 0.97
4 14 3 10.33 1.1
-5 -14 -3 3.56 0.85
5 14 3 3.76 0.67
-6 -14 -3 1.4 0.51
-7 -14 -3 0.09 0.25
7 14 3 0.18 0.91
-8 -14 -3 1.34 0.46
8 14 3 0.99 0.74
-9 -14 -3 1.82 0.47
0 15 3 2.09 0.59
1 15 3 7.18 0.72
2 15 3 12.64 0.82
3 15 3 5.6 1
4 15 3 15.1 1.25
5 15 3 2 0.63
-6 -15 -3 3.84 0.86
6 15 3 3.59 0.93
-7 -15 -3 2.68 0.58
7 15 3 2.3 0.91
-8 -15 -3 0.74 0.48
8 15 3 0.93 0.72
2 16 3 0.98 0.77
3 16 3 0.15 2.06
4 16 3 1.26 0.92
-5 -16 -3 1 0.76
5 16 3 0.86 1.12
-6 -16 -3 8.3 0.98
6 16 3 7.76 0.7
3 15 -4 4.2 0.9
2 15 -4 10.33 1.14
6 14 -4 6.77 0.68
-6 -14 4 6.51 0.67
5 14 -4 1.44 0.81
-5 -14 4 0.84 0.54
4 14 -4 0.16 1.77
3 14 -4 0.61 0.5
-3 -14 4 0.81 0.94
2 14 -4 0.95 0.95
1 14 -4 1.5 0.55
0 14 -4 3.73 0.58
-1 14 -4 5.79 0.52
7 13 -4 4.37 0.63
-7 -13 4 4.55 0.51
6 13 -4 7.51 1.05
-6 -13 4 7.79 0.71
5 13 -4 7.56 0.57
-5 -13 4 7.64 0.51
4 13 -4 8.13 0.72
-4 -13 4 7.77 0.51
3 13 -4 9.53 0.61
-3 -13 4 8.32 0.6
2 13 -4 3.43 0.51
-2 -13 4 3.23 0.73
1 13 -4 7.4 0.71
-1 -13 4 5.92 0.76
0 13 -4 2.54 0.46
0 -13 4 1.76 0.82
-1 13 -4 0.02 0.03
-2 13 -4 1.08 0.38
-3 13 -4 3.93 0.87
8 12 -4 0.1 0.32
-8 -12 4 0.21 0.3
7 12 -4 0.65 0.44
-7 -12 4 0.51 0.38
6 12 -4 1.28 0.46
-6 -12 4 1.38 0.49
5 12 -4 4.86 0.65
-5 -12 4 3.63 0.45
4 12 -4 19.3 0.92
-4 -12 4 17.29 0.72
3 12 -4 25.34 0.81
-3 -12 4 23.93 0.79
2 12 -4 23.45 0.78
-2 -12 4 21.71 0.97
1 12 -4 36.03 1.14
-1 -12 4 36.22 1.18
0 12 -4 7.18 0.68
0 -12 4 5.91 0.87
-1 12 -4 24.72 1.02
1 -12 4 25.96 1.29
-2 12 -4 9.82 0.62
2 -12 4 7.53 1.36
-3 12 -4 3.47 0.65
-4 12 -4 7.18 1
9 11 -4 10.47 0.63
-9 -11 4 10.22 0.59
8 11 -4 7.77 0.6
-8 -11 4 8.71 0.59
7 11 -4 5.47 0.67
-7 -11 4 5.11 0.39
6 11 -4 0.62 0.49
-6 -11 4 0.33 0.31
5 11 -4 0.35 0.41
-5 -11 4 0.38 0.55
4 11 -4 0.62 0.47
-4 -11 4 0.54 0.58
3 11 -4 0.93 0.37
-3 -11 4 0.89 0.44
2 11 -4 2.87 0.41
-2 -11 4 2.74 0.56
1 11 -4 8.21 0.54
-1 -11 4 8.26 0.86
0 11 -4 4.91 0.6
0 -11 4 3.95 0.74
-1 11 -4 30.08 1.06
1 -11 4 28.32 1.84
-2 11 -4 24.26 0.87
2 -11 4 20.86 1.69
-3 11 -4 13.09 0.54
-4 11 -4 9.77 0.62
-5 11 -4 1.45 0.53
9 10 -4 0.26 0.45
-9 -10 4 0.18 0.41
8 10 -4 3.08 0.5
-8 -10 4 3.64 0.44
7 10 -4 3.94 0.53
-7 -10 4 3.44 0.4
6 10 -4 25.7 0.83
-6 -10 4 25.98 0.6
5 10 -4 50.73 0.96
-5 -10 4 50.59 0.97
4 10 -4 43.02 0.87
-4 -10 4 41.73 0.94
3 10 -4 43.79 0.84
-3 -10 4 44.18 0.93
2 10 -4 5.67 0.38
-2 -10 4 4.19 0.71
1 10 -4 18.31 0.59
-1 -10 4 18.99 1.03
0 10 -4 0.15 0.29
0 -10 4 0 0.4
-1 10 -4 3.08 0.53
1 -10 4 2.02 1.02
-2 10 -4 2.13 0.45
-3 10 -4 30.67 0.94
-4 10 -4 9.67 0.49
-5 10 -4 4.15 0.51
-6 10 -4 7.8 0.56
9 9 -4 0.83 0.5
-9 -9 4 0.71 0.4
8 9 -4 6.77 0.58
-8 -9 4 7.34 0.49
7 9 -4 7.22 0.57
-7 -9 4 7.44 0.4
6 9 -4 8.8 0.52
-6 -9 4 9.67 0.42
5 9 -4 8.85 0.49
-5 -9 4 8.24 0.43
4 9 -4 20.83 0.62
-4 -9 4 22.68 0.59
3 9 -4 52.92 0.76
-3 -9 4 54.12 0.96
2 9 -4 26.4 0.64
-2 -9 4 26.38 0.67
1 9 -4 119 1.1
-1 -9 4 121.02 1.66
0 9 -4 55.62 0.87
0 -9 4 50.91 1.35
-1 9 -4 67.94 1.24
1 -9 4 66.09 2.09
-2 9 -4 29.91 1.09
2 -9 4 30.09 1.56
-3 9 -4 25.2 0.69
-4 9 -4 29.76 0.78
-5 9 -4 3.7 0.53
-6 9 -4 0.24 0.43
-7 9 -4 0.33 0.56
10 8 -4 0.65 0.5
-10 -8 4 0.84 0.55
9 8 -4 3.46 0.51
-9 -8 4 3.09 0.48
8 8 -4 7 0.44
-8 -8 4 7.28 0.43
7 8 -4 21.9 0.59
-7 -8 4 22.11 0.55
6 8 -4 15.6 0.52
-6 -8 4 15.92 0.48
5 8 -4 11.8 0.51
-5 -8 4 13.39 0.47
4 8 -4 2.27 0.33
-4 -8 4 2.14 0.28
3 8 -4 59.78 0.76
-3 -8 4 59.68 1.2
2 8 -4 17.7 0.45
-2 -8 4 16.45 0.48
1 8 -4 16.19 0.49
-1 -8 4 14.45 0.59
0 8 -4 32.66 0.65
0 -8 4 30.87 0.81
-1 8 -4 44.25 0.8
1 -8 4 44.96 1.16
-2 8 -4 48.86 0.98
2 -8 4 46.31 1.71
-3 8 -4 38.58 0.94
3 -8 4 38.61 1.64
-4 8 -4 24.14 0.81
4 -8 4 21.52 1.43
-5 8 -4 14.25 0.7
5 -8 4 12.68 1.31
-6 8 -4 8.22 0.63
6 -8 4 6.78 1.34
-7 8 -4 7.99 0.69
10 7 -4 7.62 0.59
-10 -7 4 7.75 0.67
9 7 -4 10.83 0.81
-9 -7 4 10.59 0.52
8 7 -4 12.63 0.58
-8 -7 4 12.58 0.48
7 7 -4 27.8 0.58
-7 -7 4 27.25 0.58
6 7 -4 12.67 0.45
-6 -7 4 12.67 0.46
5 7 -4 43.33 0.63
-5 -7 4 42.82 0.7
4 7 -4 63.86 0.77
-4 -7 4 60.99 0.71
3 7 -4 52.26 0.78
-3 -7 4 50.71 0.84
2 7 -4 93.17 0.98
-2 -7 4 88.7 1.1
1 7 -4 15.82 0.67
-1 -7 4 14.88 0.56
0 7 -4 6.69 0.31
0 -7 4 5.8 0.5
-1 7 -4 2.31 0.3
1 -7 4 2.2 0.34
-2 7 -4 6.89 0.33
2 -7 4 6.67 0.55
-3 7 -4 8.39 0.42
3 -7 4 8.32 0.93
-4 7 -4 9.92 0.47
4 -7 4 8.93 0.74
-5 7 -4 16.49 0.68
5 -7 4 15.91 0.96
-6 7 -4 6.01 0.56
6 -7 4 5.36 0.82
-7 7 -4 4.86 0.47
7 -7 4 3.81 1.02
-8 7 -4 5.11 0.9
10 6 -4 0.6 0.41
-10 -6 4 0.58 0.51
9 6 -4 2.87 0.39
-9 -6 4 3.14 0.57
8 6 -4 3.08 0.34
-8 -6 4 3.29 0.39
7 6 -4 1.39 0.31
-7 -6 4 1.47 0.31
6 6 -4 25.42 0.47
-6 -6 4 26.47 0.57
5 6 -4 15.97 0.33
-5 -6 4 16.22 0.41
4 6 -4 91.8 0.8
-4 -6 4 91.86 0.83
3 6 -4 21.83 1.13
-3 -6 4 22.35 0.69
2 6 -4 217.51 3.12
-2 -6 4 216.28 1.6
1 6 -4 51.32 1.54
-1 -6 4 53.55 0.91
0 6 -4 189.94 2.1
0 -6 4 190.99 1.52
-1 6 -4 76.08 1.34
1 -6 4 75.11 1.21
-2 6 -4 43.18 0.7
2 -6 4 41.25 1.35
-3 6 -4 48.4 0.75
3 -6 4 49.19 1.14
-4 6 -4 1.92 0.33
4 -6 4 1.76 0.67
-5 6 -4 1.07 0.38
5 -6 4 0.62 0.78
-6 6 -4 3.97 0.41
6 -6 4 3.45 0.99
-7 6 -4 6.54 0.48
7 -6 4 6.61 0.87
-8 6 -4 5.06 0.62
-9 6 -4 0.91 0.67
10 5 -4 0.45 0.35
-10 -5 4 0.54 0.45
9 5 -4 7.75 0.46
-9 -5 4 7.81 0.98
8 5 -4 1.83 0.35
-8 -5 4 2.39 0.37
7 5 -4 14.16 0.49
-7 -5 4 14.63 0.42
6 5 -4 9.5 0.33
-6 -5 4 10.67 0.34
5 5 -4 3.03 0.22
-5 -5 4 3.75 0.27
4 5 -4 5.54 0.33
-4 -5 4 5.49 0.36
3 5 -4 19.16 0.98
-3 -5 4 18.81 0.6
2 5 -4 44.81 1.36
-2 -5 4 43.85 0.7
1 5 -4 34.24 1.19
-1 -5 4 34.1 0.7
0 5 -4 175.57 1.84
0 -5 4 179.33 1.66
-1 5 -4 132.48 1.63
1 -5 4 131.38 1.51
-2 5 -4 109.35 1.51
2 -5 4 116.46 1.39
-3 5 -4 182.09 1.99
3 -5 4 181.61 2.62
-4 5 -4 27.13 0.58
4 -5 4 26.24 1.3
-5 5 -4 82.97 1.24
5 -5 4 84.92 1.64
-6 5 -4 44.26 0.74
6 -5 4 45.3 1.37
-7 5 -4 29.47 0.66
7 -5 4 29.48 1.27
-8 5 -4 35.32 0.85
8 -5 4 34.51 1.23
-9 5 -4 0.58 0.66
9 -5 4 0.16 0.63
10 4 -4 5.36 0.43
-10 -4 4 5.41 0.63
9 4 -4 12.19 0.53
-9 -4 4 12.99 0.8
8 4 -4 10.65 0.44
-8 -4 4 10.64 0.58
7 4 -4 14.71 0.45
-7 -4 4 14.67 0.51
6 4 -4 40.43 0.55
-6 -4 4 41.42 0.53
5 4 -4 31.25 0.49
-5 -4 4 29.38 0.47
4 4 -4 161.26 2.48
-4 -4 4 156.83 1.93
3 4 -4 52.84 1.42
-3 -4 4 51.69 0.87
2 4 -4 155.83 2.3
-2 -4 4 156.02 1.21
1 4 -4 77.89 1.61
-1 -4 4 81.22 0.97
0 4 -4 21.66 0.63
0 -4 4 22.04 0.49
-1 4 -4 261.69 2.07
1 -4 4 276.76 2.46
-2 4 -4 2.87 0.34
2 -4 4 3.02 0.33
-3 4 -4 54.1 1
3 -4 4 52.25 0.94
-4 4 -4 22.8 0.51
4 -4 4 24.77 0.8
-5 4 -4 105.46 1.32
5 -4 4 104.27 1.74
-6 4 -4 9.79 0.46
6 -4 4 8.97 0.73
-7 4 -4 17.62 0.61
7 -4 4 17.32 0.74
-8 4 -4 2.53 0.48
8 -4 4 1.45 0.92
-9 4 -4 0.4 0.49
9 -4 4 0.44 0.75
10 3 -4 3.85 0.53
-10 -3 4 3.97 0.61
9 3 -4 5.98 0.44
-9 -3 4 6.24 0.66
8 3 -4 1.56 0.36
-8 -3 4 1.18 0.5
7 3 -4 13.89 0.45
-7 -3 4 14.44 0.6
6 3 -4 49.73 0.63
-6 -3 4 48.05 0.75
5 3 -4 67.14 0.62
-5 -3 4 66.1 0.73
4 3 -4 73.22 0.85
-4 -3 4 72.26 1.26
3 3 -4 105.32 0.9
-3 -3 4 102.71 1.14
2 3 -4 199.39 1.56
-2 -3 4 208.73 1.32
1 3 -4 204.76 1.35
-1 -3 4 207.07 1.44
0 3 -4 123.77 1.66
0 -3 4 125.71 1.08
-1 3 -4 221.92 2.17
1 -3 4 211.75 1.47
-2 3 -4 121.44 1.32
2 -3 4 111.17 0.91
-3 3 -4 18.07 0.57
3 -3 4 17.02 0.55
-4 3 -4 38.34 1.39
4 -3 4 38.16 0.9
-5 3 -4 0.69 0.27
5 -3 4 0.69 0.37
-6 3 -4 51.46 1.14
6 -3 4 52.44 1.38
-7 3 -4 25.17 0.8
7 -3 4 24.49 0.82
-8 3 -4 2.53 0.47
8 -3 4 1.83 0.52
-9 3 -4 30.81 0.82
9 -3 4 31.65 1.04
-10 3 -4 5.09 0.52
10 -3 4 4.71 0.64
10 2 -4 2.76 0.39
-10 -2 4 2.88 0.47
9 2 -4 0.39 0.36
-9 -2 4 0.47 0.49
8 2 -4 11.44 0.46
-8 -2 4 12.15 0.6
7 2 -4 7.91 0.34
-7 -2 4 6.97 0.47
6 2 -4 28.05 0.44
-6 -2 4 28.34 0.59
5 2 -4 82.16 0.63
-5 -2 4 81.33 1
4 2 -4 17.64 0.46
-4 -2 4 17.69 0.86
3 2 -4 14.34 0.43
-3 -2 4 13.82 0.39
2 2 -4 104.68 1.14
-2 -2 4 105.61 0.99
1 2 -4 172.04 1.27
-1 -2 4 175.09 1.07
0 2 -4 370.19 5.12
0 -2 4 407.5 4.09
-1 2 -4 282.41 7.18
1 -2 4 294.29 4.98
-2 2 -4 613.78 11.35
2 -2 4 669.62 11.51
-3 2 -4 394.96 7.45
3 -2 4 446.65 8.46
-4 2 -4 222.87 11.61
4 -2 4 224.09 2.73
-5 2 -4 69.89 1.56
5 -2 4 71.28 1.32
-6 2 -4 19.71 0.72
6 -2 4 19.12 0.87
-7 2 -4 4.33 0.5
7 -2 4 3.21 0.47
-8 2 -4 8.23 0.66
8 -2 4 7.42 0.6
-9 2 -4 3.99 0.6
9 -2 4 3.34 0.61
-10 2 -4 2.91 0.48
10 -2 4 2.82 0.92
10 1 -4 2.2 0.44
-10 -1 4 2.07 0.53
9 1 -4 5 0.46
-9 -1 4 5.42 0.53
8 1 -4 30.37 0.64
-8 -1 4 29.32 0.85
7 1 -4 37.18 0.58
-7 -1 4 35.82 0.85
6 1 -4 25.04 0.48
-6 -1 4 26.05 0.68
5 1 -4 73.46 0.76
-5 -1 4 71.94 1.16
4 1 -4 155.59 1.49
-4 -1 4 162.36 2.38
3 1 -4 188.82 1.5
-3 -1 4 188.77 1.55
2 1 -4 107.39 0.98
-2 -1 4 112.31 0.79
1 1 -4 176.63 0.96
-1 -1 4 181.1 1.21
0 1 -4 45.69 0.64
0 -1 4 48.43 0.62
-1 1 -4 1.8 0.28
1 -1 4 1.81 0.31
-2 1 -4 11.15 0.54
2 -1 4 10.4 0.36
-3 1 -4 39.94 4.15
3 -1 4 35.84 0.7
-4 1 -4 20.74 3.99
4 -1 4 23.09 0.68
-5 1 -4 120.21 9.04
5 -1 4 128.56 1.67
-6 1 -4 41.34 0.94
6 -1 4 41.82 1.16
-7 1 -4 150.58 1.9
7 -1 4 151.97 1.74
-8 1 -4 35.03 0.85
8 -1 4 35.75 0.98
-9 1 -4 41.87 0.98
9 -1 4 42.7 0.83
-10 1 -4 11.68 0.77
10 -1 4 12.78 0.79
-11 1 -4 3.41 0.6
11 -1 4 3.75 0.47
10 0 -4 0.45 0.31
-10 0 4 0.75 0.4
9 0 -4 1.46 0.47
-9 0 4 1.75 0.46
8 0 -4 0.94 0.39
-8 0 4 1.06 0.42
7 0 -4 3.91 0.33
-7 0 4 4.77 0.45
6 0 -4 7.74 0.33
-6 0 4 7.9 0.46
5 0 -4 76.67 0.88
-5 0 4 73.81 0.89
4 0 -4 56.87 0.98
-4 0 4 54.95 1.51
3 0 -4 363.57 2.15
-3 0 4 365.78 9.5
2 0 -4 102.69 0.85
-2 0 4 99.42 1.46
1 0 -4 507.45 5.67
-1 0 4 520.54 5.91
0 0 -4 252.68 1.9
0 0 4 255.13 5.72
-1 0 -4 531.82 5.62
1 0 4 600.64 5.88
-2 0 -4 205.55 1.76
2 0 4 212.47 1.49
-3 0 -4 118.37 6.38
3 0 4 131.91 1.22
-4 0 -4 11.41 3.15
4 0 4 12.56 0.5
-5 0 -4 17.53 4.45
5 0 4 21.48 0.75
-6 0 -4 1.24 0.27
6 0 4 1.16 0.31
-7 0 -4 0.16 0.48
7 0 4 0.03 0.05
-8 0 -4 0.64 0.29
8 0 4 0.38 0.5
-9 0 -4 5.71 0.49
9 0 4 5.97 0.44
-10 0 -4 0.4 0.73
10 0 4 0.16 0.48
-11 0 -4 4.49 0.5
11 0 4 5.16 0.57
9 -1 -4 6.36 0.58
-9 1 4 6.29 0.67
8 -1 -4 7.45 0.46
-8 1 4 7.42 0.69
7 -1 -4 12.71 0.55
-7 1 4 12.35 0.6
6 -1 -4 0.68 0.3
-6 1 4 1.1 0.36
5 -1 -4 20.56 0.56
-5 1 4 20.12 0.52
4 -1 -4 2.91 0.35
-4 1 4 2.97 0.59
3 -1 -4 84.72 0.89
-3 1 4 86.94 1.75
2 -1 -4 16.43 0.43
-2 1 4 15.63 0.66
1 -1 -4 382.25 4.59
-1 1 4 409.14 7.48
0 -1 -4 148.17 0.97
0 1 4 144.35 3.71
-1 -1 -4 529.92 4.21
1 1 4 570.55 6.12
-2 -1 -4 295.07 5.81
2 1 4 307.91 3.35
-3 -1 -4 334.35 2.63
3 1 4 353.34 4.67
-4 -1 -4 121.85 1.15
4 1 4 120.52 1.33
-5 -1 -4 132.89 1.91
5 1 4 133.96 1.57
-6 -1 -4 4.26 0.56
6 1 4 3.93 0.49
-7 -1 -4 35.03 0.63
7 1 4 35.13 0.7
-8 -1 -4 2.52 0.33
8 1 4 3.12 0.34
-9 -1 -4 1.07 0.32
9 1 4 1.08 0.35
-10 -1 -4 1.03 0.5
10 1 4 0.87 0.37
-11 -1 -4 5.57 0.92
11 1 4 6.32 0.52
9 -2 -4 0.88 0.66
-9 2 4 1.36 0.52
8 -2 -4 7.97 0.47
-8 2 4 8.91 0.59
7 -2 -4 10.12 0.53
-7 2 4 10.83 0.59
6 -2 -4 25.28 0.63
-6 2 4 25.42 0.73
5 -2 -4 36.43 0.65
-5 2 4 35.66 0.6
4 -2 -4 56.24 0.84
-4 2 4 57.1 1.13
3 -2 -4 34.33 0.61
-3 2 4 33.67 1.16
2 -2 -4 76.32 0.82
-2 2 4 77.82 1.41
1 -2 -4 59.84 0.68
-1 2 4 55.68 1.89
0 -2 -4 1.99 0.23
0 2 4 1.56 0.74
-1 -2 -4 22.45 0.45
1 2 4 16.62 2.54
-2 -2 -4 241.06 1.5
2 2 4 252.34 2.69
-3 -2 -4 9.11 0.31
3 2 4 10.8 0.36
-4 -2 -4 417.06 7.08
4 2 4 447.86 6.11
-5 -2 -4 64.03 1.4
5 2 4 67.43 1.08
-6 -2 -4 313.53 3.2
6 2 4 314.49 2.64
-7 -2 -4 120.92 1.09
7 2 4 123.33 0.94
-8 -2 -4 53.03 0.82
8 2 4 52.6 0.8
-9 -2 -4 28.62 0.69
9 2 4 30.68 0.64
-10 -2 -4 2.54 0.45
10 2 4 2.67 0.38
-11 -2 -4 5.28 0.63
11 2 4 6.13 0.41
9 -3 -4 1.43 0.58
-9 3 4 1.6 0.54
8 -3 -4 6.58 0.53
-8 3 4 6.56 0.55
7 -3 -4 0 0.15
-7 3 4 0.15 0.2
6 -3 -4 29.07 0.8
-6 3 4 27.92 0.76
5 -3 -4 17.58 0.58
-5 3 4 17.6 0.43
4 -3 -4 80.36 1.22
-4 3 4 76.87 0.72
3 -3 -4 91.83 0.98
-3 3 4 91.95 2.03
2 -3 -4 149.18 1.16
-2 3 4 149.33 2.08
1 -3 -4 311.53 1.83
-1 3 4 326.66 5.09
0 -3 -4 453.35 5.41
0 3 4 489.57 5.22
-1 -3 -4 505.43 5.27
1 3 4 514.18 5.95
-2 -3 -4 89.73 0.77
2 3 4 94.58 2.34
-3 -3 -4 242.09 2.39
3 3 4 263.62 4.82
-4 -3 -4 41.42 0.64
4 3 4 41.08 0.69
-5 -3 -4 98.98 1
5 3 4 99.2 1.68
-6 -3 -4 11.23 0.77
6 3 4 11.42 0.63
-7 -3 -4 21.05 0.41
7 3 4 20.54 0.43
-8 -3 -4 2.25 0.29
8 3 4 2.65 0.25
-9 -3 -4 18.29 0.67
9 3 4 18.83 0.57
-10 -3 -4 7.34 0.66
10 3 4 7.66 0.43
-11 -3 -4 26.21 1.03
11 3 4 27.82 0.63
8 -4 -4 1.39 0.56
-8 4 4 1.49 0.56
7 -4 -4 9.22 0.77
-7 4 4 9.35 0.58
6 -4 -4 0.67 0.42
-6 4 4 0.69 0.32
5 -4 -4 2.53 0.63
-5 4 4 3.01 0.28
4 -4 -4 1.9 0.39
-4 4 4 1.95 0.24
3 -4 -4 32.04 0.72
-3 4 4 32.68 1.36
2 -4 -4 29.74 0.58
-2 4 4 29.88 1.08
1 -4 -4 88.76 1.37
-1 4 4 83.94 1.46
0 -4 -4 105.55 0.8
0 4 4 106.35 3.37
-1 -4 -4 234.87 1.57
1 4 4 224.18 6.59
-2 -4 -4 241.25 2.37
2 4 4 255.35 3.72
-3 -4 -4 113.49 1.22
3 4 4 112.18 2.93
-4 -4 -4 319.65 1.97
4 4 4 307.47 2.19
-5 -4 -4 234.72 1.59
5 4 4 253.57 5.52
-6 -4 -4 60.62 1.17
6 4 4 56.89 1.5
-7 -4 -4 51.4 0.56
7 4 4 53.3 0.58
-8 -4 -4 12.5 0.41
8 4 4 11.51 0.39
-9 -4 -4 17.77 0.57
9 4 4 18.88 0.51
-10 -4 -4 2.2 0.43
10 4 4 2.13 0.36
-11 -4 -4 0.11 0.7
11 4 4 0.25 0.28
-12 -4 -4 2.77 0.81
12 4 4 2.85 0.4
8 -5 -4 7.55 0.98
-8 5 4 6.96 0.56
7 -5 -4 6.42 0.68
-7 5 4 7.21 0.69
6 -5 -4 66.7 1.18
-6 5 4 65.21 1
5 -5 -4 12.48 0.88
-5 5 4 12.89 0.46
4 -5 -4 59.19 1.47
-4 5 4 57.38 0.75
3 -5 -4 22.29 0.66
-3 5 4 23.49 0.54
2 -5 -4 55.95 1.08
-2 5 4 57.11 1.57
1 -5 -4 15.25 0.73
-1 5 4 13.96 0.77
0 -5 -4 14.07 0.42
0 5 4 13.64 1.83
-1 -5 -4 121.71 1.04
1 5 4 123.15 4.18
-2 -5 -4 222.93 1.17
2 5 4 233.62 5.82
-3 -5 -4 82.98 0.88
3 5 4 80.28 1.68
-4 -5 -4 87.2 1.26
4 5 4 86.79 2.94
-5 -5 -4 22.39 0.73
5 5 4 18.87 1.8
-6 -5 -4 20.31 0.5
6 5 4 18.81 0.63
-7 -5 -4 72.18 0.62
7 5 4 72.74 0.72
-8 -5 -4 47.07 0.64
8 5 4 44.09 0.63
-9 -5 -4 53.07 0.78
9 5 4 53.06 0.69
-10 -5 -4 14.22 0.56
10 5 4 13.68 0.48
-11 -5 -4 1.8 0.78
11 5 4 1.91 0.39
-12 -5 -4 2.44 0.86
12 5 4 2.71 0.4
7 -6 -4 2.15 1.29
-7 6 4 2.29 0.59
6 -6 -4 6.27 0.86
-6 6 4 6.93 0.54
5 -6 -4 31.81 1.26
-5 6 4 35.91 0.63
4 -6 -4 58.18 1.51
-4 6 4 60.42 0.82
3 -6 -4 18.32 0.82
-3 6 4 19.89 0.48
2 -6 -4 112.88 1.61
-2 6 4 113.79 1.07
1 -6 -4 28.63 1.05
-1 6 4 26.01 1.16
0 -6 -4 223.79 1.63
0 6 4 235.9 6.04
-1 -6 -4 41.38 0.76
1 6 4 40.76 2.7
-2 -6 -4 324.62 1.74
2 6 4 339.55 7.52
-3 -6 -4 43.42 0.82
3 6 4 42.46 1.93
-4 -6 -4 34.36 0.84
4 6 4 28.95 3.48
-5 -6 -4 24.84 0.8
5 6 4 21.64 3.83
-6 -6 -4 52.89 0.62
6 6 4 53.53 1.02
-7 -6 -4 37.36 0.52
7 6 4 36.97 0.58
-8 -6 -4 43.73 0.63
8 6 4 43.53 0.57
-9 -6 -4 10.97 0.43
9 6 4 11 0.38
-10 -6 -4 14.65 0.51
10 6 4 14.58 0.6
-11 -6 -4 3.14 0.6
11 6 4 3.47 0.41
-12 -6 -4 6.72 0.96
12 6 4 5.56 0.44
-7 7 4 0.27 0.4
6 -7 -4 0.32 1
-6 7 4 0.56 0.48
5 -7 -4 10.28 1.29
-5 7 4 10.5 0.55
4 -7 -4 26.55 1.13
-4 7 4 25.74 0.69
3 -7 -4 5.15 0.91
-3 7 4 4.66 0.38
2 -7 -4 55.94 1.72
-2 7 4 54.45 0.95
1 -7 -4 32.41 4.59
-1 7 4 38.47 0.65
0 -7 -4 153.29 6.76
0 7 4 153.59 2.53
-1 -7 -4 114.49 1.39
1 7 4 112.48 4.63
-2 -7 -4 115.27 1.13
2 7 4 117.84 4.82
-3 -7 -4 88.57 1.3
3 7 4 84.12 4.2
-4 -7 -4 79.03 1.3
4 7 4 78.37 5.24
-5 -7 -4 78.67 2
5 7 4 78.41 1.6
-6 -7 -4 69.93 0.71
6 7 4 69.77 0.84
-7 -7 -4 56.54 0.66
7 7 4 56.51 0.67
-8 -7 -4 16.64 0.46
8 7 4 16.29 0.44
-9 -7 -4 11.88 0.48
9 7 4 11.03 0.43
-10 -7 -4 2.3 0.35
10 7 4 2.16 0.35
-11 -7 -4 0.1 0.17
11 7 4 0.27 0.42
-12 -7 -4 0.37 0.82
12 7 4 0.14 0.2
-7 8 4 3.58 0.83
-6 8 4 5.95 0.68
5 -8 -4 7.06 1.25
-5 8 4 6.92 0.51
-4 8 4 7.23 0.49
3 -8 -4 12.2 0.84
-3 8 4 12.08 0.52
2 -8 -4 3.78 0.56
-2 8 4 3.91 0.36
-1 8 4 2.82 0.31
0 -8 -4 9.9 7.31
0 8 4 10.39 0.39
-1 -8 -4 19.27 0.69
1 8 4 18.69 0.9
-2 -8 -4 0.68 0.38
2 8 4 1.3 3.2
-3 -8 -4 100.58 1.47
3 8 4 93.32 4.72
-4 -8 -4 26.58 0.85
4 8 4 24.57 6.41
-5 -8 -4 61.35 1.34
5 8 4 61.74 1.11
-6 -8 -4 60.46 0.69
6 8 4 60.51 1.19
-7 -8 -4 19.54 0.47
7 8 4 18.67 0.48
-8 -8 -4 25.57 0.51
8 8 4 25.58 0.59
-9 -8 -4 7.05 0.42
9 8 4 6.46 0.38
-10 -8 -4 0.79 0.36
10 8 4 0.91 0.43
-11 -8 -4 3.11 0.59
11 8 4 2.48 0.51
-6 9 4 1.44 0.59
5 -9 -4 3.87 1.28
-5 9 4 4.27 0.64
-4 9 4 12.83 0.59
-3 9 4 29.06 0.75
-2 9 4 19.34 0.53
-1 9 4 52.04 0.85
0 -9 -4 17.83 1.06
0 9 4 17.18 0.51
-1 -9 -4 26.41 1.27
1 9 4 25.88 0.56
-2 -9 -4 24.85 0.86
2 9 4 23.01 0.71
-3 -9 -4 11.28 0.97
3 9 4 10.72 0.39
-4 -9 -4 2.56 0.46
4 9 4 2.59 0.37
-5 -9 -4 23.69 0.94
5 9 4 24.2 0.65
-6 -9 -4 8.27 0.49
6 9 4 8.38 0.49
-7 -9 -4 9.09 0.43
7 9 4 9.34 0.54
-8 -9 -4 12.37 0.45
8 9 4 11.87 0.47
-9 -9 -4 9.69 0.4
9 9 4 9.67 0.47
-10 -9 -4 8.32 0.59
10 9 4 7.43 0.46
-11 -9 -4 17.04 0.71
11 9 4 17.48 0.76
-5 10 4 0.22 0.52
-4 10 4 0.46 0.53
-3 10 4 6.14 0.42
-2 10 4 5.3 0.39
-1 10 4 54.81 0.92
0 10 4 22.24 0.59
-1 -10 -4 71.04 2.13
1 10 4 72.29 0.94
-2 -10 -4 42.93 1.16
2 10 4 44.67 1.02
-3 -10 -4 34.93 1.12
3 10 4 35.86 0.75
-4 -10 -4 123.8 1.96
4 10 4 121.34 2.3
-5 -10 -4 28.49 1.06
5 10 4 28.76 0.74
-6 -10 -4 81.45 1.36
6 10 4 81.57 1.21
-7 -10 -4 12.73 0.49
7 10 4 12.43 0.61
-8 -10 -4 0.71 0.29
8 10 4 0.94 0.48
-9 -10 -4 0.15 0.39
9 10 4 0.3 0.44
-10 -10 -4 4.09 0.42
10 10 4 3.29 0.68
-11 -10 -4 0.3 0.35
11 10 4 0.42 0.51
-5 11 4 1.89 0.45
-4 11 4 0.14 0.31
-3 11 4 6.9 0.51
-2 11 4 2.96 0.44
-1 11 4 13.91 0.5
0 11 4 12.9 0.52
-1 -11 -4 0.82 0.9
1 11 4 0.99 0.4
-2 -11 -4 22.4 1.42
2 11 4 21.15 1.2
-3 -11 -4 27.67 1.08
3 11 4 28.56 0.91
-4 -11 -4 53.2 1.48
4 11 4 52.17 1.66
-5 -11 -4 11.35 0.54
5 11 4 11.47 0.7
-6 -11 -4 22.76 0.73
6 11 4 23.94 0.93
-7 -11 -4 5.12 0.47
7 11 4 5.71 0.65
-8 -11 -4 14.6 0.64
8 11 4 15.6 0.87
-9 -11 -4 20.43 0.58
9 11 4 19.19 0.97
-10 -11 -4 3.22 0.43
10 11 4 3.27 0.52
-11 -11 -4 12.93 0.65
11 11 4 12.01 1.12
-4 12 4 2.65 0.58
-3 12 4 19.29 0.75
-2 12 4 6.65 0.69
-1 12 4 11.66 0.64
0 12 4 3.59 0.47
-1 -12 -4 2.63 0.97
1 12 4 2.17 0.44
-2 -12 -4 2.92 0.92
2 12 4 3.62 0.81
-3 -12 -4 8.62 0.8
3 12 4 9.18 0.67
-4 -12 -4 8.18 0.8
4 12 4 8.31 0.94
-5 -12 -4 2.69 0.51
5 12 4 2.58 0.8
-6 -12 -4 2.94 0.46
6 12 4 3.02 0.61
-7 -12 -4 7.14 0.46
7 12 4 7.44 0.71
-8 -12 -4 15.84 0.59
8 12 4 16.43 0.92
-9 -12 -4 6.11 0.43
9 12 4 5.68 0.71
-10 -12 -4 4.35 0.45
10 12 4 4.71 0.7
-3 13 4 0.48 0.55
-2 13 4 0.62 0.97
-1 13 4 7.65 0.59
0 13 4 19.28 0.75
1 13 4 41.05 0.98
-2 -13 -4 36.96 1.96
2 13 4 35.69 1.14
-3 -13 -4 20.94 1.62
3 13 4 22.02 0.93
-4 -13 -4 5.7 0.79
4 13 4 6.22 0.66
-5 -13 -4 2.08 0.53
5 13 4 2.06 0.6
-6 -13 -4 0.1 0.33
6 13 4 0.74 0.69
-7 -13 -4 1.57 0.4
7 13 4 1.49 0.6
-8 -13 -4 2.67 0.5
8 13 4 2.7 0.88
-9 -13 -4 0.91 0.39
9 13 4 0.74 0.89
-10 -13 -4 1.43 0.4
10 13 4 1.91 0.9
-1 14 4 0.9 0.48
0 14 4 1.12 0.49
-1 -14 -4 0.88 1.76
1 14 4 1.8 0.48
-2 -14 -4 1.02 1.4
2 14 4 1.23 0.55
-3 -14 -4 2.64 1.29
3 14 4 3.74 0.91
-4 -14 -4 8.77 1.33
4 14 4 8.87 0.74
-5 -14 -4 17.32 0.95
5 14 4 18.36 0.92
-6 -14 -4 24.19 1.07
6 14 4 25.26 1.49
-7 -14 -4 16.12 0.6
7 14 4 16.48 1.31
-8 -14 -4 17.47 0.72
8 14 4 18.71 1.37
-9 -14 -4 3.64 0.43
9 14 4 4.43 0.95
0 15 4 7.34 0.71
1 15 4 6.53 0.96
2 15 4 1.57 0.62
3 15 4 2.14 0.88
4 15 4 0.86 0.67
-6 -15 -4 0.2 0.5
6 15 4 0.05 0.49
-7 -15 -4 0.3 0.73
7 15 4 0.45 0.94
-8 -15 -4 0.55 0.43
8 15 4 0.44 0.72
2 16 4 1.63 0.83
3 16 4 5.01 0.97
4 16 4 1.37 0.79
-6 -16 -4 2.44 0.79
6 16 4 2.82 0.93
5 14 -5 14.39 0.81
-5 -14 5 13.9 0.56
4 14 -5 7.79 0.9
-4 -14 5 7.82 0.68
3 14 -5 10.68 0.75
2 14 -5 2.23 0.6
1 14 -5 4.25 0.62
0 14 -5 2.95 0.62
6 13 -5 0.27 0.71
-6 -13 5 0.07 0.11
5 13 -5 0.01 0.04
-5 -13 5 0.06 2.2
4 13 -5 1.4 0.87
-4 -13 5 1.68 0.55
3 13 -5 4.25 0.52
-3 -13 5 3.77 0.55
2 13 -5 7.33 0.58
-2 -13 5 6.6 0.75
1 13 -5 10.96 0.78
-1 -13 5 8.88 0.77
0 13 -5 14.89 0.86
-1 13 -5 5.54 0.55
-2 13 -5 11.15 0.64
7 12 -5 6.3 0.68
-7 -12 5 6.45 0.49
6 12 -5 2.92 0.59
-6 -12 5 2.86 0.48
5 12 -5 10.35 0.79
-5 -12 5 9.63 0.48
4 12 -5 4.38 0.86
-4 -12 5 4.16 0.52
3 12 -5 2.85 0.49
-3 -12 5 2.25 0.52
2 12 -5 2.8 0.48
-2 -12 5 2.21 0.5
1 12 -5 0.49 0.55
-1 -12 5 0.15 1.42
0 12 -5 1.97 0.57
0 -12 5 0.92 0.85
-1 12 -5 3.55 0.63
1 -12 5 2.42 0.91
-2 12 -5 10.32 0.63
-3 12 -5 5.73 0.66
-4 12 -5 7.26 0.98
8 11 -5 2.83 0.49
-8 -11 5 3.08 0.42
7 11 -5 7.26 0.58
-7 -11 5 7.07 0.44
6 11 -5 9.16 0.61
-6 -11 5 9.33 0.51
5 11 -5 15.91 0.76
-5 -11 5 16.44 0.68
4 11 -5 15.52 0.74
-4 -11 5 16.55 0.71
3 11 -5 5.88 0.48
-3 -11 5 6.16 0.45
2 11 -5 27.47 0.75
-2 -11 5 29.09 1.06
1 11 -5 2.58 0.41
-1 -11 5 2.32 0.73
0 11 -5 27.64 1.02
0 -11 5 28.81 1.32
-1 11 -5 5.47 0.65
1 -11 5 5.48 1.18
-2 11 -5 5.42 0.67
2 -11 5 4.35 1.12
-3 11 -5 5.25 0.5
3 -11 5 4.13 1.33
-4 11 -5 0.98 0.5
-5 11 -5 6.12 0.65
9 10 -5 0.16 0.51
-9 -10 5 0.18 0.7
8 10 -5 0.69 0.56
-8 -10 5 0.63 0.34
7 10 -5 0.58 0.39
-7 -10 5 0.27 0.29
6 10 -5 0.8 0.41
-6 -10 5 0.86 0.33
5 10 -5 1.1 0.4
-5 -10 5 1.03 0.42
4 10 -5 11.12 0.55
-4 -10 5 10.31 0.51
3 10 -5 21.24 0.65
-3 -10 5 20.33 0.7
2 10 -5 62.72 0.9
-2 -10 5 62.33 1.24
1 10 -5 49.84 0.91
-1 -10 5 45.54 1.49
0 10 -5 49.96 0.91
0 -10 5 48.13 2.19
-1 10 -5 17.16 0.73
1 -10 5 14.63 1.44
-2 10 -5 27.39 0.9
-3 10 -5 14.5 0.73
-4 10 -5 3.55 0.53
-5 10 -5 7.91 0.71
-6 10 -5 0.92 0.41
9 9 -5 10.92 0.8
-9 -9 5 11.41 0.53
8 9 -5 21.19 0.8
-8 -9 5 21.77 0.6
7 9 -5 17.36 0.75
-7 -9 5 17.59 0.53
6 9 -5 15.87 0.63
-6 -9 5 16 0.47
5 9 -5 4.39 0.43
-5 -9 5 3.37 0.33
4 9 -5 5.89 0.44
-4 -9 5 6.1 0.42
3 9 -5 14.02 0.48
-3 -9 5 12.84 0.58
2 9 -5 7.56 0.44
-2 -9 5 7.32 0.58
1 9 -5 22.51 0.55
-1 -9 5 22.56 0.71
0 9 -5 21.11 0.61
0 -9 5 21 0.99
-1 9 -5 7.01 0.45
1 -9 5 6.05 0.71
-2 9 -5 29.56 0.87
2 -9 5 28.41 1.61
-3 9 -5 47.7 1.1
3 -9 5 43.83 1.99
-4 9 -5 13.92 0.72
-5 9 -5 16.58 0.76
-6 9 -5 5.58 0.66
9 8 -5 0.2 0.49
-9 -8 5 0.01 0.01
8 8 -5 0.19 0.32
-8 -8 5 0.06 0.06
7 8 -5 5.66 0.46
-7 -8 5 7 0.4
6 8 -5 6.33 0.52
-6 -8 5 5.99 0.35
5 8 -5 34.34 0.68
-5 -8 5 34.84 0.62
4 8 -5 67.44 1
-4 -8 5 66.27 0.73
3 8 -5 88.65 1.1
-3 -8 5 85.05 1.17
2 8 -5 43.69 0.77
-2 -8 5 43.57 0.74
1 8 -5 41.05 0.75
-1 -8 5 39.73 0.85
0 8 -5 31.55 0.67
0 -8 5 33.7 0.9
-1 8 -5 20.7 0.52
1 -8 5 20.49 0.9
-2 8 -5 0.79 0.28
2 -8 5 0.36 0.74
-3 8 -5 1.47 0.34
3 -8 5 1.31 0.92
-4 8 -5 20.56 0.65
4 -8 5 18.93 1
-5 8 -5 9.54 0.61
5 -8 5 8 1.24
-6 8 -5 1.4 0.53
6 -8 5 1.42 1.45
-7 8 -5 8.49 0.71
9 7 -5 0.59 0.48
-9 -7 5 0.47 0.45
8 7 -5 0.78 0.45
-8 -7 5 0.91 0.37
7 7 -5 12.87 0.56
-7 -7 5 13.15 0.42
6 7 -5 15.78 0.56
-6 -7 5 15.52 0.46
5 7 -5 16.02 0.49
-5 -7 5 16.29 0.45
4 7 -5 12.97 0.43
-4 -7 5 12.04 0.36
3 7 -5 22.11 0.57
-3 -7 5 23.74 0.72
2 7 -5 30.16 0.55
-2 -7 5 31.23 0.61
1 7 -5 79.62 0.94
-1 -7 5 77.92 1.23
0 7 -5 84.26 0.86
0 -7 5 82.68 1.27
-1 7 -5 111.77 0.82
1 -7 5 108.08 1.37
-2 7 -5 68.22 0.75
2 -7 5 66.68 1.39
-3 7 -5 44.95 0.8
3 -7 5 45.83 1.74
-4 7 -5 46.44 0.86
4 -7 5 46.88 1.92
-5 7 -5 35.04 0.94
5 -7 5 35.52 1.28
-6 7 -5 11.96 0.56
6 -7 5 10.88 0.94
-7 7 -5 2.76 0.43
7 -7 5 2.57 1.09
-8 7 -5 0.29 0.46
10 6 -5 3.52 0.43
-10 -6 5 3.68 0.59
9 6 -5 0.66 0.4
-9 -6 5 1.08 0.59
8 6 -5 18.58 0.58
-8 -6 5 18.34 0.72
7 6 -5 13.12 0.45
-7 -6 5 13.64 0.44
6 6 -5 47.6 0.63
-6 -6 5 46.94 0.76
5 6 -5 45.79 0.59
-5 -6 5 45.77 0.66
4 6 -5 3.93 0.27
-4 -6 5 4.13 0.26
3 6 -5 21.71 0.47
-3 -6 5 21.78 0.5
2 6 -5 51.82 0.74
-2 -6 5 51.02 0.86
1 6 -5 0.17 0.38
-1 -6 5 0.07 0.06
0 6 -5 42.56 1.49
0 -6 5 39.31 0.7
-1 6 -5 19.68 0.51
1 -6 5 18.56 0.6
-2 6 -5 38.65 0.54
2 -6 5 36.7 1.01
-3 6 -5 35.06 0.6
3 -6 5 34.09 0.98
-4 6 -5 45.74 0.81
4 -6 5 42.54 1.21
-5 6 -5 15.84 0.57
5 -6 5 15.06 0.91
-6 6 -5 19.91 0.65
6 -6 5 18.57 1.06
-7 6 -5 10.42 0.55
7 -6 5 9.06 0.94
-8 6 -5 2.27 0.56
10 5 -5 0.33 0.3
-10 -5 5 0.28 1.08
9 5 -5 3.98 0.42
-9 -5 5 4.34 0.62
8 5 -5 6.52 0.39
-8 -5 5 6.36 0.52
7 5 -5 9.7 0.45
-7 -5 5 9.51 0.42
6 5 -5 27.07 0.46
-6 -5 5 27.2 0.49
5 5 -5 33.27 0.44
-5 -5 5 34.15 0.52
4 5 -5 54.53 0.55
-4 -5 5 55.16 0.64
3 5 -5 128.94 1.31
-3 -5 5 127.33 1.39
2 5 -5 56.88 1.57
-2 -5 5 58.21 0.86
1 5 -5 156.1 2.58
-1 -5 5 151.58 1.52
0 5 -5 28.58 0.84
0 -5 5 27.84 0.57
-1 5 -5 36.23 0.94
1 -5 5 34.46 0.72
-2 5 -5 9.25 0.55
2 -5 5 7.96 0.48
-3 5 -5 6.09 0.27
3 -5 5 6.29 0.52
-4 5 -5 19.78 0.48
4 -5 5 20.73 0.86
-5 5 -5 1.87 0.31
5 -5 5 1.48 0.55
-6 5 -5 36.45 0.94
6 -5 5 37.44 1.32
-7 5 -5 2.03 0.39
7 -5 5 0.96 0.83
-8 5 -5 16.69 0.77
8 -5 5 15.44 1.11
-9 5 -5 3.13 0.59
10 4 -5 0.77 0.42
-10 -4 5 0.83 0.41
9 4 -5 1.69 0.38
-9 -4 5 2.37 0.55
8 4 -5 1.58 0.36
-8 -4 5 1.83 0.52
7 4 -5 1.75 0.34
-7 -4 5 1.72 0.34
6 4 -5 13.44 0.46
-6 -4 5 13.71 0.39
5 4 -5 1.3 0.23
-5 -4 5 1.71 0.22
4 4 -5 36.07 0.48
-4 -4 5 35.99 0.51
3 4 -5 52.57 1.52
-3 -4 5 55.38 0.95
2 4 -5 64.42 1.62
-2 -4 5 63.78 0.85
1 4 -5 223 2.88
-1 -4 5 228.06 1.75
0 4 -5 111.49 1.45
0 -4 5 110.44 1.01
-1 4 -5 227.28 2.06
1 -4 5 231.84 2.03
-2 4 -5 116.16 1.5
2 -4 5 117.15 1.38
-3 4 -5 128.1 1.62
3 -4 5 131.71 1.61
-4 4 -5 74 0.78
4 -4 5 79.07 1.45
-5 4 -5 57.15 0.87
5 -4 5 58.54 1.32
-6 4 -5 0.67 0.34
6 -4 5 0.38 0.51
-7 4 -5 5.93 0.53
7 -4 5 5.58 0.75
-8 4 -5 18.02 0.78
8 -4 5 18.67 0.92
-9 4 -5 0.45 0.46
9 -4 5 0.3 1.74
10 3 -5 0.4 0.35
-10 -3 5 0.44 0.43
9 3 -5 3.52 0.41
-9 -3 5 3.53 0.6
8 3 -5 7.51 0.45
-8 -3 5 7.68 0.68
7 3 -5 14.82 0.51
-7 -3 5 15.98 0.64
6 3 -5 25.45 0.53
-6 -3 5 24.49 0.52
5 3 -5 23.87 0.44
-5 -3 5 25.11 0.41
4 3 -5 7.76 0.33
-4 -3 5 7.63 0.42
3 3 -5 49.87 0.84
-3 -3 5 49.71 0.85
2 3 -5 27.11 0.68
-2 -3 5 26.38 0.53
1 3 -5 54.93 0.79
-1 -3 5 53.32 0.7
0 3 -5 10.12 1.51
0 -3 5 10.2 0.31
-1 3 -5 143.71 1.93
1 -3 5 146.04 1.17
-2 3 -5 108.52 1.96
2 -3 5 107.04 1.24
-3 3 -5 61.24 1.05
3 -3 5 61.27 0.85
-4 3 -5 142.16 2.71
4 -3 5 145.2 1.7
-5 3 -5 21.1 0.47
5 -3 5 17.85 0.77
-6 3 -5 77.08 1.21
6 -3 5 75.09 1.2
-7 3 -5 28.08 0.84
7 -3 5 28.66 1.18
-8 3 -5 41.09 1.05
8 -3 5 39.78 1.07
-9 3 -5 34.61 1.01
9 -3 5 35.09 1.08
-10 3 -5 4.51 0.51
10 -3 5 3.99 0.63
10 2 -5 4.02 0.54
-10 -2 5 3.82 0.61
9 2 -5 8.34 0.48
-9 -2 5 7.45 0.69
8 2 -5 20.85 0.61
-8 -2 5 21.11 0.74
7 2 -5 8.02 0.37
-7 -2 5 7.15 0.5
6 2 -5 36.02 0.54
-6 -2 5 35.48 0.68
5 2 -5 21.03 0.39
-5 -2 5 21.77 0.45
4 2 -5 176.84 1.38
-4 -2 5 172.75 2.5
3 2 -5 88.7 1.03
-3 -2 5 87.96 1.22
2 2 -5 436.3 5.95
-2 -2 5 419.01 8.27
1 2 -5 72.04 0.77
-1 -2 5 70.63 0.75
0 2 -5 151.08 4.85
0 -2 5 150.6 1.02
-1 2 -5 16.67 0.71
1 -2 5 17.64 0.54
-2 2 -5 170.99 2.22
2 -2 5 190.59 2.25
-3 2 -5 13.84 0.78
3 -2 5 13.81 0.41
-4 2 -5 39.81 1.34
4 -2 5 40.45 0.89
-5 2 -5 9.1 0.32
5 -2 5 9.83 0.6
-6 2 -5 103.36 1.53
6 -2 5 110.12 1.87
-7 2 -5 6.69 0.57
7 -2 5 5.87 0.5
-8 2 -5 15.17 0.69
8 -2 5 14.45 0.73
-9 2 -5 0.24 0.55
9 -2 5 0 0.58
-10 2 -5 0.54 0.45
10 -2 5 0.38 0.54
9 1 -5 12.02 0.59
-9 -1 5 12.32 0.64
8 1 -5 12.59 0.53
-8 -1 5 12.64 0.8
7 1 -5 0.96 0.28
-7 -1 5 1.2 0.39
6 1 -5 5.47 0.3
-6 -1 5 5.25 0.42
5 1 -5 39.93 0.51
-5 -1 5 37.99 0.57
4 1 -5 31.46 0.97
-4 -1 5 31.63 1.15
3 1 -5 57.43 0.91
-3 -1 5 58.27 0.92
2 1 -5 130.75 1.19
-2 -1 5 129.15 0.91
1 1 -5 144.22 0.98
-1 -1 5 151.65 1.06
0 1 -5 467.02 5.54
0 -1 5 499.7 6.35
-1 1 -5 146.09 0.98
1 -1 5 150.76 1.75
-2 1 -5 261.26 2.47
2 -1 5 278.63 1.84
-3 1 -5 283.05 2.93
3 -1 5 290.3 1.94
-4 1 -5 73.09 6.44
4 -1 5 75.06 1.17
-5 1 -5 21.81 6.29
5 -1 5 24.52 0.8
-6 1 -5 23.75 0.75
6 -1 5 23.95 0.56
-7 1 -5 15.47 0.71
7 -1 5 15.45 0.54
-8 1 -5 7.04 0.61
8 -1 5 6.63 0.57
-9 1 -5 8.09 0.68
9 -1 5 7.2 0.53
-10 1 -5 20.16 0.95
10 -1 5 21.64 0.67
-11 1 -5 4.73 0.62
11 -1 5 5.28 0.56
9 0 -5 1.08 0.41
-9 0 5 1.02 0.45
8 0 -5 2.26 0.43
-8 0 5 3.04 0.47
7 0 -5 9.56 0.41
-7 0 5 10.69 0.58
6 0 -5 11.77 0.39
-6 0 5 11.66 0.54
5 0 -5 18.65 0.38
-5 0 5 20 0.53
4 0 -5 103.61 1.36
-4 0 5 102.89 1.43
3 0 -5 2.25 0.31
-3 0 5 2.56 0.45
2 0 -5 22.47 0.48
-2 0 5 21.28 0.41
1 0 -5 23.76 0.48
-1 0 5 22.55 0.38
0 0 -5 114.82 1.12
0 0 5 111.9 1.06
-1 0 -5 70.6 0.81
1 0 5 76.99 0.77
-2 0 -5 344.96 5.8
2 0 5 373.17 5.49
-3 0 -5 303.92 7.58
3 0 5 330.22 2.94
-4 0 -5 368.04 13.16
4 0 5 394.43 2.6
-5 0 -5 221.13 11.66
5 0 5 223.89 2.15
-6 0 -5 81.57 1.24
6 0 5 89.85 1.2
-7 0 -5 39.66 0.68
7 0 5 40.16 0.66
-8 0 -5 9.19 0.44
8 0 5 8.91 0.48
-9 0 -5 13.29 0.62
9 0 5 13.2 0.62
-10 0 -5 3.24 0.59
10 0 5 3.18 0.45
11 0 5 4.75 0.48
9 -1 -5 7.02 0.58
-9 1 5 7.03 0.69
8 -1 -5 1.17 0.48
-8 1 5 1.43 0.44
7 -1 -5 64.93 0.93
-7 1 5 62.8 1.17
6 -1 -5 23.47 0.56
-6 1 5 21.64 0.69
5 -1 -5 61.59 0.92
-5 1 5 61.78 0.88
4 -1 -5 54.93 0.85
-4 1 5 55.21 0.89
3 -1 -5 77.05 0.92
-3 1 5 83.19 1.8
2 -1 -5 172.22 1.22
-2 1 5 176.39 2.21
1 -1 -5 34.96 0.58
-1 1 5 36.06 2.02
0 -1 -5 181.88 1.18
0 1 5 189.95 1.36
-1 -1 -5 9.92 0.37
1 1 5 9.12 0.28
-2 -1 -5 153.9 1.07
2 1 5 164.06 1.59
-3 -1 -5 53.4 0.83
3 1 5 56.98 0.83
-4 -1 -5 56.58 0.9
4 1 5 59.94 0.99
-5 -1 -5 112.65 1.89
5 1 5 113.26 1.54
-6 -1 -5 0.85 0.34
6 1 5 1.42 0.33
-7 -1 -5 75.75 0.81
7 1 5 76.24 0.86
-8 -1 -5 33.1 0.68
8 1 5 35.02 0.78
-9 -1 -5 17.44 0.57
9 1 5 16.93 0.66
-10 -1 -5 21.96 0.94
10 1 5 22.7 0.61
-11 -1 -5 3.36 0.58
11 1 5 4.43 0.42
9 -2 -5 0.47 0.83
-9 2 5 0.09 0.93
8 -2 -5 1.58 0.47
-8 2 5 2.01 0.58
7 -2 -5 2.16 0.42
-7 2 5 2.38 0.44
6 -2 -5 3.43 0.35
-6 2 5 3.82 0.54
5 -2 -5 13.23 0.46
-5 2 5 13.79 0.5
4 -2 -5 33.64 0.72
-4 2 5 32.44 0.54
3 -2 -5 45.6 0.74
-3 2 5 43.81 1.42
2 -2 -5 235.31 1.57
-2 2 5 230.72 2.67
1 -2 -5 113.91 1.06
-1 2 5 111.75 3.27
0 -2 -5 396.27 5.42
0 2 5 399.55 5.46
-1 -2 -5 237.98 1.31
1 2 5 227.77 3.8
-2 -2 -5 194.18 1.49
2 2 5 203.9 1.73
-3 -2 -5 129.08 1.71
3 2 5 132.34 1.56
-4 -2 -5 70.86 1.02
4 2 5 69.96 0.98
-5 -2 -5 16.53 0.55
5 2 5 14.92 0.84
-6 -2 -5 32.78 0.67
6 2 5 32.47 0.73
-7 -2 -5 11.81 0.41
7 2 5 12.23 0.41
-8 -2 -5 1.84 0.31
8 2 5 1.92 0.31
-9 -2 -5 4.97 0.4
9 2 5 5.36 0.4
-10 -2 -5 10.09 1.05
10 2 5 10.28 0.48
-11 -2 -5 0.11 0.25
11 2 5 0.21 0.23
9 -3 -5 7.36 0.72
-9 3 5 7.69 0.69
8 -3 -5 2.24 0.62
-8 3 5 2.62 0.59
7 -3 -5 15.59 0.61
-7 3 5 15.48 0.69
6 -3 -5 11.22 0.52
-6 3 5 11.9 0.59
5 -3 -5 18.98 0.63
-5 3 5 18.35 0.5
4 -3 -5 7.7 0.44
-4 3 5 8.13 0.34
3 -3 -5 27.03 0.61
-3 3 5 26.65 1.24
2 -3 -5 3.9 0.31
-2 3 5 3.82 0.54
1 -3 -5 26.81 0.55
-1 3 5 26.95 1.55
0 -3 -5 30.47 0.64
0 3 5 30.27 1.24
-1 -3 -5 245.79 1.36
1 3 5 249.44 10
-2 -3 -5 111.17 0.99
2 3 5 115.1 3.53
-3 -3 -5 401.14 5.65
3 3 5 413.13 4.11
-4 -3 -5 132.07 1.17
4 3 5 133.64 1.54
-5 -3 -5 186.62 1.69
5 3 5 185.8 2.37
-6 -3 -5 90.77 1.06
6 3 5 90.89 1.31
-7 -3 -5 22.55 0.43
7 3 5 20.19 0.47
-8 -3 -5 53.79 0.82
8 3 5 57.18 0.79
-9 -3 -5 7.32 0.51
9 3 5 6.75 0.38
-10 -3 -5 8.4 0.69
10 3 5 9.35 0.45
-11 -3 -5 3.03 0.57
11 3 5 3.43 0.47
8 -4 -5 0.82 0.77
-8 4 5 0.9 0.55
7 -4 -5 7.54 0.6
-7 4 5 8.52 0.71
6 -4 -5 10.89 0.53
-6 4 5 12.42 0.52
5 -4 -5 16.93 0.99
-5 4 5 17.51 0.46
4 -4 -5 41.15 1.01
-4 4 5 43.66 0.61
3 -4 -5 73.25 1
-3 4 5 74.18 0.78
2 -4 -5 22.57 0.57
-2 4 5 22.14 1.05
1 -4 -5 132.01 1.43
-1 4 5 133.43 2.05
0 -4 -5 33.78 0.51
0 4 5 31.53 1.68
-1 -4 -5 86.51 0.84
1 4 5 88.2 4.54
-2 -4 -5 8.11 0.33
2 4 5 6.79 1.21
-3 -4 -5 3.31 0.26
3 4 5 2.48 0.34
-4 -4 -5 16.35 0.48
4 4 5 14.46 0.59
-5 -4 -5 63.47 0.9
5 4 5 63.94 1.27
-6 -4 -5 68.54 0.81
6 4 5 67.72 0.8
-7 -4 -5 128.51 0.95
7 4 5 130.73 0.89
-8 -4 -5 103.25 1.09
8 4 5 105.73 0.95
-9 -4 -5 33.08 0.73
9 4 5 33.86 0.62
-10 -4 -5 12.47 0.63
10 4 5 13.76 0.5
-11 -4 -5 6.91 0.55
11 4 5 7.34 0.46
-12 -4 -5 0.73 0.89
12 4 5 1.25 0.44
-8 5 5 1.3 0.77
7 -5 -5 0.76 0.75
-7 5 5 1.1 0.5
6 -5 -5 1.42 0.54
-6 5 5 1.35 0.37
5 -5 -5 18.49 1.05
-5 5 5 17.97 0.53
4 -5 -5 18.61 0.77
-4 5 5 17.67 0.49
3 -5 -5 109.9 1.44
-3 5 5 105.42 0.96
2 -5 -5 36.41 0.96
-2 5 5 33.88 0.71
1 -5 -5 235.48 2.05
-1 5 5 237.33 3.09
0 -5 -5 51.42 0.69
0 5 5 48.91 2.87
-1 -5 -5 504.77 3.8
1 5 5 542.25 11.73
-2 -5 -5 99.11 1.02
2 5 5 100.87 4.09
-3 -5 -5 141.78 1.19
3 5 5 149.08 3.58
-4 -5 -5 32.38 0.66
4 5 5 28.96 1.89
-5 -5 -5 2.88 0.33
5 5 5 1.6 2.25
-6 -5 -5 41.37 0.51
6 5 5 42.25 0.73
-7 -5 -5 1.96 0.22
7 5 5 1.9 0.27
-8 -5 -5 22.09 0.47
8 5 5 22.21 0.59
-9 -5 -5 0.74 0.34
9 5 5 0.98 0.29
-10 -5 -5 2.08 0.45
10 5 5 2.24 0.36
-11 -5 -5 4.42 0.51
11 5 5 4.72 0.47
-12 -5 -5 8.13 1
12 5 5 7.49 0.61
-7 6 5 2.36 0.59
6 -6 -5 5.14 0.9
-6 6 5 5.71 0.53
5 -6 -5 2.56 0.74
-5 6 5 2.79 0.36
4 -6 -5 4.79 0.71
-4 6 5 4.8 0.36
3 -6 -5 1.11 0.52
-3 6 5 1.13 0.28
2 -6 -5 45.41 1.13
-2 6 5 45.68 0.64
1 -6 -5 18.35 0.92
-1 6 5 19.06 1.1
0 -6 -5 35.29 0.78
0 6 5 34.44 2.72
-1 -6 -5 14.54 0.53
1 6 5 11.51 2.34
-2 -6 -5 196.86 1.85
2 6 5 196.21 6.01
-3 -6 -5 57.37 1.08
3 6 5 59.03 3.49
-4 -6 -5 226.62 2.21
4 6 5 230.19 8.39
-5 -6 -5 138.89 1.45
5 6 5 134.13 6.7
-6 -6 -5 164.88 1.02
6 6 5 165.35 1.75
-7 -6 -5 26.05 0.46
7 6 5 26.06 0.58
-8 -6 -5 7 0.34
8 6 5 7.52 0.34
-9 -6 -5 0.23 0.32
9 6 5 0.22 0.28
-10 -6 -5 1.49 0.33
10 6 5 1.45 0.29
-11 -6 -5 0.42 0.5
11 6 5 0.68 0.39
-12 -6 -5 0.2 0.59
12 6 5 0.57 0.4
-7 7 5 1.23 0.75
6 -7 -5 4 1.16
-6 7 5 4.96 0.53
5 -7 -5 24.4 1.22
-5 7 5 23.75 0.85
4 -7 -5 8.41 0.83
-4 7 5 8.39 0.43
3 -7 -5 36.7 1.21
-3 7 5 36.45 0.66
2 -7 -5 25.14 0.94
-2 7 5 25.8 0.53
1 -7 -5 61.4 1.65
-1 7 5 63.25 0.84
0 -7 -5 16.36 0.96
0 7 5 17.19 0.88
-1 -7 -5 10.13 0.5
1 7 5 6.86 3.17
-2 -7 -5 35.43 0.87
2 7 5 33.37 3.07
-3 -7 -5 104.85 1.15
3 7 5 99.89 4.75
-4 -7 -5 65.28 1.26
4 7 5 58.16 4.63
-5 -7 -5 46.36 1.16
5 7 5 46.53 1.31
-6 -7 -5 26.93 0.42
6 7 5 25.59 0.78
-7 -7 -5 14.37 0.38
7 7 5 14.83 0.48
-8 -7 -5 41.64 0.64
8 7 5 43.01 0.64
-9 -7 -5 28.09 0.69
9 7 5 27.24 0.53
-10 -7 -5 37.22 0.8
10 7 5 37.47 0.84
-11 -7 -5 7.56 0.56
11 7 5 6.91 0.51
-12 -7 -5 7.77 0.98
12 7 5 6.66 0.51
-6 8 5 2.81 0.62
5 -8 -5 1.42 1.24
-5 8 5 1.83 0.43
4 -8 -5 26.43 1.22
-4 8 5 29.1 0.78
3 -8 -5 15.61 0.95
-3 8 5 16.96 0.6
2 -8 -5 35.19 1.14
-2 8 5 36.42 0.75
1 -8 -5 19.56 1.13
-1 8 5 19.61 0.49
0 -8 -5 56.87 8.17
0 8 5 58.95 0.82
-1 -8 -5 48.06 1.02
1 8 5 49.97 1
-2 -8 -5 107.14 1.55
2 8 5 111.88 1.95
-3 -8 -5 144.54 1.86
3 8 5 152.71 2.25
-4 -8 -5 49.67 0.93
4 8 5 49.75 0.97
-5 -8 -5 59.56 0.84
5 8 5 62.92 1.13
-6 -8 -5 0.96 0.25
6 8 5 1.24 0.41
-7 -8 -5 1.55 0.26
7 8 5 1.53 0.32
-8 -8 -5 12.74 0.42
8 8 5 13.44 0.47
-9 -8 -5 3.69 0.38
9 8 5 3.32 0.38
-10 -8 -5 10.47 0.53
10 8 5 10.31 0.55
-11 -8 -5 1.3 0.43
11 8 5 1.26 0.5
-6 9 5 0.54 0.41
-5 9 5 2.98 0.49
-4 9 5 1.33 0.41
3 -9 -5 15.23 1
-3 9 5 16.18 0.61
-2 9 5 1.88 0.31
-1 9 5 27.42 0.67
0 9 5 18.74 0.54
-1 -9 -5 43.52 1.57
1 9 5 43.96 0.81
-2 -9 -5 47.13 1.15
2 9 5 46.86 0.8
-3 -9 -5 44.09 1.16
3 9 5 44.91 0.79
-4 -9 -5 28.86 1.01
4 9 5 29.18 0.82
-5 -9 -5 53.08 1.01
5 9 5 54.8 1.12
-6 -9 -5 19.63 0.45
6 9 5 18.85 0.63
-7 -9 -5 33.48 0.56
7 9 5 33.61 0.84
-8 -9 -5 18.72 0.47
8 9 5 18.57 0.6
-9 -9 -5 4.14 0.34
9 9 5 4.21 0.45
-10 -9 -5 14.06 0.55
10 9 5 13.62 0.54
-11 -9 -5 0.81 0.5
11 9 5 0.61 0.44
-5 10 5 3.38 0.49
-4 10 5 11.02 0.58
-3 10 5 2.27 0.41
-2 10 5 29.34 0.67
-1 10 5 1.38 0.34
0 -10 -5 28.32 1.53
0 10 5 28.35 0.68
-1 -10 -5 0.19 1.63
1 10 5 0.2 0.32
-2 -10 -5 5.78 0.59
2 10 5 6.09 0.54
-3 -10 -5 5.53 0.61
3 10 5 5.6 0.42
-4 -10 -5 14.56 0.61
4 10 5 15.19 0.56
-5 -10 -5 11.73 0.8
5 10 5 11 0.53
-6 -10 -5 16.12 0.71
6 10 5 17.57 0.65
-7 -10 -5 30.85 0.77
7 10 5 31.26 0.84
-8 -10 -5 16.96 0.51
8 10 5 16.83 0.7
-9 -10 -5 12.27 0.44
9 10 5 12.42 0.67
-10 -10 -5 10.1 0.5
10 10 5 9.07 0.54
-11 -10 -5 0.17 0.37
-4 11 5 2.42 0.45
-3 11 5 4.08 0.46
-2 11 5 16.4 0.56
-1 11 5 6.82 0.42
0 -11 -5 35.57 1.76
0 11 5 38.3 0.81
-1 -11 -5 17.05 1.25
1 11 5 17.46 0.57
-2 -11 -5 34.46 1.69
2 11 5 36.31 0.87
-3 -11 -5 27.37 1.07
3 11 5 27.81 0.73
-4 -11 -5 5.52 0.69
4 11 5 5.52 0.82
-5 -11 -5 2.27 0.62
5 11 5 1.62 0.73
-6 -11 -5 0.69 0.52
6 11 5 0.86 0.46
-7 -11 -5 8.36 0.64
7 11 5 9.1 0.58
-8 -11 -5 0.65 0.36
8 11 5 0.31 0.36
-9 -11 -5 10.18 0.43
9 11 5 10.82 0.82
-10 -11 -5 0.33 0.42
10 11 5 0.59 0.66
-11 -11 -5 6.87 0.48
11 11 5 6.63 0.72
-3 12 5 0.34 0.62
-2 12 5 0.56 0.51
-1 12 5 4.46 0.44
0 12 5 23.67 0.94
1 12 5 19.52 0.69
-2 -12 -5 23.16 1.55
2 12 5 24.67 1.36
-3 -12 -5 14.62 1.34
3 12 5 13.82 1.1
-4 -12 -5 15.11 0.97
4 12 5 16.42 1.13
-5 -12 -5 38.72 1.4
5 12 5 40.03 1.63
-6 -12 -5 28.07 0.95
6 12 5 28.57 1.48
-7 -12 -5 36.15 1.08
7 12 5 37.03 1.18
-8 -12 -5 15.38 0.59
8 12 5 15.42 0.89
-9 -12 -5 1.44 0.37
9 12 5 1.19 0.55
-10 -12 -5 1.56 0.42
10 12 5 1.78 0.61
-2 13 5 0.64 0.46
-1 13 5 4.26 0.52
0 13 5 4.64 0.53
-1 -13 -5 7.26 1.23
1 13 5 7.96 0.73
-2 -13 -5 0 0.14
2 13 5 0.42 0.56
-3 -13 -5 6.51 1.16
3 13 5 7.56 0.98
-4 -13 -5 5.11 0.79
4 13 5 6 0.93
-5 -13 -5 25.86 0.92
5 13 5 25.65 1.42
-6 -13 -5 2.7 0.56
6 13 5 1.81 0.61
-7 -13 -5 10.74 0.6
7 13 5 11.29 0.82
-8 -13 -5 0.09 0.38
8 13 5 0.03 1.04
-9 -13 -5 5.94 0.48
9 13 5 6.66 0.72
-10 -13 -5 1.85 0.41
10 13 5 2.29 0.63
-1 14 5 9.07 0.6
0 14 5 2.19 0.6
-1 -14 -5 2.75 1.51
1 14 5 2.73 0.5
-2 -14 -5 2.13 1.33
2 14 5 2.07 0.61
-3 -14 -5 0.14 18.41
3 14 5 0.53 1.23
-4 -14 -5 9.15 1.36
4 14 5 8.85 0.74
-5 -14 -5 1.39 0.61
5 14 5 1.37 0.64
-6 -14 -5 2.84 0.49
6 14 5 2.8 0.68
-7 -14 -5 0.71 0.39
7 14 5 1.02 0.95
-8 -14 -5 2.77 0.48
8 14 5 3.78 0.93
-9 -14 -5 4.77 0.45
9 14 5 4.77 0.69
0 15 5 0.63 0.62
1 15 5 9.07 0.75
2 15 5 13.21 1.24
3 15 5 20.02 1.38
4 15 5 12.14 1.18
5 15 5 9.1 0.75
-6 -15 -5 2.06 0.76
6 15 5 2.49 0.64
-7 -15 -5 1.85 0.56
7 15 5 1.85 0.85
-8 -15 -5 0.43 0.6
8 15 5 0.4 0.79
3 16 5 0.31 0.72
4 16 5 0.49 0.65
5 16 5 0.22 0.96
-6 -16 -5 6.05 0.92
6 16 5 6.43 1
4 14 -6 0.11 0.59
-4 -14 6 0.15 0.25
3 14 -6 3.28 0.77
1 14 -6 3.82 0.8
6 13 -6 3.6 0.48
-6 -13 6 3.29 0.38
5 13 -6 0.65 0.41
-5 -13 6 0.65 0.48
4 13 -6 2.22 0.57
-4 -13 6 2.5 0.59
3 13 -6 2.78 0.58
-3 -13 6 2.74 0.57
2 13 -6 3.91 0.61
1 13 -6 5.88 0.68
0 13 -6 1.95 0.57
-1 13 -6 0.28 0.46
-2 13 -6 4.67 0.59
7 12 -6 1.9 0.58
-7 -12 6 1.55 0.36
6 12 -6 1.31 0.51
-6 -12 6 1.53 0.34
5 12 -6 11.47 0.81
-5 -12 6 11.01 0.55
4 12 -6 21.61 0.8
-4 -12 6 20.46 0.55
3 12 -6 17.78 0.79
-3 -12 6 16.84 0.56
2 12 -6 19.71 0.77
-2 -12 6 18.77 0.96
1 12 -6 17.57 0.92
-1 -12 6 14.65 0.89
0 12 -6 6.05 0.68
0 -12 6 5.18 0.93
-1 12 -6 14.41 0.86
1 -12 6 12.33 1.05
-2 12 -6 2.66 0.78
-3 12 -6 2.41 0.47
7 11 -6 1.03 0.44
-7 -11 6 0.78 0.35
6 11 -6 5.26 0.67
-6 -11 6 5.2 0.37
5 11 -6 0.09 0.04
-5 -11 6 0.6 0.4
4 11 -6 1.55 0.51
-4 -11 6 1.54 0.36
3 11 -6 0.99 0.48
-3 -11 6 0.72 0.43
2 11 -6 6.77 0.5
-2 -11 6 6.99 0.56
1 11 -6 5.58 0.48
-1 -11 6 5.44 0.83
0 11 -6 8.66 0.63
0 -11 6 8.35 0.91
-1 11 -6 16.47 0.88
1 -11 6 16.54 1.57
-2 11 -6 10.19 0.78
2 -11 6 8.51 1.32
-3 11 -6 15.51 1.21
-4 11 -6 11.68 0.78
8 10 -6 0.5 0.42
-8 -10 6 0.66 0.41
7 10 -6 1.68 0.61
-7 -10 6 1.92 0.36
6 10 -6 3.92 0.49
-6 -10 6 3.92 0.35
5 10 -6 4.32 0.46
-5 -10 6 3.93 0.41
4 10 -6 10.39 0.64
-4 -10 6 10.48 0.47
3 10 -6 14.32 0.7
-3 -10 6 14.57 0.5
2 10 -6 9.51 0.46
-2 -10 6 8.54 0.43
1 10 -6 6.22 0.47
-1 -10 6 5.84 0.5
0 10 -6 0.22 0.33
0 -10 6 0.14 0.46
-1 10 -6 2.91 0.5
1 -10 6 3.03 1.06
-2 10 -6 4.05 0.61
2 -10 6 2.83 1.08
-3 10 -6 10.99 0.69
-4 10 -6 3.05 0.52
-5 10 -6 9.37 0.74
8 9 -6 1.18 0.49
-8 -9 6 1.1 0.33
7 9 -6 6.06 0.57
-7 -9 6 5.75 0.39
6 9 -6 23.01 0.73
-6 -9 6 23.32 0.5
5 9 -6 25.61 0.74
-5 -9 6 24.73 0.67
4 9 -6 45.6 0.92
-4 -9 6 47.03 0.78
3 9 -6 17.62 0.72
-3 -9 6 16.43 0.55
2 9 -6 19.09 0.61
-2 -9 6 19.6 0.58
1 9 -6 25.93 0.61
-1 -9 6 28.55 0.68
0 9 -6 23.08 0.66
0 -9 6 21.24 0.83
-1 9 -6 30.52 0.72
1 -9 6 30.18 0.97
-2 9 -6 27.3 0.87
2 -9 6 23.9 1.57
-3 9 -6 7.48 0.6
3 -9 6 5.93 1.09
-4 9 -6 8.26 0.78
4 -9 6 7.14 1.25
-5 9 -6 2.29 0.66
-6 9 -6 12.22 1.14
9 8 -6 4.49 0.53
-9 -8 6 4.19 0.49
8 8 -6 0.35 0.55
-8 -8 6 0.07 0.08
7 8 -6 5 0.65
-7 -8 6 4.92 0.38
6 8 -6 2.75 0.4
-6 -8 6 2.5 0.28
5 8 -6 8.56 0.5
-5 -8 6 8.29 0.4
4 8 -6 13.1 0.55
-4 -8 6 13.28 0.46
3 8 -6 6.96 0.43
-3 -8 6 6.39 0.4
2 8 -6 12.97 0.51
-2 -8 6 12.57 0.43
1 8 -6 97.57 1.15
-1 -8 6 94.58 0.97
0 8 -6 69.98 0.99
0 -8 6 65.46 1.02
-1 8 -6 66.32 0.89
1 -8 6 62.45 1.27
-2 8 -6 29.62 0.57
2 -8 6 26.79 1.1
-3 8 -6 23.69 0.78
3 -8 6 22.93 1.08
-4 8 -6 25.03 0.83
4 -8 6 24.7 1.13
-5 8 -6 10 0.63
5 -8 6 7.53 1.28
-6 8 -6 7.45 0.61
6 -8 6 6 1.49
-7 8 -6 6.03 0.94
9 7 -6 1.91 0.47
-9 -7 6 1.51 0.75
8 7 -6 13.51 0.69
-8 -7 6 14.48 0.58
7 7 -6 31.88 0.69
-7 -7 6 32.14 0.68
6 7 -6 27.1 0.62
-6 -7 6 27.02 0.53
5 7 -6 18.59 0.49
-5 -7 6 18.96 0.5
4 7 -6 13.55 0.41
-4 -7 6 12.9 0.39
3 7 -6 10.47 0.36
-3 -7 6 12.13 0.41
2 7 -6 54.3 0.66
-2 -7 6 51.74 0.71
1 7 -6 4.49 0.3
-1 -7 6 4.49 0.3
0 7 -6 85.63 0.81
0 -7 6 83.77 1.07
-1 7 -6 19.83 0.41
1 -7 6 19.59 0.7
-2 7 -6 3.98 0.29
2 -7 6 4.01 0.47
-3 7 -6 18.9 0.51
3 -7 6 19.31 0.93
-4 7 -6 31.91 0.88
4 -7 6 29.06 1.64
-5 7 -6 16.36 0.61
5 -7 6 15.68 1.43
-6 7 -6 17.73 0.76
6 -7 6 16.73 1.53
-7 7 -6 13.06 0.65
-8 7 -6 13.11 0.78
9 6 -6 0.75 0.37
-9 -6 6 0.88 0.55
8 6 -6 0.86 0.38
-8 -6 6 0.88 0.36
7 6 -6 0.29 0.36
-7 -6 6 0.14 0.24
6 6 -6 4.09 0.36
-6 -6 6 4.56 0.34
5 6 -6 18.35 0.47
-5 -6 6 18.35 0.4
4 6 -6 19.02 0.45
-4 -6 6 20.12 0.44
3 6 -6 107.54 0.9
-3 -6 6 105.8 1.06
2 6 -6 94.95 0.91
-2 -6 6 92.92 0.8
1 6 -6 60.99 0.82
-1 -6 6 62.76 0.82
0 6 -6 76.99 0.91
0 -6 6 78.78 1.04
-1 6 -6 33.64 0.47
1 -6 6 35.52 0.84
-2 6 -6 72.55 0.93
2 -6 6 73.25 1.46
-3 6 -6 3.92 0.3
3 -6 6 3.02 0.77
-4 6 -6 13.82 0.6
4 -6 6 14.39 1.22
-5 6 -6 14.75 0.66
5 -6 6 14.52 0.92
-6 6 -6 0.54 0.4
6 -6 6 0.16 0.27
-7 6 -6 5.49 0.56
7 -6 6 5.14 0.86
-8 6 -6 0.34 0.45
9 5 -6 7.78 0.52
-9 -5 6 7.63 0.56
8 5 -6 2.33 0.34
-8 -5 6 2.66 0.56
7 5 -6 0.78 0.32
-7 -5 6 0.62 0.33
6 5 -6 1.74 0.28
-6 -5 6 1.92 0.28
5 5 -6 24.95 0.44
-5 -5 6 24.85 0.44
4 5 -6 2.16 0.23
-4 -5 6 2.31 0.22
3 5 -6 37.26 0.54
-3 -5 6 36.56 0.56
2 5 -6 17.07 0.47
-2 -5 6 17.67 0.41
1 5 -6 33.62 1.34
-1 -5 6 32.66 0.68
0 5 -6 122.9 2.43
0 -5 6 119.21 1.2
-1 5 -6 62.19 1.29
1 -5 6 59.03 0.99
-2 5 -6 155.34 1.02
2 -5 6 147.96 1.93
-3 5 -6 63.64 0.7
3 -5 6 62.84 1.26
-4 5 -6 54.62 0.85
4 -5 6 54.72 1.31
-5 5 -6 44.06 0.97
5 -5 6 46.12 1.34
-6 5 -6 23.53 0.81
6 -5 6 25.04 1.15
-7 5 -6 8.07 0.6
7 -5 6 6.91 0.85
-8 5 -6 7.14 0.61
8 -5 6 7.33 0.92
-9 5 -6 0.33 0.61
9 -5 6 0.15 3.78
9 4 -6 4.84 0.47
-9 -4 6 4.67 0.5
8 4 -6 1.53 0.33
-8 -4 6 1.68 0.52
7 4 -6 39.6 0.76
-7 -4 6 38.65 0.9
6 4 -6 13.5 0.43
-6 -4 6 13.29 0.4
5 4 -6 107.24 0.86
-5 -4 6 105.04 0.92
4 4 -6 40.45 0.48
-4 -4 6 40 0.45
3 4 -6 66.47 0.73
-3 -4 6 65.97 0.64
2 4 -6 24.01 1.15
-2 -4 6 24 0.58
1 4 -6 4.19 4.92
-1 -4 6 6.34 0.4
0 4 -6 0.82 4.22
0 -4 6 0.39 0.22
-1 4 -6 3.87 0.42
1 -4 6 4.48 0.35
-2 4 -6 17.39 0.69
2 -4 6 16.86 0.61
-3 4 -6 47.65 0.63
3 -4 6 45.98 1.04
-4 4 -6 12.44 0.43
4 -4 6 11.2 0.51
-5 4 -6 81.27 1.04
5 -4 6 80.61 1.65
-6 4 -6 3.16 0.42
6 -4 6 2.73 0.64
-7 4 -6 48.28 1.04
7 -4 6 51.54 1.6
-8 4 -6 4.58 0.54
8 -4 6 4.23 0.6
-9 4 -6 8.2 0.72
9 -4 6 7.59 1
9 3 -6 0.24 0.3
-9 -3 6 0.2 0.43
8 3 -6 0.41 0.38
-8 -3 6 0.6 0.55
7 3 -6 5.11 0.4
-7 -3 6 4.87 0.47
6 3 -6 0.94 0.27
-6 -3 6 1.1 0.3
5 3 -6 33.48 0.54
-5 -3 6 32.84 0.52
4 3 -6 29.94 0.44
-4 -3 6 31.03 0.46
3 3 -6 88.65 1.43
-3 -3 6 84.51 1.14
2 3 -6 109.23 1.36
-2 -3 6 104.16 1.09
1 3 -6 96.86 1.09
-1 -3 6 94.44 0.99
0 3 -6 120.24 4.67
0 -3 6 111.74 1.23
-1 3 -6 96.27 1.72
1 -3 6 96.35 1.11
-2 3 -6 58.67 1.53
2 -3 6 55.72 0.96
-3 3 -6 38.35 0.92
3 -3 6 38.86 0.92
-4 3 -6 52.25 0.74
4 -3 6 48.62 1.13
-5 3 -6 7.1 0.37
5 -3 6 6.98 0.39
-6 3 -6 0.91 0.34
6 -3 6 0.88 0.37
-7 3 -6 17.9 0.61
7 -3 6 17.45 0.73
-8 3 -6 3.78 0.51
8 -3 6 3.03 0.49
-9 3 -6 12.71 0.6
9 -3 6 12.29 0.76
-10 3 -6 4.43 0.62
10 -3 6 4.29 0.65
9 2 -6 2.18 0.5
-9 -2 6 2.65 0.55
8 2 -6 0.36 0.44
-8 -2 6 0.32 0.5
7 2 -6 0.36 0.3
-7 -2 6 0.53 0.44
6 2 -6 10.94 0.39
-6 -2 6 10.86 0.53
5 2 -6 7.98 0.32
-5 -2 6 7.89 0.31
4 2 -6 10.57 0.32
-4 -2 6 9.83 0.34
3 2 -6 35.63 0.93
-3 -2 6 37.51 0.87
2 2 -6 21.11 0.67
-2 -2 6 20.44 0.53
1 2 -6 105.25 1.01
-1 -2 6 105.23 0.98
0 2 -6 105.32 0.86
0 -2 6 106.92 1.1
-1 2 -6 243.15 2.68
1 -2 6 248.7 2.07
-2 2 -6 81.13 1.64
2 -2 6 77.44 1.1
-3 2 -6 294.41 3.41
3 -2 6 311.38 3.29
-4 2 -6 62.39 1.75
4 -2 6 66.86 0.97
-5 2 -6 201.19 1.45
5 -2 6 203.41 2.1
-6 2 -6 58.78 1.04
6 -2 6 59.93 0.82
-7 2 -6 7.42 0.51
7 -2 6 7.43 0.49
-8 2 -6 8.92 0.6
8 -2 6 8.42 0.48
-9 2 -6 11.98 0.69
9 -2 6 11.77 0.74
-10 2 -6 3.92 0.5
10 -2 6 3.61 0.52
9 1 -6 1.06 0.44
-9 -1 6 0.64 0.48
8 1 -6 9.02 0.54
-8 -1 6 9 0.59
7 1 -6 14.2 0.47
-7 -1 6 14.58 0.8
6 1 -6 48.02 0.68
-6 -1 6 47.78 0.94
5 1 -6 66.64 0.72
-5 -1 6 63.14 0.84
4 1 -6 42.84 0.59
-4 -1 6 43.91 0.6
3 1 -6 18.52 0.61
-3 -1 6 18.17 0.85
2 1 -6 52.3 0.84
-2 -1 6 52.23 0.7
1 1 -6 66.51 0.82
-1 -1 6 66.37 0.62
0 1 -6 28.19 0.43
0 -1 6 28.04 0.56
-1 1 -6 28.52 0.61
1 -1 6 27.83 0.49
-2 1 -6 122.06 1.8
2 -1 6 133.01 1.95
-3 1 -6 33.07 1.09
3 -1 6 34.89 0.79
-4 1 -6 123.51 2.25
4 -1 6 131.51 2.2
-5 1 -6 22.92 0.59
5 -1 6 23.42 0.67
-6 1 -6 97.4 0.99
6 -1 6 94.47 1.04
-7 1 -6 13.61 0.68
7 -1 6 14.07 0.52
-8 1 -6 37.71 0.96
8 -1 6 37.05 0.99
-9 1 -6 20.48 0.8
9 -1 6 20.26 1.02
-10 1 -6 22.78 0.99
10 -1 6 24.98 1.05
-11 1 -6 3.74 0.83
11 -1 6 3.06 0.64
9 0 -6 0.02 0.04
-9 0 6 0.24 0.34
8 0 -6 19.04 0.7
-8 0 6 19.07 0.75
7 0 -6 2.17 0.37
-7 0 6 2.73 0.45
6 0 -6 25.28 0.59
-6 0 6 24.25 0.72
5 0 -6 7.79 0.33
-5 0 6 8.77 0.37
4 0 -6 31.43 0.53
-4 0 6 32.23 0.6
3 0 -6 143.08 1.53
-3 0 6 141.54 2.29
2 0 -6 88.64 0.94
-2 0 6 85.9 1.1
1 0 -6 602.4 7.04
-1 0 6 575.83 6.07
0 0 -6 167.13 1.53
0 0 6 158.56 1.15
-1 0 -6 321.38 2.01
1 0 6 340.25 2
-2 0 -6 25.33 0.45
2 0 6 22.84 0.78
-3 0 -6 151.08 1.31
3 0 6 159.25 2.15
-4 0 -6 0.36 0.35
4 0 6 0.36 0.25
-5 0 -6 1.19 5.52
5 0 6 1.95 0.41
-6 0 -6 32.12 0.58
6 0 6 34.76 0.61
-7 0 -6 49.19 0.77
7 0 6 52.5 0.76
-8 0 -6 20.81 0.67
8 0 6 21.02 0.66
-9 0 -6 6.23 0.62
9 0 6 5.96 0.44
-10 0 -6 0.42 0.56
10 0 6 0.39 0.47
-11 0 -6 1.59 0.76
11 0 6 1.23 0.37
9 -1 -6 0.8 0.45
-9 1 6 0.85 0.45
8 -1 -6 10.91 0.5
-8 1 6 11.31 0.64
7 -1 -6 16.05 0.55
-7 1 6 15.76 0.84
6 -1 -6 2.64 0.35
-6 1 6 2.76 0.41
5 -1 -6 0.47 0.32
-5 1 6 0.5 0.28
4 -1 -6 16.59 0.47
-4 1 6 16.01 0.41
3 -1 -6 34.33 0.69
-3 1 6 33.16 1.25
2 -1 -6 77.98 0.91
-2 1 6 84.01 1.71
1 -1 -6 79.16 1.17
-1 1 6 77.31 3.12
0 -1 -6 310.88 1.75
0 1 6 324.06 4.71
-1 -1 -6 228.09 1.43
1 1 6 239.31 1.65
-2 -1 -6 207.84 1.29
2 1 6 224.92 2.22
-3 -1 -6 95.17 0.88
3 1 6 100.89 1.47
-4 -1 -6 218.96 2.66
4 1 6 220.09 1.93
-5 -1 -6 52.38 5.64
5 1 6 59.2 1.14
-6 -1 -6 79.89 1
6 1 6 80.41 0.94
-7 -1 -6 48.61 0.61
7 1 6 51.1 0.74
-8 -1 -6 8.37 0.42
8 1 6 8.57 0.48
-9 -1 -6 2.59 0.37
9 1 6 2.8 0.38
-10 -1 -6 2.89 0.4
10 1 6 2.93 0.39
-11 -1 -6 3.99 0.87
11 1 6 4.57 0.42
8 -2 -6 6.52 0.58
-8 2 6 6.76 0.55
7 -2 -6 6.45 0.58
-7 2 6 8.02 0.7
6 -2 -6 2.02 0.39
-6 2 6 2.33 0.41
5 -2 -6 13.22 0.49
-5 2 6 14.3 0.53
4 -2 -6 4.98 0.4
-4 2 6 5.44 0.36
3 -2 -6 38.04 0.73
-3 2 6 39.04 0.76
2 -2 -6 6.17 0.5
-2 2 6 5.52 0.62
1 -2 -6 10.35 0.41
-1 2 6 9.36 1.79
0 -2 -6 15.81 0.44
0 2 6 14.89 0.43
-1 -2 -6 78.65 1
1 2 6 76.91 0.85
-2 -2 -6 53.75 0.74
2 2 6 52.77 1.04
-3 -2 -6 105.27 1.21
3 2 6 114.06 1.52
-4 -2 -6 164.97 1.44
4 2 6 171.77 1.63
-5 -2 -6 170.92 1.74
5 2 6 180.57 1.8
-6 -2 -6 122.63 1.07
6 2 6 127.66 1
-7 -2 -6 67.6 0.84
7 2 6 74.04 0.86
-8 -2 -6 25.98 0.61
8 2 6 27.42 0.61
-9 -2 -6 18.16 0.66
9 2 6 19.99 0.6
-10 -2 -6 11.63 0.61
10 2 6 11.77 0.49
-11 -2 -6 2.1 0.46
11 2 6 2.11 0.39
8 -3 -6 3.43 0.85
-8 3 6 4.04 0.62
7 -3 -6 4.18 0.57
-7 3 6 4.08 0.49
6 -3 -6 47.43 1.05
-6 3 6 45.21 1.02
5 -3 -6 37.96 0.87
-5 3 6 36.17 0.78
4 -3 -6 74.97 0.96
-4 3 6 74.43 0.99
3 -3 -6 62.04 0.96
-3 3 6 60.5 0.72
2 -3 -6 141.31 1.38
-2 3 6 146.77 2.42
1 -3 -6 46.85 0.77
-1 3 6 40.2 2.9
0 -3 -6 263.8 1.98
0 3 6 266.63 5.41
-1 -3 -6 6.99 0.25
1 3 6 5.53 0.39
-2 -3 -6 176.09 1.34
2 3 6 174 1.83
-3 -3 -6 5.21 0.32
3 3 6 5.68 0.43
-4 -3 -6 17.36 0.59
4 3 6 16.39 0.69
-5 -3 -6 24.41 0.72
5 3 6 23.79 0.71
-6 -3 -6 19.94 0.43
6 3 6 20.64 0.44
-7 -3 -6 16.02 0.39
7 3 6 14.87 0.44
-8 -3 -6 28.92 0.74
8 3 6 30.01 0.61
-9 -3 -6 7.12 0.5
9 3 6 6.64 0.33
-10 -3 -6 8.45 0.56
10 3 6 8.37 0.48
-11 -3 -6 3.72 0.61
11 3 6 4.23 0.43
8 -4 -6 0.88 0.83
-8 4 6 0.81 0.53
7 -4 -6 4.16 0.59
-7 4 6 4.35 0.62
6 -4 -6 1.9 0.49
-6 4 6 2.31 0.44
5 -4 -6 6.21 0.51
-5 4 6 6 0.44
4 -4 -6 8.6 0.49
-4 4 6 8.75 0.35
3 -4 -6 2.72 0.37
-3 4 6 2.83 0.25
2 -4 -6 32.27 0.72
-2 4 6 32.61 0.88
1 -4 -6 54.76 0.89
-1 4 6 54.7 1.51
0 -4 -6 138.68 1.53
0 4 6 138.56 6.18
-1 -4 -6 171.42 1.31
1 4 6 171.71 6.73
-2 -4 -6 182.68 1.7
2 4 6 189.91 4.59
-3 -4 -6 164.01 1.39
3 4 6 162.91 4.3
-4 -4 -6 72.68 1.2
4 4 6 69.92 1.24
-5 -4 -6 81.29 1.08
5 4 6 82.61 1.45
-6 -4 -6 7.9 0.29
6 4 6 8.17 0.35
-7 -4 -6 40.41 0.57
7 4 6 40.67 0.58
-8 -4 -6 4.19 0.37
8 4 6 3.8 0.31
-9 -4 -6 1.14 0.4
9 4 6 1.08 0.31
-10 -4 -6 1.21 0.41
10 4 6 1.32 0.36
-11 -4 -6 10.99 0.62
11 4 6 12.43 0.53
-12 -4 -6 0.04 0.28
12 4 6 0.2 0.29
-7 5 6 2.33 0.57
6 -5 -6 3.35 0.69
-6 5 6 3.98 0.6
5 -5 -6 8.03 0.88
-5 5 6 8.54 0.43
4 -5 -6 13.69 0.74
-4 5 6 14.24 0.47
3 -5 -6 4.82 0.44
-3 5 6 4.73 0.32
2 -5 -6 15.12 0.75
-2 5 6 14.95 0.4
1 -5 -6 7.11 0.5
-1 5 6 7.31 0.77
0 -5 -6 6.72 0.37
0 5 6 5.52 3.23
-1 -5 -6 34.9 0.65
1 5 6 30.48 3.21
-2 -5 -6 105.98 1.13
2 5 6 109.58 5.68
-3 -5 -6 111.64 1.2
3 5 6 111.39 3.28
-4 -5 -6 261.84 1.9
4 5 6 288.92 5.64
-5 -5 -6 170 1.94
5 5 6 163.81 4.79
-6 -5 -6 82.52 0.67
6 5 6 87.66 0.91
-7 -5 -6 57.98 0.61
7 5 6 60.2 0.73
-8 -5 -6 8.04 0.34
8 5 6 7.84 0.38
-9 -5 -6 30.6 0.69
9 5 6 32.8 0.67
-10 -5 -6 12.98 0.63
10 5 6 12.63 0.51
-11 -5 -6 7.9 0.57
11 5 6 7.94 0.53
-12 -5 -6 6.54 0.94
12 5 6 5.92 0.7
7 -6 -6 4.05 0.88
-7 6 6 4.44 0.61
6 -6 -6 9.04 0.8
-6 6 6 8.6 0.58
5 -6 -6 9.34 0.93
-5 6 6 10.14 0.53
4 -6 -6 14.33 0.77
-4 6 6 14.17 0.49
3 -6 -6 42.85 0.91
-3 6 6 45.8 0.72
2 -6 -6 44.9 1.21
-2 6 6 45.74 0.67
1 -6 -6 43.63 1.06
-1 6 6 44.02 0.61
0 -6 -6 46.45 1.43
0 6 6 45.49 4.2
-1 -6 -6 32.58 0.66
1 6 6 29.55 2.93
-2 -6 -6 27.47 0.64
2 6 6 25.01 2.85
-3 -6 -6 9.14 0.44
3 6 6 6.99 2.73
-4 -6 -6 30.57 0.72
4 6 6 29.01 4.19
-5 -6 -6 17.55 0.61
5 6 6 16.8 0.84
-6 -6 -6 0.17 0.14
6 6 6 0.16 0.23
-7 -6 -6 45.5 0.62
7 6 6 48.76 0.75
-8 -6 -6 17.34 0.45
8 6 6 18.17 0.5
-9 -6 -6 81.3 1.07
9 6 6 85.51 1.13
-10 -6 -6 5.12 0.5
10 6 6 4.88 0.42
-11 -6 -6 16.12 0.69
11 6 6 17.88 0.66
12 6 6 0.42 0.5
-7 7 6 0.72 0.69
-6 7 6 1.32 0.54
5 -7 -6 5.46 0.89
-5 7 6 5.81 0.48
4 -7 -6 10.83 0.93
-4 7 6 10.63 0.53
3 -7 -6 14.32 0.75
-3 7 6 15.09 0.49
2 -7 -6 79.85 1.64
-2 7 6 75.62 0.89
1 -7 -6 45.15 1.14
-1 7 6 42.35 0.57
0 -7 -6 71.15 1.85
0 7 6 72.61 0.83
-1 -7 -6 107.57 1.22
1 7 6 107.19 4.98
-2 -7 -6 201.24 1.71
2 7 6 216.13 6.99
-3 -7 -6 135.03 1.45
3 7 6 122.83 5.48
-4 -7 -6 61.1 1.04
4 7 6 59.93 4
-5 -7 -6 21.21 0.54
5 7 6 19.09 0.95
-6 -7 -6 6.13 0.26
6 7 6 5.31 0.49
-7 -7 -6 1.72 0.27
7 7 6 1.8 0.38
-8 -7 -6 8.43 0.34
8 7 6 8.59 0.45
-9 -7 -6 4.29 0.37
9 7 6 4.19 0.38
-10 -7 -6 2.77 0.46
10 7 6 2.64 0.38
-11 -7 -6 0.61 0.43
11 7 6 0.69 0.36
-12 -7 -6 3.28 0.89
12 7 6 2.84 0.43
-6 8 6 4.16 0.84
5 -8 -6 2.92 1.58
-5 8 6 4.39 0.48
4 -8 -6 3.94 0.8
-4 8 6 4.37 0.45
3 -8 -6 18.29 1.04
-3 8 6 17.92 0.63
2 -8 -6 1.31 0.65
-2 8 6 1.67 0.31
1 -8 -6 64.16 1.43
-1 8 6 63.73 0.81
0 -8 -6 27.51 1.35
0 8 6 27.91 0.54
-1 -8 -6 8.04 0.57
1 8 6 8.87 0.37
-2 -8 -6 19.03 0.62
2 8 6 19.4 0.68
-3 -8 -6 19.72 0.8
3 8 6 18.01 0.66
-4 -8 -6 22.49 0.65
4 8 6 23.44 0.59
-5 -8 -6 94.09 0.82
5 8 6 94.29 1.36
-6 -8 -6 63.93 0.67
6 8 6 64.78 1.23
-7 -8 -6 99.13 0.94
7 8 6 94.91 1.57
-8 -8 -6 14.91 0.4
8 8 6 14.92 0.55
-9 -8 -6 13.95 0.55
9 8 6 14.42 0.51
-10 -8 -6 0.77 0.38
10 8 6 0.84 0.38
-11 -8 -6 1.23 0.45
11 8 6 0.99 0.42
-5 9 6 2.93 0.42
4 -9 -6 4.45 1.34
-4 9 6 5.11 0.49
3 -9 -6 10.94 0.94
-3 9 6 11.87 0.51
2 -9 -6 6.88 1.08
-2 9 6 8.39 0.49
1 -9 -6 50.71 2
-1 9 6 48.96 0.88
0 -9 -6 29.41 1.48
0 9 6 31.93 0.7
-1 -9 -6 46.2 1.2
1 9 6 45.51 0.86
-2 -9 -6 0.83 0.44
2 9 6 0.77 0.3
-3 -9 -6 1.47 0.5
3 9 6 1.52 0.29
-4 -9 -6 17.02 0.62
4 9 6 17.27 0.55
-5 -9 -6 15.12 0.52
5 9 6 15.5 1
-6 -9 -6 16.27 0.41
6 9 6 16.92 0.75
-7 -9 -6 6.19 0.33
7 9 6 5.61 0.58
-8 -9 -6 11.61 0.41
8 9 6 12.76 0.62
-9 -9 -6 8.86 0.46
9 9 6 8.97 0.52
-10 -9 -6 15.8 0.57
10 9 6 15.64 0.55
-11 -9 -6 12.86 0.66
11 9 6 11.81 0.58
-5 10 6 1.65 0.44
-4 10 6 4.31 0.52
3 -10 -6 3.13 1.31
-3 10 6 3.98 0.46
-2 10 6 15.49 0.54
1 -10 -6 12.29 1.28
-1 10 6 13.32 0.56
0 -10 -6 19.74 1.36
0 10 6 19.22 0.61
-1 -10 -6 35.1 1.71
1 10 6 37.8 0.76
-2 -10 -6 22.8 1.34
2 10 6 21.48 0.64
-3 -10 -6 66.79 1.5
3 10 6 69.69 1.05
-4 -10 -6 40.73 1.26
4 10 6 41.02 0.82
-5 -10 -6 44.06 1
5 10 6 45.34 1.58
-6 -10 -6 19.29 0.51
6 10 6 20.09 0.68
-7 -10 -6 10.77 0.4
7 10 6 11.85 0.6
-8 -10 -6 0.24 0.34
8 10 6 0.46 0.37
-9 -10 -6 0.5 0.37
9 10 6 0.48 0.45
-10 -10 -6 3.73 0.42
10 10 6 3.67 0.54
-11 -10 -6 0.77 0.44
11 10 6 0.66 0.61
-4 11 6 2.12 0.55
-3 11 6 1.51 0.78
-2 11 6 1.53 0.37
-1 11 6 0.12 0.23
0 -11 -6 7.73 1.15
0 11 6 8.46 0.49
-1 -11 -6 7.33 1.12
1 11 6 8.35 0.47
-2 -11 -6 13.27 0.86
2 11 6 13.4 0.63
-3 -11 -6 18.3 0.94
3 11 6 19.41 0.65
-4 -11 -6 22.93 1.06
4 11 6 23.19 0.85
-5 -11 -6 11.24 0.63
5 11 6 11.14 0.71
-6 -11 -6 40.18 0.94
6 11 6 39.77 1.15
-7 -11 -6 6.76 0.55
7 11 6 6.46 0.66
-8 -11 -6 17.8 0.54
8 11 6 18.14 0.91
-9 -11 -6 1.31 0.37
9 11 6 1.28 0.51
-10 -11 -6 2.64 0.41
10 11 6 2.88 0.69
-11 -11 -6 3.98 0.63
11 11 6 3.9 0.65
-3 12 6 1.29 0.46
-2 12 6 6.46 0.48
-1 12 6 8.23 0.47
0 -12 -6 8.68 1.26
0 12 6 9.06 0.52
-1 -12 -6 9.41 1.24
1 12 6 9.5 0.51
-2 -12 -6 2.05 0.72
2 12 6 1.75 0.46
-3 -12 -6 3.93 0.99
3 12 6 4.04 0.56
-4 -12 -6 2.58 0.67
4 12 6 2.84 0.82
-5 -12 -6 0.75 0.68
5 12 6 1.11 0.76
-6 -12 -6 10.19 0.61
6 12 6 10.21 1.05
-7 -12 -6 0.67 0.45
7 12 6 0.89 0.77
-8 -12 -6 26.55 0.72
8 12 6 28.93 1.1
-9 -12 -6 5.29 0.48
9 12 6 5.45 0.7
-10 -12 -6 12.26 0.66
10 12 6 12.44 0.85
-2 13 6 2.04 0.57
-1 13 6 4.23 0.51
0 13 6 2.74 0.41
-1 -13 -6 10.06 1.34
1 13 6 11.84 0.55
-2 -13 -6 16.07 1.52
2 13 6 16.74 0.85
-3 -13 -6 18.52 1.11
3 13 6 19.42 1.31
-4 -13 -6 27.21 1.24
4 13 6 30.13 1.44
-5 -13 -6 6.9 0.72
-6 -13 -6 2.52 0.52
6 13 6 2.93 0.94
-7 -13 -6 0.01 0.1
7 13 6 0 0.38
-8 -13 -6 0.64 0.48
8 13 6 0.57 0.62
-9 -13 -6 1.89 0.46
9 13 6 1.69 0.89
-10 -13 -6 3.32 0.5
10 13 6 3.87 0.94
-1 14 6 2.01 0.46
0 14 6 1.45 0.49
1 14 6 5.73 0.56
-2 -14 -6 7.56 1.33
2 14 6 9.19 0.78
-3 -14 -6 1.99 0.94
3 14 6 2.73 0.87
-4 -14 -6 4.12 0.86
4 14 6 4.4 0.95
-5 -14 -6 1.77 0.85
5 14 6 1.69 0.58
-6 -14 -6 10.1 0.65
6 14 6 11.78 0.81
-7 -14 -6 11.86 0.58
7 14 6 12.14 1.21
-8 -14 -6 12.4 0.66
-9 -14 -6 7.27 0.58
9 14 6 7.49 0.76
1 15 6 1.49 0.59
2 15 6 6.53 0.71
3 15 6 1.28 0.89
4 15 6 1.67 0.87
-5 -15 -6 4.63 0.87
5 15 6 5.22 0.68
-6 -15 -6 2.93 0.56
6 15 6 3.45 0.66
-7 -15 -6 4.77 0.64
7 15 6 4.34 0.94
-8 -15 -6 1.2 0.51
4 16 6 0.72 1.04
5 16 6 4.34 0.94
6 16 6 1.04 0.68
4 13 -7 1.2 0.49
-4 -13 7 1.51 0.39
3 13 -7 0.74 0.69
-3 -13 7 0.46 0.51
2 13 -7 1.28 0.53
1 13 -7 4.1 0.82
-1 13 -7 13.52 0.79
6 12 -7 1.73 0.58
-6 -12 7 2 0.4
5 12 -7 6.57 0.68
-5 -12 7 6.37 0.47
4 12 -7 1.23 0.56
-4 -12 7 1.01 0.51
3 12 -7 0.02 0.26
-3 -12 7 0.14 0.56
2 12 -7 1.08 0.52
-2 -12 7 1.06 0.43
1 12 -7 11.74 1.09
-1 -12 7 10.21 0.81
0 12 -7 2.3 0.73
-1 12 -7 4.24 0.86
1 -12 7 3.52 0.81
-2 12 -7 2.15 0.73
-3 12 -7 2.49 0.79
7 11 -7 6.83 0.69
-7 -11 7 7.11 0.48
6 11 -7 8.25 0.74
-6 -11 7 8.1 0.45
5 11 -7 14.2 0.86
-5 -11 7 14.25 0.48
4 11 -7 1.5 0.52
-4 -11 7 1.04 0.35
3 11 -7 15.2 0.64
-3 -11 7 15.07 0.53
2 11 -7 5.42 0.58
-2 -11 7 5.25 0.45
1 11 -7 10.37 0.86
-1 -11 7 10.2 0.97
0 11 -7 8.21 0.62
0 -11 7 7.92 0.9
-1 11 -7 0.75 0.77
1 -11 7 0.44 1.15
-2 11 -7 0.71 0.8
2 -11 7 0.76 1.83
-3 11 -7 2.35 0.83
-4 11 -7 2.44 0.59
7 10 -7 0.55 0.44
-7 -10 7 0.74 0.34
6 10 -7 0.25 0.35
-6 -10 7 0.03 0.1
5 10 -7 2.67 0.52
-5 -10 7 2.57 0.33
4 10 -7 3.58 0.52
-4 -10 7 3.32 0.35
3 10 -7 24.86 0.87
-3 -10 7 23.74 0.69
2 10 -7 15.49 0.62
-2 -10 7 14.58 0.51
1 10 -7 32.1 1.08
-1 -10 7 31.24 0.86
0 10 -7 33.23 1.12
0 -10 7 33.36 1.12
-1 10 -7 20.79 0.82
1 -10 7 19.56 1.12
-2 10 -7 27.59 1.5
2 -10 7 27.03 1.29
-3 10 -7 6.83 0.96
3 -10 7 6.43 1.23
-4 10 -7 4.44 0.87
-5 10 -7 2.07 0.57
8 9 -7 4.2 0.64
-8 -9 7 3.87 0.37
7 9 -7 6.77 0.69
-7 -9 7 6.53 0.42
6 9 -7 3.43 0.52
-6 -9 7 3.39 0.36
5 9 -7 10.95 0.57
-5 -9 7 11.45 0.43
4 9 -7 1.17 0.45
-4 -9 7 1.13 0.29
3 9 -7 7.47 0.58
-3 -9 7 6.91 0.36
2 9 -7 0.72 0.4
-2 -9 7 0.66 0.29
1 9 -7 9.18 0.51
-1 -9 7 9.22 0.43
0 9 -7 4.73 0.44
0 -9 7 4.32 0.49
-1 9 -7 5.51 0.39
1 -9 7 5.55 0.6
-2 9 -7 17.17 0.69
2 -9 7 16.69 0.84
-3 9 -7 10 0.62
3 -9 7 8.27 1.24
-4 9 -7 15.35 0.72
4 -9 7 15.39 1.49
-5 9 -7 18.6 1.31
-6 9 -7 4.98 0.64
8 8 -7 2.68 0.49
-8 -8 7 2.98 0.41
7 8 -7 2.96 0.43
-7 -8 7 3.37 0.38
6 8 -7 2.56 0.49
-6 -8 7 2.58 0.33
5 8 -7 2.54 0.42
-5 -8 7 3.05 0.31
4 8 -7 6.42 0.46
-4 -8 7 6.2 0.35
3 8 -7 16.99 0.71
-3 -8 7 16.39 0.45
2 8 -7 31.01 0.86
-2 -8 7 31 0.61
1 8 -7 33.9 0.89
-1 -8 7 32.21 0.57
0 8 -7 11.89 0.44
0 -8 7 12.24 0.55
-1 8 -7 4.2 0.4
1 -8 7 3.84 0.54
-2 8 -7 8.97 0.4
2 -8 7 9.03 0.68
-3 8 -7 21.72 0.78
3 -8 7 19.22 1.06
-4 8 -7 8.36 0.58
4 -8 7 7.37 0.69
-5 8 -7 1.43 0.39
5 -8 7 0.88 1.28
-6 8 -7 9.91 0.52
-7 8 -7 6.52 0.64
8 7 -7 0.39 0.36
-8 -7 7 0.36 0.34
7 7 -7 0.51 0.42
-7 -7 7 0.26 0.34
6 7 -7 10.37 0.46
-6 -7 7 10.4 0.43
5 7 -7 18.27 0.5
-5 -7 7 18.62 0.44
4 7 -7 88.68 1.03
-4 -7 7 86.72 0.9
3 7 -7 46.67 0.75
-3 -7 7 46.27 0.65
2 7 -7 57.33 0.99
-2 -7 7 55.42 0.64
1 7 -7 28.71 0.66
-1 -7 7 29.04 0.52
0 7 -7 20.07 0.46
0 -7 7 21.19 0.55
-1 7 -7 65.1 0.75
1 -7 7 62.31 1.06
-2 7 -7 24.58 0.52
2 -7 7 22.49 0.81
-3 7 -7 71.48 1.05
3 -7 7 67.39 1.64
-4 7 -7 20.31 0.76
4 -7 7 16.56 0.99
-5 7 -7 18.1 0.75
5 -7 7 17.37 1.06
-6 7 -7 0.32 0.62
6 -7 7 0 0.22
-7 7 -7 16.73 0.7
-8 7 -7 4.03 0.88
9 6 -7 3.39 0.44
-9 -6 7 3.82 0.83
8 6 -7 8.49 0.59
-8 -6 7 7.83 0.55
7 6 -7 0.6 0.37
-7 -6 7 0.36 0.29
6 6 -7 13.23 0.49
-6 -6 7 12.83 0.48
5 6 -7 11.55 0.42
-5 -6 7 11.25 0.36
4 6 -7 31.84 0.58
-4 -6 7 32.33 0.5
3 6 -7 48.69 0.73
-3 -6 7 48.36 0.64
2 6 -7 0.48 0.24
-2 -6 7 0.55 0.21
1 6 -7 5.82 0.36
-1 -6 7 6.03 0.29
0 6 -7 54.93 0.71
0 -6 7 53.64 0.67
-1 6 -7 89.8 0.78
1 -6 7 85.61 1.17
-2 6 -7 48.64 0.66
2 -6 7 47.75 1.06
-3 6 -7 40.89 0.78
3 -6 7 38.43 1.21
-4 6 -7 35.77 0.77
4 -6 7 36.32 1.76
-5 6 -7 23.79 0.81
5 -6 7 25.95 1.65
-6 6 -7 29.8 1.16
6 -6 7 29.14 1.25
-7 6 -7 2.25 0.44
7 -6 7 2.1 1.02
-8 6 -7 18.17 0.9
8 -6 7 15.07 1.15
9 5 -7 0.45 0.37
-9 -5 7 0.47 0.63
8 5 -7 3.24 0.43
-8 -5 7 3.39 0.47
7 5 -7 4.63 0.39
-7 -5 7 5.21 0.35
6 5 -7 61.74 0.89
-6 -5 7 60.54 0.86
5 5 -7 9.99 0.36
-5 -5 7 11.05 0.4
4 5 -7 38.6 0.56
-4 -5 7 39.35 0.52
3 5 -7 4.41 0.26
-3 -5 7 5.45 0.26
2 5 -7 7.76 0.31
-2 -5 7 9.14 0.29
1 5 -7 39.29 0.67
-1 -5 7 39.1 0.54
0 5 -7 7.5 0.36
0 -5 7 7.39 0.49
-1 5 -7 69.7 0.71
1 -5 7 68.36 1.01
-2 5 -7 26.26 0.53
2 -5 7 25.53 0.62
-3 5 -7 1.49 0.25
3 -5 7 1.8 0.71
-4 5 -7 9.25 0.44
4 -5 7 9.19 0.45
-5 5 -7 9.98 0.57
5 -5 7 8.46 0.77
-6 5 -7 21.85 0.79
6 -5 7 20.81 1.09
-7 5 -7 9.05 0.53
7 -5 7 8.91 0.66
-8 5 -7 22.04 0.98
-9 5 -7 10.26 1.07
9 -5 7 9.43 1.06
9 4 -7 5.7 0.42
-9 -4 7 5.74 0.66
8 4 -7 0.64 0.34
-8 -4 7 0.92 0.49
7 4 -7 2.81 0.34
-7 -4 7 2.53 0.44
6 4 -7 1.19 0.29
-6 -4 7 1.15 0.3
5 4 -7 0.27 0.27
-5 -4 7 0.37 0.24
4 4 -7 29.54 0.45
-4 -4 7 30.18 0.45
3 4 -7 28.09 0.39
-3 -4 7 27.51 0.4
2 4 -7 118.65 0.89
-2 -4 7 118.68 0.82
1 4 -7 130.7 2.11
-1 -4 7 126.75 1.3
0 4 -7 103.56 8.89
0 -4 7 100.97 1.34
-1 4 -7 68.97 1.84
1 -4 7 70.16 0.96
-2 4 -7 97.85 0.9
2 -4 7 101.36 1.61
-3 4 -7 24.93 0.46
3 -4 7 26.59 0.86
-4 4 -7 40.63 0.81
4 -4 7 39.44 0.72
-5 4 -7 5.29 0.38
5 -4 7 5.85 0.49
-6 4 -7 4.11 0.46
6 -4 7 3.52 0.5
-7 4 -7 5.02 0.52
7 -4 7 4.6 0.56
-8 4 -7 1.69 0.49
8 -4 7 1.44 0.6
-9 4 -7 3.21 0.58
9 -4 7 2.36 0.82
9 3 -7 3.09 0.38
-9 -3 7 3.51 0.59
8 3 -7 21.97 0.63
-8 -3 7 22.58 0.98
7 3 -7 3.89 0.39
-7 -3 7 4.09 0.41
6 3 -7 13.51 0.46
-6 -3 7 13.4 0.51
5 3 -7 1.78 0.27
-5 -3 7 2.01 0.29
4 3 -7 4.11 0.21
-4 -3 7 3.94 0.25
3 3 -7 6.72 0.24
-3 -3 7 6.44 0.24
2 3 -7 22.71 0.59
-2 -3 7 21.97 0.43
1 3 -7 13 0.72
-1 -3 7 11.85 0.43
0 3 -7 35.59 5.09
0 -3 7 39.12 0.81
-1 3 -7 103 2.04
1 -3 7 102.73 1.09
-2 3 -7 72.82 1.79
2 -3 7 68.85 1.28
-3 3 -7 128.03 1.11
3 -3 7 121.12 1.6
-4 3 -7 79.74 0.94
4 -3 7 79.02 0.97
-5 3 -7 62.34 0.9
5 -3 7 59.97 1.06
-6 3 -7 38.91 0.92
6 -3 7 40.48 1.3
-7 3 -7 17.94 0.73
7 -3 7 17.6 0.77
-8 3 -7 2.12 0.49
8 -3 7 1.71 0.44
-9 3 -7 6.61 0.51
9 -3 7 7.17 0.67
-10 3 -7 0 0.91
10 -3 7 0.18 1.18
9 2 -7 3.44 0.51
-9 -2 7 3.26 0.58
8 2 -7 0.65 0.47
-8 -2 7 0.64 0.49
7 2 -7 8.83 0.46
-7 -2 7 8.82 0.56
6 2 -7 20.8 0.55
-6 -2 7 21.08 0.69
5 2 -7 33.98 0.56
-5 -2 7 33.21 0.59
4 2 -7 68.93 0.65
-4 -2 7 66.41 0.76
3 2 -7 59.46 0.73
-3 -2 7 57.1 0.61
2 2 -7 106.24 1.45
-2 -2 7 99.57 1.15
1 2 -7 48.15 0.77
-1 -2 7 45.62 0.71
0 2 -7 103.7 1.19
0 -2 7 102.48 1.2
-1 2 -7 42.9 1.18
1 -2 7 41.89 0.67
-2 2 -7 31.32 1.11
2 -2 7 30.22 1.11
-3 2 -7 61.46 1.66
3 -2 7 65.08 1.15
-4 2 -7 0.92 0.28
4 -2 7 1.21 0.41
-5 2 -7 41.02 0.71
5 -2 7 38.51 0.67
-6 2 -7 30.84 0.68
6 -2 7 32.01 0.62
-7 2 -7 22.8 0.77
7 -2 7 22.36 0.66
-8 2 -7 35.1 0.98
8 -2 7 36.86 0.87
-9 2 -7 14.62 0.73
9 -2 7 13.69 0.79
-10 2 -7 5.38 0.53
10 -2 7 4.72 0.66
9 1 -7 0.26 0.31
-9 -1 7 0.41 0.59
8 1 -7 1.35 0.4
-8 -1 7 1.32 0.53
7 1 -7 0.09 0.32
-7 -1 7 0.2 0.42
6 1 -7 2.21 0.33
-6 -1 7 2.46 0.31
5 1 -7 0.5 0.26
-5 -1 7 0.36 0.27
4 1 -7 20.69 0.42
-4 -1 7 20.58 0.42
3 1 -7 29.09 0.5
-3 -1 7 30.23 0.5
2 1 -7 107.7 1.27
-2 -1 7 102.17 1.81
1 1 -7 71.41 0.92
-1 -1 7 73.4 0.84
0 1 -7 118.63 1.04
0 -1 7 117.87 1.19
-1 1 -7 64.04 1.35
1 -1 7 65.25 0.77
-2 1 -7 172.83 1.51
2 -1 7 182.83 2.48
-3 1 -7 52.98 1.42
3 -1 7 51.2 1
-4 1 -7 51.95 1.54
4 -1 7 52.04 1.53
-5 1 -7 62.51 0.81
5 -1 7 63.27 0.85
-6 1 -7 0.39 0.25
6 -1 7 0.18 0.15
-7 1 -7 0.84 0.36
7 -1 7 1.13 0.34
-8 1 -7 2.06 0.45
8 -1 7 1.87 0.42
-9 1 -7 0.95 0.51
9 -1 7 0.78 0.61
-10 1 -7 0.94 0.47
10 -1 7 1.19 0.63
9 0 -7 6.12 0.56
-9 0 7 5.6 0.64
8 0 -7 1.56 0.39
-8 0 7 2.07 0.46
7 0 -7 1.92 0.37
-7 0 7 1.8 0.41
6 0 -7 1.93 0.31
-6 0 7 2.13 0.39
5 0 -7 6.11 0.33
-5 0 7 6.08 0.35
4 0 -7 3.54 0.27
-4 0 7 3.6 0.26
3 0 -7 8.27 0.36
-3 0 7 8.07 0.31
2 0 -7 1 0.26
-2 0 7 0.71 0.36
1 0 -7 66.5 0.81
-1 0 7 67.63 0.77
0 0 -7 62.19 1.03
0 0 7 57.58 0.66
-1 0 -7 146.48 1.52
1 0 7 144.81 1.21
-2 0 -7 134.78 1.08
2 0 7 134.32 1.5
-3 0 -7 196.6 1.64
3 0 7 198.89 2.69
-4 0 -7 154.64 2.39
4 0 7 163.03 1.81
-5 0 -7 109.98 1.19
5 0 7 115.23 1.29
-6 0 -7 191.25 1.43
6 0 7 203.5 1.25
-7 0 -7 59.39 0.89
7 0 7 59.6 0.97
-8 0 -7 15.06 0.55
8 0 7 16.18 0.53
-9 0 -7 2.77 0.49
9 0 7 2.85 0.45
-10 0 -7 0.84 0.47
10 0 7 0.97 0.49
-11 0 -7 0.94 0.77
11 0 7 0.9 0.43
8 -1 -7 0.52 0.47
-8 1 7 0.63 0.42
7 -1 -7 16.07 0.56
-7 1 7 15.45 0.69
6 -1 -7 19.32 0.51
-6 1 7 19.33 0.7
5 -1 -7 77.19 0.88
-5 1 7 76.47 1.05
4 -1 -7 123.21 1.05
-4 1 7 119.15 0.94
3 -1 -7 64.61 0.75
-3 1 7 65.25 0.73
2 -1 -7 47.75 0.78
-2 1 7 46.85 1.38
1 -1 -7 41.31 0.95
-1 1 7 43 3.23
0 -1 -7 28.43 0.75
0 1 7 29.71 0.56
-1 -1 -7 22.61 0.53
1 1 7 21.83 0.46
-2 -1 -7 21.92 0.44
2 1 7 21.72 0.41
-3 -1 -7 35.86 0.51
3 1 7 36.5 1.08
-4 -1 -7 65.52 1.44
4 1 7 67.46 1.57
-5 -1 -7 41.36 1.29
5 1 7 39.72 0.99
-6 -1 -7 22.26 0.46
6 1 7 21.01 0.43
-7 -1 -7 60.02 0.83
7 1 7 60.12 0.73
-8 -1 -7 4.8 0.44
8 1 7 4.04 0.36
-9 -1 -7 36.22 0.89
9 1 7 38.71 0.89
-10 -1 -7 4.96 0.47
10 1 7 5.49 0.42
-11 -1 -7 23.89 1.4
11 1 7 25.53 0.74
8 -2 -7 0.02 0.11
-8 2 7 0.13 0.38
7 -2 -7 9.11 0.55
-7 2 7 9.22 0.6
6 -2 -7 0.4 0.35
-6 2 7 0.52 0.38
5 -2 -7 19.59 0.7
-5 2 7 19.31 0.61
4 -2 -7 1.45 0.37
-4 2 7 1.56 0.27
3 -2 -7 62.68 0.75
-3 2 7 65.87 0.75
2 -2 -7 43.36 0.88
-2 2 7 41.73 1.45
1 -2 -7 128.61 1.32
-1 2 7 136.73 5.47
0 -2 -7 230.45 1.69
0 2 7 219.6 2.47
-1 -2 -7 242.38 1.64
1 2 7 236.42 1.69
-2 -2 -7 74.09 1.1
2 2 7 73.93 0.95
-3 -2 -7 129.37 1.22
3 2 7 127.43 1.92
-4 -2 -7 53.32 0.79
4 2 7 58.05 1.44
-5 -2 -7 17.49 0.67
5 2 7 17.81 0.69
-6 -2 -7 3.03 0.24
6 2 7 3 0.24
-7 -2 -7 27.7 0.45
7 2 7 29.9 0.53
-8 -2 -7 19.9 0.56
8 2 7 20.93 0.56
-9 -2 -7 21.39 0.87
9 2 7 21.96 0.56
-10 -2 -7 2.87 0.47
10 2 7 3.3 0.35
-11 -2 -7 1.22 0.54
11 2 7 1.68 0.39
8 -3 -7 0.41 0.54
-8 3 7 0.75 0.45
7 -3 -7 2.73 0.55
-7 3 7 3.33 0.5
6 -3 -7 18.79 0.76
-6 3 7 17.63 0.87
5 -3 -7 0.23 0.68
-5 3 7 0 0.1
4 -3 -7 1.92 0.36
-4 3 7 2.27 0.33
3 -3 -7 10.33 0.43
-3 3 7 10.14 0.37
2 -3 -7 35.43 1.04
-2 3 7 35.44 0.73
1 -3 -7 16.97 0.56
-1 3 7 18.69 1
0 -3 -7 121.45 1.28
0 3 7 126.39 8.67
-1 -3 -7 156.68 1.73
1 3 7 157.25 1.33
-2 -3 -7 185.38 1.83
2 3 7 185.52 1.45
-3 -3 -7 130.84 1.6
3 3 7 136.66 2.05
-4 -3 -7 103.87 1.33
4 3 7 96.46 1.75
-5 -3 -7 79.22 1.32
5 3 7 81.04 1.67
-6 -3 -7 51.2 0.61
6 3 7 53.46 0.67
-7 -3 -7 50.5 0.64
7 3 7 53.29 0.76
-8 -3 -7 29.62 0.93
8 3 7 32.56 0.66
-9 -3 -7 13.85 0.61
9 3 7 14.36 0.44
-10 -3 -7 1.12 0.44
10 3 7 1.54 0.35
-11 -3 -7 0.53 0.43
11 3 7 0.86 0.37
7 -4 -7 5.39 0.66
-7 4 7 5.89 0.66
6 -4 -7 0.46 0.48
-6 4 7 1.16 0.52
5 -4 -7 4.41 0.5
-5 4 7 4.79 0.44
4 -4 -7 10.95 0.5
-4 4 7 11.21 0.5
3 -4 -7 13.77 0.49
-3 4 7 14.01 0.43
2 -4 -7 16.69 0.79
-2 4 7 17.6 0.43
1 -4 -7 28.34 0.71
-1 4 7 26.9 1.2
0 -4 -7 11.93 0.6
0 4 7 11.9 3.1
-1 -4 -7 21.21 0.47
1 4 7 19.29 3.7
-2 -4 -7 77.81 0.87
2 4 7 77.16 3.64
-3 -4 -7 6.81 0.38
3 4 7 5.28 1.89
-4 -4 -7 73.72 1.28
4 4 7 70.77 1.43
-5 -4 -7 58.61 1.18
5 4 7 58.32 1.39
-6 -4 -7 58.86 0.6
6 4 7 62.69 0.8
-7 -4 -7 31.02 0.52
7 4 7 32.83 0.66
-8 -4 -7 49.29 0.82
8 4 7 53.22 0.86
-9 -4 -7 5.52 0.48
9 4 7 6.5 0.41
-10 -4 -7 26.34 0.99
10 4 7 29.72 0.77
-11 -4 -7 2.52 0.8
11 4 7 3.22 0.46
7 -5 -7 0.81 0.93
-7 5 7 0.57 0.44
6 -5 -7 2.82 0.57
-6 5 7 2.91 0.59
5 -5 -7 17.64 1.13
-5 5 7 17.45 0.75
4 -5 -7 33.83 1.07
-4 5 7 34.45 0.92
3 -5 -7 38.16 0.89
-3 5 7 36.65 0.65
2 -5 -7 99.53 1.77
-2 5 7 100.31 0.85
1 -5 -7 61.75 1.05
-1 5 7 61.12 0.71
0 -5 -7 123.97 1.68
0 5 7 120.44 6.54
-1 -5 -7 101.61 1
1 5 7 104.04 5.97
-2 -5 -7 90.8 1.11
2 5 7 83.86 5.32
-3 -5 -7 98.11 1.19
3 5 7 95.97 5.69
-4 -5 -7 36.67 0.79
4 5 7 32.34 3.57
-5 -5 -7 24.11 0.5
5 5 7 24.74 0.7
-6 -5 -7 3.2 0.22
6 5 7 3.1 0.34
-7 -5 -7 0.5 0.26
7 5 7 0.44 0.31
-8 -5 -7 17.54 0.41
8 5 7 18.19 0.5
-9 -5 -7 3.65 0.45
9 5 7 3.38 0.42
-10 -5 -7 12.32 0.63
10 5 7 12.42 0.51
-11 -5 -7 0.61 0.5
11 5 7 0.6 0.42
-12 -5 -7 5.18 0.49
12 5 7 6.29 0.51
7 -6 -7 2.7 0.88
-7 6 7 3.25 0.58
6 -6 -7 1.69 0.76
-6 6 7 2.23 0.57
5 -6 -7 1.2 0.59
-5 6 7 1.99 0.5
4 -6 -7 3.77 0.61
-4 6 7 3.6 0.41
3 -6 -7 0.13 0.36
-3 6 7 0.33 0.31
2 -6 -7 8.55 0.73
-2 6 7 8.99 0.34
1 -6 -7 9.76 0.54
-1 6 7 9.83 0.28
0 -6 -7 22.79 0.84
0 6 7 24.66 0.46
-1 -6 -7 97.09 1.15
1 6 7 100.71 4.83
-2 -6 -7 59.51 0.95
2 6 7 56.33 4.7
-3 -6 -7 117.64 1.36
3 6 7 121.3 5.36
-4 -6 -7 83.38 1.2
4 6 7 76.98 5.5
-5 -6 -7 37.75 0.47
5 6 7 40.16 0.73
-6 -6 -7 64.97 0.62
6 6 7 65.21 1.17
-7 -6 -7 14.66 0.41
7 6 7 14.7 0.48
-8 -6 -7 46.55 0.83
8 6 7 50.08 0.84
-9 -6 -7 3.95 0.42
9 6 7 3.82 0.38
-10 -6 -7 2.43 0.56
10 6 7 2.38 0.38
-11 -6 -7 3.36 0.61
11 6 7 3.25 0.38
-12 -6 -7 4.18 0.6
12 6 7 4.48 0.48
-6 7 7 2.1 0.57
5 -7 -7 0 0.2
-5 7 7 0.09 0.16
4 -7 -7 12.19 0.99
-4 7 7 12.8 0.51
3 -7 -7 0.78 0.57
-3 7 7 0.97 0.3
2 -7 -7 25.07 1.07
-2 7 7 23.91 0.56
1 -7 -7 11.39 0.6
-1 7 7 12.64 0.35
0 -7 -7 12.94 0.74
0 7 7 12.56 0.38
-1 -7 -7 38.54 1
1 7 7 37.88 0.56
-2 -7 -7 1.05 0.3
2 7 7 1.28 0.24
-3 -7 -7 14.96 0.58
3 7 7 15.83 0.5
-4 -7 -7 45.01 0.77
4 7 7 46.52 0.67
-5 -7 -7 88.19 0.73
5 7 7 92.58 1.33
-6 -7 -7 104.12 0.82
6 7 7 108.05 1.51
-7 -7 -7 16.67 0.39
7 7 7 18.49 0.77
-8 -7 -7 38.22 0.64
8 7 7 40.64 0.9
-9 -7 -7 0.68 0.3
9 7 7 0.77 0.36
-10 -7 -7 21.52 0.77
10 7 7 23.56 0.63
-11 -7 -7 6.22 0.67
11 7 7 6.56 0.5
-12 -7 -7 9.07 0.72
12 7 7 9.89 0.63
-6 8 7 9.08 0.73
-5 8 7 10.24 0.78
4 -8 -7 7.28 0.9
-4 8 7 8.35 0.46
3 -8 -7 15.39 0.83
-3 8 7 15.96 0.49
2 -8 -7 25.32 1.12
-2 8 7 26.48 0.56
1 -8 -7 31.84 1.17
-1 8 7 32.91 0.64
0 -8 -7 46.02 1.28
0 8 7 47.69 0.71
-1 -8 -7 18.11 1.2
1 8 7 17.88 0.44
-2 -8 -7 39.4 0.87
2 8 7 38.91 0.58
-3 -8 -7 2.31 0.33
3 8 7 1.65 0.26
-4 -8 -7 37.13 0.56
4 8 7 39.01 0.76
-5 -8 -7 5.23 0.26
5 8 7 4.71 0.69
-6 -8 -7 46 0.53
6 8 7 47.47 0.87
-7 -8 -7 0.37 0.21
7 8 7 0.5 0.34
-8 -8 -7 5.48 0.34
8 8 7 5.39 0.49
-9 -8 -7 16.4 0.49
9 8 7 17.51 0.61
-10 -8 -7 15.7 0.68
10 8 7 17.31 0.57
-11 -8 -7 9.21 0.6
11 8 7 7.77 0.51
-5 9 7 3.32 0.86
4 -9 -7 4.85 1.35
-4 9 7 5.67 0.49
3 -9 -7 4.14 0.8
-3 9 7 4.42 0.45
2 -9 -7 0.42 0.97
-2 9 7 1.08 0.36
1 -9 -7 54.66 1.53
-1 9 7 54.34 0.83
0 -9 -7 8.9 0.76
0 9 7 9.37 0.41
-1 -9 -7 38.62 1.72
1 9 7 38.72 0.71
-2 -9 -7 75.87 1.24
2 9 7 75.81 0.92
-3 -9 -7 55.68 1.12
3 9 7 57.49 0.95
-4 -9 -7 88.23 1.14
4 9 7 87.33 1.14
-5 -9 -7 26.88 0.61
5 9 7 27.07 1.23
-6 -9 -7 10.21 0.36
6 9 7 9.41 0.64
-7 -9 -7 13.23 0.38
7 9 7 11.43 0.71
-8 -9 -7 0.45 0.32
8 9 7 0.54 0.46
-9 -9 -7 6.22 0.39
9 9 7 5.73 0.55
-10 -9 -7 1.92 0.4
10 9 7 1.99 0.44
-11 -9 -7 1.01 0.46
11 9 7 0.97 0.56
-4 10 7 1.27 0.55
3 -10 -7 7.38 1.31
-3 10 7 7.89 0.53
-2 10 7 4.92 0.46
1 -10 -7 2.14 0.79
-1 10 7 2.22 0.39
0 -10 -7 21.38 1.06
0 10 7 21.72 0.65
-1 -10 -7 11.38 1.18
1 10 7 11.95 0.51
-2 -10 -7 3.51 0.6
2 10 7 4 0.36
-3 -10 -7 6.02 0.54
3 10 7 6.6 0.45
-4 -10 -7 1.5 0.38
4 10 7 1.32 0.34
-5 -10 -7 23.46 0.6
5 10 7 25.06 1.26
-6 -10 -7 15 0.53
6 10 7 16.33 1.13
-7 -10 -7 70.37 0.82
7 10 7 69.62 1.19
-8 -10 -7 17.36 0.48
8 10 7 19.31 0.74
-9 -10 -7 30.48 0.64
9 10 7 30.97 1.13
-10 -10 -7 4.67 0.44
10 10 7 5.11 0.57
-11 -10 -7 1.38 0.4
11 10 7 1.16 0.82
-3 11 7 6.3 0.67
2 -11 -7 2.05 1.31
-2 11 7 2.94 0.41
1 -11 -7 6 0.86
-1 11 7 6.18 0.49
0 -11 -7 26.72 1.73
0 11 7 27.65 0.75
-1 -11 -7 10.84 1.24
1 11 7 11.9 0.54
-2 -11 -7 28.23 1.71
2 11 7 30.49 0.87
-3 -11 -7 3.3 0.54
3 11 7 4.46 0.45
-4 -11 -7 0.88 0.49
4 11 7 0.95 0.67
-5 -11 -7 0.21 0.5
5 11 7 0.23 1.54
-6 -11 -7 0.91 0.37
6 11 7 0.89 0.49
-7 -11 -7 3.39 0.42
7 11 7 3.24 0.48
-8 -11 -7 0.41 0.33
8 11 7 0.03 0.18
-9 -11 -7 5.33 0.47
9 11 7 6.03 0.58
-10 -11 -7 2.18 0.42
10 11 7 1.7 0.59
-11 -11 -7 4.43 0.63
11 11 7 4.47 0.67
-3 12 7 1.83 0.84
-2 12 7 3.54 0.6
-1 12 7 4.93 0.43
0 -12 -7 5.71 1.21
0 12 7 6.98 0.5
-1 -12 -7 7.36 1.2
1 12 7 8.23 0.5
-2 -12 -7 16.99 1.51
2 12 7 15.97 0.71
-3 -12 -7 19.93 1.09
3 12 7 20.5 0.9
-4 -12 -7 16.74 0.67
4 12 7 17.09 1.16
-5 -12 -7 27.88 0.81
5 12 7 28.56 1.44
-6 -12 -7 5.34 0.54
6 12 7 6.17 0.95
-7 -12 -7 14.43 0.7
7 12 7 15.71 0.88
-8 -12 -7 5.04 0.57
8 12 7 5.96 0.58
-9 -12 -7 1.59 0.42
9 12 7 1.34 0.46
-10 -12 -7 1.98 0.46
10 12 7 2.2 0.64
-2 13 7 1.16 0.49
-1 13 7 2.52 0.42
0 13 7 0.04 0.16
1 13 7 0.65 0.54
-2 -13 -7 2.61 1.26
2 13 7 3.59 0.85
-3 -13 -7 1.81 0.86
3 13 7 1.42 0.74
-4 -13 -7 8.56 0.91
4 13 7 9.14 1.04
-5 -13 -7 6.63 0.71
5 13 7 6.41 0.94
-6 -13 -7 10.94 0.66
6 13 7 11.37 1.14
-7 -13 -7 13.26 0.7
7 13 7 12.72 1.21
-8 -13 -7 8.79 0.49
8 13 7 8.59 1.11
-9 -13 -7 3.37 0.51
9 13 7 3.43 0.67
-10 -13 -7 1.1 0.57
10 13 7 1.04 0.64
0 14 7 1.69 0.38
1 14 7 9.9 0.53
-2 -14 -7 1.34 1.86
2 14 7 1.98 0.46
-3 -14 -7 2.75 1.39
-4 -14 -7 3.71 0.91
-5 -14 -7 0.17 0.54
5 14 7 0.37 1.06
-6 -14 -7 0.01 0.01
6 14 7 0.46 0.81
-7 -14 -7 0.85 0.78
7 14 7 1.25 0.9
-8 -14 -7 0.13 0.29
8 14 7 0 0.87
-9 -14 -7 8.29 0.72
9 14 7 8.99 1.11
1 15 7 2.08 0.61
2 15 7 2.78 0.96
3 15 7 7.29 1.04
4 15 7 11.79 1.17
-5 -15 -7 11.49 1.09
-6 -15 -7 9.2 1.02
6 15 7 8.97 0.75
-7 -15 -7 2.34 0.81
7 15 7 2.82 0.85
-8 -15 -7 0.34 0.63
8 15 7 0.3 1.87
4 16 7 1.53 0.81
5 16 7 0.38 0.62
3 13 -8 0.36 0.72
-3 -13 8 0.49 0.53
2 13 -8 0 0.37
-2 -13 8 0.09 0.36
1 13 -8 0.46 0.59
-1 -13 8 0.64 0.71
5 12 -8 0.55 0.42
-5 -12 8 0.61 0.35
4 12 -8 11.03 0.77
-4 -12 8 10.62 0.62
3 12 -8 8.64 0.73
-3 -12 8 9.36 0.59
2 12 -8 37.37 1.19
-2 -12 8 36.56 1.15
1 12 -8 14.75 0.84
-1 -12 8 14.98 1.18
0 12 -8 9.2 1.02
-1 12 -8 5.7 0.91
1 -12 8 4.69 0.86
-2 12 -8 0.16 0.61
6 11 -8 2.02 0.75
-6 -11 8 2.05 0.35
5 11 -8 3.8 0.61
-5 -11 8 4.06 0.39
4 11 -8 0.53 0.49
-4 -11 8 0.89 0.38
3 11 -8 0.96 0.5
-3 -11 8 1 0.4
2 11 -8 0.67 0.49
-2 -11 8 0.45 0.59
1 11 -8 1.11 0.51
-1 -11 8 1.1 0.62
0 11 -8 3.07 0.71
0 -11 8 3.34 0.62
-1 11 -8 6.14 0.93
1 -11 8 6.05 0.66
-2 11 -8 10.97 1.1
-3 11 -8 17.74 1.26
7 10 -8 0.36 0.7
-7 -10 8 0.39 0.31
6 10 -8 4.47 0.64
-6 -10 8 4.24 0.39
5 10 -8 0.74 0.54
-5 -10 8 0.82 0.33
4 10 -8 13.72 0.74
-4 -10 8 13.78 0.44
3 10 -8 1.11 0.47
-3 -10 8 1.06 0.33
2 10 -8 0.38 0.43
-2 -10 8 0.35 0.43
1 10 -8 0.66 0.49
-1 -10 8 0.62 0.52
0 10 -8 9.36 0.63
0 -10 8 8.94 0.75
-1 10 -8 2.83 0.49
1 -10 8 2.53 0.53
-2 10 -8 5.83 0.92
2 -10 8 4.37 0.89
-3 10 -8 4.12 0.85
3 -10 8 4.19 1.29
-4 10 -8 1.09 0.79
-5 10 -8 5.86 0.66
7 9 -8 9.81 0.61
-7 -9 8 10.53 0.53
6 9 -8 8.75 0.6
-6 -9 8 8.6 0.45
5 9 -8 17.6 0.79
-5 -9 8 17.46 0.5
4 9 -8 24.98 0.89
-4 -9 8 24.29 0.53
3 9 -8 16.88 0.76
-3 -9 8 15.89 0.44
2 9 -8 33.07 0.96
-2 -9 8 32.19 0.68
1 9 -8 22.57 0.82
-1 -9 8 21.52 0.68
0 9 -8 22.01 0.81
0 -9 8 20.73 0.79
-1 9 -8 13.09 0.56
1 -9 8 12.13 0.62
-2 9 -8 6.51 0.62
2 -9 8 5.66 0.52
-3 9 -8 0.97 0.51
3 -9 8 0.42 1.21
-4 9 -8 3.94 0.53
4 -9 8 3.05 0.95
-5 9 -8 2.25 0.54
-6 9 -8 1.59 0.51
8 8 -8 2.42 0.58
-8 -8 8 2.27 0.43
7 8 -8 0.43 0.41
-7 -8 8 0.61 0.31
6 8 -8 3.34 0.51
-6 -8 8 3.39 0.43
5 8 -8 0.18 0.4
-5 -8 8 0.24 0.22
4 8 -8 3.44 0.5
-4 -8 8 3.5 0.32
3 8 -8 0.59 0.35
-3 -8 8 0.54 0.27
2 8 -8 9.39 0.49
-2 -8 8 10.05 0.41
1 8 -8 7.71 0.46
-1 -8 8 7.26 0.36
0 8 -8 32.91 0.76
0 -8 8 31.43 0.75
-1 8 -8 37.54 0.8
1 -8 8 35.58 0.88
-2 8 -8 47.67 0.89
2 -8 8 45.18 0.99
-3 8 -8 28.03 0.88
3 -8 8 26.18 1.23
-4 8 -8 16.43 0.74
4 -8 8 14.14 1.04
-5 8 -8 5.22 0.48
5 -8 8 3.83 0.81
-6 8 -8 6.58 0.66
8 7 -8 0.36 0.36
-8 -7 8 0 0.01
7 7 -8 6.85 0.49
-7 -7 8 6.72 0.48
6 7 -8 2.15 0.36
-6 -7 8 2.14 0.39
5 7 -8 16.02 0.54
-5 -7 8 15.58 0.42
4 7 -8 6.65 0.37
-4 -7 8 6.53 0.35
3 7 -8 4.07 0.39
-3 -7 8 3.85 0.29
2 7 -8 1.61 0.34
-2 -7 8 1.46 0.3
1 7 -8 4.51 0.38
-1 -7 8 4.15 0.3
0 7 -8 0.84 0.36
0 -7 8 0.65 0.34
-1 7 -8 8.18 0.39
1 -7 8 8.5 0.51
-2 7 -8 0.74 0.29
2 -7 8 0.78 0.36
-3 7 -8 26.09 0.7
3 -7 8 26.18 0.95
-4 7 -8 4.5 0.64
4 -7 8 3.95 0.6
-5 7 -8 20.51 0.81
5 -7 8 19.52 1.13
-6 7 -8 11.59 0.68
6 -7 8 10.33 0.97
-7 7 -8 14.98 1.16
8 6 -8 5.21 0.47
-8 -6 8 5.67 0.51
7 6 -8 13 0.82
-7 -6 8 12.96 0.55
6 6 -8 6 0.42
-6 -6 8 6.77 0.41
5 6 -8 17.48 0.5
-5 -6 8 16.34 0.44
4 6 -8 1.56 0.29
-4 -6 8 1.59 0.27
3 6 -8 17.29 0.51
-3 -6 8 17.55 0.41
2 6 -8 34.24 0.63
-2 -6 8 33.36 0.51
1 6 -8 49.34 0.83
-1 -6 8 50.36 0.67
0 6 -8 88.32 0.94
0 -6 8 86.58 0.88
-1 6 -8 16.89 0.47
1 -6 8 17.69 0.47
-2 6 -8 7.19 0.37
2 -6 8 7.35 0.46
-3 6 -8 10.64 0.44
3 -6 8 11.03 0.67
-4 6 -8 34.78 0.79
4 -6 8 34.44 0.8
-5 6 -8 0.94 0.41
5 -6 8 0.81 0.57
-6 6 -8 4.57 0.53
6 -6 8 3.94 1.28
-7 6 -8 4.59 0.47
7 -6 8 4.22 0.75
-8 6 -8 3.11 0.57
8 5 -8 0.78 0.44
-8 -5 8 0.88 0.52
7 5 -8 12.03 0.66
-7 -5 8 12.49 0.48
6 5 -8 1.41 0.33
-6 -5 8 1.44 0.37
5 5 -8 1.91 0.32
-5 -5 8 2 0.32
4 5 -8 9.99 0.38
-4 -5 8 10.13 0.33
3 5 -8 101.16 0.86
-3 -5 8 100.6 0.83
2 5 -8 41.62 0.6
-2 -5 8 39.62 0.53
1 5 -8 80.28 0.78
-1 -5 8 81.24 0.73
0 5 -8 37.97 0.61
0 -5 8 35.5 0.52
-1 5 -8 45.74 0.67
1 -5 8 48.53 0.61
-2 5 -8 81.89 0.92
2 -5 8 77.42 1.07
-3 5 -8 58.1 0.81
3 -5 8 55.08 1.43
-4 5 -8 73.78 1.05
4 -5 8 71.19 1.17
-5 5 -8 57.03 0.99
5 -5 8 54.92 1.5
-6 5 -8 9.03 0.61
6 -5 8 9.14 0.64
-7 5 -8 4.44 0.61
7 -5 8 3.66 0.61
-8 5 -8 12.74 0.82
8 -5 8 12.15 1.14
-9 5 -8 0.52 0.52
8 4 -8 2.49 0.37
-8 -4 8 2.78 0.46
7 4 -8 9.01 0.42
-7 -4 8 8.45 0.49
6 4 -8 0.32 0.25
-6 -4 8 0.19 0.35
5 4 -8 11.08 0.4
-5 -4 8 11.09 0.39
4 4 -8 24.82 0.44
-4 -4 8 25.21 0.47
3 4 -8 36.51 0.49
-3 -4 8 36.91 0.47
2 4 -8 96.15 0.68
-2 -4 8 95.92 0.72
1 4 -8 9.88 0.28
-1 -4 8 10.21 0.3
0 4 -8 3.92 0.27
0 -4 8 4.05 0.27
-1 4 -8 9.17 0.37
1 -4 8 9.2 0.39
-2 4 -8 97.67 0.95
2 -4 8 95.47 1.13
-3 4 -8 11.37 0.36
3 -4 8 11.84 0.55
-4 4 -8 72.94 1
4 -4 8 71.92 1.13
-5 4 -8 27.14 0.68
5 -4 8 29.89 1.03
-6 4 -8 32 0.91
6 -4 8 34.67 1.29
-7 4 -8 17.34 0.76
7 -4 8 17.19 0.8
-8 4 -8 5.42 0.58
8 -4 8 4.79 0.53
-9 4 -8 8.39 0.71
9 -4 8 6.35 0.95
8 3 -8 0.46 0.28
-8 -3 8 0.56 0.47
7 3 -8 0.79 0.37
-7 -3 8 0.83 0.34
6 3 -8 4.32 0.35
-6 -3 8 3.91 0.4
5 3 -8 52.21 0.66
-5 -3 8 52.17 0.77
4 3 -8 7.77 0.27
-4 -3 8 7.5 0.3
3 3 -8 42.21 0.47
-3 -3 8 42.93 0.54
2 3 -8 1.82 0.17
-2 -3 8 2.25 0.2
1 3 -8 22.68 0.59
-1 -3 8 25.29 0.4
0 3 -8 13.31 0.57
0 -3 8 13.86 0.47
-1 3 -8 34.67 0.82
1 -3 8 34.67 0.71
-2 3 -8 14.66 0.5
2 -3 8 13.58 0.58
-3 3 -8 35.01 0.64
3 -3 8 35.33 0.96
-4 3 -8 2.9 0.31
4 -3 8 2.57 0.32
-5 3 -8 0.72 0.28
5 -3 8 0.71 0.32
-6 3 -8 8.57 0.46
6 -3 8 7.92 0.47
-7 3 -8 8.95 0.59
7 -3 8 8.72 0.53
-8 3 -8 4.76 0.55
8 -3 8 5.1 0.51
-9 3 -8 14.02 0.84
9 -3 8 13.53 1.18
8 2 -8 3.98 0.51
-8 -2 8 3.66 0.6
7 2 -8 0.7 0.45
-7 -2 8 1.03 0.4
6 2 -8 1.77 0.29
-6 -2 8 1.92 0.36
5 2 -8 6.03 0.31
-5 -2 8 5.93 0.36
4 2 -8 1.07 0.21
-4 -2 8 1.28 0.26
3 2 -8 42.92 0.46
-3 -2 8 41.79 0.52
2 2 -8 48.54 0.48
-2 -2 8 48.36 0.54
1 2 -8 108.56 0.98
-1 -2 8 102.86 0.86
0 2 -8 182.38 7.08
0 -2 8 179.29 1.43
-1 2 -8 67.27 6.81
1 -2 8 66.77 1.05
-2 2 -8 146.33 2.43
2 -2 8 141.55 1.52
-3 2 -8 75.37 1.01
3 -2 8 77.17 1.27
-4 2 -8 49.74 0.75
4 -2 8 47.88 0.67
-5 2 -8 49.57 0.7
5 -2 8 52.73 0.76
-6 2 -8 7.77 0.42
6 -2 8 6.78 0.44
-7 2 -8 13.37 0.64
7 -2 8 13.51 0.58
-8 2 -8 1.64 0.39
8 -2 8 1.55 0.44
-9 2 -8 0.88 0.49
9 -2 8 0.72 0.5
-10 2 -8 0.25 0.67
10 -2 8 0.12 0.31
8 1 -8 9.15 0.53
7 1 -8 19.18 0.56
-7 -1 8 19.75 0.94
6 1 -8 16.69 0.48
-6 -1 8 16.76 0.67
5 1 -8 25.19 0.57
-5 -1 8 24.96 0.63
4 1 -8 13.24 0.35
-4 -1 8 13.17 0.42
3 1 -8 11.44 0.28
-3 -1 8 11.38 0.33
2 1 -8 6.37 0.25
-2 -1 8 6.26 0.32
1 1 -8 2.25 0.32
-1 -1 8 2.02 0.27
0 1 -8 8.13 0.38
0 -1 8 8.23 0.35
-1 1 -8 23.06 0.93
1 -1 8 21.14 0.59
-2 1 -8 55.8 1.4
2 -1 8 53.12 0.93
-3 1 -8 51.93 1.48
3 -1 8 52.21 1.54
-4 1 -8 78.06 0.89
4 -1 8 76.79 0.89
-5 1 -8 78.93 0.94
5 -1 8 83 0.97
-6 1 -8 77.24 0.88
6 -1 8 74.03 0.86
-7 1 -8 29.64 0.62
7 -1 8 30.08 0.65
-8 1 -8 29.65 0.76
8 -1 8 28.15 0.68
-9 1 -8 1.72 0.5
9 -1 8 0.92 0.47
-10 1 -8 8.16 0.99
10 -1 8 8.76 0.75
8 0 -8 0.51 0.39
-8 0 8 0.67 0.49
7 0 -8 0.2 0.42
-7 0 8 0.26 0.44
6 0 -8 8.63 0.49
-6 0 8 9.09 0.68
5 0 -8 7.48 0.43
-5 0 8 7.69 0.5
4 0 -8 34.48 0.78
-4 0 8 34.96 0.55
3 0 -8 22.95 0.5
-3 0 8 21.16 0.42
2 0 -8 75.34 0.69
-2 0 8 78.17 0.77
1 0 -8 41.56 0.71
-1 0 8 40.21 1.14
0 0 -8 128.68 1.29
0 0 8 125.24 1.26
-1 0 -8 53.56 1.02
1 0 8 51.68 0.81
-2 0 -8 146.23 1.22
2 0 8 141.83 1.17
-3 0 -8 2.67 0.34
3 0 8 2.79 0.59
-4 0 -8 28.43 1.11
4 0 8 27.48 0.8
-5 0 -8 7.62 0.27
5 0 8 7.29 0.33
-6 0 -8 10.23 0.34
6 0 8 10.25 0.36
-7 0 -8 8.62 0.39
7 0 8 10.1 0.43
-8 0 -8 32.84 0.67
8 0 8 34.39 0.73
-9 0 -8 14.45 0.69
9 0 8 16.39 0.67
-10 0 -8 31.17 1.59
10 0 8 31.14 0.9
-11 0 -8 0.97 0.74
11 0 8 0.87 0.43
8 -1 -8 1.07 0.43
-8 1 8 1.38 0.46
7 -1 -8 0.62 0.44
-7 1 8 0.8 0.4
6 -1 -8 1.05 0.43
-6 1 8 1.18 0.4
5 -1 -8 5.48 0.42
-5 1 8 5.41 0.37
4 -1 -8 7.98 0.44
-4 1 8 7.82 0.37
3 -1 -8 7.73 0.39
-3 1 8 7.2 0.27
2 -1 -8 53.55 0.62
-2 1 8 54.12 0.6
1 -1 -8 130.95 1.43
-1 1 8 130.26 2.21
0 -1 -8 56.17 1.1
0 1 8 60.27 0.86
-1 -1 -8 100.23 1.38
1 1 8 100.6 1.04
-2 -1 -8 79.92 1.2
2 1 8 85.21 0.96
-3 -1 -8 135.05 1.43
3 1 8 133.25 2.22
4 1 8 49.02 1.5
-5 -1 -8 33.2 0.44
5 1 8 34.74 0.55
-6 -1 -8 22.4 0.41
6 1 8 22.18 0.46
-7 -1 -8 3.39 0.34
7 1 8 3.15 0.29
-8 -1 -8 4.65 0.48
8 1 8 4.97 0.35
-9 -1 -8 0.09 0.22
9 1 8 0.21 0.63
-10 -1 -8 4.8 0.61
10 1 8 5.05 0.46
-11 -1 -8 0.42 0.75
11 1 8 0.62 0.43
8 -2 -8 8.67 0.6
-8 2 8 9.13 1.03
7 -2 -8 5.12 0.52
-7 2 8 5.31 0.53
6 -2 -8 4.18 0.45
-6 2 8 4.5 0.49
5 -2 -8 0.55 0.42
-5 2 8 0.37 0.33
4 -2 -8 5.53 0.42
-4 2 8 6.33 0.36
3 -2 -8 1.53 0.29
-3 2 8 1.51 0.27
2 -2 -8 1.79 0.23
-2 2 8 1.77 0.26
1 -2 -8 9.61 0.62
-1 2 8 9.99 0.79
0 -2 -8 63.09 1
0 2 8 64.41 1.5
-1 -2 -8 190.96 1.64
1 2 8 187.4 1.75
-2 -2 -8 19.97 0.56
2 2 8 20.77 0.63
-3 -2 -8 293.25 1.87
3 2 8 271.95 3.21
-4 -2 -8 78.67 1.22
4 2 8 73.42 1.77
-5 -2 -8 74.14 0.84
5 2 8 76.65 0.82
-6 -2 -8 91.87 0.8
6 2 8 97.27 0.92
-7 -2 -8 65.05 0.8
7 2 8 70.8 0.81
-8 -2 -8 49.73 1.2
8 2 8 53.12 0.85
-9 -2 -8 6.16 0.62
9 2 8 6.36 0.39
-10 -2 -8 1.31 0.52
10 2 8 1.66 0.36
-11 -2 -8 0.18 1.65
11 2 8 0.51 0.39
7 -3 -8 0.63 0.52
-7 3 8 0.82 0.56
6 -3 -8 9.04 0.63
-6 3 8 8.77 0.59
5 -3 -8 16.58 0.61
-5 3 8 16.48 0.61
4 -3 -8 64.55 0.97
-4 3 8 62.95 0.86
3 -3 -8 145.62 1.3
-3 3 8 143.12 1.19
2 -3 -8 56.89 0.7
-2 3 8 55.99 0.64
1 -3 -8 96.66 1.29
-1 3 8 97.8 1.15
0 -3 -8 33.02 0.78
0 3 8 30.63 5.24
-1 -3 -8 14.12 0.54
1 3 8 15.73 0.53
-2 -3 -8 54.46 1.11
2 3 8 52.82 0.88
-3 -3 -8 24.37 0.64
3 3 8 24.29 0.66
-4 -3 -8 22.29 0.74
4 3 8 23.2 1.03
-5 -3 -8 78.21 0.74
5 3 8 80.64 0.83
-6 -3 -8 9.44 0.26
6 3 8 9.1 0.35
-7 -3 -8 20.71 0.49
7 3 8 21.9 0.52
-8 -3 -8 27.12 0.74
8 3 8 26.1 0.67
-9 -3 -8 17.11 0.57
9 3 8 18.07 0.63
-10 -3 -8 6.54 0.53
10 3 8 6.62 0.44
-11 -3 -8 16.48 0.85
11 3 8 18.26 0.67
7 -4 -8 0.84 0.91
-7 4 8 0.79 0.48
6 -4 -8 3.83 0.47
-6 4 8 3.93 0.62
5 -4 -8 0.26 0.44
-5 4 8 0.46 0.59
4 -4 -8 0.5 0.39
-4 4 8 0.67 0.35
3 -4 -8 4.33 0.39
-3 4 8 4.96 0.34
2 -4 -8 18.22 0.66
-2 4 8 20.25 0.54
1 -4 -8 38.17 0.72
-1 4 8 38.49 0.53
0 -4 -8 31.02 0.78
0 4 8 33.2 5.87
-1 -4 -8 124.51 1.73
1 4 8 124 9.22
-2 -4 -8 115.32 1.32
2 4 8 113.64 8.8
-3 -4 -8 52.13 0.91
3 4 8 50.04 6.13
-4 -4 -8 141.43 1.74
4 4 8 139.03 2.14
-5 -4 -8 17.84 0.36
5 4 8 18.65 0.42
-6 -4 -8 33.62 0.46
6 4 8 36.67 0.59
-7 -4 -8 3.33 0.26
7 4 8 3.1 0.34
-8 -4 -8 2.67 0.3
8 4 8 3.12 0.37
-9 -4 -8 9.08 0.55
9 4 8 9.75 0.45
-10 -4 -8 4.74 0.49
10 4 8 4.92 0.46
-11 -4 -8 4.44 0.51
11 4 8 5.46 0.71
7 -5 -8 0.33 0.52
-7 5 8 0.39 0.51
6 -5 -8 0.4 0.69
-6 5 8 0.45 0.71
5 -5 -8 13.14 0.77
-5 5 8 13.76 0.71
4 -5 -8 1.56 0.45
-4 5 8 1.31 0.45
3 -5 -8 7.16 0.46
-3 5 8 7.17 0.52
2 -5 -8 26.29 1.08
-2 5 8 26.56 0.55
1 -5 -8 2.41 0.35
-1 5 8 2.41 0.22
0 -5 -8 24.4 0.74
0 5 8 23.49 0.51
-1 -5 -8 39.24 1.05
1 5 8 36.53 4.93
-2 -5 -8 33.53 0.65
2 5 8 31.36 4.17
-3 -5 -8 72.32 1.09
3 5 8 71.46 5.24
-4 -5 -8 44.41 0.58
4 5 8 45.24 0.92
-5 -5 -8 64.68 0.64
5 5 8 65.61 0.72
-6 -5 -8 26.19 0.45
6 5 8 27.42 0.67
-7 -5 -8 78.69 0.93
7 5 8 82.84 1.01
-8 -5 -8 7.97 0.41
8 5 8 8.92 0.41
-9 -5 -8 46.18 0.98
9 5 8 49.62 0.8
-10 -5 -8 2.31 0.39
10 5 8 3.11 0.39
-11 -5 -8 5.6 0.88
11 5 8 6.41 0.45
6 -6 -8 2.47 0.84
-6 6 8 3.26 0.6
5 -6 -8 12.21 0.77
-5 6 8 12.57 0.69
4 -6 -8 2.44 0.62
-4 6 8 2.56 0.46
3 -6 -8 34.99 0.94
-3 6 8 34.55 0.77
2 -6 -8 6.97 0.54
-2 6 8 6.82 0.36
1 -6 -8 46.52 1.04
-1 6 8 45.47 0.61
0 -6 -8 13.32 0.75
0 6 8 13.54 0.38
-1 -6 -8 16.26 0.77
1 6 8 16.54 0.45
-2 -6 -8 10.14 0.49
2 6 8 11.05 0.44
-3 -6 -8 4.87 0.41
3 6 8 5.91 0.36
-4 -6 -8 5.17 0.31
4 6 8 5.05 0.27
-5 -6 -8 40.28 0.5
5 6 8 39.03 0.57
-6 -6 -8 23.3 0.41
6 6 8 23.73 0.64
-7 -6 -8 28.25 0.55
7 6 8 28.17 0.62
-8 -6 -8 9.09 0.43
8 6 8 9.42 0.42
-9 -6 -8 21.09 0.58
9 6 8 23.69 0.78
-10 -6 -8 5.66 0.64
10 6 8 5.64 0.56
-11 -6 -8 15.03 0.85
11 6 8 17.14 0.57
-6 7 8 0.18 0.54
-5 7 8 0.08 0.36
4 -7 -8 4.14 0.82
-4 7 8 4.26 0.52
3 -7 -8 8.35 0.71
-3 7 8 8.87 0.44
2 -7 -8 34.39 1.28
-2 7 8 33.16 0.68
1 -7 -8 42.57 1.05
-1 7 8 44.34 0.64
0 -7 -8 68.37 1.51
0 7 8 66.92 0.74
-1 -7 -8 65.99 1.45
1 7 8 67.13 0.86
-2 -7 -8 44.85 0.92
2 7 8 44.03 0.7
-3 -7 -8 69.27 0.94
3 7 8 69.87 0.99
-4 -7 -8 28.12 0.5
4 7 8 28.29 0.57
-5 -7 -8 58.87 0.61
5 7 8 58.39 0.92
-6 -7 -8 21.07 0.39
6 7 8 20.72 0.77
-7 -7 -8 4.8 0.3
7 7 8 4.68 0.53
-8 -7 -8 8.82 0.44
8 7 8 9.47 0.55
-9 -7 -8 3 0.38
9 7 8 3.53 0.48
-10 -7 -8 3.38 0.48
10 7 8 3.17 0.44
-11 -7 -8 3.18 0.48
11 7 8 3.94 0.47
-5 8 8 0.46 1.25
4 -8 -8 0.99 1.12
-4 8 8 1.41 0.4
3 -8 -8 0.94 0.7
-3 8 8 0.96 0.38
2 -8 -8 4.07 0.75
-2 8 8 5.14 0.38
1 -8 -8 10.04 0.85
-1 8 8 11.07 0.45
0 -8 -8 2.54 0.59
0 8 8 2.95 0.28
-1 -8 -8 22.67 0.99
1 8 8 24.12 0.58
-2 -8 -8 47.67 0.99
2 8 8 49.05 0.77
-3 -8 -8 22.46 0.6
3 8 8 22.23 0.63
-4 -8 -8 50.55 0.67
4 8 8 53.39 0.78
-5 -8 -8 24.1 0.43
5 8 8 22.13 0.79
-6 -8 -8 29.5 0.48
6 8 8 29.97 0.74
-7 -8 -8 22.57 0.46
7 8 8 24.29 0.89
-8 -8 -8 35.65 0.69
8 8 8 36.95 1.12
-9 -8 -8 20.25 0.54
9 8 8 22.85 0.8
-10 -8 -8 12.95 0.72
10 8 8 13.47 0.69
-11 -8 -8 0.16 0.63
11 8 8 0.04 0.14
-5 9 8 1.21 0.56
-4 9 8 5.46 0.66
3 -9 -8 0.91 0.99
-3 9 8 1.45 0.42
2 -9 -8 8.07 0.89
-2 9 8 7.87 0.39
1 -9 -8 9.17 0.88
-1 9 8 9.29 0.44
0 -9 -8 2.07 0.66
0 9 8 2.65 0.32
-1 -9 -8 17.48 0.96
1 9 8 18.15 0.55
-2 -9 -8 22.18 0.96
2 9 8 22.97 0.68
-3 -9 -8 20.71 0.62
3 9 8 21.14 0.65
-4 -9 -8 13.78 0.47
4 9 8 14.22 0.56
-5 -9 -8 5.01 0.34
5 9 8 4.64 0.52
-6 -9 -8 49.04 0.61
6 9 8 49.68 1.69
-7 -9 -8 20.71 0.48
7 9 8 21.93 0.89
-8 -9 -8 15.55 0.5
8 9 8 15.35 0.83
-9 -9 -8 3.24 0.35
9 9 8 3.78 0.51
-10 -9 -8 3.63 0.43
10 9 8 3.4 0.63
-11 -9 -8 4.44 0.52
11 9 8 4.88 0.55
-4 10 8 8.15 1.01
-3 10 8 5.19 0.93
2 -10 -8 12.76 1.03
-2 10 8 14.08 0.62
1 -10 -8 9.82 0.92
-1 10 8 11.21 0.56
0 -10 -8 24.12 1.14
0 10 8 25.3 0.62
-1 -10 -8 40.37 1.38
1 10 8 40.02 0.83
-2 -10 -8 11.75 1.22
2 10 8 11.84 0.71
-3 -10 -8 38.45 1.03
3 10 8 36.71 0.85
-4 -10 -8 9.62 0.52
4 10 8 8.83 0.62
-5 -10 -8 8.02 0.45
5 10 8 9.32 0.93
-6 -10 -8 17.23 0.66
6 10 8 17.57 1.17
-7 -10 -8 17.49 0.48
7 10 8 18.48 0.87
-8 -10 -8 4.68 0.48
8 10 8 4.67 0.53
-9 -10 -8 7.04 0.41
9 10 8 6.72 0.58
-10 -10 -8 5.89 0.46
10 10 8 6.52 0.59
-11 -10 -8 3.7 0.62
11 10 8 3.48 0.52
-3 11 8 1.6 0.55
-2 11 8 1.33 0.49
1 -11 -8 0.88 1.26
-1 11 8 0.73 0.39
0 -11 -8 4.48 0.79
0 11 8 4.72 0.45
-1 -11 -8 3.24 0.76
1 11 8 3.45 0.42
-2 -11 -8 9.6 1.24
2 11 8 9.6 0.6
-3 -11 -8 30.9 1.23
3 11 8 31.71 0.83
-4 -11 -8 25.58 0.95
4 11 8 26.9 0.94
-5 -11 -8 34.41 0.75
5 11 8 36.16 1.5
-6 -11 -8 17.64 0.6
6 11 8 17.97 1.23
-7 -11 -8 2.94 0.37
7 11 8 2.88 0.59
-8 -11 -8 10.39 0.46
8 11 8 9.92 0.78
-9 -11 -8 0.22 0.21
9 11 8 0.32 0.46
-10 -11 -8 4.74 0.46
10 11 8 4.54 0.56
-11 -11 -8 1.1 0.56
11 11 8 0.91 0.64
-2 12 8 5.29 0.65
-1 12 8 0.4 0.85
0 -12 -8 0.81 1.34
0 12 8 1.28 0.41
-1 -12 -8 3.85 0.85
1 12 8 4.6 0.62
-2 -12 -8 1.55 1.12
2 12 8 1.59 0.48
-3 -12 -8 3.01 1.12
3 12 8 3.32 0.78
-4 -12 -8 1.2 0.63
4 12 8 1.52 0.55
-5 -12 -8 4.06 0.5
5 12 8 4.41 0.89
-6 -12 -8 0.99 0.52
6 12 8 1.37 0.53
-7 -12 -8 9.94 0.55
7 12 8 10.32 1.12
-8 -12 -8 19.48 0.67
8 12 8 21.48 1
-9 -12 -8 5.66 0.56
9 12 8 6.12 0.72
-10 -12 -8 15.46 0.6
10 12 8 17.19 0.92
-1 13 8 2.32 0.48
0 13 8 7.57 0.72
-1 -13 -8 5.95 1.33
1 13 8 7.32 0.61
-2 -13 -8 7.45 1.31
2 13 8 7.72 0.8
-3 -13 -8 6.28 1.28
3 13 8 6.48 0.72
-4 -13 -8 6.94 0.64
-5 -13 -8 0.5 0.75
5 13 8 0.89 0.81
-6 -13 -8 2.1 0.55
6 13 8 2.48 0.84
-7 -13 -8 0.36 0.45
-8 -13 -8 0.35 0.75
-9 -13 -8 0.27 0.94
-10 -13 -8 1.61 0.46
10 13 8 1.41 0.62
0 14 8 0.46 0.52
1 14 8 3.37 0.64
-3 -14 -8 11.91 1.5
3 14 8 13.11 1.1
-4 -14 -8 5.49 1.31
-5 -14 -8 17.99 1.16
5 14 8 17.88 1.27
-6 -14 -8 4.97 0.77
6 14 8 4.97 0.99
-7 -14 -8 7.36 1.03
7 14 8 7.5 1.07
-8 -14 -8 4.56 0.53
8 14 8 6.15 1.06
-9 -14 -8 2.75 0.49
9 14 8 2.93 0.93
2 15 8 0.17 0.5
3 15 8 0.33 0.68
4 15 8 0.47 0.86
-5 -15 -8 2.12 0.84
5 15 8 2.94 0.89
-6 -15 -8 2.53 0.83
6 15 8 2.51 0.64
-7 -15 -8 5.79 0.94
7 15 8 5.72 1
3 12 -9 0.55 0.51
-3 -12 9 0.5 0.4
2 12 -9 0.39 0.46
-1 -12 9 4.17 0.85
0 12 -9 5.32 0.87
0 -12 9 5.32 0.89
1 -12 9 19.17 1.18
5 11 -9 17.03 0.89
-5 -11 9 17.52 0.54
4 11 -9 6.12 0.54
-4 -11 9 6.46 0.47
3 11 -9 13.23 1.14
-3 -11 9 12.63 0.56
2 11 -9 1.98 0.55
-2 -11 9 1.21 0.44
1 11 -9 1.2 0.52
-1 -11 9 1.06 0.76
0 11 -9 5.16 0.88
0 -11 9 4.27 0.88
-1 11 -9 1.55 0.68
1 -11 9 1.42 0.74
-2 11 -9 6.19 0.92
-3 11 -9 0.03 0.38
6 10 -9 0.97 0.56
-6 -10 9 0.72 0.32
5 10 -9 1.52 0.54
-5 -10 9 1.73 0.39
4 10 -9 0.64 0.49
-4 -10 9 0.26 0.33
3 10 -9 7.31 0.62
-3 -10 9 7.34 0.41
2 10 -9 4.61 0.57
-2 -10 9 4.92 0.38
1 10 -9 42.89 1.11
-1 -10 9 43.08 0.83
0 10 -9 16.9 0.77
0 -10 9 15.16 0.65
-1 10 -9 13.64 0.71
1 -10 9 13.22 0.69
-2 10 -9 6.57 0.65
2 -10 9 5.6 0.96
-3 10 -9 0.89 0.55
-4 10 -9 2.79 0.79
6 9 -9 0.18 0.46
-6 -9 9 0.05 0.07
5 9 -9 1.15 0.55
-5 -9 9 1 0.33
4 9 -9 5.04 0.59
-4 -9 9 4.43 0.36
3 9 -9 2.99 0.54
-3 -9 9 2.97 0.34
2 9 -9 0.45 0.45
-2 -9 9 0.22 0.24
1 9 -9 3.24 0.5
-1 -9 9 3.08 0.37
0 9 -9 0.04 0.04
0 -9 9 0.43 0.48
-1 9 -9 3.25 0.51
1 -9 9 3.35 0.46
-2 9 -9 9.82 0.71
2 -9 9 9.58 0.76
-3 9 -9 4.91 0.62
3 -9 9 5.12 0.58
-4 9 -9 19.49 0.91
4 -9 9 17.82 1.21
-5 9 -9 3.57 0.59
7 8 -9 1.61 0.78
-7 -8 9 1.39 0.41
6 8 -9 5.46 0.66
-6 -8 9 5.71 0.46
5 8 -9 8.07 0.52
-5 -8 9 7.76 0.42
4 8 -9 6.04 0.47
-4 -8 9 5.84 0.36
3 8 -9 19.3 0.65
-3 -8 9 18.78 0.47
2 8 -9 3.99 0.42
-2 -8 9 4.08 0.33
1 8 -9 3.22 0.35
-1 -8 9 2.82 0.3
0 8 -9 0.37 0.34
0 -8 9 0.3 0.3
-1 8 -9 1.07 0.43
1 -8 9 0.93 0.44
-2 8 -9 4.28 0.5
2 -8 9 3.82 0.48
-3 8 -9 3.79 0.46
3 -8 9 2.96 0.67
-4 8 -9 11.5 0.67
4 -8 9 9.76 0.62
-5 8 -9 4.44 0.62
5 -8 9 3.34 0.84
-6 8 -9 8.34 0.69
6 -8 9 7.73 0.96
7 7 -9 0.14 0.43
-7 -7 9 0.16 0.51
6 7 -9 3.53 0.5
-6 -7 9 3.81 0.37
5 7 -9 5.62 0.38
-5 -7 9 5.62 0.38
4 7 -9 15.76 0.61
-4 -7 9 15.81 0.46
3 7 -9 27.11 0.73
-3 -7 9 27.07 0.52
2 7 -9 38.63 0.83
-2 -7 9 38.33 0.65
1 7 -9 53.11 0.94
-1 -7 9 50.74 0.68
0 7 -9 47.97 0.9
0 -7 9 47.89 0.71
-1 7 -9 37.56 0.92
1 -7 9 34.69 0.88
-2 7 -9 23.84 0.67
2 -7 9 23.11 0.67
-3 7 -9 11.48 0.53
3 -7 9 10.68 0.54
-4 7 -9 11.91 0.56
4 -7 9 10.23 0.6
-5 7 -9 5.03 0.54
5 -7 9 4.06 0.56
-6 7 -9 9.03 0.73
-7 7 -9 1.31 0.45
7 -7 9 0.87 0.89
8 6 -9 3.06 0.42
-8 -6 9 2.69 0.38
7 6 -9 1.77 0.41
-7 -6 9 1.94 0.38
6 6 -9 3.84 0.51
-6 -6 9 4.06 0.42
5 6 -9 1.6 0.31
-5 -6 9 2.18 0.34
4 6 -9 1.27 0.29
-4 -6 9 1.41 0.31
3 6 -9 4.66 0.33
-3 -6 9 4.98 0.3
2 6 -9 0.07 0.14
-2 -6 9 0.03 0.11
1 6 -9 2.89 0.36
-1 -6 9 3.08 0.27
0 6 -9 4.77 0.34
0 -6 9 5.23 0.3
-1 6 -9 19.08 0.52
1 -6 9 18.64 0.56
-2 6 -9 30.13 0.71
2 -6 9 30.98 0.73
-3 6 -9 65.71 1.04
3 -6 9 63.39 1.38
-4 6 -9 17.69 0.62
4 -6 9 17.28 0.58
-5 6 -9 22.42 0.83
5 -6 9 22.4 0.88
-6 6 -9 3.47 0.52
6 -6 9 3.02 0.6
-7 6 -9 13.28 0.82
7 -6 9 13.24 1.13
-8 6 -9 4.3 0.61
8 -6 9 3.22 0.85
8 5 -9 0.81 0.39
-8 -5 9 0.66 0.5
7 5 -9 1.1 0.54
-7 -5 9 0.89 0.36
6 5 -9 6.32 0.42
-6 -5 9 6.29 0.45
5 5 -9 2.56 0.32
-5 -5 9 2.86 0.34
4 5 -9 27.7 0.53
-4 -5 9 28.74 0.58
3 5 -9 10.15 0.39
-3 -5 9 10.02 0.35
2 5 -9 7.36 0.34
-2 -5 9 8.32 0.31
1 5 -9 4.71 0.27
-1 -5 9 3.83 0.26
0 5 -9 10.04 0.4
0 -5 9 9.97 0.33
-1 5 -9 8.74 0.43
1 -5 9 8.59 0.36
-2 5 -9 2.14 0.32
2 -5 9 2.12 0.35
-3 5 -9 5.09 0.32
3 -5 9 4.45 0.44
-4 5 -9 25.34 0.69
4 -5 9 26.37 0.72
-5 5 -9 17.87 0.73
5 -5 9 17.06 0.78
-6 5 -9 6.09 0.56
6 -5 9 5.93 0.72
-7 5 -9 13.92 0.92
7 -5 9 12.63 0.91
-8 5 -9 13.1 0.82
8 -5 9 11.54 1.13
8 4 -9 1.17 0.34
-8 -4 9 1.34 0.41
7 4 -9 10.54 0.44
-7 -4 9 11.33 0.53
6 4 -9 23.66 0.57
-6 -4 9 24.09 0.6
5 4 -9 7.01 0.41
-5 -4 9 7.17 0.45
4 4 -9 38.45 0.56
-4 -4 9 37.52 0.61
3 4 -9 0.75 0.21
-3 -4 9 0.72 0.26
2 4 -9 42.73 0.57
-2 -4 9 43.24 0.55
1 4 -9 62.84 0.69
-1 -4 9 62.33 0.61
0 4 -9 80.55 0.76
0 -4 9 80.82 0.73
-1 4 -9 167.38 1.55
1 -4 9 165.48 1.17
-2 4 -9 26.18 0.56
2 -4 9 25.57 0.53
-3 4 -9 16.61 0.43
3 -4 9 15.66 0.5
-4 4 -9 8.02 0.44
4 -4 9 8.13 0.46
-5 4 -9 17.97 0.6
5 -4 9 18.07 0.61
-6 4 -9 2.7 0.39
6 -4 9 2.39 0.42
-7 4 -9 2.93 0.51
7 -4 9 2.54 0.47
-8 4 -9 0.49 0.48
8 -4 9 0.44 0.47
-9 4 -9 4.16 0.61
9 -4 9 4.65 0.92
8 3 -9 4.46 0.39
-8 -3 9 4.85 0.61
7 3 -9 3.54 0.39
-7 -3 9 3.67 0.47
6 3 -9 27.86 0.6
-6 -3 9 29.24 0.65
5 3 -9 12.61 0.41
-5 -3 9 12.88 0.47
4 3 -9 1.38 0.22
-4 -3 9 1.51 0.26
3 3 -9 4.52 0.23
-3 -3 9 4.71 0.32
2 3 -9 52.81 0.56
-2 -3 9 53.04 0.68
1 3 -9 33 0.5
-1 -3 9 32.84 0.48
0 3 -9 27.93 0.46
0 -3 9 29.11 0.44
-1 3 -9 53.96 0.87
1 -3 9 51.57 0.65
-2 3 -9 28.71 0.6
2 -3 9 31.82 0.56
-3 3 -9 111.47 1.15
3 -3 9 107.67 1.08
-4 3 -9 42.38 0.77
4 -3 9 41.74 0.77
-5 3 -9 98.49 1.2
5 -3 9 94.03 1.35
-6 3 -9 48.01 0.91
6 -3 9 46.53 1.11
-7 3 -9 13.67 0.86
7 -3 9 11.86 0.59
-8 3 -9 8.58 0.53
8 -3 9 8.16 0.56
-9 3 -9 2.05 0.59
9 -3 9 2.27 0.82
8 2 -9 2.8 0.37
-8 -2 9 3.08 0.58
7 2 -9 0.58 0.32
-7 -2 9 0.57 0.43
6 2 -9 5.26 0.38
-6 -2 9 5.01 0.43
5 2 -9 1.3 0.28
-5 -2 9 0.94 0.29
4 2 -9 4.7 0.25
-4 -2 9 4.55 0.33
3 2 -9 26.68 0.41
-3 -2 9 26.37 0.49
2 2 -9 19.25 0.33
-2 -2 9 18.73 0.45
1 2 -9 118.48 0.98
-1 -2 9 118.19 0.83
0 2 -9 9.59 0.33
0 -2 9 9.1 0.28
-1 2 -9 10.84 0.38
1 -2 9 10.78 0.38
-2 2 -9 5.32 0.44
2 -2 9 4.64 0.32
-3 2 -9 27 0.57
3 -2 9 26.43 0.5
-4 2 -9 4.97 0.3
4 -2 9 5.46 0.37
-5 2 -9 47.39 0.81
5 -2 9 46.57 0.9
-6 2 -9 14.5 0.54
6 -2 9 15.69 0.51
-7 2 -9 29.87 0.75
7 -2 9 30.92 0.7
-8 2 -9 5.85 0.48
8 -2 9 5.77 0.45
-9 2 -9 12.6 0.81
9 -2 9 12.29 0.7
-10 2 -9 0.92 0.56
10 -2 9 0.89 0.55
8 1 -9 2.15 0.39
-8 -1 9 2.11 0.8
7 1 -9 1.36 0.35
-7 -1 9 1.68 0.53
6 1 -9 1.52 0.3
-6 -1 9 1.48 0.41
5 1 -9 15.43 0.42
-5 -1 9 15.29 0.55
4 1 -9 29.23 0.54
-4 -1 9 29 0.54
3 1 -9 36.81 0.56
-3 -1 9 36.07 0.55
2 1 -9 15.81 0.33
-2 -1 9 15.8 0.38
1 1 -9 36.52 0.46
-1 -1 9 37.34 0.51
0 1 -9 3.33 0.25
0 -1 9 4.17 0.23
-1 1 -9 37.32 0.55
1 -1 9 37.58 0.68
-2 1 -9 14.74 0.48
2 -1 9 15.6 0.44
-3 1 -9 13.28 0.48
3 -1 9 12.5 0.36
-4 1 -9 21.47 0.42
4 -1 9 21.95 0.55
-5 1 -9 0.33 0.29
5 -1 9 0.43 0.27
-6 1 -9 5.35 0.34
6 -1 9 5.47 0.33
-7 1 -9 5.21 0.37
7 -1 9 4.65 0.39
-8 1 -9 2.39 0.47
8 -1 9 2.3 0.38
-9 1 -9 6.45 0.59
9 -1 9 6.04 0.66
-10 1 -9 4.04 0.6
10 -1 9 3.96 0.52
8 0 -9 1.61 0.38
-8 0 9 2.2 0.56
7 0 -9 0.82 0.37
-7 0 9 0.64 0.47
6 0 -9 0.28 0.21
-6 0 9 0.48 0.44
5 0 -9 0.23 0.23
-5 0 9 0.26 0.45
4 0 -9 2.44 0.31
-4 0 9 2.39 0.31
3 0 -9 0.3 0.23
-3 0 9 0.17 0.13
2 0 -9 48.05 0.56
-2 0 9 47.32 0.55
1 0 -9 21.69 0.36
-1 0 9 21.49 0.4
0 0 -9 163.8 0.9
0 0 9 160.57 1.01
-1 0 -9 76.49 1.29
1 0 9 78.04 1.06
-2 0 -9 188.06 1.92
2 0 9 175.47 1.57
-3 0 -9 101.48 1.12
3 0 9 100.44 0.86
-4 0 -9 104.46 0.82
4 0 9 104.36 1.07
-5 0 -9 57.48 0.6
5 0 9 55.67 0.84
-6 0 -9 17.24 0.47
6 0 9 17.29 0.48
-7 0 -9 16.31 0.55
7 0 9 16.64 0.47
-8 0 -9 1.67 0.45
8 0 9 2.12 0.33
-9 0 -9 10.21 1.06
9 0 9 10.5 0.52
10 0 9 0.31 0.33
7 -1 -9 7.19 0.5
-7 1 9 7.51 1
6 -1 -9 7.12 0.56
-6 1 9 8.09 0.71
5 -1 -9 19.63 0.62
-5 1 9 19.9 0.71
4 -1 -9 22.93 0.58
-4 1 9 23.27 0.72
3 -1 -9 42.22 0.68
-3 1 9 41.75 0.67
2 -1 -9 37.27 0.49
-2 1 9 36.1 0.5
1 -1 -9 49.55 0.52
-1 1 9 48.71 0.58
0 -1 -9 1.71 0.24
0 1 9 1.81 0.23
-1 -1 -9 18.48 0.74
1 1 9 19.47 0.71
-2 -1 -9 32.88 0.88
2 1 9 31.6 0.88
-3 -1 -9 5.04 0.66
3 1 9 6.31 0.35
-4 -1 -9 38.51 0.62
4 1 9 40.19 0.67
-5 -1 -9 17.54 0.39
5 1 9 18.13 0.45
-6 -1 -9 77.66 0.86
6 1 9 81.29 0.91
-7 -1 -9 50.13 0.83
7 1 9 48.56 0.77
-8 -1 -9 27.4 0.8
8 1 9 27.12 0.63
-9 -1 -9 20.54 1.32
9 1 9 19.4 0.67
-10 -1 -9 4.51 0.62
10 1 9 4.2 0.51
-11 -1 -9 3.54 0.84
11 1 9 3.64 0.55
7 -2 -9 1.14 0.55
-7 2 9 0.97 0.55
6 -2 -9 0.91 0.39
-6 2 9 1.05 0.44
5 -2 -9 6.57 0.43
-5 2 9 6.32 0.46
4 -2 -9 10.03 0.44
-4 2 9 10.31 0.43
3 -2 -9 2.82 0.29
-3 2 9 3.35 0.31
2 -2 -9 20.99 0.45
-2 2 9 20.31 0.39
1 -2 -9 24.9 0.41
-1 2 9 27.55 0.51
0 -2 -9 46.64 0.65
0 2 9 46.1 0.94
-1 -2 -9 52.99 1.18
1 2 9 52.82 1.05
-2 -2 -9 57.94 0.97
2 2 9 55.07 1.07
-3 -2 -9 89.92 1.15
3 2 9 88.35 1.36
-4 -2 -9 8.48 0.41
4 2 9 8.05 0.32
-5 -2 -9 21.87 0.42
5 2 9 22.73 0.48
-6 -2 -9 10.32 0.32
6 2 9 10.37 0.39
-7 -2 -9 14.22 0.44
7 2 9 13.71 0.46
-8 -2 -9 17.07 0.66
8 2 9 18.17 0.54
-9 -2 -9 6.3 0.63
9 2 9 6.69 0.48
-10 -2 -9 19.26 0.9
10 2 9 20.94 0.63
-11 -2 -9 11.63 1.09
11 2 9 13.57 0.69
7 -3 -9 0.31 0.36
6 -3 -9 0.77 0.42
-6 3 9 0.35 0.69
5 -3 -9 0.96 0.37
-5 3 9 1.04 0.48
4 -3 -9 5.65 0.4
-4 3 9 6.54 0.39
3 -3 -9 9.83 0.39
-3 3 9 10.26 0.42
2 -3 -9 11.92 0.38
-2 3 9 11.59 0.33
1 -3 -9 57.34 0.76
-1 3 9 58.54 0.72
0 -3 -9 140.95 1.03
0 3 9 138.75 1.31
-1 -3 -9 43.85 0.91
1 3 9 44.44 0.75
-2 -3 -9 78.58 1.15
2 3 9 78.94 1.66
-3 -3 -9 54.08 0.91
3 3 9 57.32 1.05
-4 -3 -9 83.03 0.75
4 3 9 87.07 0.82
-5 -3 -9 52.42 0.62
5 3 9 54.01 0.57
-6 -3 -9 21.9 0.41
6 3 9 23.45 0.47
-7 -3 -9 8.81 0.39
7 3 9 8.3 0.39
-8 -3 -9 11.16 0.5
8 3 9 11.03 0.51
-9 -3 -9 7.06 0.65
9 3 9 7.66 0.44
-10 -3 -9 6.48 0.67
10 3 9 7.23 0.45
-11 -3 -9 9.93 1.05
11 3 9 10.09 0.65
7 -4 -9 9.56 0.74
-7 4 9 10.11 1.04
6 -4 -9 19.44 1.32
-6 4 9 19.07 0.92
5 -4 -9 1.57 0.44
-5 4 9 1.73 0.48
4 -4 -9 19.39 0.64
-4 4 9 19.41 0.76
3 -4 -9 10.4 0.46
-3 4 9 11.13 0.5
2 -4 -9 22.93 0.59
-2 4 9 22.9 0.48
1 -4 -9 0.03 0.32
-1 4 9 0.03 0.19
0 -4 -9 13.7 0.39
0 4 9 13.77 0.43
-1 -4 -9 15.89 0.51
1 4 9 16.7 0.45
-2 -4 -9 45.31 1.15
2 4 9 45.54 0.92
-3 -4 -9 9.89 0.4
3 4 9 8.93 0.4
-4 -4 -9 139.9 0.93
4 4 9 137.85 1.04
-5 -4 -9 54.19 0.67
5 4 9 50.01 0.52
-6 -4 -9 72.65 0.68
6 4 9 75.13 0.93
-7 -4 -9 40.13 0.53
7 4 9 42.54 0.79
-8 -4 -9 52.04 0.78
8 4 9 55.72 1.06
-9 -4 -9 13.4 0.62
9 4 9 15.41 0.59
-10 -4 -9 13.27 0.64
10 4 9 15.37 0.55
-11 -4 -9 0.03 0.74
11 4 9 0.12 0.29
6 -5 -9 1.49 0.56
-6 5 9 1.5 0.45
5 -5 -9 0.6 0.56
-5 5 9 1.02 0.47
4 -5 -9 8.15 0.5
-4 5 9 7.73 0.59
3 -5 -9 27.3 0.64
-3 5 9 26.5 0.69
2 -5 -9 91.54 1.27
-2 5 9 89.62 1
1 -5 -9 42.31 0.72
-1 5 9 39.67 0.65
0 -5 -9 81.54 0.92
0 5 9 81.94 0.82
-1 -5 -9 26.72 0.6
1 5 9 26.98 0.5
-2 -5 -9 36.72 1.08
2 5 9 39.68 0.64
-3 -5 -9 43.95 0.77
3 5 9 42.75 0.66
-4 -5 -9 6.29 0.3
4 5 9 5.91 0.29
-5 -5 -9 36.03 0.48
5 5 9 35.48 0.51
-6 -5 -9 12.34 0.34
6 5 9 13.13 0.53
-7 -5 -9 7.9 0.36
7 5 9 8.69 0.5
-8 -5 -9 1.86 0.32
8 5 9 2.43 0.37
-9 -5 -9 12.66 0.77
9 5 9 12.02 0.55
-10 -5 -9 6.69 0.46
10 5 9 8.11 0.52
-11 -5 -9 8.3 0.57
11 5 9 7.99 0.47
6 -6 -9 0.15 1.04
-6 6 9 0.34 0.66
5 -6 -9 4.22 0.65
-5 6 9 4.7 0.58
4 -6 -9 0.33 0.6
-4 6 9 0.59 0.38
3 -6 -9 1.84 0.42
-3 6 9 1.94 0.38
2 -6 -9 13.19 0.6
-2 6 9 13.92 0.54
1 -6 -9 0.04 0.2
-1 6 9 0.01 0.09
0 -6 -9 30.4 0.81
0 6 9 33.35 0.58
-1 -6 -9 12.47 0.47
1 6 9 11.53 0.37
-2 -6 -9 46.34 1.25
2 6 9 46.3 0.83
-3 -6 -9 48.98 0.75
3 6 9 50.2 0.86
-4 -6 -9 41.05 0.68
4 6 9 40.9 0.59
-5 -6 -9 62.28 0.63
5 6 9 64.25 0.84
-6 -6 -9 24.76 0.44
6 6 9 26.45 0.53
-7 -6 -9 13.41 0.37
7 6 9 14.23 0.59
-8 -6 -9 4.06 0.37
8 6 9 4.65 0.41
-9 -6 -9 0.15 0.28
9 6 9 0.09 0.38
-10 -6 -9 0.69 0.56
10 6 9 0.8 0.41
-11 -6 -9 0.13 1.6
11 6 9 0.06 0.23
-5 7 9 3.25 0.58
4 -7 -9 2.59 0.85
-4 7 9 2.55 0.51
3 -7 -9 0.4 0.61
-3 7 9 0.6 0.39
2 -7 -9 2.44 0.57
-2 7 9 2.95 0.4
1 -7 -9 5.69 0.53
-1 7 9 5.84 0.36
0 -7 -9 0.68 0.47
0 7 9 0.97 0.25
-1 -7 -9 27.74 0.79
1 7 9 27.65 0.61
-2 -7 -9 4.99 0.49
2 7 9 4.97 0.34
-3 -7 -9 54.5 0.89
3 7 9 56.35 0.94
-4 -7 -9 5.16 0.31
4 7 9 4.79 0.34
-5 -7 -9 59.85 0.64
5 7 9 61.44 0.98
-6 -7 -9 6.46 0.32
6 7 9 6.37 0.4
-7 -7 -9 45.6 0.61
7 7 9 46.67 1.15
-8 -7 -9 19.05 0.57
8 7 9 19.79 0.88
-9 -7 -9 21.36 0.55
9 7 9 21.3 0.76
-10 -7 -9 11.89 0.8
10 7 9 14.09 0.69
-11 -7 -9 1.53 0.82
11 7 9 1.66 0.39
-5 8 9 6.35 0.65
-4 8 9 6.49 0.67
3 -8 -9 12.42 0.84
-3 8 9 12.75 0.58
2 -8 -9 19.96 0.92
-2 8 9 19.97 0.66
1 -8 -9 13.42 0.97
-1 8 9 13.1 0.43
0 -8 -9 41.18 1.1
0 8 9 41.1 0.72
-1 -8 -9 10.2 0.8
1 8 9 11.27 0.46
-2 -8 -9 50.77 1.12
2 8 9 50.55 0.81
-3 -8 -9 4.04 0.39
3 8 9 3.98 0.39
-4 -8 -9 7.65 0.4
4 8 9 7.96 0.4
-5 -8 -9 7.57 0.31
5 8 9 7.3 0.56
-6 -8 -9 14.92 0.39
6 8 9 14.32 1.04
-7 -8 -9 6.98 0.32
7 8 9 7.15 0.62
-8 -8 -9 15.8 0.49
8 8 9 15.49 0.82
-9 -8 -9 2.57 0.35
9 8 9 2.92 0.48
-10 -8 -9 6.58 0.52
10 8 9 7.67 0.52
-11 -8 -9 5.4 0.66
11 8 9 5.54 0.57
-4 9 9 0.81 0.45
3 -9 -9 0.45 1.84
-3 9 9 0.78 0.36
2 -9 -9 0.01 0.29
-2 9 9 0.22 0.49
1 -9 -9 7.54 0.87
-1 9 9 8.38 0.49
0 -9 -9 7.09 0.67
0 9 9 7.16 0.46
-1 -9 -9 27.96 1.18
1 9 9 26.68 0.61
-2 -9 -9 24.11 0.8
2 9 9 23.65 0.62
-3 -9 -9 21.74 0.57
3 9 9 21.9 0.69
-4 -9 -9 25.85 0.55
4 9 9 26.91 0.92
-5 -9 -9 30.78 0.56
5 9 9 31.16 0.96
-6 -9 -9 24.02 0.5
6 9 9 25.86 1.32
-7 -9 -9 39.22 0.61
7 9 9 41.07 1.15
-8 -9 -9 1.11 0.35
8 9 9 1.33 0.56
-9 -9 -9 17.91 0.53
9 9 9 18.35 0.92
-10 -9 -9 2.23 0.45
10 9 9 2.25 0.63
-11 -9 -9 0.29 0.75
11 9 9 0.51 0.44
-3 10 9 1.01 0.53
2 -10 -9 0.02 0.14
-2 10 9 0.4 0.44
1 -10 -9 3.5 0.87
-1 10 9 3.67 0.43
0 -10 -9 0.85 0.71
0 10 9 1.07 0.34
-1 -10 -9 0.59 0.67
1 10 9 0.44 0.33
-2 -10 -9 9.32 0.85
2 10 9 10.34 0.56
-3 -10 -9 11.53 0.56
3 10 9 12.32 0.72
-4 -10 -9 21.42 0.6
4 10 9 21.83 0.88
-5 -10 -9 4.44 0.36
5 10 9 4.86 0.57
-6 -10 -9 17.47 0.53
6 10 9 16.27 1.15
-7 -10 -9 5.56 0.33
7 10 9 6.53 0.93
-8 -10 -9 9.42 0.55
8 10 9 11.02 0.77
-9 -10 -9 23.73 0.59
9 10 9 24.42 0.84
-10 -10 -9 6.96 0.49
10 10 9 7.7 0.61
-11 -10 -9 10.07 0.61
11 10 9 11.02 0.65
-3 11 9 9.1 0.71
-2 11 9 1.22 0.69
1 -11 -9 12.51 1.04
-1 11 9 13.77 0.72
0 -11 -9 8.29 0.94
0 11 9 7.79 0.62
-1 -11 -9 3.25 0.82
1 11 9 4.01 0.43
-2 -11 -9 2.94 0.77
2 11 9 3.22 0.42
-3 -11 -9 10.33 1.31
3 11 9 10.86 1.04
-4 -11 -9 5.82 0.51
4 11 9 6.57 0.61
-5 -11 -9 0 4.86
-6 -11 -9 8.71 0.5
6 11 9 9.24 1.01
-7 -11 -9 9.77 0.54
7 11 9 9.54 1.06
-8 -11 -9 9.4 0.43
8 11 9 10.14 0.79
-9 -11 -9 6.29 0.52
9 11 9 5.48 0.57
-10 -11 -9 0.03 0.06
10 11 9 0.02 0.04
-2 12 9 1.47 0.53
-1 12 9 7.12 0.69
0 -12 -9 4.8 1.03
0 12 9 5.3 0.57
-1 -12 -9 8.86 0.94
1 12 9 9.92 0.66
-2 -12 -9 28.94 1.34
2 12 9 27.29 0.91
-3 -12 -9 3.03 1.16
3 12 9 2.82 0.82
-4 -12 -9 33.79 1.32
4 12 9 35.72 1.07
-5 -12 -9 3.07 0.5
5 12 9 3.03 0.85
-6 -12 -9 11.97 0.66
6 12 9 12.19 0.8
-7 -12 -9 8.81 0.47
7 12 9 9.24 0.77
-8 -12 -9 1.77 0.49
8 12 9 2 0.89
-9 -12 -9 1.76 0.4
9 12 9 2.55 0.61
-10 -12 -9 0.4 0.33
10 12 9 0.25 1.13
-1 13 9 2.14 0.46
0 13 9 0.62 0.49
1 13 9 0.29 0.23
-2 -13 -9 1.24 1
2 13 9 2.13 0.53
-3 -13 -9 0.43 4.9
3 13 9 0.48 0.6
-4 -13 -9 15.68 0.96
-5 -13 -9 5.17 0.58
5 13 9 6.67 0.97
-6 -13 -9 15.08 0.62
-7 -13 -9 5.6 0.5
7 13 9 7.04 1.04
-8 -13 -9 2.77 0.89
8 13 9 3.14 0.92
-9 -13 -9 2.86 0.6
9 13 9 3.62 0.92
1 14 9 0.04 0.38
2 14 9 0.59 0.84
-4 -14 -9 1.69 0.83
5 14 9 1.42 0.88
6 14 9 2.03 0.92
-7 -14 -9 1.52 0.89
7 14 9 1.52 0.95
-8 -14 -9 3.4 0.9
8 14 9 3.3 0.99
3 15 9 4.79 0.97
-6 -15 -9 1.31 0.77
6 15 9 1.23 0.84
-7 -15 -9 1.54 0.82
7 15 9 1.51 0.65
4 11 -10 1.88 0.55
-4 -11 10 1.73 0.44
3 11 -10 4.72 0.62
-3 -11 10 4.96 0.51
2 11 -10 11.75 0.78
-2 -11 10 11.55 0.61
1 11 -10 1.17 0.49
-1 -11 10 1.4 0.72
0 11 -10 4.12 0.58
0 -11 10 4.15 0.86
-1 11 -10 0.33 0.7
1 -11 10 0.2 0.68
-2 11 -10 0.46 0.54
2 -11 10 0.27 0.91
5 10 -10 2.16 0.55
-5 -10 10 1.5 0.37
4 10 -10 3.34 0.6
-4 -10 10 2.98 0.4
3 10 -10 0.24 0.38
-3 -10 10 0.26 0.3
2 10 -10 3.47 0.6
-2 -10 10 3.58 0.41
1 10 -10 0.4 0.53
-1 -10 10 0.45 0.62
0 10 -10 5.47 0.61
0 -10 10 4.47 0.89
-1 10 -10 6.65 0.64
1 -10 10 6.76 0.94
-2 10 -10 24.08 0.98
2 -10 10 22.22 1.31
-3 10 -10 19.59 1.32
3 -10 10 18.62 1.21
6 9 -10 2.03 0.58
-6 -9 10 2.4 0.55
5 9 -10 10.07 0.75
-5 -9 10 11.49 0.54
4 9 -10 26.4 1.05
-4 -9 10 28.05 0.66
3 9 -10 7.62 0.63
-3 -9 10 7.59 0.45
2 9 -10 22.67 0.87
-2 -9 10 22.44 0.62
1 9 -10 3.68 0.53
-1 -9 10 3.45 0.37
0 9 -10 4.21 0.51
0 -9 10 3.67 0.49
-1 9 -10 12.37 0.68
1 -9 10 12.47 0.61
-2 9 -10 3.96 0.59
2 -9 10 3.34 0.55
-3 9 -10 14.69 0.83
3 -9 10 13.27 0.8
-4 9 -10 0.81 0.52
4 -9 10 0.73 0.79
-5 9 -10 0.88 0.74
5 -9 10 0.57 0.88
6 8 -10 0.41 0.6
-6 -8 10 0.7 0.38
5 8 -10 0.47 0.53
-5 -8 10 0.5 0.36
4 8 -10 5.1 0.48
-4 -8 10 4.77 0.42
3 8 -10 0.3 0.44
-3 -8 10 0.14 0.17
2 8 -10 3.87 0.44
-2 -8 10 3.58 0.34
1 8 -10 4.79 0.44
-1 -8 10 4.86 0.35
0 8 -10 24.62 0.84
0 -8 10 24.29 0.64
-1 8 -10 18.51 0.76
1 -8 10 18.33 0.67
-2 8 -10 6.8 0.56
2 -8 10 6.48 0.56
-3 8 -10 9.26 0.58
3 -8 10 8.54 0.52
-4 8 -10 1.13 0.45
4 -8 10 1.34 0.47
-5 8 -10 2.78 0.47
5 -8 10 2.72 0.85
-6 8 -10 2.56 0.55
7 7 -10 0.49 0.76
-7 -7 10 0.63 0.51
6 7 -10 2.56 0.53
-6 -7 10 3.14 0.47
5 7 -10 0.9 0.43
-5 -7 10 0.87 0.36
4 7 -10 1.29 0.38
-4 -7 10 1.26 0.32
3 7 -10 4.04 0.44
-3 -7 10 3.73 0.32
2 7 -10 5.32 0.45
-2 -7 10 5.1 0.35
1 7 -10 0.7 0.35
-1 -7 10 0.53 0.27
0 7 -10 10.75 0.53
0 -7 10 10.19 0.42
-1 7 -10 0.26 0.36
1 -7 10 0.38 0.51
-2 7 -10 16.13 0.6
2 -7 10 14.8 0.67
-3 7 -10 6.98 0.52
3 -7 10 6.32 0.5
-4 7 -10 14.46 0.61
4 -7 10 13.37 0.49
-5 7 -10 8.68 0.8
5 -7 10 8.53 0.53
-6 7 -10 6.24 0.66
6 -7 10 5.07 0.88
-7 7 -10 4.18 0.6
7 -7 10 4.38 0.83
7 6 -10 6.53 0.94
-7 -6 10 7.3 0.46
6 6 -10 3.78 0.87
-6 -6 10 4.59 0.43
5 6 -10 15.79 0.59
-5 -6 10 16.37 0.6
4 6 -10 12.61 0.45
-4 -6 10 12.84 0.55
3 6 -10 28.29 0.66
-3 -6 10 28.03 0.59
2 6 -10 20 0.56
-2 -6 10 19.72 0.5
1 6 -10 22.16 0.66
-1 -6 10 22.45 0.49
0 6 -10 11.59 0.46
0 -6 10 11.17 0.38
-1 6 -10 9.05 0.47
1 -6 10 9.33 0.47
-2 6 -10 0.94 0.4
2 -6 10 0.97 0.41
-3 6 -10 0.45 0.37
3 -6 10 0.54 0.51
-4 6 -10 4.88 0.45
4 -6 10 4.2 0.39
-5 6 -10 5.46 0.47
5 -6 10 4.84 0.55
-6 6 -10 13.29 0.71
6 -6 10 11.45 0.67
-7 6 -10 6.53 0.67
7 -6 10 5.5 0.93
7 5 -10 0.5 0.37
-7 -5 10 0.43 0.35
6 5 -10 0.56 0.37
-6 -5 10 0.62 0.36
5 5 -10 0.69 0.36
-5 -5 10 0.64 0.35
4 5 -10 0.01 0.12
-4 -5 10 0.28 0.37
3 5 -10 10.01 0.41
-3 -5 10 9.91 0.45
2 5 -10 16.39 0.46
-2 -5 10 16.77 0.48
1 5 -10 36.95 0.52
-1 -5 10 37.07 0.58
0 5 -10 72.6 0.92
0 -5 10 71.07 0.75
-1 5 -10 28.87 0.69
1 -5 10 29.49 0.59
-2 5 -10 62.68 0.99
2 -5 10 60.28 1.08
-3 5 -10 12.32 0.43
3 -5 10 12.91 0.48
-4 5 -10 25.8 0.71
4 -5 10 24.94 0.61
-5 5 -10 14.9 0.6
5 -5 10 14.35 0.57
-6 5 -10 10.7 0.66
6 -5 10 9.31 0.57
-7 5 -10 12.52 0.81
7 -5 10 11.85 0.78
-8 5 -10 0.47 0.53
8 -5 10 0.63 0.52
7 4 -10 3.69 0.38
-7 -4 10 3.99 0.47
6 4 -10 0.23 0.37
-6 -4 10 0.19 0.36
5 4 -10 3.35 0.37
-5 -4 10 3.32 0.4
4 4 -10 2.48 0.28
-4 -4 10 2.61 0.33
3 4 -10 1.34 0.27
-3 -4 10 1.26 0.33
2 4 -10 4.39 0.27
-2 -4 10 4.38 0.32
1 4 -10 0.04 0.15
-1 -4 10 0.16 0.17
0 4 -10 8.43 0.36
0 -4 10 8.61 0.32
-1 4 -10 7.86 0.45
1 -4 10 8.83 0.37
-2 4 -10 18.66 0.57
2 -4 10 17.19 0.52
-3 4 -10 20.66 0.5
3 -4 10 21.02 0.54
-4 4 -10 77.57 1.11
4 -4 10 74.52 0.94
-5 4 -10 9.42 0.5
5 -4 10 9.68 0.54
-6 4 -10 18.74 0.65
6 -4 10 19.27 0.77
-7 4 -10 3.08 0.54
7 -4 10 3.07 0.68
-8 4 -10 14.76 0.7
8 -4 10 15.89 1.28
7 3 -10 2.96 0.37
-7 -3 10 2.7 0.44
6 3 -10 0.7 0.38
-6 -3 10 0.46 0.4
5 3 -10 10.68 0.43
-5 -3 10 10.45 0.45
4 3 -10 13.85 0.39
-4 -3 10 13.5 0.47
3 3 -10 31.35 0.54
-3 -3 10 31.02 0.7
2 3 -10 52.38 0.74
-2 -3 10 52.09 0.78
1 3 -10 0.36 0.22
-1 -3 10 0.54 0.23
0 3 -10 11.38 0.38
0 -3 10 10.52 0.33
-1 3 -10 35.08 0.59
1 -3 10 34.9 0.49
-2 3 -10 1.81 0.33
2 -3 10 1.72 0.26
-3 3 -10 0.09 0.1
3 -3 10 0.31 0.22
-4 3 -10 5.59 0.36
4 -3 10 5.34 0.35
-5 3 -10 8.4 0.46
5 -3 10 8.61 0.49
-6 3 -10 24.31 0.81
6 -3 10 23.53 0.81
-7 3 -10 3.58 0.51
7 -3 10 2.75 0.43
-8 3 -10 18.85 0.92
8 -3 10 17.61 0.79
-9 3 -10 11.02 0.77
9 -3 10 9.47 0.75
7 2 -10 0.22 0.37
-7 -2 10 0.27 0.4
6 2 -10 13.14 0.52
-6 -2 10 13.33 0.65
5 2 -10 15.24 0.43
-5 -2 10 15.3 0.57
4 2 -10 7.26 0.31
-4 -2 10 7.32 0.39
3 2 -10 27.79 0.48
-3 -2 10 27.03 0.52
2 2 -10 1.95 0.26
-2 -2 10 1.58 0.3
1 2 -10 39.91 0.71
-1 -2 10 40.13 0.58
0 2 -10 85.47 0.99
0 -2 10 84.05 0.78
-1 2 -10 111.4 1.11
1 -2 10 108.22 0.86
-2 2 -10 190.75 1.63
2 -2 10 192.08 1.14
-3 2 -10 71.82 0.93
3 -2 10 70.1 0.7
-4 2 -10 28 0.57
4 -2 10 27.72 0.61
-5 2 -10 9.1 0.45
5 -2 10 9.28 0.47
-6 2 -10 7.45 0.4
6 -2 10 7.85 0.42
-7 2 -10 0.8 0.44
7 -2 10 0.94 0.38
-8 2 -10 0.72 0.63
8 -2 10 0.66 0.41
-9 2 -10 1.52 0.71
9 -2 10 1.8 0.6
7 1 -10 3.77 0.49
-7 -1 10 3.86 0.6
6 1 -10 6.02 0.38
-6 -1 10 6.38 0.54
5 1 -10 22.55 0.54
-5 -1 10 23.12 0.66
4 1 -10 35.25 0.62
-4 -1 10 34.76 0.67
3 1 -10 0.4 0.28
-3 -1 10 0.76 0.23
2 1 -10 13.39 0.38
-2 -1 10 13.4 0.35
1 1 -10 44.33 0.63
-1 -1 10 42.92 0.51
0 1 -10 3.22 0.25
0 -1 10 3.47 0.23
-1 1 -10 17.13 0.39
1 -1 10 16.58 0.35
-2 1 -10 22.55 0.52
2 -1 10 23.76 0.4
-3 1 -10 5.3 0.33
3 -1 10 6 0.27
-4 1 -10 48.92 0.63
4 -1 10 49.04 0.67
-5 1 -10 29.16 0.65
5 -1 10 29.3 0.69
-6 1 -10 54.08 0.91
6 -1 10 51.98 0.81
-7 1 -10 33.39 0.9
7 -1 10 31.26 0.68
-8 1 -10 18.82 0.88
8 -1 10 17.55 0.57
-9 1 -10 7.3 1.02
9 -1 10 6.77 0.53
-10 1 -10 5 0.93
10 -1 10 4.83 0.66
7 0 -10 2.1 0.36
-7 0 10 2.57 0.54
6 0 -10 2.01 0.34
-6 0 10 1.84 0.52
5 0 -10 2.03 0.31
-5 0 10 2.46 0.44
4 0 -10 5.72 0.35
-4 0 10 4.7 0.4
3 0 -10 2.38 0.27
-3 0 10 2.4 0.27
2 0 -10 10.4 0.34
-2 0 10 10 0.35
1 0 -10 16.56 0.37
-1 0 10 15.88 0.43
0 0 -10 50.27 0.63
0 0 10 49.87 0.47
-1 0 -10 8.93 0.32
1 0 10 7.92 0.26
-2 0 -10 10.63 0.32
2 0 10 10.92 0.31
-3 0 -10 4.21 0.28
3 0 10 4.5 0.25
-4 0 -10 3.11 0.27
4 0 10 2.59 0.26
-5 0 -10 18.47 0.46
5 0 10 19.06 0.56
-6 0 -10 5.42 0.34
6 0 10 4.89 0.35
-7 0 -10 30.49 0.82
7 0 10 31.74 0.67
-8 0 -10 2.93 0.75
8 0 10 2.11 0.36
-9 0 -10 11.13 1.12
9 0 10 10.88 0.58
-10 0 -10 2.39 0.82
10 0 10 2.5 0.61
7 -1 -10 0.18 0.26
-7 1 10 0.38 0.38
6 -1 -10 0.42 0.29
-6 1 10 0.58 0.46
5 -1 -10 7.04 0.42
-5 1 10 7.21 0.53
4 -1 -10 10.38 0.44
-4 1 10 10.35 0.57
3 -1 -10 39.7 0.6
-3 1 10 39.62 0.75
2 -1 -10 32.58 0.51
-2 1 10 32.04 0.59
1 -1 -10 51.72 0.57
-1 1 10 48.92 0.67
0 -1 -10 58.46 0.61
0 1 10 59.18 0.62
-1 -1 -10 40.59 0.57
1 1 10 38.49 0.46
-2 -1 -10 55 0.59
2 1 10 55.38 0.54
-3 -1 -10 12.62 0.32
3 1 10 12 0.35
-4 -1 -10 24.24 0.4
4 1 10 24.29 0.4
-5 -1 -10 4.55 0.27
5 1 10 4.9 0.32
-6 -1 -10 6.86 0.3
6 1 10 7.2 0.37
-7 -1 -10 0.3 0.26
7 1 10 0.35 0.24
-8 -1 -10 3.43 0.44
8 1 10 3.46 0.37
-9 -1 -10 3.22 0.58
9 1 10 3.6 0.46
-10 -1 -10 8.36 0.71
10 1 10 9.07 0.62
7 -2 -10 4.08 0.44
-7 2 10 4.62 0.87
6 -2 -10 0.5 0.36
-6 2 10 1.11 0.71
5 -2 -10 10.86 0.54
-5 2 10 11.3 0.52
4 -2 -10 0.06 0.09
-4 2 10 0.12 0.15
3 -2 -10 9.11 0.39
-3 2 10 8.78 0.41
2 -2 -10 5.85 0.28
-2 2 10 5.87 0.35
1 -2 -10 3.2 0.24
-1 2 10 2.96 0.28
0 -2 -10 11.41 0.36
0 2 10 11.26 0.47
-1 -2 -10 49.67 0.57
1 2 10 49.16 0.55
-2 -2 -10 21.93 0.4
2 2 10 22.68 0.39
-3 -2 -10 134.98 0.82
3 2 10 133.62 0.72
-4 -2 -10 54.41 0.57
4 2 10 53.6 0.52
-5 -2 -10 130.5 0.97
5 2 10 127.82 1.11
-6 -2 -10 46.7 0.59
6 2 10 45.26 0.72
-7 -2 -10 37.57 0.67
7 2 10 36.39 0.7
-8 -2 -10 4.66 0.46
8 2 10 5.05 0.42
-9 -2 -10 11.45 0.75
9 2 10 11.9 0.58
10 2 10 7.69 0.52
-11 -2 -10 6.16 0.66
11 2 10 6.21 0.49
6 -3 -10 0.67 0.45
-6 3 10 0.4 0.46
5 -3 -10 3.85 0.46
-5 3 10 3.71 0.45
4 -3 -10 0.97 0.35
-4 3 10 1.09 0.32
3 -3 -10 33.64 0.7
-3 3 10 32.96 0.75
2 -3 -10 13.71 0.37
-2 3 10 14.33 0.45
1 -3 -10 80.4 0.74
-1 3 10 79.58 0.88
0 -3 -10 31.92 0.54
0 3 10 31.09 0.61
-1 -3 -10 8.23 0.28
1 3 10 8.61 0.3
-2 -3 -10 18.16 0.42
2 3 10 17.89 0.38
-3 -3 -10 20.33 0.37
3 3 10 19.61 0.34
-4 -3 -10 8.2 0.27
4 3 10 8.39 0.28
-5 -3 -10 14.27 0.42
5 3 10 14.69 0.33
-6 -3 -10 8.15 0.3
6 3 10 9.45 0.36
-7 -3 -10 43.54 0.65
7 3 10 46.61 0.76
-8 -3 -10 27.32 0.7
8 3 10 27.13 0.73
-9 -3 -10 11.32 0.75
9 3 10 11.96 0.58
-10 -3 -10 11.38 0.77
10 3 10 10.86 0.56
-11 -3 -10 3.52 0.59
11 3 10 3.52 0.45
6 -4 -10 1.29 0.54
-6 4 10 1.27 0.49
5 -4 -10 0.26 0.16
-5 4 10 0.67 0.46
4 -4 -10 17.75 0.64
-4 4 10 16.95 0.55
3 -4 -10 6.89 0.43
-3 4 10 7.33 0.46
2 -4 -10 5.44 0.34
-2 4 10 4.98 0.35
1 -4 -10 16.23 0.45
-1 4 10 17.43 0.48
0 -4 -10 1.02 0.24
0 4 10 1.1 0.28
-1 -4 -10 50.97 0.67
1 4 10 53.65 0.62
-2 -4 -10 20.63 0.45
2 4 10 19.19 0.39
-3 -4 -10 40.92 0.54
3 4 10 41.67 0.5
-4 -4 -10 57.37 0.63
4 4 10 53.86 0.62
-5 -4 -10 1.8 0.24
5 4 10 1.89 0.21
-6 -4 -10 6.33 0.3
6 4 10 6.66 0.36
-7 -4 -10 1.21 0.29
7 4 10 1.09 0.3
-8 -4 -10 20.26 0.62
8 4 10 20.79 0.73
-9 -4 -10 5.78 0.62
9 4 10 6.72 0.55
-10 -4 -10 6.42 0.67
10 4 10 6.72 0.44
-11 -4 -10 12.89 0.78
11 4 10 14.78 0.54
6 -5 -10 0.12 1.47
-6 5 10 0.2 0.39
5 -5 -10 2.09 0.83
-5 5 10 1.62 0.77
4 -5 -10 0.07 0.41
-4 5 10 0.11 0.38
3 -5 -10 9.09 0.47
-3 5 10 9.11 0.51
2 -5 -10 3.67 0.37
-2 5 10 3.79 0.4
1 -5 -10 9.8 0.45
-1 5 10 9.61 0.41
0 -5 -10 41.94 0.66
0 5 10 40.85 0.73
-1 -5 -10 97.62 0.92
1 5 10 98.15 1.06
-2 -5 -10 52.36 0.67
2 5 10 52.2 0.68
-3 -5 -10 44.18 0.67
3 5 10 43.59 0.62
-4 -5 -10 68.83 0.85
4 5 10 68.96 0.77
-5 -5 -10 24.51 0.48
5 5 10 26.79 0.53
-6 -5 -10 76.18 0.73
6 5 10 77.62 0.98
-7 -5 -10 2.89 0.28
7 5 10 3.09 0.41
-8 -5 -10 21.24 0.64
8 5 10 21.4 0.57
-9 -5 -10 2.84 0.46
9 5 10 2.78 0.41
-10 -5 -10 0.05 0.14
10 5 10 0.12 0.3
-11 -5 -10 4.53 0.61
11 5 10 5.25 0.47
5 -6 -10 9.01 0.99
-5 6 10 8.66 0.72
4 -6 -10 7.57 0.78
-4 6 10 7.45 0.61
3 -6 -10 15.32 0.56
-3 6 10 15.85 0.93
2 -6 -10 0.07 0.22
-2 6 10 0.28 0.52
1 -6 -10 32.54 0.7
-1 6 10 33.76 0.66
0 -6 -10 6.29 0.4
0 6 10 6 0.32
-1 -6 -10 36.47 0.69
1 6 10 36.7 0.62
-2 -6 -10 17.71 0.54
2 6 10 18.18 0.59
-3 -6 -10 1.76 0.39
3 6 10 1.84 0.33
-4 -6 -10 9.85 0.38
4 6 10 9.7 0.41
-5 -6 -10 13.66 0.36
5 6 10 12.76 0.46
-6 -6 -10 50.77 0.62
6 6 10 49.8 0.71
-7 -6 -10 13.03 0.38
7 6 10 12.22 0.5
-8 -6 -10 42.71 0.79
8 6 10 43.61 0.99
-9 -6 -10 18.8 0.64
9 6 10 20.32 0.65
-10 -6 -10 9.2 0.74
10 6 10 10.08 0.64
-11 -6 -10 7.15 0.68
11 6 10 7.59 0.51
5 -7 -10 3.16 0.81
-5 7 10 3.24 0.85
4 -7 -10 0.28 0.94
-4 7 10 0.47 0.42
3 -7 -10 2.77 0.48
-3 7 10 2.94 0.5
2 -7 -10 5.21 0.47
-2 7 10 4.83 0.52
1 -7 -10 36.45 1.01
-1 7 10 35.85 0.7
0 -7 -10 15.67 0.63
0 7 10 14.63 0.44
-1 -7 -10 32.5 1
1 7 10 33.61 0.69
-2 -7 -10 20.51 0.99
2 7 10 22.22 0.67
-3 -7 -10 10.81 0.51
3 7 10 12.15 0.53
-4 -7 -10 26.04 0.54
4 7 10 26.53 0.61
-5 -7 -10 0.73 0.24
5 7 10 0.82 0.29
-6 -7 -10 32.28 0.56
6 7 10 32.93 0.79
-7 -7 -10 0.46 0.23
7 7 10 0.37 0.35
-8 -7 -10 18.72 0.53
8 7 10 20.33 0.91
-9 -7 -10 0.89 0.33
9 7 10 1.24 0.54
-10 -7 -10 2.82 0.61
10 7 10 3.23 0.53
-11 -7 -10 1.84 0.47
11 7 10 1.81 0.42
-4 8 10 1.76 0.52
3 -8 -10 1.16 0.96
-3 8 10 1.58 0.49
2 -8 -10 1.82 0.61
-2 8 10 2.15 0.4
1 -8 -10 0.85 0.68
-1 8 10 1.18 0.29
0 -8 -10 1.34 0.44
0 8 10 1.85 0.32
-1 -8 -10 5.16 0.47
1 8 10 6.07 0.41
-2 -8 -10 9.65 0.83
2 8 10 9.27 0.52
-3 -8 -10 12.31 0.5
3 8 10 13.06 0.57
-4 -8 -10 28 0.6
4 8 10 28.63 0.77
-5 -8 -10 21.55 0.45
5 8 10 21.57 0.68
-6 -8 -10 31.1 0.53
6 8 10 30.34 1.4
-7 -8 -10 13.1 0.4
7 8 10 14.06 1.12
-8 -8 -10 7.77 0.41
8 8 10 7.26 0.66
-9 -8 -10 7.43 0.46
9 8 10 8.39 0.72
-10 -8 -10 1.13 0.56
10 8 10 1.15 0.4
-11 -8 -10 0.43 0.58
11 8 10 0.5 1.05
-4 9 10 5.4 0.62
-3 9 10 0.84 0.5
2 -9 -10 6.85 0.67
-2 9 10 7.72 0.5
1 -9 -10 0.76 1.09
-1 9 10 0.86 0.38
0 -9 -10 3.58 0.5
0 9 10 4.55 0.42
-1 -9 -10 2.19 0.57
1 9 10 2.34 0.33
-2 -9 -10 3.53 0.51
2 9 10 3.87 0.38
-3 -9 -10 11.39 0.49
3 9 10 11.55 0.57
-4 -9 -10 6.76 0.36
4 9 10 6.81 0.48
-5 -9 -10 21.01 0.5
5 9 10 20.84 0.85
-6 -9 -10 10.71 0.38
6 9 10 11.33 1.03
-7 -9 -10 14.9 0.42
7 9 10 14.88 1.16
-8 -9 -10 20.19 0.55
8 9 10 22 0.96
-9 -9 -10 8.45 0.55
9 9 10 9.38 0.77
-10 -9 -10 16.96 0.63
10 9 10 17.73 0.76
-11 -9 -10 0.53 0.63
11 9 10 0.21 0.43
-2 10 10 13.31 0.65
1 -10 -10 4.22 0.65
-1 10 10 4.4 0.44
0 -10 -10 13.84 1.09
0 10 10 13.95 0.69
-1 -10 -10 17.65 0.89
1 10 10 17.21 0.73
-2 -10 -10 13.56 0.71
2 10 10 14.3 0.64
-3 -10 -10 40.28 0.79
3 10 10 40.35 1.17
-4 -10 -10 6.78 0.39
4 10 10 6.76 0.64
-5 -10 -10 13.51 0.44
5 10 10 14.08 0.77
-6 -10 -10 4.93 0.35
6 10 10 4.67 0.89
-7 -10 -10 1.14 0.31
7 10 10 1.32 0.76
-8 -10 -10 0.13 0.51
8 10 10 0.46 0.63
-9 -10 -10 2.68 0.37
9 10 10 2.52 0.62
-10 -10 -10 0.27 0.3
10 10 10 0.29 0.56
-11 -10 -10 2.65 0.48
11 10 10 3.28 0.66
-2 11 10 1.04 0.69
-1 11 10 0.79 0.55
0 -11 -10 0.89 1.07
0 11 10 1.33 0.42
-1 -11 -10 4.95 0.73
1 11 10 5.2 0.46
-2 -11 -10 1.17 0.76
2 11 10 1.26 0.6
-3 -11 -10 26.83 1.3
3 11 10 24.71 0.97
-4 -11 -10 3.35 0.5
4 11 10 4.44 0.59
-5 -11 -10 24.24 0.75
-6 -11 -10 11.44 0.56
6 11 10 13.66 1.14
-7 -11 -10 13.71 0.6
7 11 10 15.15 1.23
-8 -11 -10 9.81 0.47
8 11 10 10.46 0.81
-9 -11 -10 0.1 0.12
9 11 10 0.32 0.36
-10 -11 -10 3.29 0.38
10 11 10 3.59 0.92
-1 12 10 0.83 0.66
0 12 10 2.03 0.58
-1 -12 -10 0.02 0.27
1 12 10 0.66 0.43
-2 -12 -10 0.4 1.63
2 12 10 0.56 0.6
-3 -12 -10 2.88 0.57
3 12 10 3.77 0.51
-4 -12 -10 1.79 0.48
4 12 10 2.38 0.44
-5 -12 -10 13.52 0.58
5 12 10 13.9 1.17
-6 -12 -10 0.64 0.48
6 12 10 0.76 0.93
-7 -12 -10 9.06 0.48
7 12 10 9.67 0.78
-8 -12 -10 1.46 0.48
8 12 10 1.12 0.57
-9 -12 -10 5.99 0.55
9 12 10 7.27 1.06
-10 -12 -10 5.44 0.54
10 12 10 6.41 0.73
0 13 10 6.37 0.66
1 13 10 10.91 0.78
2 13 10 1.7 0.78
-3 -13 -10 5.29 0.93
3 13 10 5.57 0.75
-4 -13 -10 5.58 0.91
-5 -13 -10 0.21 0.83
-6 -13 -10 1.91 0.59
6 13 10 2.21 0.87
-7 -13 -10 4.62 0.67
7 13 10 4.09 0.93
-8 -13 -10 0.71 0.68
8 13 10 0.85 0.76
-9 -13 -10 4.03 0.44
9 13 10 4.62 0.96
2 14 10 3.38 0.8
-3 -14 -10 4.19 0.88
3 14 10 4.99 0.88
-4 -14 -10 3.15 0.84
-5 -14 -10 7.79 0.99
-6 -14 -10 3.81 0.62
6 14 10 3.83 0.95
-7 -14 -10 6.43 0.99
7 14 10 7.16 1.03
-8 -14 -10 2.65 0.94
8 14 10 2.78 0.92
-6 -15 -10 1.33 0.82
6 15 10 1.55 0.92
3 10 -11 5.74 0.87
-3 -10 11 5.47 0.44
2 10 -11 1.14 0.65
-2 -10 11 0.47 0.36
1 10 -11 5.39 0.87
-1 -10 11 5.01 0.92
0 10 -11 3.46 0.77
0 -10 11 2.56 0.79
-1 10 -11 6.48 0.64
1 -10 11 7.01 0.95
-2 10 -11 10.18 0.71
2 -10 11 10.2 0.72
4 9 -11 2.3 0.82
-4 -9 11 2.63 0.47
3 9 -11 2.29 0.58
-3 -9 11 2.33 0.4
2 9 -11 11.5 1.07
-2 -9 11 12.71 0.55
1 9 -11 26.51 0.89
-1 -9 11 26.47 0.73
0 9 -11 3.13 0.68
0 -9 11 3.5 0.54
-1 9 -11 10.79 0.75
1 -9 11 10.92 1.08
-2 9 -11 1.67 0.65
2 -9 11 1.5 0.55
-3 9 -11 0.41 0.57
3 -9 11 0.56 0.45
-4 9 -11 7.55 0.66
4 -9 11 6.92 0.91
5 8 -11 7.32 0.65
-5 -8 11 7.15 0.47
4 8 -11 2.62 0.44
-4 -8 11 2.65 0.41
3 8 -11 7.17 0.51
-3 -8 11 6.72 0.45
2 8 -11 5.07 0.48
-2 -8 11 5.15 0.38
1 8 -11 5.81 0.54
-1 -8 11 5.58 0.4
0 8 -11 12.03 0.75
0 -8 11 12.76 0.61
-1 8 -11 3.69 0.69
1 -8 11 3.3 0.49
-2 8 -11 0.38 0.35
2 -8 11 0.51 0.4
-3 8 -11 24.51 0.81
3 -8 11 23.37 0.72
-4 8 -11 14.32 0.82
4 -8 11 13.02 0.63
-5 8 -11 4.73 0.49
5 -8 11 4.6 0.59
6 7 -11 1.35 0.49
-6 -7 11 1.3 0.44
5 7 -11 0.5 0.52
-5 -7 11 0.49 0.35
4 7 -11 6.87 0.59
-4 -7 11 7.86 0.57
3 7 -11 20.05 0.69
-3 -7 11 20.97 0.67
2 7 -11 7.83 0.51
-2 -7 11 8.02 0.43
1 7 -11 16.56 0.73
-1 -7 11 16.74 0.47
0 7 -11 5.83 0.54
0 -7 11 4.87 0.37
-1 7 -11 6.24 0.46
1 -7 11 5.53 0.5
-2 7 -11 14.54 0.6
2 -7 11 14.85 0.6
-3 7 -11 9.02 0.58
3 -7 11 8.44 0.52
-4 7 -11 14.65 0.68
4 -7 11 14.02 0.56
-5 7 -11 3.7 0.6
5 -7 11 3.25 0.59
-6 7 -11 0.16 0.56
6 -7 11 0.33 0.56
6 6 -11 2.45 0.44
-6 -6 11 2.62 0.39
5 6 -11 0.28 0.46
-5 -6 11 0.35 0.37
4 6 -11 0.27 0.46
-4 -6 11 0.43 0.43
3 6 -11 0.74 0.34
-3 -6 11 0.79 0.34
2 6 -11 0.58 0.34
-2 -6 11 0.17 0.31
1 6 -11 6.58 0.54
-1 -6 11 6.6 0.37
0 6 -11 2.58 0.46
0 -6 11 2.87 0.3
-1 6 -11 23.39 0.68
1 -6 11 22.59 0.61
-2 6 -11 10.95 0.53
2 -6 11 11.45 0.62
-3 6 -11 10.9 0.6
3 -6 11 10.33 0.47
-4 6 -11 8.34 0.56
4 -6 11 8.77 0.48
-5 6 -11 2.09 0.43
5 -6 11 1.92 0.38
-6 6 -11 2.15 0.57
6 -6 11 2.26 0.55
-7 6 -11 1.13 0.51
7 -6 11 0.89 0.49
6 5 -11 3.16 0.57
-6 -5 11 3.19 0.39
5 5 -11 4.34 0.49
-5 -5 11 4.87 0.63
4 5 -11 4.04 0.4
-4 -5 11 3.97 0.42
3 5 -11 3.47 0.41
-3 -5 11 3.63 0.4
2 5 -11 2.29 0.29
-2 -5 11 2.25 0.35
1 5 -11 1.79 0.31
-1 -5 11 1.55 0.28
0 5 -11 3.92 0.4
0 -5 11 3.62 0.29
-1 5 -11 5.48 0.42
1 -5 11 5.23 0.34
-2 5 -11 8.49 0.47
2 -5 11 7.73 0.47
-3 5 -11 22.19 0.65
3 -5 11 21.99 0.59
-4 5 -11 6.73 0.48
4 -5 11 5.9 0.39
-5 5 -11 22.76 0.72
5 -5 11 21.36 0.8
-6 5 -11 2.3 0.53
6 -5 11 2.19 0.46
-7 5 -11 14.26 0.84
7 -5 11 13.99 0.83
6 4 -11 1.99 0.36
-6 -4 11 2.03 0.38
5 4 -11 8.3 0.5
-5 -4 11 8.5 0.49
4 4 -11 16.18 0.55
-4 -4 11 16.48 0.59
3 4 -11 23.78 0.55
-3 -4 11 23.73 0.67
2 4 -11 27.32 0.56
-2 -4 11 27.54 0.64
1 4 -11 36.78 0.62
-1 -4 11 35.74 0.62
0 4 -11 17.2 0.46
0 -4 11 17.89 0.43
-1 4 -11 44.08 0.92
1 -4 11 44.45 0.67
-2 4 -11 20.58 0.62
2 -4 11 19.99 0.53
-3 4 -11 22.72 0.58
3 -4 11 21.83 0.53
-4 4 -11 13.58 0.56
4 -4 11 12.94 0.46
-5 4 -11 1.53 0.36
5 -4 11 1.24 0.36
-6 4 -11 0.54 0.35
6 -4 11 0.3 0.42
-7 4 -11 14.63 0.94
7 -4 11 13.88 0.57
-8 4 -11 2.8 0.57
8 -4 11 2.37 0.46
7 3 -11 0.01 0.22
-7 -3 11 0.21 1.56
6 3 -11 1.01 0.43
-6 -3 11 1.02 0.42
5 3 -11 1.92 0.56
-5 -3 11 1.97 0.37
4 3 -11 1.98 0.3
-4 -3 11 1.89 0.29
3 3 -11 9.33 0.4
-3 -3 11 9.84 0.49
2 3 -11 11.47 0.49
-2 -3 11 10.86 0.49
1 3 -11 1.82 0.32
-1 -3 11 2.02 0.29
0 3 -11 46.1 0.8
0 -3 11 45.85 0.6
-1 3 -11 40.07 0.74
1 -3 11 40.32 0.61
-2 3 -11 14.2 0.57
2 -3 11 14.22 0.45
-3 3 -11 31.37 0.8
3 -3 11 31.42 0.54
-4 3 -11 0.72 0.29
4 -3 11 1.13 0.29
-5 3 -11 20.24 0.64
5 -3 11 20.91 0.57
-6 3 -11 14.56 0.59
6 -3 11 13.6 0.55
-7 3 -11 12.7 0.68
7 -3 11 11.91 0.59
-8 3 -11 13.52 0.81
8 -3 11 12.27 0.66
-9 3 -11 3.18 0.86
9 -3 11 2.53 0.59
7 2 -11 1.09 0.38
-7 -2 11 1.1 0.71
6 2 -11 4.78 0.46
-6 -2 11 4.27 0.84
5 2 -11 2.29 0.38
-5 -2 11 2.23 0.39
4 2 -11 1.02 0.3
-4 -2 11 0.76 0.33
3 2 -11 11.66 0.47
-3 -2 11 10.64 0.37
2 2 -11 12.04 0.5
-2 -2 11 12.2 0.45
1 2 -11 8.26 0.38
-1 -2 11 8.2 0.35
0 2 -11 2.88 0.32
0 -2 11 2.59 0.24
-1 2 -11 14.13 0.57
1 -2 11 14.09 0.36
-2 2 -11 4.35 0.49
2 -2 11 5.25 0.3
-3 2 -11 16.23 0.74
3 -2 11 16.17 0.4
-4 2 -11 14.76 0.6
4 -2 11 14.2 0.4
-5 2 -11 63.71 1.41
5 -2 11 61.24 0.88
-6 2 -11 13.51 0.62
6 -2 11 12.48 0.5
-7 2 -11 7.53 0.67
7 -2 11 7.53 0.51
-8 2 -11 7.82 1
8 -2 11 8.18 0.55
-9 2 -11 7.32 0.98
9 -2 11 8.05 0.58
7 1 -11 1.3 0.37
-7 -1 11 0.98 0.52
6 1 -11 3.25 0.42
-6 -1 11 3.24 0.46
5 1 -11 0.61 0.37
-5 -1 11 0.58 0.45
4 1 -11 24.07 0.55
-4 -1 11 23.8 0.66
3 1 -11 14.44 0.44
-3 -1 11 14.24 0.43
2 1 -11 71.85 1.02
-2 -1 11 71.46 0.89
1 1 -11 74.16 1
-1 -1 11 75.11 0.79
0 1 -11 11.84 0.42
0 -1 11 10.86 0.3
-1 1 -11 25.54 0.49
1 -1 11 25.95 0.44
-2 1 -11 21.45 0.55
2 -1 11 19.98 0.4
-3 1 -11 9.57 0.48
3 -1 11 9.93 0.38
-4 1 -11 5.59 0.37
4 -1 11 5.42 0.31
-5 1 -11 0.23 0.5
5 -1 11 0.04 0.06
-6 1 -11 5.84 0.49
6 -1 11 6.48 0.4
-7 1 -11 4.43 0.47
7 -1 11 4.09 0.39
-8 1 -11 7.09 0.97
8 -1 11 7.43 0.47
-9 1 -11 7.42 1
9 -1 11 5.98 0.67
-10 1 -11 11.86 1.12
10 -1 11 11.66 0.78
6 0 -11 0.9 0.46
-6 0 11 0.84 0.53
5 0 -11 4.01 0.36
-5 0 11 4.03 0.49
4 0 -11 6.24 0.37
-4 0 11 5.88 0.89
3 0 -11 1.44 0.28
-3 0 11 1.49 0.34
2 0 -11 6.61 0.32
-2 0 11 6.51 0.41
1 0 -11 1.26 0.26
-1 0 11 0.86 0.28
0 0 -11 12.37 0.38
0 0 11 12.56 0.31
-1 0 -11 70.82 0.85
1 0 11 69.38 0.61
-2 0 -11 83.3 0.87
2 0 11 81.17 0.76
-3 0 -11 146.84 1.15
3 0 11 144.3 1.11
-4 0 -11 87.39 0.92
4 0 11 84.94 0.84
-5 0 -11 27.35 0.64
5 0 11 27.02 0.57
-6 0 -11 32.25 0.84
6 0 11 31.38 0.67
-7 0 -11 1.54 0.41
7 0 11 2.28 0.35
-8 0 -11 8.58 0.57
8 0 11 8.17 0.46
-9 0 -11 0.66 0.67
9 0 11 0.62 0.44
-10 0 -11 4.42 0.87
10 0 11 4.1 0.53
6 -1 -11 4.97 0.41
-6 1 11 5.17 0.89
5 -1 -11 0.73 0.32
-5 1 11 0.61 0.38
4 -1 -11 25.68 0.58
-4 1 11 26.41 0.82
3 -1 -11 10.52 0.39
-3 1 11 11.03 0.49
2 -1 -11 8.88 0.35
-2 1 11 8.79 0.39
1 -1 -11 4.58 0.3
-1 1 11 4.45 0.41
0 -1 -11 9.21 0.32
0 1 11 8.84 0.4
-1 -1 -11 0.31 0.2
1 1 11 0.18 0.17
-2 -1 -11 8.95 0.31
2 1 11 8.76 0.28
-3 -1 -11 7.13 0.29
3 1 11 8.02 0.28
-4 -1 -11 11 0.35
4 1 11 11 0.31
-5 -1 -11 4.98 0.3
5 1 11 5.29 0.33
-6 -1 -11 27.03 0.5
6 1 11 26.36 0.62
-7 -1 -11 8.92 0.47
7 1 11 8.02 0.43
-8 -1 -11 28.34 0.83
8 1 11 26.96 0.67
-9 -1 -11 6.67 0.68
9 1 11 6.63 0.52
-10 -1 -11 10.48 0.75
10 1 11 10.31 0.54
6 -2 -11 2.66 0.48
-6 2 11 2.6 0.78
5 -2 -11 2.74 0.34
-5 2 11 2.74 0.85
4 -2 -11 2.56 0.33
-4 2 11 2.76 0.54
3 -2 -11 5.57 0.33
-3 2 11 4.78 0.58
2 -2 -11 4.7 0.3
-2 2 11 4.88 0.44
1 -2 -11 8.59 0.34
-1 2 11 7.91 0.42
0 -2 -11 12.43 0.38
0 2 11 11.75 0.45
-1 -2 -11 12.49 0.39
1 2 11 11.82 0.33
-2 -2 -11 4.96 0.27
2 2 11 5.32 0.23
-3 -2 -11 3.22 0.24
3 2 11 2.82 0.19
-4 -2 -11 3.76 0.25
4 2 11 3.95 0.24
-5 -2 -11 2.28 0.26
5 2 11 2.37 0.24
-6 -2 -11 6.4 0.31
6 2 11 6 0.37
-7 -2 -11 13.73 0.47
7 2 11 13.21 0.5
-8 -2 -11 13.78 0.63
8 2 11 14.45 0.6
-9 -2 -11 11.18 1.08
9 2 11 11.64 0.59
-10 -2 -11 6.98 0.68
10 2 11 7.86 0.59
6 -3 -11 0.6 0.34
-6 3 11 0.69 0.65
5 -3 -11 1.94 0.37
-5 3 11 1.88 0.55
4 -3 -11 4.73 0.38
-4 3 11 4.59 0.49
3 -3 -11 13.57 0.42
-3 3 11 13.86 0.56
2 -3 -11 22.31 0.46
-2 3 11 22.62 0.56
1 -3 -11 22.44 0.47
-1 3 11 22.04 0.53
0 -3 -11 66.76 0.8
0 3 11 66.48 0.9
-1 -3 -11 41.17 0.62
1 3 11 41.34 0.62
-2 -3 -11 85.87 0.84
2 3 11 84.49 0.78
-3 -3 -11 51.1 0.56
3 3 11 48.29 0.61
-4 -3 -11 23.43 0.43
4 3 11 23.35 0.43
-5 -3 -11 30.33 0.58
5 3 11 29.07 0.45
-6 -3 -11 4.86 0.28
6 3 11 5.62 0.33
-7 -3 -11 14.33 0.44
7 3 11 14.68 0.51
-8 -3 -11 2.18 0.33
8 3 11 2.17 0.35
-9 -3 -11 1.07 0.54
9 3 11 0.89 0.43
-10 -3 -11 4.08 0.62
10 3 11 4.43 0.47
-11 -3 -11 6.74 0.93
11 3 11 6.92 0.5
5 -4 -11 6.41 0.48
-5 4 11 5.55 0.93
4 -4 -11 13.12 0.48
-4 4 11 12.46 0.85
3 -4 -11 1.46 0.31
-3 4 11 1.35 0.37
2 -4 -11 14.19 0.43
-2 4 11 13.9 0.49
1 -4 -11 2.55 0.33
-1 4 11 2.55 0.32
0 -4 -11 3.68 0.31
0 4 11 3.96 0.35
-1 -4 -11 3.66 0.31
1 4 11 4.15 0.34
-2 -4 -11 1 0.26
2 4 11 0.76 0.24
-3 -4 -11 17.81 0.42
3 4 11 18.7 0.38
-4 -4 -11 18.49 0.4
4 4 11 19.21 0.43
-5 -4 -11 79.5 0.85
5 4 11 77.66 0.8
-6 -4 -11 21.84 0.49
6 4 11 21.4 0.54
-7 -4 -11 87.55 1.04
7 4 11 82.78 1.13
-8 -4 -11 6.55 0.54
8 4 11 6.97 0.53
-9 -4 -11 12.49 0.77
9 4 11 13.14 0.52
-10 -4 -11 8.8 0.7
10 4 11 9.65 0.54
-11 -4 -11 1.41 0.53
11 4 11 1.69 0.51
5 -5 -11 1.2 0.43
-5 5 11 0.82 0.55
4 -5 -11 0.64 0.36
-4 5 11 0.39 0.58
3 -5 -11 0.44 0.28
-3 5 11 0.27 0.44
2 -5 -11 19.01 0.53
-2 5 11 19.3 0.64
1 -5 -11 2.8 0.36
-1 5 11 2.59 0.32
0 -5 -11 68.47 0.86
0 5 11 67.73 1
-1 -5 -11 15.94 0.46
1 5 11 15.05 0.5
-2 -5 -11 8.47 0.37
2 5 11 8.75 0.4
-3 -5 -11 4.07 0.28
3 5 11 3.9 0.33
-4 -5 -11 13.02 0.41
4 5 11 13.49 0.47
-5 -5 -11 3.05 0.33
5 5 11 3.16 0.3
-6 -5 -11 1.45 0.26
6 5 11 1.66 0.29
-7 -5 -11 12.41 0.43
7 5 11 13.81 0.61
-8 -5 -11 9.22 0.5
8 5 11 11.12 0.53
-9 -5 -11 16.07 0.73
9 5 11 16.72 0.62
-10 -5 -11 1.79 0.84
10 5 11 1.7 0.47
-11 -5 -11 3.84 0.86
11 5 11 3.14 0.44
5 -6 -11 2.09 0.43
-5 6 11 1.88 0.54
4 -6 -11 1.51 0.46
-4 6 11 1.6 0.55
3 -6 -11 16.71 0.59
-3 6 11 16.71 0.76
2 -6 -11 13.21 0.48
-2 6 11 13.58 0.58
1 -6 -11 5.29 0.47
-1 6 11 5.21 0.38
0 -6 -11 8.4 0.46
0 6 11 8.66 0.37
-1 -6 -11 0.53 0.3
1 6 11 1.05 0.29
-2 -6 -11 17.2 0.53
2 6 11 18.87 0.64
-3 -6 -11 36.56 0.67
3 6 11 35.79 0.82
-4 -6 -11 6.47 0.39
4 6 11 7.2 0.46
-5 -6 -11 74.3 0.8
5 6 11 70.35 0.95
-6 -6 -11 1.98 0.27
6 6 11 2.31 0.39
-7 -6 -11 8.2 0.37
7 6 11 8.44 0.46
-8 -6 -11 13.81 0.51
8 6 11 14.07 0.66
-9 -6 -11 1.22 0.39
9 6 11 1.1 0.57
-10 -6 -11 1.01 0.57
10 6 11 1.12 0.47
-11 -6 -11 3.56 0.86
11 6 11 4.45 0.64
4 -7 -11 1.01 0.51
-4 7 11 1.33 0.79
3 -7 -11 1.57 0.47
-3 7 11 1.84 0.53
2 -7 -11 7.23 0.46
-2 7 11 7.33 0.6
1 -7 -11 1.1 0.42
-1 7 11 1.07 0.35
0 -7 -11 4.65 0.48
0 7 11 4.55 0.37
-1 -7 -11 11.22 0.58
1 7 11 11.85 0.57
-2 -7 -11 58.94 1.05
2 7 11 57.77 1.06
-3 -7 -11 25.98 0.71
3 7 11 25.27 0.74
-4 -7 -11 37.92 0.73
4 7 11 38.43 0.75
-5 -7 -11 37.56 0.58
5 7 11 37.54 0.73
-6 -7 -11 11.83 0.41
6 7 11 11.6 0.69
-7 -7 -11 41.25 0.62
7 7 11 42.85 1.19
-8 -7 -11 5.2 0.37
8 7 11 4.42 0.62
-9 -7 -11 16.35 0.63
9 7 11 16.1 0.87
-10 -7 -11 2.76 0.57
10 7 11 2.49 0.63
-11 -7 -11 3.67 0.87
11 7 11 4.22 0.53
4 -8 -11 3.73 0.83
-4 8 11 3.39 0.46
3 -8 -11 9.49 1.06
-3 8 11 9.82 1.07
2 -8 -11 1.98 0.5
-2 8 11 2.29 0.43
1 -8 -11 4.52 0.6
-1 8 11 4.89 0.4
0 -8 -11 4.76 0.65
0 8 11 4.98 0.44
-1 -8 -11 16.26 0.67
1 8 11 16.53 0.67
-2 -8 -11 15.33 1
2 8 11 15.6 0.78
-3 -8 -11 23.08 0.7
3 8 11 22.9 0.73
-4 -8 -11 3.4 0.38
4 8 11 3.86 0.53
-5 -8 -11 1.16 0.27
5 8 11 1.3 0.46
-6 -8 -11 4.17 0.31
6 8 11 3.9 0.56
-7 -8 -11 9.99 0.45
7 8 11 10.62 1.06
-8 -8 -11 6.6 0.41
8 8 11 6.47 0.66
-9 -8 -11 20.96 0.69
9 8 11 21.24 0.96
-10 -8 -11 4.67 0.96
10 8 11 4.87 0.69
-11 -8 -11 5.82 0.65
11 8 11 6.92 0.73
3 -9 -11 0.18 0.66
-3 9 11 0.24 0.76
2 -9 -11 0.86 0.76
-2 9 11 1.05 0.67
1 -9 -11 1.11 0.61
-1 9 11 0.94 0.38
0 -9 -11 11.68 0.73
0 9 11 11.25 0.55
-1 -9 -11 2.66 0.6
1 9 11 2.78 0.35
-2 -9 -11 20.87 0.84
2 9 11 20.73 0.74
-3 -9 -11 7.74 0.52
3 9 11 9.06 0.55
-4 -9 -11 12.7 0.48
4 9 11 12.82 0.61
-5 -9 -11 4.41 0.34
5 9 11 5.46 0.5
-6 -9 -11 3.27 0.33
6 9 11 3.24 0.8
-7 -9 -11 2.57 0.3
7 9 11 2.4 0.8
-8 -9 -11 0.25 0.39
8 9 11 0.37 0.75
-9 -9 -11 5.69 0.45
9 9 11 5.5 0.7
-10 -9 -11 0.47 0.43
10 9 11 0.3 0.43
2 -10 -11 1.91 0.83
-2 10 11 2.3 0.54
1 -10 -11 0.98 0.9
-1 10 11 0.72 0.38
0 -10 -11 2.85 0.86
0 10 11 3.72 0.44
-1 -10 -11 1.4 0.68
1 10 11 0.89 0.4
-2 -10 -11 6 0.62
2 10 11 6.46 0.64
-3 -10 -11 0.98 0.4
3 10 11 1.71 0.52
-4 -10 -11 18.17 0.55
4 10 11 17.57 0.87
-5 -10 -11 6.72 0.38
5 10 11 7.48 0.94
-6 -10 -11 27.67 0.6
6 10 11 29.52 1.48
-7 -10 -11 8.39 0.37
7 10 11 8.89 1.04
-8 -10 -11 7.18 0.47
8 10 11 7.07 1.04
-9 -10 -11 3.24 0.44
9 10 11 3.29 0.92
-10 -10 -11 3.31 0.44
10 10 11 4 0.54
-1 11 11 5.77 0.52
0 11 11 6.48 0.66
-1 -11 -11 2.35 0.82
1 11 11 2.77 0.5
-2 -11 -11 7.34 0.6
2 11 11 7.11 0.77
-3 -11 -11 1.21 0.55
3 11 11 1.15 0.59
-4 -11 -11 2.06 0.42
4 11 11 2.17 0.54
-5 -11 -11 2.1 0.39
5 11 11 2.17 0.77
-6 -11 -11 8.01 0.46
6 11 11 8.33 1.04
-7 -11 -11 0.23 0.34
7 11 11 0.18 0.59
-8 -11 -11 13.1 0.51
8 11 11 13.77 1.21
-9 -11 -11 2.14 0.39
9 11 11 2.15 0.61
-10 -11 -11 9.84 0.61
10 11 11 9.99 0.8
0 12 11 1.24 0.53
1 12 11 4.38 0.89
-2 -12 -11 5.09 0.78
2 12 11 5.21 0.57
-3 -12 -11 4.64 0.64
3 12 11 5.27 0.73
-4 -12 -11 18.8 0.89
4 12 11 19.13 1.25
-5 -12 -11 4.39 0.48
-6 -12 -11 8.44 0.54
-7 -12 -11 3.23 0.43
7 12 11 3.36 0.67
-8 -12 -11 0.03 0.07
8 12 11 0.1 0.66
-9 -12 -11 0.1 0.3
9 12 11 0.49 0.49
1 13 11 1.86 0.77
2 13 11 0.09 2.67
3 13 11 1.18 0.73
-4 -13 -11 5.75 0.98
5 13 11 0 0.05
-6 -13 -11 10.88 1.11
6 13 11 12.13 1.16
-7 -13 -11 2.21 0.6
7 13 11 2.49 0.94
-8 -13 -11 7.73 0.71
8 13 11 8.51 0.75
-3 -14 -11 1.08 0.73
-4 -14 -11 0.19 0.74
-5 -14 -11 1.37 0.81
-6 -14 -11 3.03 0.59
6 14 11 2.19 0.93
-7 -14 -11 0.65 0.62
7 14 11 0.52 0.83
1 10 -12 0.22 0.55
-1 -10 12 0.13 0.68
0 10 -12 2.67 0.52
0 -10 12 2.67 0.82
3 9 -12 2.16 0.74
-3 -9 12 1.93 0.53
2 9 -12 9.14 0.67
-2 -9 12 9.52 0.5
1 9 -12 2.96 0.76
-1 -9 12 3.39 0.47
0 9 -12 1.58 0.71
0 -9 12 1.55 0.77
-1 9 -12 3.94 0.58
1 -9 12 3.22 0.6
-2 9 -12 1.75 0.51
2 -9 12 1.29 0.54
-3 9 -12 1.79 0.52
3 -9 12 1.47 0.41
4 8 -12 1.58 0.5
-4 -8 12 1.68 0.43
3 8 -12 0.88 0.72
-3 -8 12 0.74 0.36
2 8 -12 7.96 0.92
-2 -8 12 8.33 0.58
1 8 -12 3.72 0.56
-1 -8 12 3.39 0.58
0 8 -12 8.24 0.78
0 -8 12 8.09 0.52
-1 8 -12 2.57 0.79
1 -8 12 2.54 0.5
-2 8 -12 8.5 0.56
2 -8 12 8.76 0.58
-3 8 -12 13.59 0.65
3 -8 12 13.7 0.66
-4 8 -12 0.12 0.37
4 -8 12 0.16 0.66
5 7 -12 0 0.34
-5 -7 12 0.21 0.35
4 7 -12 3.68 0.56
-4 -7 12 3.88 0.43
3 7 -12 0.82 0.51
-3 -7 12 1.01 0.38
2 7 -12 2.26 0.5
-2 -7 12 2.05 0.38
1 7 -12 12.42 0.87
-1 -7 12 13.29 0.53
0 7 -12 35.1 1.27
0 -7 12 34.77 0.68
-1 7 -12 6.89 0.48
1 -7 12 6.51 0.52
-2 7 -12 14.64 0.61
2 -7 12 14.12 0.5
-3 7 -12 3.42 0.47
3 -7 12 2.82 0.41
-4 7 -12 2.39 0.45
4 -7 12 2.17 0.54
-5 7 -12 10.83 0.75
5 -7 12 10.54 0.75
5 6 -12 2.33 0.44
-5 -6 12 2.49 0.39
4 6 -12 11.25 1.05
-4 -6 12 11.67 0.55
3 6 -12 4.46 0.54
-3 -6 12 4.23 0.43
2 6 -12 16.3 0.94
-2 -6 12 16.04 0.57
1 6 -12 7.76 0.59
-1 -6 12 8.2 0.45
0 6 -12 17.62 0.63
0 -6 12 18.33 0.56
-1 6 -12 20.95 0.8
1 -6 12 21.3 0.62
-2 6 -12 0.91 0.37
2 -6 12 0.77 0.41
-3 6 -12 0.61 0.5
3 -6 12 0.47 0.29
-4 6 -12 11.48 0.63
4 -6 12 10.97 0.5
-5 6 -12 3.53 0.48
5 -6 12 3.3 0.48
-6 6 -12 4.96 0.62
6 -6 12 5.03 0.64
-5 -5 12 0.44 0.49
4 5 -12 0.83 0.4
-4 -5 12 0.99 0.32
3 5 -12 4.04 0.53
-3 -5 12 3.91 0.42
2 5 -12 9.58 0.38
-2 -5 12 10.36 0.52
1 5 -12 8.59 0.43
-1 -5 12 8.14 0.4
0 5 -12 6.95 0.46
0 -5 12 6.84 0.37
-1 5 -12 6.09 0.45
1 -5 12 5.42 0.35
-2 5 -12 4.97 0.43
2 -5 12 4.49 0.38
-3 5 -12 9.53 0.46
3 -5 12 9.57 0.46
-4 5 -12 6.94 0.66
4 -5 12 6.93 0.44
-5 5 -12 7.98 0.7
5 -5 12 7.73 0.43
-6 5 -12 2.66 0.59
6 -5 12 2.87 0.6
-7 5 -12 0.51 0.47
7 -5 12 0.4 0.62
6 4 -12 2.26 0.52
-6 -4 12 2.3 0.79
5 4 -12 4.05 0.49
-5 -4 12 3.88 0.48
4 4 -12 1.63 0.42
-4 -4 12 1.78 0.43
3 4 -12 2.69 0.37
-3 -4 12 2.97 0.35
2 4 -12 1.46 0.33
-2 -4 12 1.63 0.32
1 4 -12 6.87 0.41
-1 -4 12 6.64 0.37
0 4 -12 6.06 0.39
0 -4 12 6.76 0.36
-1 4 -12 12.13 0.53
1 -4 12 11.7 0.42
-2 4 -12 17.73 0.61
2 -4 12 17.6 0.48
-3 4 -12 6.7 0.4
3 -4 12 6.83 0.37
-4 4 -12 18.42 0.71
4 -4 12 17.49 0.53
-5 4 -12 4.98 0.62
5 -4 12 4.93 0.39
-6 4 -12 9.14 0.59
6 -4 12 8.53 0.42
-7 4 -12 2.49 0.55
7 -4 12 1.99 0.47
-8 4 -12 0.76 0.39
8 -4 12 0.99 0.48
6 3 -12 2.42 0.59
-6 -3 12 2.18 0.52
5 3 -12 8.4 0.73
-5 -3 12 8.02 0.67
4 3 -12 4.11 0.43
-4 -3 12 4.15 0.49
3 3 -12 10.19 0.47
-3 -3 12 10.07 0.52
2 3 -12 9 0.44
-2 -3 12 8.93 0.43
1 3 -12 3.19 0.37
-1 -3 12 3.03 0.32
0 3 -12 13.09 0.59
0 -3 12 13.45 0.43
-1 3 -12 3.49 0.4
1 -3 12 2.83 0.27
-2 3 -12 0.1 0.42
2 -3 12 0.02 0.01
-3 3 -12 17.95 0.66
3 -3 12 17.8 0.48
-4 3 -12 19.27 0.56
4 -3 12 18.02 0.47
-5 3 -12 8.93 0.56
5 -3 12 8.79 0.45
-6 3 -12 12.92 0.65
6 -3 12 11.46 0.46
-7 3 -12 4.4 0.61
7 -3 12 4.13 0.42
-8 3 -12 6.59 0.99
8 -3 12 6.48 0.7
6 2 -12 0.36 0.31
-6 -2 12 0.17 0.65
5 2 -12 1.71 0.4
-5 -2 12 1.7 0.44
4 2 -12 2.2 0.39
-4 -2 12 1.99 0.39
3 2 -12 20.92 0.6
-3 -2 12 21.56 0.65
2 2 -12 11.76 0.52
-2 -2 12 12.5 0.53
1 2 -12 20.68 0.61
-1 -2 12 21.07 0.5
0 2 -12 26.05 0.66
0 -2 12 26.03 0.48
-1 2 -12 4.64 0.44
1 -2 12 4.41 0.28
-2 2 -12 62.88 1.36
2 -2 12 62.83 0.76
-3 2 -12 19.6 0.84
3 -2 12 18.63 0.51
-4 2 -12 52.26 1.06
4 -2 12 52.7 0.75
-5 2 -12 30.22 1.05
5 -2 12 29.59 0.67
-6 2 -12 0.29 0.4
6 -2 12 0.21 0.34
-7 2 -12 2.32 0.54
7 -2 12 1.82 0.4
-8 2 -12 8.54 1.03
8 -2 12 8.18 0.6
-9 2 -12 0.69 0.6
9 -2 12 0.4 0.48
6 1 -12 3.2 0.37
-6 -1 12 2.87 0.43
5 1 -12 2.44 0.37
-5 -1 12 2.29 0.45
4 1 -12 0.12 0.27
-4 -1 12 0.2 0.54
3 1 -12 2.1 0.41
-3 -1 12 2.61 0.33
2 1 -12 11.15 0.51
-2 -1 12 10.95 0.5
1 1 -12 2.7 0.31
-1 -1 12 2.94 0.35
0 1 -12 1.32 0.31
0 -1 12 0.94 0.26
-1 1 -12 36.49 0.65
1 -1 12 36.05 0.53
-2 1 -12 31.63 0.68
2 -1 12 30.52 0.54
-3 1 -12 10.31 0.52
3 -1 12 10.32 0.4
-4 1 -12 6.06 0.4
4 -1 12 6.02 0.36
-5 1 -12 1.63 0.41
5 -1 12 2.1 0.33
-6 1 -12 5.04 0.49
6 -1 12 6.13 0.37
-7 1 -12 25.12 0.81
7 -1 12 24.7 0.62
-8 1 -12 0.86 0.8
8 -1 12 0.79 0.37
-9 1 -12 22.2 1.39
9 -1 12 20.81 0.78
6 0 -12 0.74 0.32
-6 0 12 0.77 0.68
5 0 -12 13.81 0.84
-5 0 12 13.69 0.66
4 0 -12 1.78 0.33
-4 0 12 1.5 0.42
3 0 -12 3.2 0.33
-3 0 12 2.81 0.43
2 0 -12 9.65 0.45
-2 0 12 8.28 0.46
1 0 -12 15.74 0.52
-1 0 12 14.51 0.62
0 0 -12 4.54 0.34
0 0 12 4.17 0.29
-1 0 -12 4.67 0.3
1 0 12 4.3 0.28
-2 0 -12 9.45 0.39
2 0 12 9.54 0.32
-3 0 -12 1.9 0.31
3 0 12 1.96 0.28
-4 0 -12 14.8 0.46
4 0 12 14.11 0.44
-5 0 -12 15.8 0.54
5 0 12 14.47 0.45
-6 0 -12 48 1.03
6 0 12 46.19 0.72
-7 0 -12 17.4 0.7
7 0 12 17.14 0.65
-8 0 -12 5.02 0.51
8 0 12 4.46 0.42
-9 0 -12 10.18 0.76
9 0 12 10.74 0.64
6 -1 -12 0.81 0.33
-6 1 12 0.86 0.74
5 -1 -12 0.75 0.35
-5 1 12 0.63 0.5
4 -1 -12 3.69 0.35
-4 1 12 3.32 0.58
3 -1 -12 20.95 0.53
-3 1 12 21.52 0.74
2 -1 -12 23.58 0.55
-2 1 12 23.36 0.92
1 -1 -12 82.71 1.11
-1 1 12 84.81 1.26
0 -1 -12 76.96 0.87
0 1 12 76.38 0.89
-1 -1 -12 35.98 0.66
1 1 12 34.87 0.54
-2 -1 -12 21.87 0.48
2 1 12 21.66 0.41
-3 -1 -12 1.66 0.28
3 1 12 1.37 0.21
-4 -1 -12 1.25 0.25
4 1 12 1.51 0.23
-5 -1 -12 8.42 0.39
5 1 12 8.09 0.33
-6 -1 -12 0.32 0.29
6 1 12 0.21 0.12
-7 -1 -12 9.99 0.5
7 1 12 10.01 0.43
-8 -1 -12 1.91 0.44
8 1 12 1.99 0.38
-9 -1 -12 2.16 0.59
9 1 12 2.61 0.48
10 1 12 8.16 0.51
5 -2 -12 1.02 0.35
-5 2 12 0.98 0.76
4 -2 -12 0.22 0.34
-4 2 12 0.38 0.57
3 -2 -12 1.71 0.3
-3 2 12 2.01 0.51
2 -2 -12 1.09 0.29
-2 2 12 0.93 0.41
1 -2 -12 0.58 0.26
-1 2 12 0.86 0.36
0 -2 -12 0.96 0.22
0 2 12 0.64 0.3
-1 -2 -12 0.67 0.26
1 2 12 0.5 0.25
-2 -2 -12 32.29 0.5
2 2 12 32.31 0.51
-3 -2 -12 26.45 0.52
3 2 12 24.53 0.46
-4 -2 -12 92.36 0.81
4 2 12 90.98 0.83
-5 -2 -12 29.92 0.55
5 2 12 29.14 0.56
-6 -2 -12 43.99 0.67
6 2 12 42.12 0.65
-7 -2 -12 15.82 0.58
7 2 12 16.28 0.62
-8 -2 -12 5.16 0.5
8 2 12 4.78 0.41
-9 -2 -12 3.66 0.62
9 2 12 4.09 0.49
-10 -2 -12 0.28 0.52
10 2 12 0.02 0.06
5 -3 -12 0.75 0.43
-5 3 12 0.97 0.77
4 -3 -12 4.31 0.37
3 -3 -12 11.35 0.42
-3 3 12 12.3 0.78
2 -3 -12 1.73 0.31
-2 3 12 1.9 0.41
1 -3 -12 11.37 0.4
-1 3 12 11 0.5
0 -3 -12 1.09 0.28
0 3 12 0.82 0.28
-1 -3 -12 1.03 0.26
1 3 12 1.2 0.31
-2 -3 -12 5.48 0.3
2 3 12 5.37 0.33
-3 -3 -12 0.03 0.06
3 3 12 0.04 0.05
-4 -3 -12 8.83 0.31
4 3 12 9.56 0.36
-5 -3 -12 0.84 0.3
5 3 12 1.04 0.26
-6 -3 -12 6.62 0.35
6 3 12 6.33 0.35
-7 -3 -12 3.01 0.32
7 3 12 3.27 0.37
-8 -3 -12 9 0.6
8 3 12 7.83 0.46
-9 -3 -12 6.94 0.68
9 3 12 7.72 0.59
-10 -3 -12 5.23 0.63
10 3 12 5.34 0.49
5 -4 -12 2.21 0.38
-5 4 12 2.19 0.83
4 -4 -12 3.12 0.42
-4 4 12 2.96 0.57
3 -4 -12 5.06 0.43
-3 4 12 5.41 0.46
2 -4 -12 3.68 0.33
-2 4 12 3.65 0.36
1 -4 -12 16.13 0.45
-1 4 12 15.95 0.51
0 -4 -12 6.72 0.37
0 4 12 6.38 0.34
-1 -4 -12 13.99 0.5
1 4 12 13.58 0.49
-2 -4 -12 11.81 0.41
2 4 12 11.03 0.37
-3 -4 -12 4.13 0.29
3 4 12 4.58 0.32
-4 -4 -12 20.48 0.49
4 4 12 19.48 0.5
-5 -4 -12 9.47 0.41
5 4 12 9.52 0.37
-6 -4 -12 11.52 0.41
6 4 12 11.4 0.49
-7 -4 -12 7.61 0.42
7 4 12 7.24 0.53
-8 -4 -12 7.85 0.58
8 4 12 7.91 0.57
-9 -4 -12 2.17 0.82
9 4 12 2.25 0.37
-10 -4 -12 7.98 1.02
10 4 12 8.46 0.52
4 -5 -12 0.51 0.46
-4 5 12 0.58 0.6
3 -5 -12 0.16 0.37
-3 5 12 0.02 0.08
2 -5 -12 3.77 0.36
-2 5 12 3.47 0.42
1 -5 -12 1.47 0.32
-1 5 12 1.55 0.33
0 -5 -12 7.38 0.43
0 5 12 7.41 0.37
-1 -5 -12 35.37 0.71
1 5 12 35.33 0.85
-2 -5 -12 34.83 0.64
2 5 12 34.33 0.72
-3 -5 -12 63.17 0.76
3 5 12 62.45 0.92
-4 -5 -12 66.77 0.72
4 5 12 64.66 0.93
-5 -5 -12 11.75 0.42
5 5 12 11.72 0.48
-6 -5 -12 43.9 0.77
6 5 12 42.8 0.81
-7 -5 -12 4.57 0.38
7 5 12 4.95 0.49
-8 -5 -12 22.01 0.7
8 5 12 22.1 0.77
-9 -5 -12 3.06 0.49
9 5 12 3.16 0.62
-10 -5 -12 1.14 0.8
10 5 12 1.08 0.59
4 -6 -12 7 0.55
-4 6 12 7.56 0.68
3 -6 -12 7.87 0.46
-3 6 12 7.45 0.61
2 -6 -12 4.47 0.44
-2 6 12 4.31 0.45
1 -6 -12 3.11 0.36
-1 6 12 3.4 0.33
0 -6 -12 0.7 0.42
0 6 12 0.65 0.29
-1 -6 -12 0.98 0.38
1 6 12 1.23 0.32
-2 -6 -12 9.14 0.47
2 6 12 9.13 0.53
-3 -6 -12 0.91 0.26
3 6 12 1.03 0.34
-4 -6 -12 10.75 0.44
4 6 12 11.02 0.55
-5 -6 -12 5.7 0.37
5 6 12 5.89 0.41
-6 -6 -12 24.8 0.52
6 6 12 24.21 0.73
-7 -6 -12 6.91 0.38
7 6 12 6.28 0.53
-8 -6 -12 44.55 0.81
8 6 12 44.33 1.27
-9 -6 -12 2 0.48
9 6 12 1.56 0.47
-10 -6 -12 16.1 1.25
10 6 12 17.58 0.91
4 -7 -12 0.58 0.71
-4 7 12 0.65 0.52
3 -7 -12 3.86 0.59
-3 7 12 3.09 0.58
-2 7 12 0.1 0.23
1 -7 -12 4.77 0.46
-1 7 12 4.96 0.46
0 -7 -12 3.31 0.42
0 7 12 3.27 0.41
-1 -7 -12 28.96 0.83
1 7 12 28.3 0.83
-2 -7 -12 9.95 0.5
2 7 12 9.18 0.55
-3 -7 -12 1.55 0.38
3 7 12 1.38 0.37
-4 -7 -12 1.53 0.34
4 7 12 1.74 0.46
-5 -7 -12 4.53 0.33
5 7 12 4.2 0.46
-6 -7 -12 1.28 0.28
6 7 12 1.13 0.4
-7 -7 -12 0.75 0.3
7 7 12 0.65 0.76
-8 -7 -12 5.41 0.42
8 7 12 5.2 0.65
-9 -7 -12 2.68 0.43
9 7 12 3.27 0.62
-10 -7 -12 4.44 0.64
10 7 12 6.26 0.7
-3 8 12 2.82 0.78
2 -8 -12 6.91 0.98
-2 8 12 7.16 0.67
1 -8 -12 22.26 0.75
-1 8 12 21.85 0.7
0 -8 -12 1.24 0.51
0 8 12 1.41 0.39
-1 -8 -12 20.85 0.76
1 8 12 20.21 0.67
-2 -8 -12 1.77 0.46
2 8 12 2.91 0.44
-3 -8 -12 20.57 0.65
3 8 12 20.82 0.74
-4 -8 -12 10.61 0.5
4 8 12 11.02 0.59
-5 -8 -12 22.84 0.53
5 8 12 21.12 0.72
-6 -8 -12 23.95 0.58
6 8 12 23.44 0.92
-7 -8 -12 3.89 0.34
7 8 12 3.46 0.88
-8 -8 -12 7.21 0.45
8 8 12 7.39 1.01
-9 -8 -12 2.44 0.41
9 8 12 2.68 0.61
-10 -8 -12 0.64 0.45
10 8 12 0.83 0.43
2 -9 -12 5.13 0.89
-2 9 12 4.7 0.61
1 -9 -12 5.9 0.6
-1 9 12 6.77 0.59
0 -9 -12 5.06 0.62
0 9 12 5.57 0.73
-1 -9 -12 0.05 0.18
1 9 12 0.19 0.32
-2 -9 -12 3.1 0.51
2 9 12 3.3 0.46
-3 -9 -12 15.54 0.6
3 9 12 16.18 0.69
-4 -9 -12 7.61 0.47
4 9 12 7.2 0.54
-5 -9 -12 22.27 0.66
5 9 12 22.48 0.94
-6 -9 -12 7.28 0.37
6 9 12 8 0.98
-7 -9 -12 14.67 0.45
7 9 12 15.4 1.2
-8 -9 -12 6.34 0.44
8 9 12 5.73 1
-9 -9 -12 6.57 0.58
9 9 12 6.81 1.03
-10 -9 -12 4.41 0.65
10 9 12 4.56 0.68
2 -10 -12 1.35 0.78
-2 10 12 1.51 0.54
1 -10 -12 1.07 0.73
-1 10 12 1.19 0.49
0 -10 -12 0.64 1.6
0 10 12 1.06 0.62
-1 -10 -12 2.44 0.56
1 10 12 3.07 0.65
-2 -10 -12 3.25 0.53
2 10 12 3.88 0.52
-3 -10 -12 14.56 0.65
3 10 12 14.39 0.83
-4 -10 -12 7.87 0.44
4 10 12 8.63 0.71
-5 -10 -12 8.24 0.44
5 10 12 9.28 1.01
-6 -10 -12 4.32 0.37
6 10 12 4.31 0.92
-7 -10 -12 0.12 0.18
7 10 12 0.12 0.83
-8 -10 -12 0.01 0.09
8 10 12 0.37 0.49
-9 -10 -12 3.7 0.51
9 10 12 3.31 0.93
-10 -10 -12 2.27 0.49
10 10 12 2.44 0.62
-1 11 12 0.13 0.62
0 11 12 3.01 0.56
1 11 12 0.69 0.49
-2 -11 -12 3.68 0.59
2 11 12 3.99 0.55
-3 -11 -12 7.73 0.61
3 11 12 8.38 0.71
-4 -11 -12 0.82 0.47
4 11 12 1.58 0.83
-5 -11 -12 8.97 0.52
5 11 12 8.56 1.01
-6 -11 -12 0.01 0.05
-7 -11 -12 2.58 0.4
7 11 12 2.04 0.83
-8 -11 -12 0 0.17
-9 -11 -12 1.43 0.41
9 11 12 1.68 0.58
0 12 12 1.79 0.77
1 12 12 0.06 0.18
2 12 12 3.24 0.79
-3 -12 -12 1.39 0.79
3 12 12 1.43 0.81
-4 -12 -12 0.8 0.6
4 12 12 0.63 0.82
-5 -12 -12 9.54 0.61
-6 -12 -12 1.84 0.59
-7 -12 -12 20.01 0.79
7 12 12 20.07 1.35
-8 -12 -12 3.44 0.53
8 12 12 3.31 0.67
-9 -12 -12 4.58 0.52
9 12 12 4.44 0.67
2 13 12 3.22 0.84
3 13 12 7.12 1
-4 -13 -12 1.03 0.74
-5 -13 -12 0.05 0.23
5 13 12 0.02 0.17
-6 -13 -12 0.45 0.7
6 13 12 0.03 0.36
-7 -13 -12 0.58 0.46
7 13 12 0.43 0.53
-8 -13 -12 0.04 0.09
-4 -14 -12 0.7 0.77
-6 -14 -12 2.7 0.58
6 14 12 2.27 0.84
0 9 -13 4.81 0.58
0 -9 13 5.32 0.62
3 8 -13 4.05 0.54
-3 -8 13 4.29 0.37
2 8 -13 0.96 0.46
-2 -8 13 0.86 0.34
1 8 -13 0.22 0.65
-1 -8 13 0.48 0.35
0 8 -13 0.83 0.64
0 -8 13 1.04 0.52
-1 8 -13 1.39 0.68
1 -8 13 1.19 0.42
-2 8 -13 3.67 0.57
2 -8 13 3.89 0.49
-3 8 -13 2.29 0.43
3 -8 13 2.52 0.44
3 7 -13 5.73 0.87
-3 -7 13 5.78 0.4
2 7 -13 0.46 0.53
-2 -7 13 0.58 0.42
1 7 -13 11.15 0.74
-1 -7 13 11.77 0.54
0 7 -13 3.54 0.56
0 -7 13 3.17 0.41
-1 7 -13 0.48 0.45
1 -7 13 0.77 0.41
-2 7 -13 3.5 0.46
2 -7 13 3.33 0.41
-3 7 -13 6.5 0.64
3 -7 13 6.25 0.54
-4 7 -13 1.05 0.4
4 -7 13 1.25 0.49
4 6 -13 11.76 0.73
-4 -6 13 12.54 0.55
3 6 -13 3.76 0.81
-3 -6 13 4.17 0.42
-2 -6 13 2.96 0.36
1 6 -13 6.05 0.56
-1 -6 13 5.7 0.38
0 6 -13 8.18 0.51
0 -6 13 7.06 0.51
-1 6 -13 7.9 0.5
1 -6 13 8.15 0.41
-2 6 -13 9.5 0.47
2 -6 13 9.13 0.43
-3 6 -13 13.55 0.65
3 -6 13 13.09 0.47
-4 6 -13 17.27 0.72
4 -6 13 16.2 0.86
-5 6 -13 1.54 0.42
5 -6 13 1.84 0.78
4 5 -13 0.71 0.72
-4 -5 13 1.1 0.35
3 5 -13 9.97 0.72
-3 -5 13 10.17 0.53
2 5 -13 0.35 0.52
-2 -5 13 0.42 0.3
1 5 -13 0.57 0.4
-1 -5 13 0.19 0.24
0 5 -13 4.6 0.44
0 -5 13 5.15 0.34
-1 5 -13 22.63 0.7
1 -5 13 22.39 0.56
-2 5 -13 5.7 0.46
2 -5 13 6.07 0.38
-3 5 -13 8.54 0.52
3 -5 13 8.25 0.41
-4 5 -13 3.36 0.48
4 -5 13 3.77 0.48
-5 5 -13 3.58 0.48
5 -5 13 3.12 0.59
-6 5 -13 11.85 0.76
6 -5 13 12.04 0.8
5 4 -13 1.16 0.42
-5 -4 13 1.18 0.51
4 4 -13 3.11 0.57
-4 -4 13 3.63 0.4
3 4 -13 4.61 0.46
-3 -4 13 4.63 0.44
2 4 -13 11.76 0.49
-2 -4 13 10.48 0.47
1 4 -13 12.32 0.5
-1 -4 13 13.1 0.49
0 4 -13 9.92 0.52
0 -4 13 9.61 0.38
-1 4 -13 26 0.73
1 -4 13 26.09 0.58
-2 4 -13 10.67 0.53
2 -4 13 11.13 0.47
-3 4 -13 6.67 0.42
3 -4 13 6.58 0.41
-4 4 -13 0.29 0.45
4 -4 13 0 0.04
-5 4 -13 0.13 0.39
5 -4 13 0.11 0.16
-6 4 -13 1.6 0.56
6 -4 13 1.29 0.44
-7 4 -13 0.84 0.7
7 -4 13 0.87 0.48
5 3 -13 0.8 0.39
-5 -3 13 0.73 0.73
4 3 -13 0.18 0.37
-4 -3 13 0.11 2.49
3 3 -13 1.03 0.42
-3 -3 13 0.99 0.39
2 3 -13 3.68 0.37
-2 -3 13 3.71 0.36
1 3 -13 5.21 0.4
-1 -3 13 5.37 0.32
0 3 -13 6.75 0.44
0 -3 13 6.22 0.33
-1 3 -13 5.54 0.59
1 -3 13 5.53 0.32
-2 3 -13 3.95 0.54
2 -3 13 3.45 0.34
-3 3 -13 8.1 0.49
3 -3 13 7.53 0.41
-4 3 -13 6.16 0.63
4 -3 13 5.56 0.39
-5 3 -13 1.61 0.52
5 -3 13 1.68 0.38
-6 3 -13 7.12 0.69
6 -3 13 6.5 0.45
-7 3 -13 1.98 0.55
7 -3 13 2.05 0.45
-8 3 -13 3.9 0.89
8 -3 13 3.41 0.5
5 2 -13 0.53 0.42
-5 -2 13 0.62 0.69
4 2 -13 4.29 0.51
-4 -2 13 4.59 0.9
3 2 -13 0.73 0.3
-3 -2 13 0.7 0.39
2 2 -13 4.67 0.42
-2 -2 13 4.73 0.49
1 2 -13 1.84 0.36
-1 -2 13 1.67 0.31
0 2 -13 18.3 0.61
0 -2 13 17.83 0.48
-1 2 -13 2.67 0.37
1 -2 13 2.52 0.29
-2 2 -13 19.98 0.88
2 -2 13 20.81 0.55
-3 2 -13 9.58 0.68
3 -2 13 8.76 0.42
-4 2 -13 9.68 0.57
4 -2 13 9.32 0.43
-5 2 -13 16.42 0.85
5 -2 13 16.01 0.59
-6 2 -13 14.53 0.68
6 -2 13 13.8 0.49
-7 2 -13 8.55 0.72
7 -2 13 8.29 0.43
-8 2 -13 13.55 1.16
8 -2 13 12.78 0.57
5 1 -13 1.8 0.56
-5 -1 13 1.75 0.55
4 1 -13 8.42 0.51
-4 -1 13 8.92 1.02
3 1 -13 4.01 0.42
-3 -1 13 3.63 0.4
2 1 -13 12.73 0.49
-2 -1 13 14.83 0.67
1 1 -13 16.58 0.59
-1 -1 13 16.82 0.59
0 1 -13 14.71 0.49
0 -1 13 15.36 0.45
-1 1 -13 36.51 0.76
1 -1 13 36.19 0.66
-2 1 -13 3.02 0.36
2 -1 13 2.93 0.32
-3 1 -13 0.83 0.4
3 -1 13 0.65 0.3
-4 1 -13 4.28 0.4
4 -1 13 3.84 0.34
-5 1 -13 19.22 0.7
5 -1 13 17.74 0.54
-6 1 -13 1.06 0.52
6 -1 13 1.46 0.33
-7 1 -13 8.6 0.58
7 -1 13 7.68 0.42
-8 1 -13 2.55 0.79
8 -1 13 3.11 0.43
-9 1 -13 1.77 0.75
9 -1 13 1.81 0.59
5 0 -13 2.53 0.4
-5 0 13 1.81 0.55
4 0 -13 0.48 0.35
-4 0 13 0.41 0.56
3 0 -13 0.78 0.36
-3 0 13 0.75 0.41
2 0 -13 18.98 0.64
-2 0 13 19.41 0.72
1 0 -13 6.65 0.4
-1 0 13 5.56 0.41
0 0 -13 9.18 0.44
0 0 13 9.03 0.54
-1 0 -13 10.98 0.38
1 0 13 9.54 0.4
-2 0 -13 0.86 0.3
2 0 13 0.5 0.24
-3 0 -13 34.59 0.73
3 0 13 34.24 0.71
-4 0 -13 18.38 0.52
4 0 13 17.2 0.43
-5 0 -13 42.26 0.83
5 0 13 40.38 0.73
-6 0 -13 33.69 1.12
6 0 13 31.63 0.64
-7 0 -13 0.57 0.42
7 0 13 0.08 0.07
-8 0 -13 2.37 0.55
8 0 13 2.51 0.38
-9 0 -13 3.31 0.62
9 0 13 3.89 0.52
5 -1 -13 9.04 0.51
-5 1 13 7.7 0.66
4 -1 -13 0.92 0.35
-4 1 13 1.05 0.48
3 -1 -13 1.93 0.37
-3 1 13 1.65 0.52
2 -1 -13 1.95 0.36
-2 1 13 1.85 0.42
1 -1 -13 3.73 0.33
-1 1 13 3.76 0.45
0 -1 -13 0.62 0.28
0 1 13 0.71 0.31
-1 -1 -13 10.57 0.45
1 1 13 10.3 0.39
-2 -1 -13 10.11 0.42
2 1 13 9.99 0.34
-3 -1 -13 61.1 0.95
3 1 13 59.8 0.63
-4 -1 -13 0.49 0.29
4 1 13 0.32 0.2
-5 -1 -13 14.92 0.55
5 1 13 14.68 0.44
-6 -1 -13 0.95 0.35
6 1 13 0.77 0.34
-7 -1 -13 0.97 0.43
7 1 13 1.1 0.33
-8 -1 -13 9.45 0.6
8 1 13 8.86 0.46
-9 -1 -13 1.65 0.84
9 1 13 1.58 0.55
5 -2 -13 1.49 0.44
-5 2 13 1.61 0.5
4 -2 -13 19.66 0.66
-4 2 13 20.59 0.93
3 -2 -13 2.83 0.38
-3 2 13 3.12 0.57
2 -2 -13 6.66 0.39
-2 2 13 7.06 0.53
1 -2 -13 4.8 0.41
-1 2 13 3.89 0.45
0 -2 -13 4.8 0.38
0 2 13 3.89 0.44
-1 -2 -13 1.74 0.3
1 2 13 1.68 0.33
-2 -2 -13 3.64 0.32
2 2 13 3.59 0.32
-3 -2 -13 6.44 0.32
3 2 13 6.16 0.31
-4 -2 -13 0.59 0.27
4 2 13 0.59 0.25
-5 -2 -13 10.31 0.39
5 2 13 9.54 0.4
-6 -2 -13 14.27 0.45
6 2 13 13.21 0.46
-7 -2 -13 28.8 0.6
7 2 13 27.04 0.71
-8 -2 -13 15.21 0.68
8 2 13 14.36 0.67
-9 -2 -13 7.21 0.68
9 2 13 7.55 0.58
-10 -2 -13 4.97 0.62
10 2 13 5.48 0.48
4 -3 -13 0.83 0.42
-4 3 13 0.69 0.47
3 -3 -13 1.04 0.35
-3 3 13 0.87 0.5
2 -3 -13 3.79 0.36
-2 3 13 4.02 0.48
1 -3 -13 20.2 0.53
-1 3 13 19.66 0.89
0 -3 -13 34.42 0.59
0 3 13 36.6 1.12
-1 -3 -13 66.61 0.86
1 3 13 66.95 0.99
-2 -3 -13 21.41 0.45
2 3 13 21.78 0.54
-3 -3 -13 38.25 0.59
3 3 13 37.68 0.61
-4 -3 -13 4.24 0.29
4 3 13 4.72 0.32
-5 -3 -13 18.4 0.53
5 3 13 17.19 0.46
-6 -3 -13 4.32 0.33
6 3 13 4.42 0.41
-7 -3 -13 15.6 0.59
7 3 13 15.15 0.59
-8 -3 -13 2.51 0.36
8 3 13 2.24 0.38
-9 -3 -13 0.71 0.58
9 3 13 0.9 0.43
-10 -3 -13 0.13 0.9
10 3 13 0.36 0.44
4 -4 -13 0.27 0.38
-4 4 13 0.39 0.53
3 -4 -13 0.06 0.1
-3 4 13 0.01 0.17
2 -4 -13 0.86 0.35
-2 4 13 1.01 0.42
1 -4 -13 1.18 0.31
-1 4 13 1.25 0.34
0 -4 -13 0.69 0.32
0 4 13 0.92 0.31
-1 -4 -13 2.11 0.36
1 4 13 1.73 0.33
-2 -4 -13 1.28 0.33
2 4 13 0.86 0.32
-3 -4 -13 2.31 0.28
3 4 13 2.47 0.3
-4 -4 -13 12.83 0.44
4 4 13 11.94 0.45
-5 -4 -13 26.13 0.61
5 4 13 24.62 0.58
-6 -4 -13 7.44 0.38
6 4 13 6.96 0.45
-7 -4 -13 34.88 0.73
7 4 13 33.7 0.78
-8 -4 -13 1.82 0.45
8 4 13 1.95 0.45
-9 -4 -13 13.41 1.21
9 4 13 13.03 0.52
-10 -4 -13 0.32 0.96
10 4 13 0.46 0.46
4 -5 -13 1.74 0.53
-4 5 13 1.53 0.71
3 -5 -13 3.91 0.51
-3 5 13 3.9 0.48
2 -5 -13 3.56 0.4
-2 5 13 3.38 0.44
1 -5 -13 1.96 0.39
-1 5 13 1.93 0.3
0 -5 -13 2.38 0.35
0 5 13 2.14 0.34
-1 -5 -13 0.5 0.34
1 5 13 0.55 0.33
-2 -5 -13 0.2 0.39
2 5 13 0.03 0.05
-3 -5 -13 5.56 0.33
3 5 13 5.03 0.39
-4 -5 -13 4.88 0.34
4 5 13 4.81 0.39
-5 -5 -13 7.22 0.4
5 5 13 6.8 0.39
-6 -5 -13 4.48 0.38
6 5 13 3.77 0.4
-7 -5 -13 7.89 0.44
7 5 13 7.15 0.66
-8 -5 -13 0.3 0.3
8 5 13 0.16 0.49
-9 -5 -13 9.13 0.62
9 5 13 9.11 0.62
10 5 13 0.07 0.11
3 -6 -13 3.2 0.6
-3 6 13 3.98 0.48
2 -6 -13 6.47 0.42
-2 6 13 6.73 0.5
1 -6 -13 4.84 0.39
-1 6 13 5.21 0.41
0 -6 -13 33.43 0.8
0 6 13 32.47 0.71
-1 -6 -13 1.86 0.42
1 6 13 2.01 0.33
-2 -6 -13 27.58 0.63
2 6 13 27.36 0.99
-3 -6 -13 2.66 0.31
3 6 13 2.78 0.43
-4 -6 -13 4.66 0.34
4 6 13 4.51 0.58
-5 -6 -13 16.49 0.56
5 6 13 16.51 0.81
-6 -6 -13 0.53 0.31
6 6 13 0.35 0.46
-7 -6 -13 8.28 0.46
7 6 13 8.39 0.58
-8 -6 -13 4.6 0.46
8 6 13 4.32 0.63
-9 -6 -13 1.16 0.59
9 6 13 0.82 0.4
-10 -6 -13 3.34 0.83
10 6 13 2.83 0.63
3 -7 -13 0.13 0.24
-3 7 13 0.17 0.44
2 -7 -13 1.25 0.51
-2 7 13 1.35 0.51
1 -7 -13 0.64 0.42
-1 7 13 0.68 0.41
0 -7 -13 1.01 0.44
0 7 13 1.2 0.46
-1 -7 -13 2.15 0.54
1 7 13 2.61 0.4
-2 -7 -13 22.5 0.59
2 7 13 22.12 0.77
-3 -7 -13 4.72 0.39
3 7 13 4.85 0.49
-4 -7 -13 45.42 0.73
4 7 13 43.66 1.72
-5 -7 -13 25.82 0.57
5 7 13 24.96 0.78
-6 -7 -13 7.64 0.38
6 7 13 7.82 0.66
-7 -7 -13 20.02 0.6
7 7 13 19.49 0.72
-8 -7 -13 2.57 0.38
8 7 13 2.53 0.86
-9 -7 -13 12.25 0.68
9 7 13 12.71 0.81
-10 -7 -13 3.69 0.87
10 7 13 3.44 0.64
2 -8 -13 6.73 0.96
-2 8 13 7.39 0.94
1 -8 -13 0.7 0.83
-1 8 13 0.98 0.42
0 -8 -13 1.32 1.11
0 8 13 1.89 0.49
-1 -8 -13 0.32 0.9
1 8 13 0.45 0.38
-2 -8 -13 1.03 0.51
2 8 13 0.91 0.4
-3 -8 -13 9.47 0.53
3 8 13 9.61 0.59
-4 -8 -13 8.18 0.45
4 8 13 8.88 0.7
-5 -8 -13 8.33 0.38
5 8 13 8.68 0.7
-6 -8 -13 10.58 0.46
6 8 13 11.17 1.07
-7 -8 -13 1.75 0.31
7 8 13 2.11 0.8
-8 -8 -13 4.11 0.45
8 8 13 3.39 0.91
-9 -8 -13 7.22 0.72
9 8 13 8.04 1.07
-10 -8 -13 2.39 0.49
10 8 13 1.65 0.66
2 -9 -13 0.76 0.81
-2 9 13 0.48 0.63
1 -9 -13 0 0.74
-1 9 13 0.09 0.31
0 9 13 2.33 0.55
-1 -9 -13 3.9 0.56
1 9 13 3.99 0.46
-2 -9 -13 14.33 0.71
2 9 13 14.49 0.62
-3 -9 -13 6.13 0.5
3 9 13 6.64 0.68
-4 -9 -13 2.88 0.35
4 9 13 2.94 0.54
-5 -9 -13 2.67 0.37
5 9 13 3.43 0.59
-6 -9 -13 0.64 0.36
6 9 13 0.64 0.89
-7 -9 -13 1.91 0.37
7 9 13 1.8 0.84
-8 -9 -13 0.59 0.37
8 9 13 0.75 0.85
-9 -9 -13 2.67 0.43
9 9 13 2.64 0.83
-10 -9 -13 1.12 0.74
-1 10 13 5.01 0.61
0 -10 -13 3.7 0.83
0 10 13 4.36 0.87
-1 -10 -13 3.82 0.83
1 10 13 3.72 0.86
-2 -10 -13 8.42 0.53
2 10 13 9.65 0.84
-3 -10 -13 0.4 0.63
3 10 13 0.68 0.49
-4 -10 -13 12.9 0.53
4 10 13 13.11 1.17
-5 -10 -13 2.77 0.39
5 10 13 2.3 0.8
-6 -10 -13 22.49 0.69
-7 -10 -13 5.23 0.37
7 10 13 5.28 0.94
-8 -10 -13 13.01 0.52
8 10 13 13.91 1.21
-9 -10 -13 1.28 0.42
9 10 13 1.19 0.88
0 11 13 5.76 0.62
-1 -11 -13 3.29 0.57
1 11 13 3.64 0.59
-2 -11 -13 2.03 0.58
2 11 13 2.79 0.57
-3 -11 -13 0.5 0.68
3 11 13 0.35 0.4
-4 -11 -13 0.17 0.15
4 11 13 0.39 0.64
-5 -11 -13 1.17 0.38
5 11 13 1.13 0.69
-6 -11 -13 3.98 0.44
-7 -11 -13 2.51 0.37
7 11 13 2.47 0.99
-8 -11 -13 3.66 0.44
8 11 13 3.62 0.94
-9 -11 -13 1.55 0.48
9 11 13 1.39 0.9
-2 -12 -13 0.25 0.79
2 12 13 0.55 0.59
-3 -12 -13 0.55 0.46
3 12 13 0.71 0.46
-4 -12 -13 2.85 0.48
4 12 13 2.5 0.83
-5 -12 -13 0.49 0.58
-6 -12 -13 3.09 0.85
-7 -12 -13 1.58 0.47
-8 -12 -13 0.05 0.19
8 12 13 0.11 0.4
-3 -13 -13 5.38 0.92
3 13 13 5.12 0.81
-4 -13 -13 2.06 0.59
-5 -13 -13 2.91 0.6
-6 -13 -13 1.97 0.47
6 13 13 1.29 0.74
-7 -13 -13 0.49 0.47
7 13 13 0.6 0.91
2 7 -14 0.11 0.62
-2 -7 14 0.27 0.26
1 7 -14 0.3 0.48
-1 -7 14 0.46 0.3
0 7 -14 6.67 0.63
0 -7 14 7.02 0.42
-1 7 -14 2.37 0.42
1 -7 14 2.16 0.53
-2 7 -14 19.39 0.71
2 -7 14 20.56 0.75
-3 7 -14 7.59 0.96
3 -7 14 7.68 0.68
3 6 -14 0.71 0.42
-3 -6 14 0.93 0.39
2 6 -14 3.9 0.81
-2 -6 14 3.99 0.34
1 6 -14 5.59 0.59
-1 -6 14 5.43 0.4
0 6 -14 0.25 0.45
0 -6 14 0.41 0.26
-1 6 -14 1.32 0.41
1 -6 14 2.04 0.39
-2 6 -14 1.79 0.37
2 -6 14 1.68 0.39
-3 6 -14 6.42 0.52
3 -6 14 6.14 0.46
-4 6 -14 0.05 0.16
4 -6 14 0.14 0.25
3 5 -14 5.3 0.85
-3 -5 14 4.17 0.49
2 5 -14 6.58 0.92
-2 -5 14 6.23 0.46
1 5 -14 2.13 0.52
-1 -5 14 2.01 0.34
0 5 -14 15.49 0.61
0 -5 14 16.22 0.49
-1 5 -14 5.12 0.46
1 -5 14 5.3 0.4
-2 5 -14 1.21 0.35
2 -5 14 1.2 0.34
-3 5 -14 3.67 0.47
3 -5 14 3.11 0.4
-4 5 -14 8.43 0.56
4 -5 14 8.08 0.58
-5 5 -14 0.02 0.28
5 -5 14 0.09 0.38
4 4 -14 0.6 0.41
-4 -4 14 0.67 0.68
3 4 -14 14.31 0.65
-3 -4 14 15.44 0.69
2 4 -14 5.49 0.43
-2 -4 14 5.82 0.52
1 4 -14 3.57 0.52
-1 -4 14 4.03 0.38
0 4 -14 3.99 0.68
0 -4 14 4.44 0.35
-1 4 -14 6.13 0.56
1 -4 14 5.62 0.4
-2 4 -14 5.48 0.55
2 -4 14 5.56 0.4
-3 4 -14 21.82 0.72
3 -4 14 21.17 0.66
-4 4 -14 11.9 0.79
4 -4 14 11.86 0.55
-5 4 -14 29.26 1.09
5 -4 14 28.7 0.77
-6 4 -14 1.85 0.55
6 -4 14 1.62 0.46
4 3 -14 2.96 0.45
-4 -3 14 3.83 0.83
3 3 -14 2.65 0.39
-3 -3 14 3.04 0.47
2 3 -14 12.6 0.59
-2 -3 14 13.67 0.82
1 3 -14 2.29 0.4
-1 -3 14 2.76 0.35
0 3 -14 1.45 0.38
0 -3 14 1.24 0.31
-1 3 -14 0.82 0.53
1 -3 14 0.39 0.28
-2 3 -14 5.49 0.55
2 -3 14 5.43 0.39
-3 3 -14 1.92 0.47
3 -3 14 1.79 0.35
-4 3 -14 1.79 0.52
4 -3 14 1.86 0.36
-5 3 -14 1.45 0.52
5 -3 14 1.39 0.36
-6 3 -14 3.71 0.59
6 -3 14 3.45 0.43
-7 3 -14 6.12 0.65
7 -3 14 5.61 0.46
4 2 -14 2.78 0.39
-4 -2 14 2.18 0.75
3 2 -14 2.75 0.4
-3 -2 14 2.54 0.53
2 2 -14 4.9 0.41
-2 -2 14 4.4 0.61
1 2 -14 8.32 0.49
-1 -2 14 7.67 0.55
0 2 -14 5.63 0.63
0 -2 14 5.85 0.44
-1 2 -14 9.02 0.69
1 -2 14 9.36 0.42
-2 2 -14 11.73 0.76
2 -2 14 11.74 0.43
-3 2 -14 6.12 0.52
3 -2 14 6 0.4
-4 2 -14 3.57 0.47
4 -2 14 3.3 0.36
-5 2 -14 2.26 0.54
5 -2 14 2.38 0.37
-6 2 -14 1.83 0.44
6 -2 14 1.67 0.37
-7 2 -14 2.99 0.82
7 -2 14 2.98 0.48
-8 2 -14 1.28 0.83
8 -2 14 1.24 0.37
4 1 -14 0.34 0.28
-4 -1 14 0.33 0.58
3 1 -14 1.33 0.34
-3 -1 14 1.01 0.5
2 1 -14 1.05 0.35
-2 -1 14 1.01 0.4
1 1 -14 4.8 0.43
-1 -1 14 4.78 0.61
0 1 -14 3.59 0.4
0 -1 14 3.47 0.46
-1 1 -14 3.46 0.58
1 -1 14 2.94 0.34
-2 1 -14 13.63 0.78
2 -1 14 13.57 0.43
-3 1 -14 1.21 0.39
3 -1 14 1.36 0.32
-4 1 -14 24.57 0.81
4 -1 14 23.82 0.55
-5 1 -14 2.69 0.56
5 -1 14 2.14 0.36
-6 1 -14 3.92 0.5
6 -1 14 3.02 0.39
-7 1 -14 1.95 0.53
7 -1 14 1.56 0.39
8 -1 14 1.33 0.4
4 0 -14 0.13 0.11
-4 0 14 0.68 0.62
3 0 -14 5.96 0.41
-3 0 14 6.3 0.52
2 0 -14 1.2 0.37
-2 0 14 1.14 0.45
1 0 -14 2.21 0.37
-1 0 14 2.17 0.44
0 0 -14 2.73 0.33
0 0 14 2.63 0.43
-1 0 -14 9.01 0.48
1 0 14 8.91 0.48
-2 0 -14 6.8 0.44
2 0 14 6.21 0.34
-3 0 -14 3.06 0.43
3 0 14 3.15 0.31
-4 0 -14 12.45 0.53
4 0 14 12.24 0.43
-5 0 -14 0.53 0.39
5 0 14 0.87 0.36
-6 0 -14 22.17 0.79
6 0 14 21.42 0.6
-7 0 -14 12.08 0.64
7 0 14 11.41 0.45
-8 0 -14 12.21 0.64
8 0 14 11.77 0.79
4 -1 -14 0.45 0.38
-4 1 14 0.48 0.52
3 -1 -14 5.81 0.47
-3 1 14 5.89 0.64
2 -1 -14 3.32 0.37
-2 1 14 2.75 0.46
1 -1 -14 5.66 0.53
-1 1 14 6.52 0.52
0 -1 -14 20.44 0.6
0 1 14 20.53 0.73
-1 -1 -14 11.56 0.43
1 1 14 12.76 0.47
-2 -1 -14 56.99 0.85
2 1 14 57.1 0.8
-3 -1 -14 4.02 0.33
3 1 14 4.04 0.42
-4 -1 -14 6.58 0.39
4 1 14 6.72 0.38
-5 -1 -14 0.27 0.37
5 1 14 0.29 0.33
-6 -1 -14 5.92 0.44
6 1 14 5.58 0.43
-7 -1 -14 2.45 0.46
7 1 14 2.57 0.36
-8 -1 -14 3.38 0.48
8 1 14 3.1 0.5
-9 -1 -14 0 1.11
9 1 14 0.49 0.37
4 -2 -14 0.49 0.35
-4 2 14 0.25 0.67
3 -2 -14 0.2 0.39
-3 2 14 0 0.61
2 -2 -14 0.93 0.32
-2 2 14 0.95 0.34
1 -2 -14 10.85 0.5
-1 2 14 10.68 0.6
0 -2 -14 10.66 0.48
0 2 14 9.79 0.58
-1 -2 -14 0.54 0.24
1 2 14 0.49 0.38
-2 -2 -14 9.71 0.43
2 2 14 8.56 0.42
-3 -2 -14 3.1 0.34
3 2 14 2.56 0.3
-4 -2 -14 16.27 0.52
4 2 14 15.91 0.51
-5 -2 -14 6.6 0.45
5 2 14 6.37 0.4
-6 -2 -14 27.01 0.63
6 2 14 25.77 0.64
-7 -2 -14 14.14 0.57
7 2 14 13.41 0.58
-8 -2 -14 1.52 0.42
8 2 14 1.37 0.38
-9 -2 -14 0.93 0.52
9 2 14 0.98 0.42
4 -3 -14 6.34 0.53
-4 3 14 5.42 0.89
3 -3 -14 2.99 0.42
-3 3 14 2.51 0.55
2 -3 -14 2.8 0.36
-2 3 14 2.76 0.39
1 -3 -14 1.17 0.35
-1 3 14 1.37 0.42
0 -3 -14 6.38 0.42
0 3 14 6.74 0.52
-1 -3 -14 3.54 0.32
1 3 14 4.01 0.46
-2 -3 -14 4.96 0.34
2 3 14 4.89 0.41
-3 -3 -14 15.23 0.52
3 3 14 14.89 0.5
-4 -3 -14 40.5 0.72
4 3 14 38.36 0.72
-5 -3 -14 6.71 0.41
5 3 14 5.7 0.35
-6 -3 -14 18.7 0.52
6 3 14 18.64 0.64
-7 -3 -14 0.76 0.35
7 3 14 0.44 0.34
-8 -3 -14 6.08 0.68
8 3 14 5.84 0.55
-9 -3 -14 0.46 0.8
9 3 14 0.37 0.33
3 -4 -14 10.33 0.62
-3 4 14 11.24 0.75
2 -4 -14 7.28 0.41
-2 4 14 7.83 0.48
1 -4 -14 4.89 0.42
-1 4 14 5.27 0.64
0 -4 -14 1.19 0.33
0 4 14 1.42 0.54
-1 -4 -14 4.13 0.41
1 4 14 3.6 0.46
-2 -4 -14 2.26 0.31
2 4 14 2.34 0.37
-3 -4 -14 9.16 0.41
3 4 14 8.32 0.47
-4 -4 -14 7.21 0.41
4 4 14 7.54 0.41
-5 -4 -14 1.82 0.38
5 4 14 1.88 0.33
-6 -4 -14 1.39 0.3
6 4 14 1.21 0.38
-7 -4 -14 4.94 0.41
7 4 14 4.51 0.52
-8 -4 -14 8.43 0.6
8 4 14 7.89 0.58
-9 -4 -14 8.62 1.05
9 4 14 7.76 0.59
3 -5 -14 1.25 0.44
-3 5 14 1.13 0.69
2 -5 -14 1.87 0.45
-2 5 14 1.57 0.72
1 -5 -14 3.3 0.39
-1 5 14 3.41 0.48
0 -5 -14 1.09 0.37
0 5 14 1.31 0.35
-1 -5 -14 26.33 0.64
1 5 14 25.08 0.64
-2 -5 -14 11.95 0.52
2 5 14 11.84 0.52
-3 -5 -14 24.58 0.54
3 5 14 24.45 0.77
-4 -5 -14 14.53 0.54
4 5 14 15.43 0.66
-5 -5 -14 4.41 0.38
5 5 14 4.59 0.42
-6 -5 -14 15.2 0.54
6 5 14 14.99 0.65
-7 -5 -14 0.48 0.34
7 5 14 0.35 0.4
-8 -5 -14 11.98 0.58
8 5 14 11.14 0.56
-9 -5 -14 0.23 0.37
9 5 14 0.17 0.53
-10 -5 -14 2.68 0.84
10 5 14 2.16 0.56
2 -6 -14 0.38 0.35
-2 6 14 0.27 0.54
1 -6 -14 0.53 0.49
-1 6 14 0.94 0.5
0 -6 -14 0.21 0.81
0 6 14 0.01 0.09
-1 -6 -14 0.95 0.45
1 6 14 0.95 0.4
-2 -6 -14 1.17 0.38
2 6 14 1.3 0.4
-3 -6 -14 3.83 0.34
3 6 14 3.83 0.58
-4 -6 -14 3.14 0.35
4 6 14 2.7 0.75
-5 -6 -14 6.85 0.48
5 6 14 6.63 0.46
-6 -6 -14 3.63 0.38
6 6 14 2.85 0.4
-7 -6 -14 5.5 0.42
7 6 14 5.61 0.53
-8 -6 -14 10.81 0.57
8 6 14 10.05 0.77
-9 -6 -14 2.7 0.51
9 6 14 2.55 0.48
-10 -6 -14 2.82 0.86
10 6 14 3.02 0.6
2 -7 -14 1.05 0.57
-2 7 14 0.91 0.48
1 -7 -14 4.91 0.92
-1 7 14 4.19 0.49
0 -7 -14 0.1 0.24
0 7 14 0.12 0.29
-1 -7 -14 4.28 0.43
1 7 14 4.2 0.45
-2 -7 -14 0.92 0.41
2 7 14 1.27 0.42
-3 -7 -14 3.91 0.38
3 7 14 3.68 0.47
-4 -7 -14 2.38 0.34
4 7 14 2.49 0.54
-5 -7 -14 13.6 0.49
5 7 14 12.51 0.79
-6 -7 -14 0.21 0.13
6 7 14 0.32 0.59
-7 -7 -14 8 0.47
7 7 14 7.04 0.91
-8 -7 -14 4.75 0.48
8 7 14 4.93 0.93
-9 -7 -14 0.07 0.08
9 7 14 0.07 1.12
1 -8 -14 1.77 0.77
-1 8 14 1.97 0.52
0 -8 -14 5.33 0.92
0 8 14 5.73 0.53
-1 -8 -14 19.46 0.73
1 8 14 19.72 0.7
-2 -8 -14 3.25 0.49
2 8 14 3.2 0.45
-3 -8 -14 16.17 0.64
3 8 14 16.79 0.72
-4 -8 -14 1.07 0.34
4 8 14 1.43 0.51
-5 -8 -14 7.85 0.41
5 8 14 8.43 0.71
-6 -8 -14 7.37 0.43
6 8 14 7.39 0.68
-7 -8 -14 9.57 0.44
7 8 14 9.79 1.08
-8 -8 -14 2.03 0.38
8 8 14 2.02 0.88
-9 -8 -14 5.01 0.65
9 8 14 5.18 0.95
1 -9 -14 1.59 0.79
-1 9 14 1.85 0.52
0 -9 -14 0.64 0.43
0 9 14 0.65 0.46
-1 -9 -14 0.69 0.74
1 9 14 0.79 0.4
-2 -9 -14 3.45 0.48
2 9 14 3.43 0.54
-3 -9 -14 4.63 0.49
3 9 14 5.27 0.53
-4 -9 -14 1.49 0.36
4 9 14 1.29 0.56
-5 -9 -14 17.67 0.57
5 9 14 16.32 0.88
-6 -9 -14 6.85 0.39
-7 -9 -14 4.23 0.47
7 9 14 3.8 0.9
-8 -9 -14 4.35 0.4
8 9 14 4.19 0.93
-9 -9 -14 2.13 0.42
9 9 14 1.89 0.87
0 -10 -14 4.45 0.85
0 10 14 4.69 0.62
-1 -10 -14 0.34 0.97
1 10 14 0.69 0.49
-2 -10 -14 1.99 0.55
2 10 14 1.7 0.53
-3 -10 -14 0.27 0.51
3 10 14 0.56 0.46
-4 -10 -14 0.19 0.25
4 10 14 0.37 0.54
-5 -10 -14 2.51 0.39
-6 -10 -14 0.67 0.36
-7 -10 -14 2.48 0.38
7 10 14 2.13 0.87
-8 -10 -14 1.5 0.57
8 10 14 1.55 0.83
-9 -10 -14 0.39 0.45
9 10 14 0.1 0.37
-1 -11 -14 1.13 0.77
1 11 14 1.43 0.73
-2 -11 -14 6.27 0.64
2 11 14 5.99 0.64
-3 -11 -14 5.01 0.45
3 11 14 5.43 0.65
-4 -11 -14 7.15 0.49
4 11 14 7.49 0.99
-5 -11 -14 1.76 0.39
5 11 14 1.42 0.74
-6 -11 -14 1.43 0.4
-7 -11 -14 0.21 0.28
-8 -11 -14 0.15 1.07
8 11 14 0.09 0.67
-3 -12 -14 0.6 0.59
3 12 14 0.03 1.54
-4 -12 -14 3.17 0.49
4 12 14 2.87 0.79
-5 -12 -14 0.44 0.52
-6 -12 -14 3.35 0.43
-7 -12 -14 4.29 0.53
1 6 -15 7.46 0.9
-1 -6 15 7.71 0.41
0 6 -15 1.91 0.41
0 -6 15 2.22 0.43
-1 6 -15 6.82 0.45
1 -6 15 7.35 0.48
-2 6 -15 4.92 0.59
2 -6 15 4.49 0.49
-3 6 -15 0.79 0.42
3 -6 15 0.66 0.36
-2 -5 15 0.09 0.38
1 5 -15 3.83 0.81
-1 -5 15 3.75 0.37
0 5 -15 1.4 0.5
0 -5 15 1.47 0.37
-1 5 -15 1.75 0.51
1 -5 15 2.06 0.39
-2 5 -15 1.59 0.39
2 -5 15 1.56 0.37
-3 5 -15 11.46 0.75
3 -5 15 12.43 0.56
-4 5 -15 9.95 0.72
4 -5 15 9.69 0.6
2 4 -15 2.4 0.43
-2 -4 15 2.09 0.54
1 4 -15 3.73 0.58
-1 -4 15 3.64 0.4
0 4 -15 10.03 0.73
0 -4 15 9.11 0.45
-1 4 -15 2.1 0.52
1 -4 15 1.67 0.38
-2 4 -15 2.39 0.54
2 -4 15 2.48 0.39
-3 4 -15 0.14 0.18
3 -4 15 0.26 0.31
-4 4 -15 7.21 0.67
4 -4 15 7.5 0.57
-5 4 -15 0.64 0.53
5 -4 15 0.53 0.3
3 3 -15 4.1 0.47
-3 -3 15 3.54 0.45
2 3 -15 2.13 0.42
-2 -3 15 2.02 0.52
1 3 -15 4.02 0.57
-1 -3 15 4.85 0.62
0 3 -15 4.52 0.53
0 -3 15 5.09 0.39
-1 3 -15 14.09 0.72
1 -3 15 14.83 0.52
-2 3 -15 7.87 0.78
2 -3 15 7.37 0.48
-3 3 -15 2.45 0.42
3 -3 15 2.23 0.37
-4 3 -15 2.64 0.56
4 -3 15 2.21 0.36
-5 3 -15 5.65 0.65
5 -3 15 4.96 0.45
-6 3 -15 0.71 0.46
6 -3 15 0.54 0.37
3 2 -15 0.65 0.37
-3 -2 15 0.46 0.6
2 2 -15 6.01 0.53
-2 -2 15 5.8 0.52
1 2 -15 5.74 0.51
-1 -2 15 6.19 0.66
0 2 -15 0.53 0.33
0 -2 15 0.6 0.38
-1 2 -15 4.02 0.59
1 -2 15 4.32 0.49
-2 2 -15 1.8 0.52
2 -2 15 1.18 0.34
-3 2 -15 10.32 0.6
3 -2 15 10.25 0.47
-4 2 -15 9.6 0.65
4 -2 15 10 0.43
-5 2 -15 20.64 0.95
5 -2 15 19.72 0.78
-6 2 -15 17.11 0.71
6 -2 15 17.19 0.73
-7 2 -15 5.51 0.63
7 -2 15 4.78 0.45
3 1 -15 0.92 0.35
-3 -1 15 1.01 0.69
2 1 -15 5.59 0.45
-2 -1 15 6.41 0.94
1 1 -15 5.28 0.45
-1 -1 15 6.32 0.54
0 1 -15 3.83 0.48
0 -1 15 3.94 0.61
-1 1 -15 2.46 0.45
1 -1 15 2.64 0.38
-2 1 -15 0.33 0.42
2 -1 15 0.21 0.38
-3 1 -15 1.02 0.49
3 -1 15 0.84 0.28
-4 1 -15 0.24 0.29
4 -1 15 0.06 0.13
-5 1 -15 0.49 0.45
5 -1 15 0.51 0.37
-6 1 -15 0.12 0.32
6 -1 15 0.15 0.27
-7 1 -15 2.35 0.45
7 -1 15 2.47 0.37
3 0 -15 1.49 0.35
-3 0 15 0.9 0.82
2 0 -15 1.51 0.37
-2 0 15 1.77 0.73
1 0 -15 5.13 0.4
-1 0 15 4.71 0.6
0 0 -15 3.61 0.4
0 0 15 3.22 0.47
-1 0 -15 15.23 0.69
1 0 15 14.91 0.67
-2 0 -15 1.85 0.37
2 0 15 1.42 0.32
-3 0 -15 17.55 0.7
3 0 15 17.38 0.57
-4 0 -15 0.02 0.38
4 0 15 0.02 0.08
-5 0 -15 2.59 0.46
5 0 15 2.72 0.35
-6 0 -15 1.25 0.43
6 0 15 1.38 0.38
-7 0 -15 0.13 0.8
7 0 15 0.1 0.24
-8 0 -15 2.05 0.45
8 0 15 2.16 0.47
3 -1 -15 1.37 0.35
-3 1 15 1.16 0.48
2 -1 -15 4.31 0.43
-2 1 15 4.71 0.49
1 -1 -15 0.57 0.32
-1 1 15 0.22 0.32
0 -1 -15 7.57 0.39
0 1 15 7.39 0.68
-1 -1 -15 0.81 0.32
1 1 15 0.79 0.44
-2 -1 -15 3.68 0.36
2 1 15 3.51 0.47
-3 -1 -15 15.77 0.58
3 1 15 15.8 0.52
-4 -1 -15 2.91 0.35
4 1 15 2.8 0.35
-5 -1 -15 34.33 0.79
5 1 15 34.05 0.71
-6 -1 -15 6.24 0.55
6 1 15 5.29 0.41
-7 -1 -15 5.28 0.52
7 1 15 5.2 0.46
-8 -1 -15 1.16 0.44
8 1 15 1 0.43
3 -2 -15 1.67 0.45
-3 2 15 1.63 0.72
2 -2 -15 4.8 0.43
-2 2 15 5.08 0.5
1 -2 -15 6.71 0.46
-1 2 15 7.02 0.54
0 -2 -15 0.57 0.31
0 2 15 0.59 0.38
-1 -2 -15 2.04 0.32
1 2 15 1.85 0.36
-2 -2 -15 5.04 0.39
2 2 15 4.8 0.49
-3 -2 -15 1.59 0.3
3 2 15 1.43 0.38
-4 -2 -15 0.02 0.03
4 2 15 0.17 1.9
-5 -2 -15 5.63 0.63
5 2 15 5.08 0.4
-6 -2 -15 1.81 0.4
6 2 15 1.53 0.38
-7 -2 -15 17.72 0.9
7 2 15 17.2 0.63
-8 -2 -15 5.84 0.88
8 2 15 5.1 0.46
3 -3 -15 1.01 0.41
-3 3 15 0.7 0.48
2 -3 -15 4.41 0.42
-2 3 15 4.24 0.61
1 -3 -15 4.69 0.42
-1 3 15 4.31 0.49
0 -3 -15 4.29 0.41
0 3 15 4.04 0.49
-1 -3 -15 6.6 0.43
1 3 15 7.19 0.54
-2 -3 -15 12.83 0.49
2 3 15 12.74 0.54
-3 -3 -15 32.88 0.78
3 3 15 33.85 0.78
-4 -3 -15 9.79 0.5
4 3 15 9.22 0.44
-5 -3 -15 3.75 0.42
5 3 15 3.86 0.37
-6 -3 -15 0.1 0.2
6 3 15 0.03 0.09
-7 -3 -15 0.25 0.37
7 3 15 0.4 0.45
-8 -3 -15 1.2 0.47
8 3 15 1.16 0.43
-9 -3 -15 2.6 0.84
9 3 15 2.54 0.48
2 -4 -15 1.06 0.42
-2 4 15 1.07 0.53
1 -4 -15 0.32 0.35
-1 4 15 0.27 0.36
0 -4 -15 11.53 0.59
0 4 15 11.55 0.63
-1 -4 -15 2.39 0.4
1 4 15 2.82 0.75
-2 -4 -15 1.96 0.35
2 4 15 1.89 0.42
-3 -4 -15 0.95 0.32
3 4 15 0.61 0.37
-4 -4 -15 3.79 0.43
4 4 15 3.25 0.47
-5 -4 -15 3.41 0.38
5 4 15 3.21 0.41
-6 -4 -15 6.41 0.38
6 4 15 5.67 0.52
-7 -4 -15 13.55 0.53
7 4 15 12.51 0.8
-8 -4 -15 6.05 0.56
8 4 15 5.2 0.93
9 4 15 2.14 0.56
2 -5 -15 1.35 0.72
-2 5 15 1.88 0.7
1 -5 -15 1.13 0.74
-1 5 15 1.31 0.42
0 -5 -15 5.18 0.5
0 5 15 5.04 0.51
-1 -5 -15 5.05 0.45
1 5 15 6.2 0.91
-2 -5 -15 7.69 0.39
2 5 15 8.35 1
-3 -5 -15 0.99 0.38
3 5 15 0.76 0.51
-4 -5 -15 19.2 0.53
4 5 15 19.23 0.91
-5 -5 -15 7.76 0.44
5 5 15 7.78 0.56
-6 -5 -15 13.06 0.53
6 5 15 12.35 0.77
-7 -5 -15 3.36 0.45
7 5 15 3.15 0.61
-8 -5 -15 2.19 0.49
8 5 15 2.41 0.47
-9 -5 -15 1.51 0.62
9 5 15 1.51 0.54
1 -6 -15 5.43 0.63
-1 6 15 5.98 0.63
0 -6 -15 3.09 0.56
0 6 15 3.48 0.58
-1 -6 -15 1.59 0.4
1 6 15 2.27 0.68
-2 -6 -15 5.05 0.37
2 6 15 5.21 0.48
-3 -6 -15 2.4 0.43
3 6 15 2.89 0.58
-4 -6 -15 9.37 0.4
4 6 15 8.95 0.73
-5 -6 -15 6.26 0.43
5 6 15 6.24 0.66
-6 -6 -15 3.41 0.39
6 6 15 2.89 0.87
-7 -6 -15 0.51 0.33
7 6 15 0.5 0.53
-8 -6 -15 0.05 0.12
8 6 15 0 0.01
-9 -6 -15 2.96 0.49
9 6 15 2.7 0.89
1 -7 -15 1.38 0.52
-1 7 15 1.41 0.43
0 -7 -15 0.45 0.51
0 7 15 0.63 0.45
-1 -7 -15 2.98 0.79
1 7 15 1.98 0.58
-2 -7 -15 9.6 0.46
2 7 15 9.45 0.54
-3 -7 -15 0.17 0.21
3 7 15 0.07 0.15
-4 -7 -15 16.74 0.6
4 7 15 16.83 0.89
-5 -7 -15 1.05 0.37
5 7 15 0.99 0.49
-6 -7 -15 8.16 0.47
-7 -7 -15 2.5 0.43
7 7 15 2.62 0.82
-8 -7 -15 2.47 0.42
8 7 15 2.02 0.78
-9 -7 -15 0.64 0.44
9 7 15 0.61 0.7
0 -8 -15 0.7 0.51
0 8 15 0.79 0.5
-1 -8 -15 2.98 0.57
1 8 15 2.61 0.45
-2 -8 -15 0.75 0.49
2 8 15 0.73 0.47
-3 -8 -15 0.17 0.32
3 8 15 0.28 0.68
-4 -8 -15 3.68 0.41
4 8 15 3.71 0.62
-5 -8 -15 1.36 0.37
5 8 15 1.15 0.55
-6 -8 -15 1.4 0.36
-7 -8 -15 2.35 0.37
7 8 15 2.2 0.79
-8 -8 -15 1.49 0.41
8 8 15 1.66 0.85
-9 -8 -15 7.95 0.59
9 8 15 8.04 1.02
-1 -9 -15 1.12 0.52
1 9 15 1.35 0.52
-2 -9 -15 3.46 0.6
2 9 15 4.11 0.62
-3 -9 -15 2.26 0.46
3 9 15 1.98 0.56
-4 -9 -15 2.3 0.41
4 9 15 2.23 0.76
-5 -9 -15 3.06 0.44
5 9 15 2.78 0.56
-6 -9 -15 4.76 0.41
-7 -9 -15 0.73 0.35
7 9 15 0.77 0.88
-8 -9 -15 2.03 0.37
-2 -10 -15 4.11 0.59
2 10 15 3.95 0.6
-3 -10 -15 5.39 0.53
3 10 15 5.38 0.91
-4 -10 -15 1.47 0.38
-5 -10 -15 3.91 0.52
5 10 15 4.31 0.87
-6 -10 -15 0.51 0.39
-7 -10 -15 9.14 0.48
-8 -10 -15 2.66 0.63
8 10 15 3.06 0.88
-3 -11 -15 0.63 0.39
3 11 15 0.64 0.59
-4 -11 -15 0.04 0.16
4 11 15 0.31 1.11
-5 -11 -15 1.06 0.38
-6 -11 -15 2.9 0.38
0 4 -16 10.97 0.98
0 -4 16 10.97 0.71
-1 4 -16 1.42 0.51
1 -4 16 1.38 0.42
-2 4 -16 7.46 0.66
2 -4 16 7.62 0.55
-3 4 -16 3.92 0.58
3 -4 16 3.47 0.37
1 3 -16 0.35 0.62
-1 -3 16 0.56 0.46
0 3 -16 4.94 0.6
0 -3 16 5.05 0.6
-1 3 -16 4.79 0.6
1 -3 16 4.51 0.49
-2 3 -16 1.07 0.41
2 -3 16 1.08 0.42
-3 3 -16 0.69 0.41
3 -3 16 0.75 0.38
-4 3 -16 6.93 0.66
4 -3 16 7.11 0.42
-5 3 -16 5.27 0.51
5 -3 16 5.77 0.45
1 2 -16 4.21 0.41
-1 -2 16 3.78 0.47
0 2 -16 5.04 0.6
0 -2 16 4.98 0.43
-1 2 -16 10.81 0.75
1 -2 16 9.67 0.5
-2 2 -16 8.51 0.57
2 -2 16 7.97 0.44
-3 2 -16 0.36 0.38
3 -2 16 0.3 0.31
-4 2 -16 2.7 0.56
4 -2 16 2.47 0.39
-5 2 -16 4.67 0.61
5 -2 16 4.56 0.44
-6 2 -16 0.45 0.63
6 -2 16 0.27 0.4
2 1 -16 1.95 0.42
-2 -1 16 2.24 0.53
1 1 -16 0.74 0.45
-1 -1 16 0.72 0.91
0 1 -16 3.97 0.42
0 -1 16 4.3 0.58
-1 1 -16 5.78 0.64
1 -1 16 6.69 0.41
-2 1 -16 13.51 0.81
2 -1 16 13.44 0.56
-3 1 -16 5.95 0.52
3 -1 16 6.54 0.47
-4 1 -16 5.74 0.88
4 -1 16 5.59 0.4
-5 1 -16 0.5 0.42
5 -1 16 0.25 0.26
-6 1 -16 3.05 0.47
6 -1 16 3.04 0.41
2 0 -16 0.17 0.29
-2 0 16 0.01 0.37
1 0 -16 1.24 0.4
-1 0 16 1.5 0.51
0 0 -16 0.75 0.35
0 0 16 0.82 0.72
-1 0 -16 0.38 0.34
1 0 16 0.27 0.49
-2 0 -16 0.46 0.47
2 0 16 0.41 0.46
-3 0 -16 2.26 0.39
3 0 16 1.76 0.39
-4 0 -16 6.73 0.54
4 0 16 7.14 0.43
-5 0 -16 2.37 0.54
5 0 16 2.09 0.36
-6 0 -16 19.39 0.74
6 0 16 19.06 0.58
-7 0 -16 2.06 0.47
7 0 16 2.13 0.4
2 -1 -16 1.57 0.32
-2 1 16 1.36 0.42
1 -1 -16 4.84 0.49
-1 1 16 5.18 0.61
0 -1 -16 1.97 0.38
0 1 16 2.28 0.54
-1 -1 -16 1.45 0.38
1 1 16 1.45 0.42
-2 -1 -16 1.83 0.33
2 1 16 2.33 0.45
-3 -1 -16 0.17 0.54
3 1 16 0.21 0.47
-4 -1 -16 0.73 0.33
4 1 16 0.67 0.4
-5 -1 -16 0.43 0.46
5 1 16 0.19 0.18
-6 -1 -16 0.42 0.39
6 1 16 0.8 0.35
-7 -1 -16 0.01 0.04
7 1 16 0.28 0.31
2 -2 -16 0.05 0.17
-2 2 16 0.01 0.15
1 -2 -16 3.01 0.36
-1 2 16 2.9 0.46
0 -2 -16 0.35 0.34
0 2 16 0.44 0.46
-1 -2 -16 5.97 0.41
1 2 16 5.78 0.52
-2 -2 -16 7.33 0.47
2 2 16 7.73 0.56
-3 -2 -16 7.35 0.48
3 2 16 6.21 0.46
-4 -2 -16 8.51 0.5
4 2 16 8.49 0.5
-5 -2 -16 4.28 0.61
5 2 16 3.56 0.38
-6 -2 -16 1.55 0.38
6 2 16 1.73 0.54
-7 -2 -16 0.44 0.56
7 2 16 0.17 0.47
-8 -2 -16 0.67 0.58
8 2 16 0.75 0.64
1 -3 -16 4.22 0.42
-1 3 16 4.08 0.48
0 -3 -16 0.36 0.37
-1 -3 -16 5.94 0.46
1 3 16 5.68 0.63
-2 -3 -16 0.82 0.34
2 3 16 0.64 0.33
-3 -3 -16 4.44 0.5
3 3 16 4.55 0.5
-4 -3 -16 7.98 0.57
4 3 16 8.12 0.57
-5 -3 -16 8.27 0.57
5 3 16 7.88 0.7
-6 -3 -16 20.38 0.67
6 3 16 19.67 0.64
-7 -3 -16 8.95 0.59
7 3 16 8.17 0.72
-8 -3 -16 1.44 0.75
8 3 16 1.41 0.57
1 -4 -16 3.56 0.47
-1 4 16 3.98 0.6
0 -4 -16 8.88 0.59
0 4 16 9.92 0.73
-1 -4 -16 2.05 0.39
1 4 16 2.01 0.46
-2 -4 -16 3.2 0.42
2 4 16 3.18 0.47
-3 -4 -16 6.86 0.56
3 4 16 6.04 0.65
-4 -4 -16 1.35 0.39
4 4 16 1.57 0.5
-5 -4 -16 0.01 0.09
5 4 16 0.03 0.32
-6 -4 -16 0.01 0.07
6 4 16 0.04 0.2
-7 -4 -16 1.25 0.4
7 4 16 0.9 0.7
-8 -4 -16 2.69 0.61
8 4 16 2.38 0.47
1 -5 -16 0.8 0.53
-1 5 16 1.01 0.5
0 -5 -16 7.82 0.56
0 5 16 6.77 0.93
-1 -5 -16 2.02 0.4
1 5 16 1.95 0.54
-2 -5 -16 2.05 0.42
2 5 16 2.09 0.56
-3 -5 -16 13.31 0.49
3 5 16 12.85 1.14
-4 -5 -16 7.14 0.44
4 5 16 7 0.68
-5 -5 -16 13.77 0.58
5 5 16 12.66 0.79
-6 -5 -16 0.07 0.11
6 5 16 0.06 0.47
-7 -5 -16 0.79 0.33
7 5 16 0.59 0.43
-8 -5 -16 2.05 0.55
8 5 16 1.46 0.51
0 -6 -16 0.88 0.55
0 6 16 0.98 0.52
-1 -6 -16 8.75 0.45
1 6 16 8.88 0.72
-2 -6 -16 1.33 0.34
2 6 16 1.6 0.53
-3 -6 -16 2.81 0.37
3 6 16 3.04 0.58
-4 -6 -16 0.19 0.35
4 6 16 0.26 0.66
-5 -6 -16 2.47 0.37
5 6 16 1.88 0.57
-6 -6 -16 0.52 0.3
6 6 16 0.36 0.52
-7 -6 -16 5.61 0.42
7 6 16 5.06 0.92
-8 -6 -16 6.78 0.58
0 -7 -16 1.21 0.49
0 7 16 1.16 0.5
-1 -7 -16 3.96 0.42
1 7 16 3.66 0.6
-2 -7 -16 0.91 0.33
2 7 16 1.12 0.49
-3 -7 -16 1.38 0.4
3 7 16 1.38 0.55
-4 -7 -16 0.17 0.3
4 7 16 0.08 0.7
-5 -7 -16 3.32 0.39
5 7 16 3.09 0.6
-6 -7 -16 3.32 0.43
6 7 16 2.6 0.77
-7 -7 -16 5.88 0.49
7 7 16 5.77 0.64
-8 -7 -16 3.65 0.43
8 7 16 3.34 0.88
-1 -8 -16 1.65 0.55
1 8 16 1.82 0.44
-2 -8 -16 0.81 0.38
2 8 16 0.89 0.49
-3 -8 -16 2.55 0.41
3 8 16 2.38 0.57
-4 -8 -16 2.85 0.42
4 8 16 2.93 0.57
-5 -8 -16 2.13 0.41
5 8 16 2.55 0.79
-6 -8 -16 6.12 0.48
6 8 16 5.49 0.91
-7 -8 -16 0.66 0.4
7 8 16 0.66 0.92
-2 -9 -16 1.71 0.45
2 9 16 1.15 0.49
-3 -9 -16 0.85 0.35
3 9 16 0.4 0.61
-4 -9 -16 1.17 0.38
4 9 16 1.39 0.74
-5 -9 -16 1.71 0.55
5 9 16 1.39 0.51
-6 -9 -16 3.51 0.44
-7 -9 -16 0.83 0.45
-4 -10 -16 1.33 0.38
4 10 16 1.07 0.78
-5 -10 -16 3.31 0.43
5 10 16 3.36 0.87
-1 2 -17 6.16 0.62
1 -2 17 6.64 0.64
-2 2 -17 2.19 0.42
2 -2 17 2.05 0.43
-3 2 -17 2.77 0.43
3 -2 17 3.04 0.4
0 1 -17 0.5 0.47
0 -1 17 0.45 0.72
-1 1 -17 0.72 0.67
1 -1 17 0.93 0.4
-2 1 -17 4.35 0.47
-3 1 -17 1.09 0.41
3 -1 17 0.71 0.49
-4 1 -17 1.4 0.69
4 -1 17 1.07 0.35
-5 1 -17 6 0.62
5 -1 17 5.79 0.52
0 0 -17 5.3 0.43
0 0 17 5.29 0.61
-1 0 -17 1.48 0.52
1 0 17 1.16 0.57
-2 0 -17 10.93 1.05
2 0 17 9.92 0.5
-3 0 -17 5.09 0.49
3 0 17 5.24 0.63
-4 0 -17 1.03 0.67
4 0 17 1.08 0.53
-5 0 -17 3.76 0.57
5 0 17 3.83 0.42
0 -1 -17 1.21 0.4
0 1 17 1.05 0.49
-1 -1 -17 1.55 0.41
1 1 17 1.68 0.52
-2 -1 -17 6.32 0.51
2 1 17 6.36 0.52
-3 -1 -17 8.76 0.56
3 1 17 8.92 0.57
-4 -1 -17 3.71 0.57
4 1 17 4.18 0.43
-5 -1 -17 5.59 0.62
5 1 17 5.87 0.53
-6 -1 -17 0.54 0.47
6 1 17 0.43 0.39
0 -2 -17 0.79 0.4
0 2 17 0.97 0.71
-1 -2 -17 1.66 0.37
1 2 17 1.43 0.54
-2 -2 -17 0.88 0.32
2 2 17 0.81 0.39
-3 -2 -17 1.68 0.52
3 2 17 1.36 0.43
-4 -2 -17 0.67 0.42
4 2 17 0.71 0.56
-5 -2 -17 1.8 0.54
5 2 17 1.45 0.36
-6 -2 -17 1.94 0.6
6 2 17 1.61 0.54
0 -3 -17 4.12 0.42
0 3 17 3.83 0.47
-1 -3 -17 2.73 0.4
1 3 17 2.57 0.45
-2 -3 -17 2.7 0.41
2 3 17 2.36 0.54
-3 -3 -17 0.96 0.42
3 3 17 1.03 0.71
-4 -3 -17 1.65 0.53
4 3 17 1.14 0.56
-5 -3 -17 0.48 0.35
5 3 17 0.34 0.59
-6 -3 -17 2.64 0.41
6 3 17 2.47 0.55
-7 -3 -17 1.26 0.51
7 3 17 1.23 0.52
0 -4 -17 3.13 0.4
0 4 17 2.9 0.76
-1 -4 -17 0.09 0.35
1 4 17 0.03 0.14
-2 -4 -17 6.74 0.55
2 4 17 7.44 0.66
-3 -4 -17 3.17 0.4
3 4 17 3.25 0.58
-4 -4 -17 7.84 0.49
4 4 17 7.01 0.95
-5 -4 -17 0.86 0.43
5 4 17 0.66 0.63
-6 -4 -17 4.97 0.45
6 4 17 3.65 0.57
-7 -4 -17 0.18 0.55
7 4 17 0.01 1.13
-1 -5 -17 0.12 0.3
1 5 17 0.24 0.48
-2 -5 -17 0.44 0.37
2 5 17 0.54 0.51
-3 -5 -17 0.72 0.41
3 5 17 0.64 0.54
-4 -5 -17 0.56 0.39
4 5 17 0.71 0.44
-5 -5 -17 4.09 0.39
5 5 17 4.17 0.82
-6 -5 -17 4.44 0.45
6 5 17 4.39 0.61
-7 -5 -17 10.64 0.48
7 5 17 9.34 1.02
-1 -6 -17 3.2 0.41
1 6 17 3.89 0.82
-2 -6 -17 1.93 0.45
2 6 17 1.95 0.54
-3 -6 -17 0.16 0.39
3 6 17 0.47 0.51
-4 -6 -17 2.41 0.48
4 6 17 2.15 0.54
-5 -6 -17 0.67 0.34
5 6 17 0.79 0.51
-6 -6 -17 0.83 0.33
6 6 17 0.8 0.67
-7 -6 -17 0.63 0.42
7 6 17 0.5 0.86
-2 -7 -17 1.48 0.45
2 7 17 1.32 0.53
-3 -7 -17 3.45 0.42
3 7 17 3.35 0.58
-4 -7 -17 4.11 0.44
4 7 17 4.09 0.61
-5 -7 -17 6.24 0.42
5 7 17 5.68 0.63
-6 -7 -17 3.07 0.49
6 7 17 2.58 0.78
-4 -8 -17 0.97 0.38
4 8 17 1.04 0.47
-5 -8 -17 0.5 0.39
5 8 17 0.8 0.5
-3 -2 -18 4.29 0.47
3 2 18 4.47 0.85
-4 -2 -18 1.45 0.52
4 2 18 1.43 0.53
-3 -3 -18 3.35 0.57
3 3 18 4.62 0.84
-4 -3 -18 1.97 0.56
4 3 18 2.21 0.76
-3 -4 -18 0.58 0.5
3 4 18 0.89 0.49
-4 -4 -18 0.6 0.37
4 4 18 0.78 0.69
