#------------------------------------------------------------------------------
#$Date: 2020-04-10 08:18:30 +0300 (Fri, 10 Apr 2020) $
#$Revision: 250621 $
#$URL: file:///home/coder/svn-repositories/cod/cif/2/02/20/2022042.cif $
#------------------------------------------------------------------------------
#
# This file is available in the Crystallography Open Database (COD),
# http://www.crystallography.net/. The original data for this entry
# were provided by IUCr Journals, http://journals.iucr.org/.
#
# The file may be used within the scientific community so long as
# proper attribution is given to the journal article from which the
# data were obtained.
#
data_2022042
loop_
_publ_author_name
'Jha, Kunal Kumar'
'Gruza, Barbara'
'Kumar, Prashant'
'Chodkiewicz, Michal Leszek'
'Dominiak, Paulina Maria'
_publ_section_title
;
 TAAM: a reliable and user friendly tool for hydrogen-atom location using
 routine X-ray diffraction data
;
_journal_issue                   3
_journal_name_full
'Acta Crystallographica Section B Structural Science, Crystal Engineering and Materials'
_journal_paper_doi               10.1107/S2052520620002917
_journal_volume                  76
_journal_year                    2020
_chemical_absolute_configuration unk
_chemical_formula_moiety         'C4 H9 N O3'
_chemical_formula_sum            'C4 H9 N O3'
_chemical_formula_weight         119.12
_space_group_crystal_system      orthorhombic
_space_group_IT_number           19
_space_group_name_Hall           'P 2ac 2ab'
_space_group_name_H-M_alt        'P 21 21 21'
_symmetry_Int_Tables_number      19
_audit_creation_date             2019-09-26
_audit_creation_method
;
Olex2 1.2
(compiled 2018.05.29 svn.r3508 for OlexSys, GUI svn.r5506)
;
_cell_angle_alpha                90.0
_cell_angle_beta                 90.0
_cell_angle_gamma                90.0
_cell_formula_units_Z            4
_cell_length_a                   9.1735(1)
_cell_length_b                   11.4736(2)
_cell_length_c                   5.4171(1)
_cell_measurement_temperature    100
_cell_volume                     570.166(16)
_computing_molecular_graphics    'Olex2 (Dolomanov et al., 2009)'
_computing_publication_material  'Olex2 (Dolomanov et al., 2009)'
_computing_structure_refinement  'olex2.refine (Bourhis et al., 2015)'
_diffrn_ambient_temperature      100
_diffrn_measured_fraction_theta_full 1.0000
_diffrn_measured_fraction_theta_max 1.0000
_diffrn_radiation_type           'Mo K\a'
_diffrn_radiation_wavelength     0.7107
_diffrn_reflns_av_R_equivalents  0.0000
_diffrn_reflns_av_unetI/netI     0.0222
_diffrn_reflns_limit_h_max       21
_diffrn_reflns_limit_h_min       -21
_diffrn_reflns_limit_k_max       27
_diffrn_reflns_limit_k_min       0
_diffrn_reflns_limit_l_max       12
_diffrn_reflns_limit_l_min       0
_diffrn_reflns_number            8014
_diffrn_reflns_theta_full        26.4963
_diffrn_reflns_theta_max         26.50
_diffrn_reflns_theta_min         2.84
_exptl_absorpt_coefficient_mu    0.118
_exptl_crystal_density_diffrn    1.3876
_exptl_crystal_F_000             256.1773
_refine_diff_density_max         0.0967
_refine_diff_density_min         -0.1268
_refine_diff_density_rms         0.0327
_refine_ls_abs_structure_details
'Flack, H. D. (1983). Acta Cryst. A39, 876-881.'
_refine_ls_abs_structure_Flack   -1.5(6)
_refine_ls_d_res_high            0.7965
_refine_ls_d_res_low             7.1649
_refine_ls_goodness_of_fit_ref   1.1821
_refine_ls_hydrogen_treatment    refall
_refine_ls_matrix_type           full
_refine_ls_number_constraints    0
_refine_ls_number_parameters     154
_refine_ls_number_reflns         1181
_refine_ls_number_restraints     0
_refine_ls_restrained_S_all      1.1821
_refine_ls_R_factor_all          0.0156
_refine_ls_R_factor_gt           0.0152
_refine_ls_shift/su_max          0.0002
_refine_ls_shift/su_mean         0.0000
_refine_ls_structure_factor_coef Fsqd
_refine_ls_weighting_details
'w=1/[\s^2^(Fo^2^)+(0.0189P)^2^+0.0296P] where P=(Fo^2^+2Fc^2^)/3'
_refine_ls_weighting_scheme      calc
_refine_ls_wR_factor_gt          0.0356
_refine_ls_wR_factor_ref         0.0359
_reflns_Friedel_coverage         1.000
_reflns_limit_h_max              11
_reflns_limit_h_min              -11
_reflns_limit_k_max              14
_reflns_limit_k_min              -14
_reflns_limit_l_max              6
_reflns_limit_l_min              -6
_reflns_number_gt                1157
_reflns_number_total             1181
_reflns_threshold_expression     I>=2u(I)
_iucr_refine_instructions_details
;
TITL L-homoserine
CELL 0.71073 9.1735 11.4736 5.4171 90 90 90
ZERR 4 0 0 0 0 0 0
LATT -1
SYMM 0.5-X,-Y,0.5+Z
SYMM 0.5+X,0.5-Y,-Z
SYMM -X,0.5+Y,0.5-Z
SFAC C H N O
UNIT 16 36 4 12

ACTA 
BOND $H
OMIT -10 53
WGHT 0.018857 0.029624
FVAR 1.001871
REM <olex2.extras>
REM <HklSrc "%.\\feccb9bdb9fbc4a7de7da1446c71926b.hkl">
REM </olex2.extras>

O(1)  4     0.25685  0.77754  1.20117  11.00000  0.00927  0.02080  0.00753 =
 -0.00081 -0.00085 -0.00369 
O(2)  4     0.02234  0.73557  1.24648  11.00000  0.00954  0.03895  0.01026 =
 -0.00002  0.00141 -0.00510 
O(3)  4    -0.08979  0.52139  0.75337  11.00000  0.01396  0.01167  0.03292 =
 -0.00010 -0.00415 -0.00226 
H(3)  2    -0.13742  0.59081  0.79598  11.00000  0.02587  0.02133  0.05593 =
 -0.00940  0.00587  0.00508 
N(1)  3     0.22830  0.80481  0.70956  11.00000  0.00865  0.01135  0.00824 =
 0.00050 -0.00005 -0.00003 
H(1a  2     0.22932  0.78994  0.51581  11.00000  0.02858  0.03377  0.03031 =
 0.00110 -0.02339 -0.00167 
H(1b  2     0.19806  0.89151  0.72905  11.00000  0.01793  0.02147  0.05230 =
 0.00857  0.00081 -0.00572 
H(1c  2     0.33113  0.79423  0.77552  11.00000  0.03149  0.01817  0.04014 =
 0.00772  0.02010 -0.00679 
C(1)  1     0.13243  0.75059  1.11811  11.00000  0.00762  0.01379  0.00849 =
 -0.00002 -0.00040 -0.00160 
C(2)  1     0.12205  0.72877  0.83953  11.00000  0.00828  0.01043  0.00768 =
 -0.00078 -0.00119  0.00004 
H(2)  2     0.01655  0.74928  0.77134  11.00000  0.01212  0.01805  0.02946 =
 0.00142  0.00059 -0.01000 
C(3)  1     0.15705  0.60122  0.77954  11.00000  0.01242  0.01008  0.01613 =
 -0.00169 -0.00120  0.00066 
H(3a  2     0.16139  0.59484  0.58233  11.00000  0.02114  0.02023  0.05154 =
 -0.00084 -0.00112  0.00614 
H(3b  2     0.26557  0.58081  0.86004  11.00000  0.02535  0.01647  0.04197 =
 -0.00088 -0.00515  0.00903 
C(4)  1     0.04645  0.51436  0.87910  11.00000  0.01615  0.00984  0.02613 =
 0.00320 -0.00332 -0.00111 
H(4a  2     0.03189  0.52685  1.07510  11.00000  0.05406  0.03295  0.03815 =
 0.01711 -0.00456 -0.00665 
H(4b  2     0.08720  0.42713  0.84596  11.00000  0.03509  0.01549  0.07292 =
 -0.00304 -0.00738 -0.00167 
HKLF 4

END
Q1 1 -0.166667 0.625 0.944444 11 0.05 0.1
Q2 1 -0.166667 0.625 0.555556 11 0.05 0.09
Q3 1 -0.033333 0.6 0.5 11 0.05 0.09
Q4 1 0.133333 0.75 1 11 0.05 0.08
Q5 1 0.2 0.65 0.944444 11 0.05 0.07
Q6 1 0.033333 0.775 0.944444 11 0.05 0.07
Q7 1 0.166667 0.375 1 11 0.05 0.07
Q8 1 0.166667 0.95 0.5 11 0.05 0.07
Q9 1 0.166667 0.5 1 11 0.05 0.07
Q10 1 0.333333 0.775 1.111111 11 0.05 0.07
Q11 1 0.333333 0.925 0.611111 11 0.05 0.07
Q12 1 0.133333 0.6 0.5 11 0.05 0.07
Q13 1 0.333333 0.725 0.5 11 0.05 0.07
Q14 1 0.333333 0.675 1.055556 11 0.05 0.06
Q15 1 0.433333 0.625 1 11 0.05 0.06
Q16 1 0.066667 0.65 1 11 0.05 0.06
Q17 1 0.033333 0.375 1 11 0.05 0.06
Q18 1 0.166667 0.85 0.555556 11 0.05 0.06
Q19 1 0.033333 0.525 0.555556 11 0.05 0.06
Q20 1 0.033333 0.725 0.555556 11 0.05 0.05

  REM The information below was added by Olex2.
  REM
  REM R1 = 0.0152 for 1157 Fo > 4sig(Fo) and 0.0156 for all 1181 data
  REM 154 parameters refined using 0 restraints
  REM Highest difference peak 0.0967, deepest hole -0.1268
  REM Mean Shift 0.0000, Max Shift 0.0002.

  REM +++ Tabular Listing of Refinement Information +++
  REM R1_all = 0.0156
  REM R1_gt = 0.0152
  REM wR_ref = 0.0359
  REM GOOF = 1.1821
  REM Shift_max = 0.0002
  REM Shift_mean = 0.0000
  REM Reflections_all = 1181
  REM Reflections_gt = 1157
  REM Parameters = 154
  REM Hole = -0.1268
  REM Peak = 0.0967
  REM Flack = -1.5(6)

  
;
_cod_data_source_file            38_TAAM_ANIS_0.8.cif
_cod_data_source_block           38_TAAM_ANIS_0.8
_cod_original_cell_volume        570.167(16)
_cod_original_sg_symbol_Hall     ' P 2ac 2ab'
_cod_database_code               2022042
_olex2_refinement_description
;
;
_iucr_refine_fcf_details
;
data_L-homoserine
_computing_structure_refinement   'olex2.refine (Bourhis et al., 2015)'
_shelx_refln_list_code            4
loop_
  _space_group_symop_id
  _space_group_symop_operation_xyz
  1  x,y,z
  2  x+1/2,-y+1/2,-z
  3  -x,y+1/2,-z+1/2
  4  -x+1/2,-y,z+1/2

_space_group_crystal_system       orthorhombic
_space_group_IT_number            19
_space_group_name_H-M_alt         'P 21 21 21'
_space_group_name_Hall            ' P 2ac 2ab'
_symmetry_space_group_name_H-M    'P 21 21 21'
_symmetry_space_group_name_Hall   ' P 2ac 2ab'
_symmetry_Int_Tables_number       19
_cell_length_a                    9.1735
_cell_length_b                    11.4736
_cell_length_c                    5.4171
_cell_angle_alpha                 90
_cell_angle_beta                  90
_cell_angle_gamma                 90
_cell_volume                      570.166403
loop_
  _refln_index_h
  _refln_index_k
  _refln_index_l
  _refln_F_squared_calc
  _refln_F_squared_meas
  _refln_F_squared_sigma
  _refln_F_squared_weight
  _refln_observed_status
-11 -3 -1 23.932 23.103 0.259 37.202 o
-11 -2 -1 67.350 67.268 0.369 9.613 o
-11 -1 -1 14.428 13.968 0.239 65.103 o
-10 -6 -1 19.680 19.358 0.249 46.228 o
-10 -5 -2 41.728 39.930 0.319 18.719 o
-10 -5 -1 12.234 11.617 0.219 78.913 o
-10 -4 -2 40.774 41.664 0.329 18.689 o
-10 -4 -1 30.444 30.815 0.299 27.103 o
-10 -3 -3 58.789 59.527 0.458 11.247 o
-10 -3 -2 65.917 64.219 0.428 9.887 o
-10 -3 -1 102.382 102.795 0.548 5.084 o
-10 -2 -3 14.192 13.091 0.309 62.784 o
-10 -2 -2 47.085 46.825 0.399 15.394 o
-10 -2 -1 36.244 35.975 0.508 20.050 o
-10 -1 -3 24.323 23.641 0.359 34.292 o
-10 -1 -2 113.481 112.857 0.618 4.334 o
-10 -1 -1 10.233 9.863 0.727 41.594 o
-9 -8 -1 49.265 49.106 0.369 14.652 o
-9 -7 -2 21.043 20.782 0.279 42.081 o
-9 -7 -1 145.033 146.043 0.538 2.970 o
-9 -6 -3 45.908 46.077 0.379 15.942 o
-9 -6 -2 33.535 33.465 0.309 24.182 o
-9 -6 -1 15.282 13.928 0.339 56.887 o
-9 -5 -3 56.886 55.960 0.418 12.032 o
-9 -5 -2 1.881 1.813 0.269 279.636 o
-9 -5 -1 36.890 36.563 0.827 15.955 o
-9 -4 -3 53.262 54.057 0.548 12.383 o
-9 -4 -2 18.222 16.887 0.857 26.196 o
-9 -4 -1 37.010 37.181 0.817 15.958 o
-9 -3 -4 23.080 22.745 0.418 34.484 o
-9 -3 -3 98.418 100.304 0.827 5.062 o
-9 -3 -2 41.539 41.764 1.086 11.880 o
-9 -3 -1 311.860 325.092 1.813 0.746 o
-9 -2 -4 20.316 18.909 0.418 39.829 o
-9 -2 -3 2.306 2.411 0.488 116.174 o
-9 -2 -2 94.519 91.368 1.245 4.843 o
-9 -2 -1 85.206 86.297 1.126 5.615 o
-9 -1 -4 9.760 9.524 0.418 72.634 o
-9 -1 -3 13.085 13.350 0.628 42.522 o
-9 -1 -2 43.683 42.590 0.907 12.974 o
-9 -1 -1 102.101 103.472 1.385 4.136 o
-8 -10 -1 30.439 30.506 0.319 26.964 o
-8 -9 -2 94.199 95.552 0.438 5.819 o
-8 -9 -1 45.895 45.759 0.359 16.098 o
-8 -8 -3 0.556 0.618 0.209 589.958 o
-8 -8 -2 1.442 1.305 0.209 419.093 o
-8 -8 -1 94.448 95.811 0.628 5.613 o
-8 -7 -3 77.255 75.796 0.528 7.738 o
-8 -7 -2 159.310 167.084 0.946 2.396 o
-8 -7 -1 67.633 66.122 1.026 7.745 o
-8 -6 -3 0.352 0.389 0.259 461.606 o
-8 -6 -2 32.293 32.160 0.807 18.200 o
-8 -6 -1 15.283 14.984 0.618 39.385 o
-8 -5 -4 93.043 91.288 0.608 5.851 o
-8 -5 -3 98.029 97.754 1.215 4.618 o
-8 -5 -2 130.497 133.819 1.345 3.031 o
-8 -5 -1 91.980 91.637 1.106 5.179 o
-8 -4 -4 22.011 21.808 0.528 32.697 o
-8 -4 -3 7.831 6.625 0.727 46.797 o
-8 -4 -2 89.613 88.508 1.096 5.387 o
-8 -4 -1 46.211 45.141 0.807 13.045 o
-8 -3 -4 29.724 28.623 0.648 22.544 o
-8 -3 -3 131.402 130.073 1.694 2.800 o
-8 -3 -2 75.658 75.218 1.265 6.133 o
-8 -3 -1 89.024 88.887 0.847 5.831 o
-8 -2 -4 13.244 13.420 0.498 51.010 o
-8 -2 -3 8.597 6.775 0.687 49.143 o
-8 -2 -2 193.093 190.716 1.863 1.612 o
-8 -2 -1 3.605 3.108 0.448 117.135 o
-8 -1 -4 29.975 30.167 0.608 22.765 o
-8 -1 -3 213.241 212.613 2.042 1.351 o
-8 -1 -2 67.484 67.647 1.146 7.288 o
-8 -1 -1 396.321 404.226 2.022 0.496 o
-7 -11 -1 55.404 55.512 0.379 12.495 o
-7 -10 -2 24.485 25.046 0.299 34.697 o
-7 -10 -1 9.870 8.508 0.279 92.636 o
-7 -9 -3 5.218 4.105 0.259 164.213 o
-7 -9 -2 143.942 146.073 0.618 2.971 o
-7 -9 -1 31.614 31.203 0.658 20.947 o
-7 -8 -3 13.730 12.483 0.319 64.333 o
-7 -8 -2 103.773 104.130 1.156 4.359 o
-7 -8 -1 17.154 16.448 0.528 40.791 o
-7 -7 -4 67.785 68.324 0.608 8.936 o
-7 -7 -3 1.168 0.548 0.399 191.716 o
-7 -7 -2 53.022 53.121 0.867 10.822 o
-7 -7 -1 6.040 5.300 0.408 102.653 o
-7 -6 -4 2.263 2.182 0.349 189.704 o
-7 -6 -3 30.647 29.529 0.946 16.978 o
-7 -6 -2 11.275 9.943 0.508 57.948 o
-7 -6 -1 27.858 26.780 0.578 25.377 o
-7 -5 -4 20.828 20.573 0.488 35.762 o
-7 -5 -3 36.078 34.272 0.946 15.023 o
-7 -5 -2 132.873 132.085 1.245 3.066 o
-7 -5 -1 24.174 22.715 0.528 30.481 o
-7 -4 -5 31.070 31.293 0.478 24.040 o
-7 -4 -4 3.512 2.809 0.747 54.563 o
-7 -4 -3 56.284 55.931 1.375 7.693 o
-7 -4 -2 84.527 82.242 0.976 6.066 o
-7 -4 -1 437.089 442.831 2.072 0.419 o
-7 -3 -5 33.155 33.624 0.528 21.666 o
-7 -3 -4 34.741 31.980 1.176 12.889 o
-7 -3 -3 58.986 58.351 1.335 7.570 o
-7 -3 -2 28.760 27.367 0.608 24.104 o
-7 -3 -1 118.164 120.000 0.966 3.799 o
-7 -2 -5 14.398 14.376 0.438 51.971 o
-7 -2 -4 28.809 28.404 1.086 15.497 o
-7 -2 -3 10.459 10.670 0.827 34.750 o
-7 -2 -2 58.387 58.212 0.976 9.244 o
-7 -2 -1 49.599 47.731 0.747 12.567 o
-7 -1 -5 5.610 5.131 0.428 101.167 o
-7 -1 -4 57.331 62.177 2.032 5.057 o
-7 -1 -3 9.947 8.488 0.648 49.177 o
-7 -1 -2 115.869 117.191 1.225 3.686 o
-7 -1 -1 6.769 6.416 0.389 98.889 o
-6 -12 -1 49.234 48.718 0.359 14.754 o
-6 -11 -2 7.632 6.785 0.289 112.263 o
-6 -11 -1 40.397 40.648 0.399 18.534 o
-6 -10 -3 89.924 89.903 0.548 6.160 o
-6 -10 -2 13.601 13.470 0.329 62.548 o
-6 -10 -1 246.558 250.352 1.724 1.119 o
-6 -9 -3 41.314 41.684 0.498 17.241 o
-6 -9 -2 12.114 11.168 0.548 51.438 o
-6 -9 -1 62.570 62.366 0.807 9.242 o
-6 -8 -4 25.311 24.149 0.418 31.710 o
-6 -8 -3 10.896 9.684 0.757 38.959 o
-6 -8 -2 91.332 92.215 1.006 5.359 o
-6 -8 -1 14.112 13.489 0.478 50.709 o
-6 -7 -4 106.494 106.880 0.847 4.543 o
-6 -7 -3 8.897 7.781 0.697 47.035 o
-6 -7 -2 39.080 38.585 0.787 15.566 o
-6 -7 -1 294.262 297.396 1.504 0.856 o
-6 -6 -5 37.807 37.460 0.508 19.134 o
-6 -6 -4 56.621 56.349 0.897 9.950 o
-6 -6 -3 196.869 202.073 1.923 1.524 o
-6 -6 -2 153.946 154.830 1.315 2.437 o
-6 -6 -1 396.825 402.363 1.584 0.508 o
-6 -5 -5 22.945 21.390 0.578 30.558 o
-6 -5 -4 242.778 244.833 2.162 1.091 o
-6 -5 -3 56.039 56.309 1.026 9.377 o
-6 -5 -2 98.597 100.842 1.046 4.766 o
-6 -5 -1 40.809 40.339 0.548 17.192 o
-6 -4 -5 0.225 0.159 0.120 1770.160 o
-6 -4 -4 31.725 30.775 0.877 17.547 o
-6 -4 -3 35.703 34.272 0.817 16.713 o
-6 -4 -2 193.180 192.100 1.305 1.743 o
-6 -4 -1 20.065 20.722 0.528 35.057 o
-6 -3 -5 49.784 50.531 0.717 12.460 o
-6 -3 -4 277.516 277.172 2.670 0.842 o
-6 -3 -3 43.013 43.965 0.857 13.395 o
-6 -3 -2 66.382 64.299 0.827 8.638 o
-6 -3 -1 445.606 449.516 1.674 0.413 o
-6 -2 -5 2.820 2.540 0.648 71.542 o
-6 -2 -4 9.376 9.325 0.797 38.118 o
-6 -2 -3 321.688 320.111 2.421 0.691 o
-6 -2 -2 15.495 12.882 0.588 42.081 o
-6 -2 -1 388.555 403.170 1.664 0.518 o
-6 -1 -5 5.589 5.410 0.508 83.104 o
-6 -1 -4 250.435 257.336 2.411 0.999 o
-6 -1 -3 33.705 31.841 0.966 15.617 o
-6 -1 -2 96.668 96.429 1.106 4.860 o
-6 -1 -1 0.462 0.259 0.130 1261.830 o
-5 -12 -2 119.004 121.634 0.618 3.978 o
-5 -12 -1 35.890 35.527 0.349 21.984 o
-5 -11 -3 16.942 17.186 0.319 50.734 o
-5 -11 -2 14.993 14.426 0.299 59.372 o
-5 -11 -1 11.055 11.278 0.428 64.548 o
-5 -10 -3 59.039 58.820 0.538 10.991 o
-5 -10 -2 33.638 33.275 0.857 16.915 o
-5 -10 -1 20.020 18.979 0.638 31.917 o
-5 -9 -4 14.301 14.067 0.329 59.811 o
-5 -9 -3 107.079 108.822 1.325 3.967 o
-5 -9 -2 90.549 93.679 1.056 5.281 o
-5 -9 -1 3.989 3.547 0.458 109.304 o
-5 -8 -4 77.283 79.074 0.827 6.988 o
-5 -8 -3 204.014 204.454 1.644 1.526 o
-5 -8 -2 145.657 148.653 1.215 2.670 o
-5 -8 -1 126.235 127.741 1.096 3.372 o
-5 -7 -5 25.734 25.146 0.478 29.552 o
-5 -7 -4 17.005 17.684 0.767 29.862 o
-5 -7 -3 120.547 121.037 1.116 3.596 o
-5 -7 -2 46.019 45.360 0.707 13.818 o
-5 -7 -1 224.058 223.064 1.335 1.372 o
-5 -6 -5 1.737 1.275 0.319 240.705 o
-5 -6 -4 37.933 36.254 0.867 15.273 o
-5 -6 -3 3.600 3.766 0.458 111.343 o
-5 -6 -2 67.345 64.548 0.737 8.817 o
-5 -6 -1 1.404 1.066 0.309 267.980 o
-5 -5 -5 28.757 28.304 0.608 23.856 o
-5 -5 -4 11.721 10.232 0.588 49.762 o
-5 -5 -3 227.489 230.845 1.554 1.295 o
-5 -5 -2 53.484 56.179 0.757 11.116 o
-5 -5 -1 156.489 159.473 1.006 2.481 o
-5 -4 -5 48.037 47.422 1.136 10.217 o
-5 -4 -4 60.125 61.649 0.946 8.994 o
-5 -4 -3 241.204 245.072 1.544 1.180 o
-5 -4 -2 31.360 31.612 0.588 22.087 o
-5 -4 -1 401.417 390.627 1.634 0.509 o
-5 -3 -5 21.110 20.543 0.857 23.829 o
-5 -3 -4 33.557 33.445 0.727 18.720 o
-5 -3 -3 51.590 54.197 0.767 11.525 o
-5 -3 -2 51.991 52.314 0.787 11.499 o
-5 -3 -1 52.162 49.893 0.608 12.702 o
-5 -2 -6 64.258 64.229 0.588 9.678 o
-5 -2 -5 17.271 16.409 0.757 30.509 o
-5 -2 -4 191.162 194.561 1.743 1.644 o
-5 -2 -3 15.872 15.213 0.478 46.145 o
-5 -2 -2 286.330 275.388 1.375 0.930 o
-5 -2 -1 82.616 82.840 0.717 6.666 o
-5 -1 -6 15.245 14.755 0.369 54.208 o
-5 -1 -5 20.639 20.623 0.797 25.731 o
-5 -1 -4 152.562 156.643 1.474 2.373 o
-5 -1 -3 285.579 295.473 1.943 0.856 o
-5 -1 -2 205.372 198.277 1.365 1.596 o
-5 -1 -1 444.259 450.303 1.654 0.415 o
-4 -13 -1 6.007 5.330 0.289 134.902 o
-4 -12 -2 6.903 6.247 0.249 130.357 o
-4 -12 -1 47.016 47.114 0.478 14.928 o
-4 -11 -3 4.378 4.085 0.279 170.362 o
-4 -11 -2 114.290 116.374 1.225 3.743 o
-4 -11 -1 18.051 17.245 0.628 34.814 o
-4 -10 -4 70.931 72.130 0.578 8.451 o
-4 -10 -3 8.223 8.269 0.468 73.792 o
-4 -10 -2 28.719 27.836 0.687 22.454 o
-4 -10 -1 24.491 24.817 0.658 26.135 o
-4 -9 -4 1.559 1.315 0.389 183.972 o
-4 -9 -3 62.342 62.227 0.946 8.727 o
-4 -9 -2 1.569 1.076 0.369 201.859 o
-4 -9 -1 24.820 25.753 0.568 27.850 o
-4 -8 -5 18.841 18.431 0.418 42.140 o
-4 -8 -4 20.514 20.184 0.687 29.362 o
-4 -8 -3 5.285 4.563 0.488 90.653 o
-4 -8 -2 26.333 24.767 0.578 26.935 o
-4 -8 -1 12.000 11.517 0.418 62.486 o
-4 -7 -5 56.978 55.721 0.618 11.259 o
-4 -7 -4 76.998 78.277 0.907 6.855 o
-4 -7 -3 36.170 33.983 0.677 18.394 o
-4 -7 -2 76.852 76.234 0.687 7.444 o
-4 -7 -1 50.183 52.105 0.667 12.534 o
-4 -6 -5 1.037 1.096 0.379 205.524 o
-4 -6 -4 210.486 216.409 1.504 1.462 o
-4 -6 -3 37.361 36.583 0.648 17.914 o
-4 -6 -2 84.220 84.633 0.677 6.554 o
-4 -6 -1 92.297 90.531 0.767 5.713 o
-4 -5 -5 67.792 68.145 1.056 7.546 o
-4 -5 -4 85.100 83.906 1.026 5.884 o
-4 -5 -3 27.542 27.437 0.578 25.369 o
-4 -5 -2 70.112 69.310 0.648 8.517 o
-4 -5 -1 51.995 51.995 0.658 12.260 o
-4 -4 -6 30.881 31.392 0.548 23.013 o
-4 -4 -5 10.389 9.624 0.687 44.446 o
-4 -4 -4 244.475 245.779 1.554 1.160 o
-4 -4 -3 56.460 54.356 0.638 11.369 o
-4 -4 -2 234.964 231.234 1.106 1.305 o
-4 -4 -1 56.575 55.123 0.638 11.286 o
-4 -3 -6 73.641 76.125 0.697 7.712 o
-4 -3 -5 128.000 129.883 1.863 2.732 o
-4 -3 -4 157.385 160.758 1.215 2.381 o
-4 -3 -3 138.580 139.358 0.927 3.042 o
-4 -3 -2 364.143 360.768 1.455 0.602 o
-4 -3 -1 214.413 212.066 1.215 1.497 o
-4 -2 -6 100.875 104.190 0.797 4.891 o
-4 -2 -5 89.283 93.310 1.524 4.537 o
-4 -2 -4 978.832 983.247 3.148 0.094 o
-4 -2 -3 88.500 88.708 0.827 5.900 o
-4 -2 -2 1732.450 1732.750 7.611 0.031 o
-4 -2 -1 381.552 373.023 1.724 0.552 o
-4 -1 -6 1.685 1.455 0.428 154.987 o
-4 -1 -5 77.731 79.502 1.355 5.676 o
-4 -1 -4 3.310 2.550 0.438 125.751 o
-4 -1 -3 298.556 298.014 1.465 0.844 o
-4 -1 -2 12.541 10.491 0.458 58.842 o
-4 -1 -1 284.491 291.508 1.245 0.915 o
-3 -13 -2 26.390 24.956 0.349 31.889 o
-3 -13 -1 42.988 42.431 0.369 17.501 o
-3 -12 -3 74.271 74.421 0.508 8.131 o
-3 -12 -2 38.172 37.001 0.438 19.774 o
-3 -12 -1 8.172 7.273 0.628 55.406 o
-3 -11 -4 0.792 0.877 0.279 351.423 o
-3 -11 -3 107.923 108.513 0.658 4.616 o
-3 -11 -2 27.329 26.531 0.717 22.813 o
-3 -11 -1 23.267 23.283 0.588 29.302 o
-3 -10 -4 16.486 15.512 0.438 47.093 o
-3 -10 -3 123.982 124.135 1.285 3.332 o
-3 -10 -2 65.537 64.150 0.847 8.666 o
-3 -10 -1 93.629 91.926 0.917 5.388 o
-3 -9 -5 41.502 40.887 0.458 17.633 o
-3 -9 -4 9.524 8.020 0.548 60.304 o
-3 -9 -3 29.668 28.842 0.717 21.253 o
-3 -9 -2 88.188 89.445 0.887 5.799 o
-3 -9 -1 3.656 3.925 0.359 147.056 o
-3 -8 -5 77.830 78.675 0.628 7.374 o
-3 -8 -4 20.289 19.527 0.658 30.779 o
-3 -8 -3 155.811 161.077 1.285 2.375 o
-3 -8 -2 1.892 2.122 0.329 214.384 o
-3 -8 -1 5.497 5.051 0.339 126.939 o
-3 -7 -5 21.278 20.673 0.528 33.898 o
-3 -7 -4 162.969 162.382 1.335 2.244 o
-3 -7 -3 267.773 264.937 1.524 1.012 o
-3 -7 -2 526.449 525.990 1.993 0.305 o
-3 -7 -1 281.064 279.672 1.235 0.951 o
-3 -6 -5 18.881 19.686 0.737 28.979 o
-3 -6 -4 58.182 57.514 0.787 10.187 o
-3 -6 -3 155.260 162.262 1.116 2.439 o
-3 -6 -2 60.763 61.261 0.697 9.960 o
-3 -6 -1 295.364 290.153 1.146 0.884 o
-3 -5 -6 49.561 48.558 0.578 13.554 o
-3 -5 -5 39.397 39.781 0.847 14.720 o
-3 -5 -4 40.739 39.691 0.638 16.476 o
-3 -5 -3 4.439 4.812 0.329 143.487 o
-3 -5 -2 92.368 94.187 0.727 5.658 o
-3 -5 -1 2.630 2.780 0.249 249.835 o
-3 -4 -6 36.871 37.380 0.677 17.597 o
-3 -4 -5 22.358 22.287 0.677 27.712 o
-3 -4 -4 183.690 184.838 1.096 1.923 o
-3 -4 -3 174.467 177.983 1.136 2.060 o
-3 -4 -2 335.095 330.193 1.275 0.705 o
-3 -4 -1 4.401 3.866 0.339 146.113 o
-3 -3 -6 3.415 3.616 0.458 113.297 o
-3 -3 -5 15.269 14.685 0.667 36.971 o
-3 -3 -4 279.021 283.727 1.504 0.933 o
-3 -3 -3 111.527 108.802 0.787 4.361 o
-3 -3 -2 1263.100 1288.010 7.502 0.054 o
-3 -3 -1 293.289 293.451 1.953 0.835 o
-3 -2 -6 203.167 204.145 1.026 1.650 o
-3 -2 -5 9.911 9.833 0.618 50.724 o
-3 -2 -4 334.968 337.645 1.833 0.673 o
-3 -2 -3 144.226 139.179 1.275 2.751 o
-3 -2 -2 116.686 114.959 0.877 3.996 o
-3 -2 -1 493.910 497.267 3.228 0.321 o
-3 -1 -6 34.553 34.491 0.588 20.066 o
-3 -1 -5 109.159 113.893 1.255 3.903 o
-3 -1 -4 125.176 130.202 1.096 3.368 o
-3 -1 -3 18.728 16.947 0.478 40.744 o
-3 -1 -2 79.871 81.056 1.096 6.128 o
-3 -1 -1 38.432 33.236 1.026 13.733 o
-2 -14 -1 35.403 34.820 0.319 22.687 o
-2 -13 -2 7.302 6.785 0.279 117.124 o
-2 -13 -1 23.327 23.283 0.339 36.020 o
-2 -12 -3 61.516 60.344 0.478 10.680 o
-2 -12 -2 37.653 37.968 0.498 19.198 o
-2 -12 -1 256.922 260.504 2.012 1.016 o
-2 -11 -4 2.224 1.724 0.279 256.454 o
-2 -11 -3 14.697 14.655 0.438 51.109 o
-2 -11 -2 16.347 14.675 0.538 42.525 o
-2 -11 -1 17.548 17.036 0.568 38.077 o
-2 -10 -4 78.412 80.887 0.727 7.041 o
-2 -10 -3 76.605 75.647 1.136 6.401 o
-2 -10 -2 174.426 177.405 1.215 2.042 o
-2 -10 -1 54.464 54.884 0.787 10.909 o
-2 -9 -5 51.990 54.605 0.538 12.625 o
-2 -9 -4 227.923 229.899 1.893 1.243 o
-2 -9 -3 8.115 7.562 0.468 75.479 o
-2 -9 -2 95.365 96.638 0.857 5.263 o
-2 -9 -1 35.769 35.298 0.518 20.272 o
-2 -8 -5 19.129 17.943 0.528 37.524 o
-2 -8 -4 70.105 71.114 1.096 7.120 o
-2 -8 -3 173.206 175.562 1.225 2.065 o
-2 -8 -2 166.330 167.901 1.056 2.254 o
-2 -8 -1 560.875 577.178 1.634 0.269 o
-2 -7 -5 23.903 22.844 0.518 30.921 o
-2 -7 -4 111.175 113.216 1.225 3.883 o
-2 -7 -3 86.067 87.721 0.857 6.027 o
-2 -7 -2 448.237 450.831 1.704 0.409 o
-2 -7 -1 136.994 136.439 0.767 3.184 o
-2 -6 -6 17.061 16.508 0.448 44.837 o
-2 -6 -5 3.342 2.620 0.687 63.343 o
-2 -6 -4 58.183 57.833 0.956 9.382 o
-2 -6 -3 114.768 117.061 1.086 3.848 o
-2 -6 -2 59.879 56.468 0.697 10.415 o
-2 -6 -1 75.032 77.799 0.558 7.798 o
-2 -5 -6 119.687 123.806 0.837 3.787 o
-2 -5 -5 170.494 176.230 2.720 1.559 o
-2 -5 -4 279.427 292.185 2.720 0.810 o
-2 -5 -3 347.057 348.704 1.714 0.640 o
-2 -5 -2 50.082 50.939 0.618 12.959 o
-2 -5 -1 342.987 347.100 1.315 0.665 o
-2 -4 -6 62.938 67.925 0.877 8.633 o
-2 -4 -5 77.629 72.299 1.743 4.905 o
-2 -4 -4 35.392 36.473 1.086 13.357 o
-2 -4 -3 107.002 104.130 1.196 4.197 o
-2 -4 -2 185.460 182.068 1.126 1.912 o
-2 -4 -1 378.804 389.481 2.570 0.514 o
-2 -3 -6 38.052 38.267 0.598 17.953 o
-2 -3 -5 12.797 12.174 0.966 26.386 o
-2 -3 -4 191.382 191.871 1.983 1.588 o
-2 -3 -3 146.473 142.317 1.465 2.582 o
-2 -3 -2 471.217 475.658 2.271 0.365 o
-2 -3 -1 294.149 296.400 2.182 0.810 o
-2 -2 -6 35.740 36.254 0.697 17.906 o
-2 -2 -5 13.163 9.883 0.917 28.788 o
-2 -2 -4 67.211 67.178 1.136 7.361 o
-2 -2 -3 67.011 62.705 1.395 6.640 o
-2 -2 -2 131.213 134.456 1.963 2.570 o
-2 -2 -1 119.491 118.665 1.524 3.297 o
-2 -1 -6 51.537 54.406 0.777 11.460 o
-2 -1 -5 38.415 37.221 1.146 12.182 o
-2 -1 -4 77.868 74.112 1.893 4.530 o
-2 -1 -3 183.818 177.664 1.783 1.771 o
-2 -1 -2 235.633 229.281 1.664 1.237 o
-2 -1 -1 26.359 26.232 0.697 23.786 o
-1 -14 -1 1.295 0.877 0.189 509.991 o
-1 -13 -2 7.217 6.426 0.269 121.710 o
-1 -13 -1 7.599 6.944 0.279 113.891 o
-1 -12 -3 29.024 28.135 0.468 26.375 o
-1 -12 -2 3.374 2.829 0.438 123.884 o
-1 -12 -1 8.100 7.342 0.548 64.854 o
-1 -11 -4 6.147 5.340 0.349 116.785 o
-1 -11 -3 3.422 2.760 0.508 100.859 o
-1 -11 -2 61.234 61.779 0.807 9.436 o
-1 -11 -1 36.106 35.557 0.667 18.271 o
-1 -10 -4 19.645 18.032 0.588 34.541 o
-1 -10 -3 8.968 8.110 0.548 61.567 o
-1 -10 -2 146.239 147.996 1.096 2.722 o
-1 -10 -1 177.927 184.310 1.146 1.979 o
-1 -9 -5 22.852 21.290 0.488 33.392 o
-1 -9 -4 11.004 9.743 0.747 39.455 o
-1 -9 -3 123.707 123.886 1.265 3.357 o
-1 -9 -2 11.976 11.577 0.428 61.568 o
-1 -9 -1 367.393 371.349 1.604 0.582 o
-1 -8 -5 8.362 7.382 0.458 76.363 o
-1 -8 -4 43.011 42.491 1.046 11.927 o
-1 -8 -3 1.389 1.445 0.379 193.673 o
-1 -8 -2 18.867 18.272 0.448 40.969 o
-1 -8 -1 2.077 1.504 0.269 277.783 o
-1 -7 -5 29.282 28.194 1.664 9.171 o
-1 -7 -4 34.943 33.425 0.897 16.016 o
-1 -7 -3 29.796 29.539 0.628 22.651 o
-1 -7 -2 57.545 57.774 0.747 10.438 o
-1 -7 -1 4.496 4.334 0.259 174.868 o
-1 -6 -6 36.369 35.886 0.598 18.970 o
-1 -6 -5 29.348 27.985 1.395 11.610 o
-1 -6 -4 28.135 27.397 0.817 20.320 o
-1 -6 -3 17.166 17.345 0.697 32.636 o
-1 -6 -2 159.675 156.633 1.016 2.450 o
-1 -6 -1 416.187 417.516 1.295 0.475 o
-1 -5 -6 14.764 13.709 0.478 49.308 o
-1 -5 -5 22.109 20.563 1.245 15.265 o
-1 -5 -4 243.985 239.373 2.630 1.028 o
-1 -5 -3 110.435 114.332 1.554 3.539 o
-1 -5 -2 957.295 963.640 3.766 0.097 o
-1 -5 -1 632.547 621.721 2.092 0.220 o
-1 -4 -6 43.926 42.730 0.667 14.933 o
-1 -4 -5 59.514 58.830 1.614 6.411 o
-1 -4 -4 62.565 60.135 1.405 6.972 o
-1 -4 -3 37.340 35.816 0.917 14.903 o
-1 -4 -2 130.699 133.380 1.365 3.018 o
-1 -4 -1 6.701 5.539 0.687 53.387 o
-1 -3 -6 2.341 1.006 0.279 265.904 o
-1 -3 -5 33.142 32.189 1.265 12.167 o
-1 -3 -4 1.142 0.478 0.189 567.229 o
-1 -3 -3 6.358 4.304 0.528 78.482 o
-1 -3 -2 53.261 51.676 1.156 9.255 o
-1 -3 -1 551.504 587.868 4.095 0.246 o
-1 -2 -6 52.372 53.848 1.046 9.844 o
-1 -2 -5 143.808 142.626 3.487 1.516 o
-1 -2 -4 157.045 156.942 2.232 1.955 o
-1 -2 -3 300.813 304.011 2.580 0.749 o
-1 -2 -2 838.182 833.537 4.154 0.124 o
-1 -2 -1 3174.680 3054.510 13.739 0.010 o
-1 -1 -6 8.055 7.173 1.873 9.568 o
-1 -1 -5 1.217 1.335 0.847 47.649 o
-1 -1 -4 88.712 82.879 1.534 4.732 o
-1 -1 -3 141.558 142.964 1.674 2.536 o
-1 -1 -2 158.459 156.823 1.425 2.309 o
-1 -1 -1 438.250 457.516 2.441 0.402 o
0 0 2 11335.600 9402.580 96.767 0.001 o
0 0 4 313.188 321.027 4.404 0.560 o
0 0 6 49.092 43.099 3.208 2.883 o
0 1 1 909.836 923.092 2.849 0.108 o
0 1 2 805.658 800.382 2.780 0.138 o
0 1 3 790.105 794.952 3.447 0.139 o
0 1 4 134.410 138.631 1.963 2.492 o
0 1 5 9.242 9.425 1.116 23.185 o
0 1 6 9.662 6.197 1.773 10.510 o
0 2 0 3760.700 3779.650 35.736 0.006 o
0 2 1 429.379 458.333 3.108 0.394 o
0 2 2 1216.200 1207.360 4.394 0.062 o
0 2 3 7.657 5.320 0.528 72.029 o
0 2 4 23.017 16.956 0.917 22.219 o
0 2 5 1.495 0.588 0.438 157.771 o
0 2 6 10.070 7.542 2.431 5.790 o
0 3 1 327.602 349.381 3.238 0.597 o
0 3 2 52.457 48.718 1.026 10.269 o
0 3 3 270.399 272.260 1.903 0.952 o
0 3 4 200.946 199.921 2.570 1.339 o
0 3 5 2.704 1.156 0.528 104.162 o
0 3 6 131.824 139.029 1.534 2.824 o
0 4 0 9297.350 8734.940 101.510 0.001 o
0 4 1 956.159 958.609 5.579 0.093 o
0 4 2 1445.190 1443.930 8.568 0.042 o
0 4 3 265.281 262.955 2.192 0.959 o
0 4 4 0.314 0.389 0.179 851.627 o
0 4 5 120.155 124.175 2.132 2.686 o
0 4 6 7.653 6.904 0.478 76.940 o
0 5 1 569.250 570.383 2.202 0.262 o
0 5 2 533.300 541.661 3.098 0.282 o
0 5 3 470.044 489.686 3.228 0.342 o
0 5 4 122.379 119.672 1.873 2.912 o
0 5 5 4.524 4.613 0.887 38.740 o
0 5 6 4.778 3.676 0.488 95.693 o
0 6 0 775.035 770.294 3.347 0.146 o
0 6 1 62.152 62.546 0.598 10.042 o
0 6 2 169.754 169.834 1.355 2.102 o
0 6 3 19.120 18.361 0.677 31.429 o
0 6 4 0.034 0.598 0.966 38.246 o
0 6 5 67.949 67.826 1.903 4.946 o
0 6 6 0.022 0.169 0.229 658.724 o
0 7 1 97.966 97.026 0.697 5.313 o
0 7 2 131.963 128.718 0.946 3.311 o
0 7 3 270.743 281.466 2.002 0.925 o
0 7 4 219.871 227.438 2.082 1.262 o
0 7 5 77.764 73.206 1.993 4.336 o
0 8 0 705.804 719.774 2.281 0.175 o
0 8 1 0.196 0.169 0.139 1437.800 o
0 8 2 79.251 79.701 0.787 6.899 o
0 8 3 5.564 4.025 0.498 88.414 o
0 8 4 17.346 15.422 0.867 26.736 o
0 8 5 58.793 61.310 1.225 7.936 o
0 9 1 165.663 172.544 1.036 2.237 o
0 9 2 255.663 262.875 1.494 1.072 o
0 9 3 116.147 119.781 1.265 3.606 o
0 9 4 147.328 153.535 1.704 2.356 o
0 9 5 3.375 3.198 0.399 137.844 o
0 10 0 100.972 98.212 1.484 4.122 o
0 10 1 424.957 434.692 1.564 0.448 o
0 10 2 104.847 105.405 1.066 4.402 o
0 10 3 14.264 11.895 0.638 41.332 o
0 10 4 62.064 62.257 1.116 8.068 o
0 11 1 1.493 1.116 0.299 275.639 o
0 11 2 4.673 3.925 0.508 90.796 o
0 11 3 1.811 1.435 0.558 99.308 o
0 11 4 6.063 5.529 0.319 124.767 o
0 12 0 21.483 19.377 0.797 25.611 o
0 12 1 19.001 18.710 0.648 32.510 o
0 12 2 5.282 4.643 0.508 86.162 o
0 12 3 13.591 13.101 0.369 60.171 o
0 13 1 47.522 49.445 0.438 14.719 o
0 13 2 29.854 29.270 0.319 27.817 o
0 14 0 24.295 23.462 0.478 31.406 o
0 14 1 375.291 390.886 0.946 0.565 o
1 0 1 1101.610 1106.380 4.553 0.074 o
1 0 2 251.085 254.317 1.674 1.094 o
1 0 3 1.965 1.146 0.448 142.666 o
1 0 4 87.387 81.584 1.674 4.536 o
1 0 5 37.362 31.084 1.395 10.479 o
1 0 6 55.252 43.059 3.118 2.955 o
1 1 0 26.054 28.234 0.518 27.316 o
1 1 1 439.388 454.986 2.550 0.400 o
1 1 2 158.433 156.892 1.445 2.301 o
1 1 3 141.901 141.530 1.624 2.572 o
1 1 4 88.553 80.917 1.664 4.527 o
1 1 5 1.220 0.687 0.518 120.035 o
1 1 6 8.018 5.240 3.357 3.128 o
1 2 0 886.819 938.205 3.866 0.108 o
1 2 1 3173.920 2937.900 12.543 0.010 o
1 2 2 838.202 830.828 3.427 0.126 o
1 2 3 300.108 298.900 2.760 0.743 o
1 2 4 156.996 151.552 2.252 1.973 o
1 2 5 143.277 144.349 3.098 1.697 o
1 2 6 52.358 54.436 1.205 8.935 o
1 3 0 329.108 347.767 3.029 0.609 o
1 3 1 551.126 559.355 3.686 0.259 o
1 3 2 53.229 52.952 1.066 9.684 o
1 3 3 6.356 3.836 0.608 66.176 o
1 3 4 1.150 0.667 0.418 175.692 o
1 3 5 33.153 26.810 1.554 9.781 o
1 3 6 2.365 1.425 0.518 108.782 o
1 4 0 82.746 80.638 1.275 5.577 o
1 4 1 6.694 5.818 0.687 53.148 o
1 4 2 130.663 132.992 1.365 3.023 o
1 4 3 37.269 34.630 0.787 16.589 o
1 4 4 62.620 61.280 1.335 7.196 o
1 4 5 59.389 57.554 1.624 6.415 o
1 4 6 44.053 43.079 0.677 14.776 o
1 5 0 2098.950 2067.220 6.565 0.022 o
1 5 1 633.228 628.994 2.281 0.217 o
1 5 2 957.282 953.877 3.806 0.098 o
1 5 3 110.640 112.897 1.594 3.508 o
1 5 4 243.827 247.393 2.192 1.077 o
1 5 5 22.025 19.049 1.245 15.429 o
1 5 6 14.756 14.177 0.478 48.903 o
1 6 0 653.294 638.916 1.803 0.209 o
1 6 1 415.703 416.071 1.624 0.471 o
1 6 2 159.710 157.769 1.146 2.395 o
1 6 3 17.133 16.767 0.628 35.941 o
1 6 4 27.888 24.050 1.156 15.141 o
1 6 5 29.360 27.876 1.455 11.010 o
1 6 6 36.128 36.145 0.598 19.011 o
1 7 0 100.378 97.764 0.727 5.140 o
1 7 1 4.480 3.935 0.349 140.784 o
1 7 2 57.637 58.750 0.727 10.444 o
1 7 3 29.810 28.433 0.638 22.731 o
1 7 4 34.922 34.491 0.837 16.647 o
1 7 5 29.268 29.609 1.743 8.530 o
1 8 0 1.209 1.215 0.259 347.543 o
1 8 1 2.088 1.465 0.289 256.123 o
1 8 2 18.902 17.843 0.468 40.366 o
1 8 3 1.354 1.096 0.518 117.348 o
1 8 4 43.051 41.933 1.186 10.842 o
1 8 5 8.246 7.133 0.518 68.678 o
1 9 0 5.690 5.191 0.329 127.299 o
1 9 1 367.599 369.237 1.484 0.587 o
1 9 2 11.919 11.407 0.548 51.579 o
1 9 3 123.978 123.517 1.514 3.152 o
1 9 4 10.995 10.072 0.907 30.505 o
1 9 5 22.872 21.051 0.628 29.248 o
1 10 0 501.805 511.544 1.684 0.332 o
1 10 1 177.699 181.889 1.186 1.985 o
1 10 2 146.480 149.350 1.225 2.645 o
1 10 3 8.957 8.189 0.568 59.243 o
1 10 4 19.476 18.511 0.697 30.374 o
1 11 0 8.368 8.498 0.488 70.163 o
1 11 1 36.113 34.909 0.687 18.130 o
1 11 2 61.356 60.922 0.897 9.107 o
1 11 3 3.411 2.431 0.468 114.550 o
1 11 4 6.139 5.450 0.359 113.790 o
1 12 0 31.778 30.615 0.707 20.200 o
1 12 1 8.118 6.775 0.518 69.637 o
1 12 2 3.356 2.780 0.538 93.012 o
1 12 3 29.105 28.663 0.408 27.190 o
1 13 0 22.266 22.476 0.349 37.442 o
1 13 1 7.615 6.775 0.289 112.440 o
1 13 2 7.212 6.476 0.259 123.719 o
1 14 0 264.252 274.791 0.897 1.051 o
1 14 1 1.287 0.667 0.169 588.528 o
2 0 0 69.817 76.533 1.375 6.127 o
2 0 1 815.665 815.933 3.606 0.131 o
2 0 2 77.375 79.811 1.196 6.077 o
2 0 3 362.429 362.920 2.620 0.559 o
2 0 4 0.685 0.219 0.399 206.003 o
2 0 5 12.645 10.192 0.777 35.827 o
2 0 6 64.672 66.989 0.966 8.183 o
2 1 0 3307.760 3185.750 9.544 0.009 o
2 1 1 26.313 25.255 0.787 22.092 o
2 1 2 235.550 228.115 2.192 1.159 o
2 1 3 183.717 179.836 1.963 1.706 o
2 1 4 78.019 75.418 1.126 6.344 o
2 1 5 38.279 33.285 1.554 9.045 o
2 1 6 51.646 54.605 0.767 11.482 o
2 2 0 1856.130 1890.070 6.197 0.027 o
2 2 1 119.578 116.812 1.853 3.009 o
2 2 2 131.046 128.658 1.863 2.692 o
2 2 3 67.111 62.735 1.395 6.633 o
2 2 4 67.276 60.563 1.933 5.019 o
2 2 5 13.148 9.584 1.275 17.707 o
2 2 6 35.910 37.191 0.667 18.061 o
2 3 0 933.334 962.106 4.603 0.098 o
2 3 1 294.276 298.641 2.710 0.762 o
2 3 2 471.655 479.583 3.039 0.348 o
2 3 3 146.728 140.025 2.042 2.266 o
2 3 4 191.989 184.559 3.188 1.260 o
2 3 5 12.919 11.108 1.395 15.215 o
2 3 6 38.288 38.984 0.687 16.798 o
2 4 0 736.090 737.597 4.274 0.154 o
2 4 1 379.818 389.331 3.816 0.461 o
2 4 2 185.662 182.297 1.335 1.858 o
2 4 3 107.327 101.878 1.594 3.737 o
2 4 4 35.477 31.741 1.554 9.352 o
2 4 5 77.454 64.588 2.630 3.273 o
2 4 6 62.871 67.188 0.707 9.280 o
2 5 0 194.342 209.057 1.176 1.681 o
2 5 1 342.810 348.614 1.554 0.655 o
2 5 2 50.157 50.142 0.807 11.866 o
2 5 3 346.936 349.660 1.783 0.637 o
2 5 4 280.015 284.843 1.903 0.896 o
2 5 5 170.305 171.428 2.610 1.618 o
2 5 6 119.814 125.450 0.897 3.718 o
2 6 0 46.954 47.303 0.478 14.919 o
2 6 1 75.306 78.606 0.727 7.389 o
2 6 2 59.918 56.727 0.727 10.265 o
2 6 3 115.008 115.457 1.176 3.783 o
2 6 4 58.231 58.909 1.106 8.626 o
2 6 5 3.356 2.809 0.887 40.699 o
2 6 6 16.969 16.747 0.508 41.817 o
2 7 0 902.886 890.245 2.252 0.113 o
2 7 1 136.990 136.927 0.807 3.161 o
2 7 2 448.299 452.993 1.823 0.406 o
2 7 3 86.061 90.581 1.066 5.570 o
2 7 4 111.429 108.583 2.381 2.708 o
2 7 5 23.824 23.223 0.628 27.835 o
2 8 0 399.311 402.114 1.544 0.505 o
2 8 1 561.690 574.338 2.002 0.267 o
2 8 2 166.525 171.607 1.275 2.157 o
2 8 3 173.796 179.946 1.564 1.929 o
2 8 4 70.377 70.835 1.156 6.926 o
2 8 5 19.041 18.262 0.628 33.437 o
2 9 0 0.034 0.110 0.060 6756.780 o
2 9 1 35.761 34.979 0.608 19.244 o
2 9 2 95.521 97.256 0.927 5.146 o
2 9 3 8.114 7.203 0.608 57.792 o
2 9 4 228.322 236.125 2.590 1.106 o
2 9 5 52.005 54.735 0.727 11.633 o
2 10 0 127.213 124.474 0.867 3.539 o
2 10 1 54.706 53.430 0.677 11.548 o
2 10 2 174.725 176.280 1.534 1.948 o
2 10 3 76.684 77.320 1.086 6.470 o
2 10 4 78.550 80.439 0.897 6.687 o
2 11 0 38.136 38.635 0.658 17.221 o
2 11 1 17.573 16.648 0.558 38.731 o
2 11 2 16.431 14.934 0.618 38.113 o
2 11 3 14.717 14.984 0.528 45.223 o
2 11 4 2.293 1.584 0.299 237.017 o
2 12 0 81.796 82.929 0.946 6.276 o
2 12 1 257.354 263.533 1.674 1.045 o
2 12 2 37.682 38.247 0.528 18.826 o
2 12 3 61.822 61.559 0.498 10.480 o
2 13 0 28.410 27.726 0.359 28.870 o
2 13 1 23.311 23.193 0.349 35.842 o
2 13 2 7.396 6.795 0.279 116.262 o
2 14 0 1.705 1.215 0.249 331.346 o
2 14 1 35.495 34.780 0.389 21.967 o
3 0 1 2105.450 2101.420 6.745 0.021 o
3 0 2 802.487 810.653 5.011 0.129 o
3 0 3 1047.690 1031.780 4.941 0.081 o
3 0 4 455.493 457.088 2.212 0.389 o
3 0 5 145.303 152.877 1.664 2.411 o
3 0 6 127.846 130.292 0.996 3.365 o
3 1 0 38.403 34.959 0.907 14.869 o
3 1 1 38.395 33.435 1.006 13.936 o
3 1 2 79.738 77.380 1.564 5.137 o
3 1 3 18.698 13.709 0.777 29.685 o
3 1 4 125.320 128.618 1.186 3.320 o
3 1 5 108.969 113.664 1.863 3.243 o
3 1 6 34.671 33.843 0.658 19.215 o
3 2 0 98.935 101.281 1.465 4.166 o
3 2 1 494.096 505.427 2.899 0.323 o
3 2 2 116.411 111.014 2.012 2.969 o
3 2 3 144.290 138.451 2.262 2.175 o
3 2 4 334.747 323.976 2.271 0.667 o
3 2 5 9.956 8.608 1.484 14.289 o
3 2 6 203.088 208.130 1.345 1.579 o
3 3 0 1842.550 1853.670 7.572 0.027 o
3 3 1 293.603 291.448 2.421 0.799 o
3 3 2 1263.520 1278.190 7.980 0.053 o
3 3 3 111.656 104.279 2.262 2.857 o
3 3 4 279.180 285.640 3.636 0.724 o
3 3 5 15.271 12.722 1.684 10.782 o
3 3 6 3.448 3.915 0.359 149.872 o
3 4 0 135.887 136.279 0.837 3.181 o
3 4 1 4.377 3.377 0.349 145.516 o
3 4 2 334.998 337.147 1.833 0.674 o
3 4 3 174.431 182.506 1.425 1.951 o
3 4 4 183.778 174.377 3.308 1.289 o
3 4 5 22.425 17.514 1.943 7.916 o
3 4 6 36.959 38.057 0.618 18.142 o
3 5 0 776.949 775.315 2.062 0.149 o
3 5 1 2.642 2.760 0.309 202.792 o
3 5 2 92.471 94.516 0.757 5.604 o
3 5 3 4.443 4.055 0.349 140.514 o
3 5 4 40.700 39.054 0.667 16.289 o
3 5 5 39.410 39.323 1.086 12.415 o
3 5 6 49.626 49.056 0.588 13.426 o
3 6 0 135.749 137.923 0.777 3.192 o
3 6 1 295.365 289.047 1.395 0.873 o
3 6 2 60.925 61.191 0.787 9.590 o
3 6 3 155.270 163.159 1.096 2.440 o
3 6 4 58.204 57.126 0.837 9.981 o
3 6 5 18.988 16.060 1.445 13.148 o
3 7 0 854.905 829.373 2.092 0.127 o
3 7 1 281.414 282.791 1.514 0.925 o
3 7 2 526.461 539.648 2.730 0.292 o
3 7 3 268.011 263.363 1.923 0.976 o
3 7 4 162.670 159.542 2.142 1.927 o
3 7 5 21.293 20.872 0.558 32.789 o
3 8 0 79.410 83.388 0.767 6.789 o
3 8 1 5.505 4.732 0.379 116.566 o
3 8 2 1.916 1.883 0.408 160.164 o
3 8 3 156.016 162.352 1.614 2.223 o
3 8 4 20.291 18.720 0.976 21.439 o
3 8 5 77.898 78.048 0.707 7.237 o
3 9 0 273.519 281.446 1.225 0.977 o
3 9 1 3.615 3.088 0.468 110.555 o
3 9 2 88.410 90.900 0.976 5.595 o
3 9 3 29.515 29.679 0.867 18.559 o
3 9 4 9.467 8.050 0.498 66.199 o
3 9 5 41.348 42.431 0.608 16.177 o
3 10 0 1.855 1.554 0.339 214.346 o
3 10 1 93.442 89.455 1.116 5.145 o
3 10 2 65.621 65.046 0.946 8.257 o
3 10 3 123.774 125.410 1.395 3.234 o
3 10 4 16.516 15.313 0.438 47.210 o
3 11 0 47.028 46.834 0.936 11.784 o
3 11 1 23.369 23.502 0.737 25.118 o
3 11 2 27.381 26.750 0.837 20.348 o
3 11 3 107.984 108.643 0.727 4.554 o
3 11 4 0.796 0.847 0.349 246.530 o
3 12 0 0.022 0.080 0.339 310.177 o
3 12 1 8.129 6.785 0.628 55.987 o
3 12 2 38.174 37.001 0.448 19.678 o
3 12 3 74.412 74.780 0.508 8.098 o
3 13 0 27.430 27.836 0.329 30.103 o
3 13 1 42.967 42.730 0.408 17.198 o
3 13 2 26.526 25.664 0.349 31.450 o
4 0 0 153.184 155.129 2.291 1.974 o
4 0 1 187.712 188.633 1.255 1.824 o
4 0 2 269.552 274.870 1.763 0.964 o
4 0 3 69.341 68.204 0.807 8.202 o
4 0 4 265.154 264.260 1.883 0.990 o
4 0 5 0.027 0.040 0.070 6210.400 o
4 0 6 21.258 20.394 0.538 33.711 o
4 1 0 3.449 2.511 0.608 77.231 o
4 1 1 285.186 293.222 1.534 0.891 o
4 1 2 12.497 9.793 0.538 52.839 o
4 1 3 299.329 306.422 2.351 0.768 o
4 1 4 3.344 2.331 0.399 143.260 o
4 1 5 77.988 67.756 3.925 1.836 o
4 1 6 1.714 1.096 0.598 89.298 o
4 2 0 1175.040 1196.340 4.902 0.065 o
4 2 1 381.347 383.364 1.524 0.549 o
4 2 2 1732.150 1757.550 6.814 0.031 o
4 2 3 88.372 85.231 1.365 5.023 o
4 2 4 978.502 1008.010 5.111 0.089 o
4 2 5 89.340 77.330 4.194 1.584 o
4 2 6 100.713 103.094 1.016 4.669 o
4 3 0 460.359 459.230 2.012 0.387 o
4 3 1 213.762 212.912 1.186 1.503 o
4 3 2 364.423 367.214 1.953 0.579 o
4 3 3 138.110 142.307 1.166 2.898 o
4 3 4 157.569 163.408 2.172 1.945 o
4 3 5 127.981 127.164 2.281 2.432 o
4 3 6 73.554 75.786 0.667 7.803 o
4 4 0 124.791 120.977 0.936 3.611 o
4 4 1 56.423 55.592 0.658 11.182 o
4 4 2 234.805 238.277 1.425 1.248 o
4 4 3 56.420 55.193 0.767 10.694 o
4 4 4 244.512 252.444 1.734 1.122 o
4 4 5 10.425 9.684 0.747 40.116 o
4 4 6 30.909 31.631 0.528 23.257 o
4 5 0 39.336 36.035 0.498 18.924 o
4 5 1 52.079 51.766 0.667 12.210 o
4 5 2 70.174 71.442 0.797 7.995 o
4 5 3 27.721 28.533 0.638 23.752 o
4 5 4 85.088 87.084 1.365 5.125 o
4 5 5 67.709 69.769 1.395 6.383 o
4 6 0 25.099 27.099 0.399 31.057 o
4 6 1 92.220 90.272 0.857 5.595 o
4 6 2 84.352 84.912 0.956 6.035 o
4 6 3 37.241 36.563 0.658 17.841 o
4 6 4 210.568 221.500 1.574 1.431 o
4 6 5 1.057 0.966 0.399 189.722 o
4 7 0 20.657 20.563 0.438 37.686 o
4 7 1 50.025 51.328 0.747 12.158 o
4 7 2 77.101 76.673 1.186 6.211 o
4 7 3 36.001 35.228 0.837 16.250 o
4 7 4 77.166 80.379 1.255 5.926 o
4 7 5 56.944 56.678 0.578 11.355 o
4 8 0 132.818 135.094 0.936 3.218 o
4 8 1 11.948 11.198 0.458 59.431 o
4 8 2 26.322 23.901 0.787 22.386 o
4 8 3 5.293 4.384 0.588 71.627 o
4 8 4 20.482 18.122 1.056 19.585 o
4 8 5 18.825 18.351 0.428 41.804 o
4 9 0 34.089 31.920 0.608 20.511 o
4 9 1 24.883 24.558 0.598 27.468 o
4 9 2 1.592 1.305 0.568 97.851 o
4 9 3 62.419 61.818 1.196 7.737 o
4 9 4 1.510 1.345 0.448 146.909 o
4 10 0 47.202 47.871 0.777 12.807 o
4 10 1 24.475 23.871 0.747 24.191 o
4 10 2 28.724 26.849 0.697 22.488 o
4 10 3 8.196 7.811 0.757 43.055 o
4 10 4 70.893 73.076 0.628 8.289 o
4 11 0 40.955 41.136 0.897 13.743 o
4 11 1 18.097 16.668 0.727 30.973 o
4 11 2 114.645 117.470 1.465 3.486 o
4 11 3 4.392 3.567 0.329 152.370 o
4 12 0 66.451 68.693 0.558 9.205 o
4 12 1 47.001 47.432 0.438 15.119 o
4 12 2 6.928 5.908 0.269 127.117 o
4 13 0 12.180 12.155 0.259 74.884 o
4 13 1 6.036 5.400 0.269 139.991 o
5 0 1 307.168 304.420 1.484 0.806 o
5 0 2 7.603 6.326 0.359 100.030 o
5 0 3 178.790 179.826 1.714 1.830 o
5 0 4 404.203 406.567 2.152 0.480 o
5 0 5 25.866 23.831 0.757 23.281 o
5 0 6 367.939 374.368 1.205 0.589 o
5 1 0 47.923 45.928 0.548 14.420 o
5 1 1 444.285 452.475 1.574 0.415 o
5 1 2 205.496 203.478 1.225 1.600 o
5 1 3 285.521 293.650 2.829 0.780 o
5 1 4 152.602 154.113 1.654 2.305 o
5 1 5 20.665 18.809 1.305 14.741 o
5 1 6 15.252 14.725 0.428 50.593 o
5 2 0 46.830 45.549 0.558 14.672 o
5 2 1 82.711 83.667 0.667 6.715 o
5 2 2 286.362 278.596 1.494 0.916 o
5 2 3 15.851 15.711 0.568 40.898 o
5 2 4 191.126 193.276 2.690 1.383 o
5 2 5 17.302 15.791 1.205 17.536 o
5 2 6 64.172 64.638 0.727 9.209 o
5 3 0 614.813 621.412 2.262 0.227 o
5 3 1 52.168 48.329 0.658 12.574 o
5 3 2 52.021 52.593 0.687 12.035 o
5 3 3 51.648 56.648 0.867 10.765 o
5 3 4 33.525 34.929 0.817 17.249 o
5 3 5 21.241 20.483 0.956 21.244 o
5 4 0 0.697 0.697 0.249 434.121 o
5 4 1 401.597 392.679 1.734 0.504 o
5 4 2 31.172 32.947 0.568 22.173 o
5 4 3 241.160 248.539 1.465 1.181 o
5 4 4 60.114 63.731 1.036 8.509 o
5 4 5 47.761 49.744 0.697 13.058 o
5 5 0 31.146 30.874 0.438 24.720 o
5 5 1 156.589 159.204 1.215 2.405 o
5 5 2 53.444 53.749 0.867 10.715 o
5 5 3 227.359 233.635 1.425 1.306 o
5 5 4 11.755 10.580 0.638 45.583 o
5 5 5 28.746 29.539 0.508 25.387 o
5 6 0 114.671 115.976 0.737 4.151 o
5 6 1 1.404 1.156 0.339 232.820 o
5 6 2 67.394 65.644 0.976 7.958 o
5 6 3 3.573 3.078 0.448 117.514 o
5 6 4 37.878 36.543 0.807 15.927 o
5 6 5 1.762 1.315 0.299 260.557 o
5 7 0 298.687 310.198 1.225 0.836 o
5 7 1 223.899 225.396 1.614 1.324 o
5 7 2 46.014 44.453 1.056 11.244 o
5 7 3 120.340 123.497 1.504 3.241 o
5 7 4 16.966 17.445 0.677 33.598 o
5 7 5 25.697 24.897 0.448 30.372 o
5 8 0 46.264 44.523 0.538 15.082 o
5 8 1 126.490 129.425 1.205 3.268 o
5 8 2 145.170 149.978 1.624 2.456 o
5 8 3 204.210 207.891 1.873 1.462 o
5 8 4 77.322 79.542 0.936 6.715 o
5 9 0 99.340 101.829 1.036 4.727 o
5 9 1 3.948 3.806 0.448 111.720 o
5 9 2 90.481 93.111 1.385 4.738 o
5 9 3 106.932 109.340 1.614 3.625 o
5 9 4 14.322 13.649 0.369 57.627 o
5 10 0 20.762 20.095 0.717 28.255 o
5 10 1 19.973 19.338 0.737 28.372 o
5 10 2 33.671 33.843 0.897 16.293 o
5 10 3 58.967 59.168 0.558 10.902 o
5 11 0 3.299 2.909 0.658 67.891 o
5 11 1 11.074 9.843 0.687 43.395 o
5 11 2 14.970 14.227 0.438 50.994 o
5 11 3 16.963 17.604 0.389 47.035 o
5 12 0 36.599 35.278 0.389 21.321 o
5 12 1 35.964 35.696 0.399 21.420 o
5 12 2 118.526 119.383 0.658 4.009 o
6 0 0 294.428 291.667 1.893 0.838 o
6 0 1 62.468 62.227 0.638 9.885 o
6 0 2 125.596 128.489 1.186 3.315 o
6 0 3 176.320 177.664 1.634 1.891 o
6 0 4 3.121 2.381 0.588 82.957 o
6 0 5 45.073 44.523 1.006 11.759 o
6 1 0 1.538 1.873 0.279 281.764 o
6 1 1 0.468 0.149 0.090 1912.260 o
6 1 2 96.792 98.391 1.076 4.855 o
6 1 3 33.541 33.225 0.807 17.639 o
6 1 4 250.220 256.579 3.298 0.877 o
6 1 5 5.514 5.659 0.528 79.124 o
6 2 0 29.190 27.876 0.458 26.532 o
6 2 1 388.032 404.236 1.743 0.516 o
6 2 2 15.502 15.173 0.498 45.625 o
6 2 3 321.317 324.863 2.112 0.705 o
6 2 4 9.349 9.006 0.628 51.544 o
6 2 5 2.792 2.869 0.418 137.616 o
6 3 0 40.953 39.871 0.618 16.576 o
6 3 1 445.326 448.988 2.032 0.408 o
6 3 2 66.336 68.075 0.837 8.414 o
6 3 3 43.075 44.862 0.877 13.125 o
6 3 4 277.193 282.611 2.082 0.893 o
6 3 5 49.947 51.716 0.727 12.259 o
6 4 0 328.790 332.983 1.484 0.709 o
6 4 1 20.059 20.453 0.558 34.116 o
6 4 2 193.310 196.922 1.335 1.713 o
6 4 3 35.727 33.923 0.707 18.170 o
6 4 4 31.727 31.861 0.857 17.682 o
6 4 5 0.224 0.080 0.130 1634.830 o
6 5 0 12.875 13.410 0.418 57.794 o
6 5 1 40.768 40.399 0.648 16.269 o
6 5 2 98.749 99.109 1.494 4.164 o
6 5 3 55.987 55.920 0.847 10.310 o
6 5 4 242.661 254.148 2.142 1.074 o
6 5 5 23.005 22.008 0.478 33.209 o
6 6 0 274.532 273.505 1.395 0.977 o
6 6 1 396.003 404.674 2.301 0.488 o
6 6 2 153.941 153.605 1.514 2.356 o
6 6 3 196.357 205.112 1.614 1.590 o
6 6 4 56.573 55.901 1.036 9.290 o
6 6 5 37.963 38.755 0.488 19.028 o
6 7 0 293.963 302.776 1.265 0.862 o
6 7 1 294.223 298.233 1.624 0.847 o
6 7 2 39.123 38.486 1.116 12.251 o
6 7 3 8.881 7.791 0.658 50.628 o
6 7 4 106.166 107.956 1.076 4.296 o
6 8 0 36.140 36.573 0.568 19.281 o
6 8 1 14.100 13.908 0.697 36.997 o
6 8 2 91.337 90.073 1.395 4.747 o
6 8 3 10.915 9.823 0.707 42.193 o
6 8 4 25.310 23.502 0.448 31.278 o
6 9 0 8.021 8.149 0.548 63.974 o
6 9 1 62.562 62.536 1.036 8.330 o
6 9 2 12.156 10.391 0.737 38.520 o
6 9 3 41.359 40.917 0.548 16.927 o
6 10 0 28.266 29.828 0.946 17.604 o
6 10 1 246.022 248.788 2.242 1.057 o
6 10 2 13.519 13.609 0.448 53.874 o
6 10 3 89.684 89.106 0.658 6.064 o
6 11 0 120.342 121.614 0.568 3.959 o
6 11 1 40.411 40.678 0.458 18.047 o
6 11 2 7.620 7.083 0.319 105.249 o
6 12 0 49.336 50.202 0.389 14.407 o
6 12 1 49.208 48.827 0.408 14.519 o
7 0 1 429.188 425.048 2.052 0.439 o
7 0 2 131.350 132.235 1.325 3.044 o
7 0 3 30.674 30.356 0.877 17.927 o
7 0 4 55.788 53.749 1.156 8.886 o
7 0 5 19.852 19.975 0.488 37.146 o
7 1 0 433.320 444.794 1.883 0.426 o
7 1 1 6.756 5.868 0.428 92.293 o
7 1 2 115.957 116.743 1.136 3.772 o
7 1 3 9.944 8.399 0.618 51.944 o
7 1 4 57.584 59.776 1.176 8.329 o
7 1 5 5.699 5.360 0.389 109.814 o
7 2 0 124.754 125.938 1.056 3.461 o
7 2 1 49.638 47.721 0.707 12.820 o
7 2 2 58.567 59.607 0.857 9.686 o
7 2 3 10.480 10.700 0.638 47.404 o
7 2 4 28.961 29.798 0.907 18.055 o
7 2 5 14.435 15.113 0.438 51.172 o
7 3 0 4.704 4.423 0.458 101.562 o
7 3 1 118.233 118.187 1.016 3.785 o
7 3 2 28.744 28.174 0.658 22.937 o
7 3 3 59.077 58.740 0.946 9.273 o
7 3 4 34.789 33.823 0.946 15.376 o
7 3 5 33.038 33.873 0.508 21.935 o
7 4 0 83.867 82.053 0.767 6.516 o
7 4 1 437.456 441.436 2.271 0.415 o
7 4 2 84.434 82.541 1.395 5.194 o
7 4 3 56.579 57.654 0.917 9.775 o
7 4 4 3.565 2.640 0.528 94.890 o
7 4 5 31.203 31.701 0.478 23.855 o
7 5 0 310.317 316.664 1.365 0.785 o
7 5 1 24.207 21.629 0.598 28.942 o
7 5 2 132.537 131.139 1.773 2.713 o
7 5 3 36.127 37.181 0.787 16.551 o
7 5 4 20.919 20.603 0.687 28.934 o
7 6 0 0.404 0.528 0.199 679.102 o
7 6 1 27.794 26.451 0.707 22.818 o
7 6 2 11.243 9.484 0.667 44.870 o
7 6 3 30.473 29.828 0.927 17.290 o
7 6 4 2.246 1.793 0.379 173.810 o
7 7 0 4.927 4.204 0.369 127.317 o
7 7 1 6.095 6.067 0.498 81.455 o
7 7 2 52.928 51.647 1.305 8.486 o
7 7 3 1.211 0.946 0.727 63.930 o
7 7 4 67.948 68.384 0.608 8.914 o
7 8 0 209.902 211.239 1.315 1.518 o
7 8 1 17.276 17.714 0.817 27.853 o
7 8 2 103.666 102.904 1.524 3.914 o
7 8 3 13.632 12.005 0.498 51.620 o
7 9 0 155.111 157.620 2.092 2.039 o
7 9 1 31.584 30.456 0.857 17.941 o
7 9 2 143.501 143.821 0.867 2.915 o
7 9 3 5.200 3.995 0.389 119.380 o
7 10 0 14.956 13.898 0.329 58.341 o
7 10 1 9.917 8.737 0.309 87.779 o
7 10 2 24.395 24.837 0.408 32.461 o
7 11 0 7.695 7.661 0.279 110.189 o
7 11 1 55.504 55.293 0.399 12.431 o
8 0 0 527.224 549.731 3.407 0.279 o
8 0 1 73.697 75.138 0.966 7.070 o
8 0 2 166.787 171.059 1.474 2.089 o
8 0 3 124.341 123.049 1.564 3.107 o
8 0 4 0.002 0.030 0.020 49256.600 o
8 1 0 141.902 144.001 1.265 2.755 o
8 1 1 396.556 401.745 2.441 0.485 o
8 1 2 67.584 69.649 1.016 7.633 o
8 1 3 213.481 214.267 1.973 1.359 o
8 1 4 29.893 28.971 0.727 20.953 o
8 2 0 1020.310 1021.290 3.318 0.087 o
8 2 1 3.615 3.676 0.508 97.068 o
8 2 2 193.147 191.642 1.763 1.634 o
8 2 3 8.593 8.010 0.558 61.470 o
8 2 4 13.259 13.768 0.608 43.271 o
8 3 0 4.038 3.328 0.488 101.024 o
8 3 1 88.718 87.861 0.996 5.626 o
8 3 2 75.397 77.549 1.245 6.132 o
8 3 3 130.970 129.007 1.395 3.037 o
8 3 4 29.560 28.384 0.508 25.246 o
8 4 0 249.825 256.081 1.823 1.078 o
8 4 1 46.135 45.400 0.936 12.049 o
8 4 2 89.456 87.283 1.584 4.532 o
8 4 3 7.790 6.765 0.548 66.533 o
8 4 4 21.890 22.227 0.428 35.703 o
8 5 0 277.405 284.644 1.704 0.922 o
8 5 1 92.208 90.611 1.235 4.975 o
8 5 2 130.428 134.247 1.963 2.584 o
8 5 3 98.321 96.857 1.873 3.667 o
8 5 4 92.733 90.033 0.817 5.632 o
8 6 0 312.020 324.195 2.212 0.723 o
8 6 1 15.315 14.476 0.697 35.539 o
8 6 2 32.252 30.834 0.927 16.660 o
8 6 3 0.353 0.319 0.747 63.274 o
8 7 0 69.630 68.722 0.986 7.595 o
8 7 1 67.448 66.272 1.016 7.789 o
8 7 2 159.386 166.875 1.215 2.307 o
8 7 3 76.997 75.358 0.608 7.633 o
8 8 0 15.496 14.296 0.737 33.561 o
8 8 1 94.354 95.193 0.707 5.544 o
8 8 2 1.432 1.255 0.299 275.265 o
8 8 3 0.541 0.149 0.070 2105.650 o
8 9 0 202.672 210.422 0.817 1.655 o
8 9 1 45.886 45.559 0.408 15.859 o
8 9 2 94.030 94.875 0.628 5.664 o
8 10 0 34.765 33.524 0.349 23.075 o
8 10 1 30.474 30.436 0.329 26.834 o
9 0 1 21.321 22.147 0.787 25.240 o
9 0 2 14.397 13.041 0.658 39.328 o
9 0 3 30.288 31.602 0.687 20.931 o
9 0 4 6.222 5.639 0.418 98.128 o
9 1 0 121.210 125.101 1.315 3.363 o
9 1 1 101.887 100.683 1.325 4.270 o
9 1 2 43.662 42.501 1.066 11.662 o
9 1 3 12.988 12.394 0.568 47.358 o
9 1 4 9.750 9.285 0.399 75.599 o
9 2 0 42.802 42.381 0.927 12.988 o
9 2 1 85.247 83.786 1.205 5.518 o
9 2 2 94.690 94.058 1.714 4.037 o
9 2 3 2.293 1.783 0.438 140.143 o
9 2 4 20.500 19.328 0.438 38.607 o
9 3 0 83.066 82.541 1.215 5.641 o
9 3 1 312.353 316.195 2.800 0.690 o
9 3 2 41.383 39.183 1.265 10.602 o
9 3 3 98.875 101.968 0.827 5.001 o
9 3 4 22.972 22.864 0.399 35.081 o
9 4 0 0.650 0.428 0.209 590.025 o
9 4 1 37.045 38.506 1.166 12.105 o
9 4 2 18.198 17.106 1.026 21.228 o
9 4 3 53.395 54.197 0.548 12.344 o
9 5 0 5.116 4.025 0.608 69.420 o
9 5 1 36.911 35.686 0.907 15.132 o
9 5 2 1.906 1.783 0.458 134.960 o
9 5 3 57.097 56.020 0.528 11.587 o
9 6 0 9.601 8.518 0.697 45.506 o
9 6 1 15.222 13.928 0.349 56.420 o
9 6 2 33.546 33.544 0.428 22.802 o
9 6 3 45.754 45.998 0.448 15.599 o
9 7 0 29.401 29.280 0.309 28.285 o
9 7 1 145.406 146.531 0.638 2.929 o
9 7 2 20.950 20.882 0.369 39.460 o
9 8 0 0.633 0.349 0.100 1385.280 o
9 8 1 49.191 48.977 0.448 14.307 o
10 0 0 123.232 128.578 1.983 2.727 o
10 0 1 16.527 15.592 0.777 30.542 o
10 0 2 7.171 6.386 0.339 106.924 o
10 0 3 0.421 0.149 0.120 1491.090 o
10 1 0 346.234 357.610 2.491 0.598 o
10 1 1 10.181 9.096 0.717 42.836 o
10 1 2 113.730 114.302 0.737 4.215 o
10 1 3 24.224 24.209 0.399 33.156 o
10 2 0 32.827 30.884 0.927 16.500 o
10 2 1 36.281 34.531 0.608 19.133 o
10 2 2 46.963 46.297 0.458 15.167 o
10 2 3 14.238 13.499 0.319 61.409 o
10 3 0 260.259 265.744 0.927 1.088 o
10 3 1 102.313 103.104 0.608 5.031 o
10 3 2 65.734 64.718 0.518 9.653 o
10 3 3 58.599 59.258 0.399 11.486 o
10 4 0 1.046 0.887 0.189 548.334 o
10 4 1 30.680 31.243 0.339 26.294 o
10 4 2 40.796 41.485 0.379 18.378 o
10 5 0 164.623 166.636 0.538 2.414 o
10 5 1 12.313 12.194 0.289 71.849 o
10 5 2 41.793 40.189 0.389 18.180 o
10 6 0 24.572 23.801 0.289 35.472 o
10 6 1 19.705 19.587 0.319 43.772 o
10 7 0 0.212 0.269 0.179 921.590 o
11 0 1 29.646 29.918 0.289 28.127 o
11 0 2 7.907 7.044 0.249 116.638 o
11 1 0 2.852 3.128 0.189 285.169 o
11 1 1 14.394 13.818 0.249 64.871 o
11 2 0 2.737 2.162 0.199 306.381 o
11 2 1 67.353 67.467 0.389 9.561 o
11 3 0 18.923 18.839 0.259 47.718 o
11 3 1 23.901 23.502 0.309 35.956 o
11 4 0 1.472 1.315 0.209 415.659 o
;
_olex2_submission_special_instructions 'No special instructions were received'
loop_
_space_group_symop_id
_space_group_symop_operation_xyz
1 x,y,z
2 x+1/2,-y+1/2,-z
3 -x,y+1/2,-z+1/2
4 -x+1/2,-y,z+1/2
loop_
_atom_site_label
_atom_site_type_symbol
_atom_site_fract_x
_atom_site_fract_y
_atom_site_fract_z
_atom_site_U_iso_or_equiv
_atom_site_adp_type
_atom_site_occupancy
_atom_site_refinement_flags_posn
O(1) O 0.25685(5) 0.77754(4) 1.20117(9) 0.01253(12) Uani 1.000000 .
O(2) O 0.02234(5) 0.73557(5) 1.24648(12) 0.01958(13) Uani 1.000000 .
O(3) O -0.08979(5) 0.52139(5) 0.75337(13) 0.01952(13) Uani 1.000000 .
H(3) H -0.1374(12) 0.5908(11) 0.796(3) 0.034(3) Uani 1.000000 .
N(1) N 0.22830(7) 0.80481(5) 0.70956(12) 0.00941(13) Uani 1.000000 .
H(1a H 0.2293(13) 0.7899(11) 0.516(3) 0.031(3) Uani 1.000000 .
H(1b H 0.1981(11) 0.8915(12) 0.729(3) 0.031(3) Uani 1.000000 .
H(1c H 0.3311(15) 0.7942(9) 0.776(3) 0.030(3) Uani 1.000000 .
C(1) C 0.13243(7) 0.75059(6) 1.11811(12) 0.00997(14) Uani 1.000000 .
C(2) C 0.12205(7) 0.72877(6) 0.83953(12) 0.00879(14) Uani 1.000000 .
H(2) H 0.0166(10) 0.7493(8) 0.771(2) 0.020(2) Uani 1.000000 .
C(3) C 0.15705(8) 0.60122(6) 0.77954(16) 0.01288(14) Uani 1.000000 .
H(3a H 0.1614(11) 0.5948(9) 0.582(2) 0.031(3) Uani 1.000000 .
H(3b H 0.2656(12) 0.5808(8) 0.860(2) 0.028(3) Uani 1.000000 .
C(4) C 0.04645(8) 0.51436(6) 0.87910(17) 0.01737(15) Uani 1.000000 .
H(4a H 0.0319(13) 0.5268(11) 1.075(3) 0.042(3) Uani 1.000000 .
H(4b H 0.0872(11) 0.4271(10) 0.846(3) 0.041(4) Uani 1.000000 .
loop_
_atom_site_aniso_label
_atom_site_aniso_U_11
_atom_site_aniso_U_22
_atom_site_aniso_U_33
_atom_site_aniso_U_12
_atom_site_aniso_U_13
_atom_site_aniso_U_23
O(1) 0.0093(2) 0.0208(2) 0.0075(3) -0.00369(18) -0.00085(18) -0.00081(18)
O(2) 0.0095(2) 0.0389(3) 0.0103(2) -0.0051(2) 0.0014(2) -0.0000(3)
O(3) 0.0140(2) 0.0117(2) 0.0329(3) -0.00226(19) -0.0042(2) -0.0001(3)
H(3) 0.026(6) 0.021(7) 0.056(9) 0.005(5) 0.006(7) -0.009(7)
N(1) 0.0086(3) 0.0113(3) 0.0082(3) -0.0000(2) -0.0001(2) 0.0005(2)
H(1a 0.029(7) 0.034(8) 0.030(10) -0.002(6) -0.023(7) 0.001(7)
H(1b 0.018(6) 0.021(7) 0.052(10) -0.006(5) 0.001(7) 0.009(8)
H(1c 0.031(8) 0.018(6) 0.040(9) -0.007(6) 0.020(8) 0.008(6)
C(1) 0.0076(3) 0.0138(3) 0.0085(3) -0.0016(2) -0.0004(2) -0.0000(3)
C(2) 0.0083(3) 0.0104(3) 0.0077(3) 0.0000(2) -0.0012(2) -0.0008(2)
H(2) 0.012(5) 0.018(5) 0.029(6) -0.010(4) 0.001(5) 0.001(6)
C(3) 0.0124(3) 0.0101(3) 0.0161(4) 0.0007(2) -0.0012(3) -0.0017(3)
H(3a 0.021(6) 0.020(6) 0.052(10) 0.006(5) -0.001(6) -0.001(6)
H(3b 0.025(6) 0.016(5) 0.042(8) 0.009(5) -0.005(6) -0.001(5)
C(4) 0.0162(3) 0.0098(3) 0.0261(4) -0.0011(3) -0.0033(3) 0.0032(3)
H(4a 0.054(8) 0.033(7) 0.038(9) -0.007(6) -0.005(7) 0.017(7)
H(4b 0.035(7) 0.015(6) 0.073(11) -0.002(5) -0.007(7) -0.003(6)
loop_
_atom_type_symbol
_atom_type_description
_atom_type_scat_dispersion_real
_atom_type_scat_dispersion_imag
_atom_type_scat_source
_atom_type_scat_dispersion_source
C C 0.00347 0.00161
'Clementi & Roetti, C., At. Data Nucl. Data Tables 1974, 14, (177-478); Clementi & Raimondi, J. Chem. Phys., 1963, 38, (2686-2689)'
'Henke, Gullikson and Davis, At. Data and Nucl. Data Tables, 1993, 54, 2'
H H 0.00000 0.00000
'Clementi & Roetti, C., At. Data Nucl. Data Tables 1974, 14, (177-478); Clementi & Raimondi, J. Chem. Phys., 1963, 38, (2686-2689)'
'Henke, Gullikson and Davis, At. Data and Nucl. Data Tables, 1993, 54, 2'
N N 0.00653 0.00323
'Clementi & Roetti, C., At. Data Nucl. Data Tables 1974, 14, (177-478); Clementi & Raimondi, J. Chem. Phys., 1963, 38, (2686-2689)'
'Henke, Gullikson and Davis, At. Data and Nucl. Data Tables, 1993, 54, 2'
O O 0.01158 0.00611
'Clementi & Roetti, C., At. Data Nucl. Data Tables 1974, 14, (177-478); Clementi & Raimondi, J. Chem. Phys., 1963, 38, (2686-2689)'
'Henke, Gullikson and Davis, At. Data and Nucl. Data Tables, 1993, 54, 2'
loop_
_geom_angle_atom_site_label_1
_geom_angle_atom_site_label_2
_geom_angle_atom_site_label_3
_geom_angle
_geom_angle_site_symmetry_1
_geom_angle_site_symmetry_3
_geom_angle_publ_flag
C(4) O(3) H(3) 109.8(8) . . ?
H(1b N(1) H(1a 104.9(10) . . ?
H(1c N(1) H(1a 108.6(11) . . ?
H(1c N(1) H(1b 109.1(9) . . ?
C(2) N(1) H(1a 112.3(7) . . ?
C(2) N(1) H(1b 109.8(7) . . ?
C(2) N(1) H(1c 111.9(7) . . ?
O(2) C(1) O(1) 124.75(6) . . ?
C(2) C(1) O(1) 116.50(6) . . ?
C(2) C(1) O(2) 118.65(6) . . ?
C(1) C(2) N(1) 109.27(5) . . ?
H(2) C(2) N(1) 107.6(6) . . ?
H(2) C(2) C(1) 111.3(7) . . ?
C(3) C(2) N(1) 108.82(5) . . ?
C(3) C(2) C(1) 110.58(6) . . ?
C(3) C(2) H(2) 109.2(5) . . ?
H(3a C(3) C(2) 106.5(6) . . ?
H(3b C(3) C(2) 107.8(5) . . ?
H(3b C(3) H(3a 110.1(8) . . ?
C(4) C(3) C(2) 114.24(6) . . ?
C(4) C(3) H(3a 109.5(6) . . ?
C(4) C(3) H(3b 108.7(5) . . ?
C(3) C(4) O(3) 112.23(7) . . ?
H(4a C(4) O(3) 110.7(6) . . ?
H(4a C(4) C(3) 110.1(6) . . ?
H(4b C(4) O(3) 106.0(6) . . ?
H(4b C(4) C(3) 108.4(6) . . ?
H(4b C(4) H(4a 109.2(10) . . ?
loop_
_geom_bond_atom_site_label_1
_geom_bond_atom_site_label_2
_geom_bond_distance
_geom_bond_site_symmetry_2
_geom_bond_publ_flag
O(1) C(1) 1.2652(8) . ?
O(2) C(1) 1.2382(8) . ?
O(3) H(3) 0.937(12) . ?
O(3) C(4) 1.4256(9) . ?
N(1) H(1a 1.063(17) . ?
N(1) H(1b 1.038(14) . ?
N(1) H(1c 1.016(16) . ?
N(1) C(2) 1.4855(8) . ?
C(1) C(2) 1.5327(9) . ?
C(2) H(2) 1.062(10) . ?
C(2) C(3) 1.5332(9) . ?
C(3) H(3a 1.072(13) . ?
C(3) H(3b 1.112(11) . ?
C(3) C(4) 1.5210(10) . ?
C(4) H(4a 1.080(15) . ?
C(4) H(4b 1.083(12) . ?
loop_
_refln_index_h
_refln_index_k
_refln_index_l
_refln_F_squared_meas
_refln_F_squared_sigma
2 0 0 76.82 1.38
4 0 0 155.71 2.3
6 0 0 292.76 1.9
8 0 0 551.79 3.42
10 0 0 129.06 1.99
12 0 0 0.72 0.26
14 0 0 7.75 0.46
16 0 0 1.31 0.63
18 0 0 9.27 0.67
20 0 0 11.65 1.07
1 1 0 28.34 0.52
2 1 0 3197.68 9.58
3 1 0 35.09 0.91
4 1 0 2.52 0.61
5 1 0 46.1 0.55
6 1 0 1.88 0.28
7 1 0 446.46 1.89
8 1 0 144.54 1.27
9 1 0 125.57 1.32
10 1 0 358.95 2.5
11 1 0 3.14 0.19
12 1 0 0.05 0.06
13 1 0 23.24 0.32
14 1 0 0.09 0.04
15 1 0 7.88 0.37
16 1 0 10.57 0.38
17 1 0 4.71 0.42
18 1 0 17.75 0.55
19 1 0 0.46 0.26
20 1 0 2.72 0.65
21 1 0 3.37 0.73
0 2 0 3793.81 35.87
1 2 0 941.72 3.88
2 2 0 1897.15 6.22
3 2 0 101.66 1.47
4 2 0 1200.82 4.92
5 2 0 45.72 0.56
6 2 0 27.98 0.46
7 2 0 126.41 1.06
8 2 0 1025.12 3.33
9 2 0 42.54 0.93
10 2 0 31 0.93
11 2 0 2.17 0.2
12 2 0 34.66 0.31
13 2 0 0.17 0.15
14 2 0 0.13 0.06
15 2 0 1.06 0.33
16 2 0 52.86 0.57
17 2 0 4.33 0.47
18 2 0 8.25 0.5
19 2 0 1.44 0.54
20 2 0 48.02 0.79
21 2 0 0.57 0.41
1 3 0 349.07 3.04
2 3 0 965.71 4.62
3 3 0 1860.61 7.6
4 3 0 460.95 2.02
5 3 0 623.74 2.27
6 3 0 40.02 0.62
7 3 0 4.44 0.46
8 3 0 3.34 0.49
9 3 0 82.85 1.22
10 3 0 266.74 0.93
11 3 0 18.91 0.26
12 3 0 47.6 0.35
13 3 0 17.71 0.31
14 3 0 13.33 0.33
15 3 0 21.92 0.4
16 3 0 29.87 0.48
17 3 0 3.16 0.44
18 3 0 33.38 0.62
19 3 0 0.4 0.18
20 3 0 0.56 0.51
21 3 0 0.06 0.1
0 4 0 8767.66 101.89
1 4 0 80.94 1.28
2 4 0 740.36 4.29
3 4 0 136.79 0.84
4 4 0 121.43 0.94
5 4 0 0.7 0.25
6 4 0 334.23 1.49
7 4 0 82.36 0.77
8 4 0 257.04 1.83
9 4 0 0.43 0.21
10 4 0 0.89 0.19
11 4 0 1.32 0.21
12 4 0 40.22 0.33
13 4 0 47.04 0.37
14 4 0 17.73 0.34
15 4 0 13.02 0.37
16 4 0 17.64 0.46
17 4 0 0.88 0.51
18 4 0 26.88 0.67
19 4 0 3.79 0.51
20 4 0 11.4 0.71
21 4 0 2.64 0.69
1 5 0 2074.96 6.59
2 5 0 209.84 1.18
3 5 0 778.22 2.07
4 5 0 36.17 0.5
5 5 0 30.99 0.44
6 5 0 13.46 0.42
7 5 0 317.85 1.37
8 5 0 285.71 1.71
9 5 0 4.04 0.61
10 5 0 167.26 0.54
11 5 0 165.17 0.53
12 5 0 10.7 0.26
13 5 0 47.09 0.39
14 5 0 59.48 0.45
15 5 0 34.6 0.45
16 5 0 17.35 0.45
17 5 0 4.43 0.44
18 5 0 12.45 0.52
19 5 0 1.67 0.54
20 5 0 2.73 0.56
21 5 0 0.01 0.69
0 6 0 773.18 3.36
1 6 0 641.31 1.81
2 6 0 47.48 0.48
3 6 0 138.44 0.78
4 6 0 27.2 0.4
5 6 0 116.41 0.74
6 6 0 274.53 1.4
7 6 0 0.53 0.2
8 6 0 325.41 2.22
9 6 0 8.55 0.7
10 6 0 23.89 0.29
11 6 0 3.62 0.22
12 6 0 3.81 0.25
13 6 0 48.13 0.39
14 6 0 0.67 0.26
15 6 0 0.02 0.02
16 6 0 18.4 0.46
17 6 0 0.21 0.1
18 6 0 9.98 0.55
19 6 0 7.79 0.53
20 6 0 6.64 0.57
21 6 0 0.04 0.08
1 7 0 98.13 0.73
2 7 0 893.58 2.26
3 7 0 832.48 2.1
4 7 0 20.64 0.44
5 7 0 311.36 1.23
6 7 0 303.91 1.27
7 7 0 4.22 0.37
8 7 0 68.98 0.99
9 7 0 29.39 0.31
10 7 0 0.27 0.18
11 7 0 72.46 0.43
12 7 0 33.14 0.36
13 7 0 0.78 0.23
14 7 0 0.24 0.16
15 7 0 16.53 0.38
16 7 0 59 0.57
17 7 0 2.19 0.48
18 7 0 0.14 0.19
19 7 0 1.54 0.48
20 7 0 1.18 0.63
21 7 0 0.67 0.79
0 8 0 722.47 2.29
1 8 0 1.22 0.26
2 8 0 403.62 1.55
3 8 0 83.7 0.77
4 8 0 135.6 0.94
5 8 0 44.69 0.54
6 8 0 36.71 0.57
7 8 0 212.03 1.32
8 8 0 14.35 0.74
9 8 0 0.35 0.1
10 8 0 5.62 0.25
11 8 0 21.81 0.34
12 8 0 11.68 0.31
13 8 0 0.06 0.04
14 8 0 0.53 0.26
15 8 0 0.3 0.22
16 8 0 4.65 0.42
17 8 0 4.2 0.46
18 8 0 13.52 0.56
19 8 0 2.98 0.7
20 8 0 0.53 0.7
1 9 0 5.21 0.33
2 9 0 0.11 0.06
3 9 0 282.5 1.23
4 9 0 32.04 0.61
5 9 0 102.21 1.04
6 9 0 8.18 0.55
7 9 0 158.21 2.1
8 9 0 211.21 0.82
9 9 0 32.78 0.36
10 9 0 42.3 0.38
11 9 0 35.04 0.4
12 9 0 13.53 0.33
13 9 0 15.79 0.37
14 9 0 110.39 0.67
15 9 0 0.53 0.32
16 9 0 12.97 0.45
17 9 0 4.77 0.46
18 9 0 5.38 0.51
19 9 0 8.51 0.85
20 9 0 1.56 0.83
0 10 0 98.58 1.49
1 10 0 513.46 1.69
2 10 0 124.94 0.87
3 10 0 1.56 0.34
4 10 0 48.05 0.78
5 10 0 20.17 0.72
6 10 0 29.94 0.95
7 10 0 13.95 0.33
8 10 0 33.65 0.35
9 10 0 32.84 0.37
10 10 0 34.24 0.39
11 10 0 15.01 0.34
12 10 0 27.42 0.39
13 10 0 0.36 0.31
14 10 0 0.71 0.25
15 10 0 19.76 0.48
16 10 0 25.71 0.48
17 10 0 1.06 0.42
18 10 0 13.15 0.62
19 10 0 11.13 0.86
20 10 0 3.56 0.69
1 11 0 8.53 0.49
2 11 0 38.78 0.66
3 11 0 47.01 0.94
4 11 0 41.29 0.9
5 11 0 2.92 0.66
6 11 0 122.07 0.57
7 11 0 7.69 0.28
8 11 0 13.27 0.29
9 11 0 0.22 0.06
10 11 0 0.3 0.2
11 11 0 103.34 0.6
12 11 0 35.47 0.45
13 11 0 3.23 0.33
14 11 0 0.37 0.15
15 11 0 1.99 0.4
16 11 0 40.58 0.56
17 11 0 1.57 0.4
18 11 0 3.16 0.57
19 11 0 15.6 1.18
0 12 0 19.45 0.8
1 12 0 30.73 0.71
2 12 0 83.24 0.95
3 12 0 0.08 0.34
4 12 0 68.95 0.56
5 12 0 35.41 0.39
6 12 0 50.39 0.39
7 12 0 0.38 0.15
8 12 0 0.19 0.1
9 12 0 159.78 0.67
10 12 0 1.17 0.3
11 12 0 51.76 0.49
12 12 0 15.25 0.39
13 12 0 0.26 0.06
14 12 0 6.12 0.42
15 12 0 0.41 0.5
16 12 0 1.26 0.46
17 12 0 33.12 0.62
18 12 0 0.89 0.51
19 12 0 25.54 1.01
1 13 0 22.56 0.35
2 13 0 27.83 0.36
3 13 0 27.94 0.33
4 13 0 12.2 0.26
5 13 0 8.13 0.28
6 13 0 0.42 0.21
7 13 0 1.74 0.3
8 13 0 156.43 0.69
9 13 0 4.41 0.31
10 13 0 14.86 0.41
11 13 0 48.26 0.53
12 13 0 17.13 0.39
13 13 0 5.4 0.38
14 13 0 5.8 0.42
15 13 0 0.14 0.09
16 13 0 0.4 0.46
17 13 0 0.96 0.44
18 13 0 0.82 0.69
19 13 0 9.56 1.12
0 14 0 23.55 0.48
1 14 0 275.82 0.9
2 14 0 1.22 0.25
3 14 0 9.64 0.28
4 14 0 69.53 0.44
5 14 0 1.12 0.27
6 14 0 45.64 0.44
7 14 0 13.81 0.4
8 14 0 0.92 0.34
9 14 0 23.71 0.47
10 14 0 0.08 0.04
11 14 0 33.5 0.5
12 14 0 0.33 0.21
13 14 0 4.99 0.43
14 14 0 15.14 0.52
15 14 0 24.81 0.66
16 14 0 6.1 0.59
17 14 0 1.96 0.59
18 14 0 0.11 0.37
1 15 0 54.91 0.39
2 15 0 24.68 0.36
3 15 0 0.09 0.04
4 15 0 6.34 0.32
5 15 0 21.4 0.38
6 15 0 14.52 0.38
7 15 0 0.32 0.15
8 15 0 29.67 0.49
9 15 0 29.95 0.55
10 15 0 0.75 0.44
11 15 0 2.12 0.42
12 15 0 2.55 0.39
13 15 0 1.69 0.44
14 15 0 23.88 0.59
15 15 0 3.26 0.54
16 15 0 4.18 0.6
17 15 0 0.44 0.49
18 15 0 2.55 0.72
0 16 0 10.8 0.45
1 16 0 1.02 0.25
2 16 0 0.07 0.03
3 16 0 44.88 0.45
4 16 0 3.77 0.33
5 16 0 17.6 0.41
6 16 0 1.89 0.37
7 16 0 22.4 0.51
8 16 0 0.29 0.31
9 16 0 21.94 0.53
10 16 0 0.1 0.09
11 16 0 17.35 0.57
12 16 0 17.32 0.63
13 16 0 5.11 0.47
14 16 0 11.46 0.55
15 16 0 1.61 0.49
16 16 0 0.01 0.19
17 16 0 7.34 0.88
1 17 0 15.25 0.36
2 17 0 4.94 0.32
3 17 0 14.23 0.36
4 17 0 0.09 0.14
5 17 0 1.05 0.33
6 17 0 45.26 0.6
7 17 0 9.63 0.48
8 17 0 0.42 0.86
9 17 0 0.13 0.23
10 17 0 38.9 0.89
11 17 0 6.38 0.57
12 17 0 18.88 0.61
13 17 0 0.39 0.43
14 17 0 1.62 0.52
15 17 0 0.12 0.35
16 17 0 4.04 0.65
17 17 0 0.27 0.33
0 18 0 6.98 0.45
1 18 0 37.73 0.44
2 18 0 0.47 0.23
3 18 0 14.07 0.38
4 18 0 0.26 0.26
5 18 0 5.84 0.39
6 18 0 4.48 0.41
7 18 0 12.28 0.52
8 18 0 0.4 0.48
9 18 0 5.84 0.59
10 18 0 5.53 0.6
11 18 0 1.68 0.58
12 18 0 0.58 0.55
13 18 0 4.51 0.57
14 18 0 7.2 0.6
15 18 0 0.5 0.25
16 18 0 5.38 0.66
1 19 0 6.89 0.35
2 19 0 4.46 0.34
3 19 0 0.97 0.39
4 19 0 21.84 0.53
5 19 0 1.59 0.45
6 19 0 0.82 0.43
7 19 0 0.04 0.23
8 19 0 13.88 0.6
9 19 0 5.1 0.58
10 19 0 0.83 0.61
11 19 0 6.99 0.59
12 19 0 13.62 0.58
13 19 0 1.33 0.42
14 19 0 28.52 0.66
15 19 0 6.5 0.57
0 20 0 0.38 0.51
1 20 0 6.84 0.36
2 20 0 13.08 0.43
3 20 0 0.57 0.41
4 20 0 0.31 0.23
5 20 0 0.7 0.45
6 20 0 27.47 0.68
7 20 0 11.32 0.6
8 20 0 0.17 0.61
9 20 0 2.04 0.56
10 20 0 9.09 0.73
11 20 0 1.43 0.48
12 20 0 0.05 0.64
13 20 0 1.36 0.69
14 20 0 11.18 0.63
1 21 0 2.93 0.36
2 21 0 4.07 0.45
3 21 0 15.44 0.55
4 21 0 2.57 0.41
5 21 0 6.05 0.5
6 21 0 10.51 0.54
7 21 0 1.75 0.51
8 21 0 4.84 0.53
9 21 0 0.04 0.04
10 21 0 2.03 0.48
11 21 0 0.66 0.26
12 21 0 15.9 0.65
13 21 0 5.22 0.57
0 22 0 3.75 0.6
1 22 0 14.23 0.47
2 22 0 3.16 0.41
3 22 0 0.6 0.64
4 22 0 0.14 0.12
5 22 0 0.89 0.49
6 22 0 1.27 0.38
7 22 0 5.19 0.55
8 22 0 2.9 0.44
9 22 0 17.79 0.65
10 22 0 0.42 0.38
11 22 0 0.08 0.12
12 22 0 0.25 0.07
1 23 0 1.93 0.44
2 23 0 8.92 0.51
3 23 0 0.05 0.05
4 23 0 0.28 0.38
5 23 0 1.4 0.48
6 23 0 0.22 0.26
7 23 0 9.52 0.59
8 23 0 4.16 0.48
9 23 0 6.7 0.63
10 23 0 0.33 0.82
11 23 0 0.77 0.55
0 24 0 46.72 1.08
1 24 0 4.47 0.48
2 24 0 0.12 0.98
3 24 0 0.58 0.36
4 24 0 1.63 0.44
5 24 0 0.59 0.24
6 24 0 2.77 0.52
7 24 0 1.9 0.52
8 24 0 0 0.03
9 24 0 0.08 0.09
10 24 0 0.41 0.42
1 25 0 2.09 0.53
2 25 0 0.13 0.33
3 25 0 0.32 0.28
4 25 0 2.74 0.63
5 25 0 1.06 0.46
6 25 0 1.1 0.47
7 25 0 3.83 0.57
8 25 0 1 0.5
0 26 0 2 0.66
1 26 0 0.37 0.46
2 26 0 5.19 0.7
3 26 0 6.54 0.66
4 26 0 3.8 0.51
5 26 0 0.5 0.39
6 26 0 0.27 0.17
1 27 0 0.34 0.42
2 27 0 0.07 0.05
3 27 0 1.87 0.6
1 0 1 1110.52 4.57
2 0 1 818.99 3.62
3 0 1 2109.29 6.77
4 0 1 189.34 1.26
5 0 1 305.56 1.49
6 0 1 62.46 0.64
7 0 1 426.64 2.06
8 0 1 75.42 0.97
9 0 1 22.23 0.79
10 0 1 15.65 0.78
11 0 1 30.03 0.29
12 0 1 0.05 0.02
13 0 1 77.26 0.46
14 0 1 47.23 0.45
15 0 1 66.93 0.54
16 0 1 1.63 0.34
17 0 1 29.87 0.57
18 0 1 0.14 0.13
19 0 1 1.74 0.45
20 0 1 0.18 0.22
21 0 1 11.75 0.66
0 1 1 926.55 2.86
-1 1 1 459.23 2.45
1 1 1 456.69 2.56
-2 1 1 26.33 0.7
2 1 1 25.35 0.79
-3 1 1 33.36 1.03
3 1 1 33.56 1.01
-4 1 1 292.6 1.25
4 1 1 294.32 1.54
-5 1 1 451.99 1.66
5 1 1 454.17 1.58
-6 1 1 0.26 0.13
6 1 1 0.15 0.09
-7 1 1 6.44 0.39
7 1 1 5.89 0.43
-8 1 1 405.74 2.03
8 1 1 403.25 2.45
-9 1 1 103.86 1.39
9 1 1 101.06 1.33
-10 1 1 9.9 0.73
10 1 1 9.13 0.72
-11 1 1 14.02 0.24
11 1 1 13.87 0.25
-12 1 1 25.72 0.3
12 1 1 26.25 0.31
-13 1 1 66.73 0.43
13 1 1 66.42 0.47
-14 1 1 22.26 0.39
14 1 1 22.39 0.37
-15 1 1 1.65 0.34
15 1 1 1.54 0.33
-16 1 1 19.62 0.46
16 1 1 19.27 0.44
-17 1 1 65.9 0.64
17 1 1 66.78 0.7
-18 1 1 5.27 0.43
18 1 1 5.17 0.46
-19 1 1 18.37 0.77
19 1 1 18.23 0.63
-20 1 1 7.13 0.62
20 1 1 7.87 0.7
-21 1 1 3.51 0.8
21 1 1 3.71 0.67
0 2 1 460.05 3.12
-1 2 1 3065.95 13.79
1 2 1 2948.91 12.59
-2 2 1 119.11 1.53
2 2 1 117.25 1.86
-3 2 1 499.13 3.24
3 2 1 507.32 2.91
-4 2 1 374.42 1.73
4 2 1 384.8 1.53
-5 2 1 83.15 0.72
5 2 1 83.98 0.67
-6 2 1 404.68 1.67
6 2 1 405.75 1.75
-7 2 1 47.91 0.75
7 2 1 47.9 0.71
-8 2 1 3.12 0.45
8 2 1 3.69 0.51
-9 2 1 86.62 1.13
9 2 1 84.1 1.21
-10 2 1 36.11 0.51
10 2 1 34.66 0.61
-11 2 1 67.52 0.37
11 2 1 67.72 0.39
-12 2 1 21.77 0.3
12 2 1 21.77 0.31
-13 2 1 8.46 0.29
13 2 1 8.73 0.29
-14 2 1 16.34 0.35
14 2 1 16.55 0.36
-15 2 1 1.07 0.33
15 2 1 1.04 0.34
-16 2 1 12.32 0.39
16 2 1 12.16 0.44
-17 2 1 101.2 0.69
17 2 1 100.33 0.81
-18 2 1 6.19 0.5
18 2 1 6.45 0.53
-19 2 1 1.05 0.52
19 2 1 0.45 0.34
-20 2 1 7.65 0.72
20 2 1 7.16 0.69
-21 2 1 0.44 0.22
21 2 1 0.11 0.16
0 3 1 350.69 3.25
-1 3 1 590.07 4.11
1 3 1 561.45 3.7
-2 3 1 297.51 2.19
2 3 1 299.76 2.72
-3 3 1 294.55 1.96
3 3 1 292.54 2.43
-4 3 1 212.86 1.22
4 3 1 213.71 1.19
-5 3 1 50.08 0.61
5 3 1 48.51 0.66
-6 3 1 451.2 1.68
6 3 1 450.67 2.04
-7 3 1 120.45 0.97
7 3 1 118.63 1.02
-8 3 1 89.22 0.85
8 3 1 88.19 1
-9 3 1 326.31 1.82
9 3 1 317.38 2.81
-10 3 1 103.18 0.55
10 3 1 103.49 0.61
-11 3 1 23.19 0.26
11 3 1 23.59 0.31
-12 3 1 47.23 0.34
12 3 1 46.88 0.35
-13 3 1 38.94 0.37
13 3 1 39 0.39
-14 3 1 0.22 0.09
14 3 1 0.26 0.08
-15 3 1 6.78 0.35
15 3 1 6.53 0.36
-16 3 1 38.21 0.51
16 3 1 38.6 0.52
-17 3 1 15.3 0.51
17 3 1 15.46 0.6
-18 3 1 8.92 0.5
18 3 1 9.04 0.64
-19 3 1 7.58 0.57
19 3 1 7.99 0.55
-20 3 1 2.93 0.65
20 3 1 3.28 0.51
-21 3 1 8.09 0.68
21 3 1 9.07 0.7
0 4 1 962.2 5.6
-1 4 1 5.56 0.69
1 4 1 5.84 0.69
-2 4 1 390.94 2.58
2 4 1 390.79 3.83
-3 4 1 3.88 0.34
3 4 1 3.39 0.35
-4 4 1 55.33 0.64
4 4 1 55.8 0.66
-5 4 1 392.09 1.64
5 4 1 394.15 1.74
-6 4 1 20.8 0.53
6 4 1 20.53 0.56
-7 4 1 444.49 2.08
7 4 1 443.09 2.28
-8 4 1 45.31 0.81
8 4 1 45.57 0.94
-9 4 1 37.32 0.82
9 4 1 38.65 1.17
-10 4 1 30.93 0.3
10 4 1 31.36 0.34
-11 4 1 4.92 0.22
11 4 1 4.85 0.23
-12 4 1 1.32 0.22
12 4 1 1.41 0.22
-13 4 1 1.95 0.26
13 4 1 2.07 0.28
-14 4 1 47.27 0.44
14 4 1 47.53 0.44
-15 4 1 5.99 0.35
15 4 1 6.04 0.37
-16 4 1 69.28 0.63
16 4 1 69.1 0.66
-17 4 1 23.26 0.54
17 4 1 23.94 0.57
-18 4 1 4.45 0.49
18 4 1 4.91 0.47
-19 4 1 1.98 0.48
19 4 1 2.38 0.49
-20 4 1 3.12 0.61
20 4 1 4.08 0.6
-21 4 1 10.01 0.69
21 4 1 10.36 0.63
0 5 1 572.52 2.21
-1 5 1 624.05 2.1
1 5 1 631.35 2.29
-2 5 1 348.4 1.32
2 5 1 349.92 1.56
-3 5 1 2.79 0.25
3 5 1 2.77 0.31
-4 5 1 52.19 0.66
4 5 1 51.96 0.67
-5 5 1 160.07 1.01
5 5 1 159.8 1.22
-6 5 1 40.49 0.55
6 5 1 40.55 0.65
-7 5 1 22.8 0.53
7 5 1 21.71 0.6
-8 5 1 91.98 1.11
8 5 1 90.95 1.24
-9 5 1 36.7 0.83
9 5 1 35.82 0.91
-10 5 1 11.66 0.22
10 5 1 12.24 0.29
-11 5 1 23.53 0.27
11 5 1 24.26 0.32
-12 5 1 41.3 0.34
12 5 1 41.64 0.39
-13 5 1 47.6 0.37
13 5 1 47.9 0.41
-14 5 1 218.93 0.74
14 5 1 216.27 0.86
-15 5 1 26.3 0.42
15 5 1 26.7 0.47
-16 5 1 8.93 0.43
16 5 1 8.39 0.46
-17 5 1 16.41 0.59
17 5 1 17.36 0.52
-18 5 1 1.54 0.57
18 5 1 0.78 0.52
-19 5 1 3.03 0.53
19 5 1 2.67 0.54
-20 5 1 4.65 0.74
20 5 1 5.06 0.62
-21 5 1 0.66 0.55
21 5 1 0.42 0.55
0 6 1 62.78 0.6
-1 6 1 419.08 1.3
1 6 1 417.63 1.63
-2 6 1 78.09 0.56
2 6 1 78.9 0.73
-3 6 1 291.24 1.15
3 6 1 290.13 1.4
-4 6 1 90.87 0.77
4 6 1 90.61 0.86
-5 6 1 1.07 0.31
5 6 1 1.16 0.34
-6 6 1 403.87 1.59
6 6 1 406.19 2.31
-7 6 1 26.88 0.58
7 6 1 26.55 0.71
-8 6 1 15.04 0.62
8 6 1 14.53 0.7
-9 6 1 13.98 0.34
9 6 1 13.98 0.35
-10 6 1 19.43 0.25
10 6 1 19.66 0.32
-11 6 1 6.94 0.23
11 6 1 6.96 0.28
-12 6 1 2.08 0.25
12 6 1 2.08 0.26
-13 6 1 6.59 0.28
13 6 1 6.53 0.32
-14 6 1 20.75 0.38
14 6 1 21.03 0.38
-15 6 1 0.6 0.19
15 6 1 0.51 0.26
-16 6 1 44.65 0.54
16 6 1 44.32 0.57
-17 6 1 11.65 0.64
17 6 1 12.2 0.47
-18 6 1 12.07 0.57
18 6 1 12.2 0.55
-19 6 1 8.03 0.66
19 6 1 8.46 0.61
-20 6 1 7.05 0.73
20 6 1 8.35 0.95
-21 6 1 1.21 0.79
21 6 1 1.26 0.69
0 7 1 97.39 0.7
-1 7 1 4.35 0.26
1 7 1 3.95 0.35
-2 7 1 136.95 0.77
2 7 1 137.44 0.81
-3 7 1 280.72 1.24
3 7 1 283.85 1.52
-4 7 1 52.3 0.67
4 7 1 51.52 0.75
-5 7 1 223.9 1.34
5 7 1 226.24 1.62
-6 7 1 298.51 1.51
6 7 1 299.35 1.63
-7 7 1 5.32 0.41
7 7 1 6.09 0.5
-8 7 1 66.37 1.03
8 7 1 66.52 1.02
-9 7 1 146.59 0.54
9 7 1 147.08 0.64
-10 7 1 53.67 0.33
10 7 1 53.2 0.42
-11 7 1 18.78 0.28
11 7 1 19.46 0.33
-12 7 1 19.21 0.3
12 7 1 19 0.33
-13 7 1 7.03 0.3
13 7 1 6.95 0.32
-14 7 1 21.17 0.37
14 7 1 21.1 0.4
-15 7 1 0.47 0.25
15 7 1 0.23 0.2
-16 7 1 13.67 0.46
16 7 1 14.09 0.43
-17 7 1 11.15 0.5
17 7 1 10.79 0.54
-18 7 1 3.79 0.48
18 7 1 3.79 0.44
-19 7 1 5.5 0.79
19 7 1 6.02 0.51
-20 7 1 6.2 0.6
20 7 1 6.58 0.77
-21 7 1 3.24 0.63
21 7 1 3.12 0.63
0 8 1 0.17 0.14
-1 8 1 1.51 0.27
1 8 1 1.47 0.29
-2 8 1 579.34 1.64
2 8 1 576.49 2.01
-3 8 1 5.07 0.34
3 8 1 4.75 0.38
-4 8 1 11.56 0.42
4 8 1 11.24 0.46
-5 8 1 128.22 1.1
5 8 1 129.91 1.21
-6 8 1 13.54 0.48
6 8 1 13.96 0.7
-7 8 1 16.51 0.53
7 8 1 17.78 0.82
-8 8 1 96.17 0.63
8 8 1 95.55 0.71
-9 8 1 49.29 0.37
9 8 1 49.16 0.45
-10 8 1 97.16 0.42
10 8 1 98.41 0.57
-11 8 1 22.48 0.3
11 8 1 22.77 0.38
-12 8 1 9.08 0.29
12 8 1 9.24 0.34
-13 8 1 5 0.31
13 8 1 4.8 0.34
-14 8 1 8.63 0.35
14 8 1 8.41 0.34
-15 8 1 0.97 0.22
15 8 1 0.66 0.19
-16 8 1 34.61 0.58
16 8 1 34.37 0.49
-17 8 1 0.33 0.35
17 8 1 0.38 0.31
-18 8 1 2.19 0.53
18 8 1 2.17 0.48
-19 8 1 10.93 0.74
19 8 1 10.74 0.67
-20 8 1 3.09 0.55
20 8 1 3.27 0.69
0 9 1 173.19 1.04
-1 9 1 372.74 1.61
1 9 1 370.62 1.49
-2 9 1 35.43 0.52
2 9 1 35.11 0.61
-3 9 1 3.94 0.36
3 9 1 3.1 0.47
-4 9 1 25.85 0.57
4 9 1 24.65 0.6
-5 9 1 3.56 0.46
5 9 1 3.82 0.45
-6 9 1 62.6 0.81
6 9 1 62.77 1.04
-7 9 1 31.32 0.66
7 9 1 30.57 0.86
-8 9 1 45.93 0.36
8 9 1 45.73 0.41
-9 9 1 2.8 0.22
9 9 1 2.68 0.23
-10 9 1 7.56 0.25
10 9 1 7.66 0.29
-11 9 1 10.4 0.28
11 9 1 10.82 0.34
-12 9 1 25.96 0.36
12 9 1 26.48 0.42
-13 9 1 9.32 0.34
13 9 1 9.7 0.36
-14 9 1 33.99 0.46
14 9 1 33.44 0.46
-15 9 1 57.59 0.55
15 9 1 58.01 0.57
-16 9 1 2.81 0.47
16 9 1 2.81 0.39
-17 9 1 2.12 0.57
17 9 1 1.91 0.52
-18 9 1 2.05 0.61
18 9 1 2.65 0.5
-19 9 1 1.19 0.46
19 9 1 1.55 0.49
-20 9 1 9.75 0.64
20 9 1 9.54 0.69
0 10 1 436.32 1.57
-1 10 1 185 1.15
1 10 1 182.57 1.19
-2 10 1 55.09 0.79
2 10 1 53.63 0.68
-3 10 1 92.27 0.92
3 10 1 89.79 1.12
-4 10 1 24.91 0.66
4 10 1 23.96 0.75
-5 10 1 19.05 0.64
5 10 1 19.41 0.74
-6 10 1 251.29 1.73
6 10 1 249.72 2.25
-7 10 1 8.54 0.28
7 10 1 8.77 0.31
-8 10 1 30.62 0.32
8 10 1 30.55 0.33
-9 10 1 1.57 0.25
9 10 1 1.69 0.24
-10 10 1 17.32 0.32
10 10 1 17.64 0.35
-11 10 1 38.27 0.36
11 10 1 38.65 0.46
-12 10 1 5.02 0.3
12 10 1 5.04 0.35
-13 10 1 35.43 0.45
13 10 1 35.32 0.46
-14 10 1 6.39 0.38
14 10 1 6.06 0.38
-15 10 1 7.86 0.41
15 10 1 8.27 0.39
-16 10 1 6.88 0.45
16 10 1 7.04 0.46
-17 10 1 0.58 0.51
17 10 1 0.46 0.3
-18 10 1 3.74 0.62
18 10 1 4.06 0.61
-19 10 1 1.24 0.61
19 10 1 1.49 0.56
-20 10 1 1.7 0.62
20 10 1 1.96 0.74
0 11 1 1.12 0.3
-1 11 1 35.69 0.67
1 11 1 35.04 0.69
-2 11 1 17.1 0.57
2 11 1 16.71 0.56
-3 11 1 23.37 0.59
3 11 1 23.59 0.74
-4 11 1 17.31 0.63
4 11 1 16.73 0.73
-5 11 1 11.32 0.43
5 11 1 9.88 0.69
-6 11 1 40.8 0.4
6 11 1 40.83 0.46
-7 11 1 55.72 0.38
7 11 1 55.5 0.4
-8 11 1 91.1 0.45
8 11 1 90.63 0.52
-9 11 1 99.01 0.54
9 11 1 98.91 0.52
-10 11 1 5.87 0.3
10 11 1 5.8 0.32
-11 11 1 0.6 0.28
11 11 1 0.49 0.17
-12 11 1 1.43 0.3
12 11 1 1.59 0.35
-13 11 1 23.69 0.42
13 11 1 23.36 0.43
-14 11 1 27.12 0.48
14 11 1 26.69 0.47
-15 11 1 2.06 0.44
15 11 1 2.17 0.41
-16 11 1 1.58 0.44
16 11 1 1.6 0.47
-17 11 1 2.44 0.61
17 11 1 2.42 0.51
-18 11 1 3.94 0.59
18 11 1 3.52 0.52
-19 11 1 10.88 0.74
19 11 1 11.19 0.66
0 12 1 18.78 0.65
-1 12 1 7.37 0.55
1 12 1 6.8 0.52
-2 12 1 261.48 2.02
2 12 1 264.52 1.68
-3 12 1 7.3 0.63
3 12 1 6.81 0.63
-4 12 1 47.29 0.48
4 12 1 47.61 0.44
-5 12 1 35.66 0.35
5 12 1 35.83 0.4
-6 12 1 48.9 0.36
6 12 1 49.01 0.41
-7 12 1 10.65 0.29
7 12 1 10.63 0.33
-8 12 1 98.41 0.54
8 12 1 99.32 0.63
-9 12 1 35.4 0.39
9 12 1 36.31 0.41
-10 12 1 8.23 0.32
10 12 1 8.43 0.31
-11 12 1 13.2 0.33
11 12 1 13.43 0.38
-12 12 1 19.74 0.39
12 12 1 18.89 0.47
-13 12 1 2.57 0.33
13 12 1 2.26 0.42
-14 12 1 1.99 0.4
14 12 1 1.81 0.42
-15 12 1 0.2 0.14
15 12 1 0.61 0.5
-16 12 1 43.51 0.59
16 12 1 43.41 0.66
-17 12 1 2.78 0.57
17 12 1 2.55 0.41
-18 12 1 5.03 0.78
18 12 1 5.3 0.59
-19 12 1 5.9 1.43
19 12 1 6.79 0.68
0 13 1 49.63 0.44
-1 13 1 6.97 0.28
1 13 1 6.8 0.29
-2 13 1 23.37 0.34
2 13 1 23.28 0.35
-3 13 1 42.59 0.37
3 13 1 42.89 0.41
-4 13 1 5.35 0.29
4 13 1 5.42 0.27
-5 13 1 5.85 0.27
5 13 1 5.38 0.3
-6 13 1 6.08 0.26
6 13 1 5.94 0.28
-7 13 1 43.92 0.41
7 13 1 43.01 0.47
-8 13 1 36.32 0.41
8 13 1 36.21 0.5
-9 13 1 20.55 0.38
9 13 1 21.1 0.4
-10 13 1 19.82 0.41
10 13 1 19.45 0.43
-11 13 1 31.52 0.41
11 13 1 31.8 0.54
-12 13 1 11.47 0.42
12 13 1 11.63 0.48
-13 13 1 3.02 0.37
13 13 1 3.11 0.43
-14 13 1 11.59 0.48
14 13 1 11.57 0.48
-15 13 1 9.22 0.48
15 13 1 9.3 0.5
-16 13 1 4.18 0.5
16 13 1 4.4 0.48
-17 13 1 6.27 0.77
17 13 1 5.96 0.47
-18 13 1 0.01 0.01
18 13 1 0.51 0.25
-19 13 1 2.25 1.75
19 13 1 1.21 0.91
0 14 1 392.35 0.95
-1 14 1 0.88 0.19
1 14 1 0.67 0.17
-2 14 1 34.95 0.32
2 14 1 34.91 0.39
-3 14 1 36.63 0.32
3 14 1 37.23 0.38
-4 14 1 9.53 0.29
4 14 1 9.49 0.3
-5 14 1 1.13 0.27
5 14 1 0.96 0.27
-6 14 1 90.4 0.53
6 14 1 90.28 0.6
-7 14 1 4.87 0.3
7 14 1 4.77 0.39
-8 14 1 13.49 0.37
8 14 1 13.13 0.45
-9 14 1 12.41 0.38
9 14 1 13.26 0.46
-10 14 1 5.75 0.39
10 14 1 5.62 0.41
-11 14 1 10.56 0.39
11 14 1 10.45 0.45
-12 14 1 1.61 0.38
12 14 1 2.03 0.43
-13 14 1 7.35 0.43
13 14 1 7.37 0.5
-14 14 1 0.25 0.14
14 14 1 0.31 0.28
-15 14 1 10.23 0.51
15 14 1 10.62 0.55
-16 14 1 1.18 0.54
16 14 1 1.63 0.48
-17 14 1 4.19 0.74
17 14 1 3.73 0.52
-18 14 1 2.94 1.19
18 14 1 3.05 0.69
0 15 1 6.44 0.25
-1 15 1 13.98 0.28
1 15 1 14.24 0.3
-2 15 1 28.29 0.33
2 15 1 27.87 0.35
-3 15 1 24.38 0.33
3 15 1 24.43 0.39
-4 15 1 61.12 0.47
4 15 1 60.47 0.51
-5 15 1 27.8 0.39
5 15 1 27.91 0.44
-6 15 1 18.99 0.38
6 15 1 18.85 0.41
-7 15 1 33.49 0.46
7 15 1 32.87 0.59
-8 15 1 2.59 0.36
8 15 1 2.64 0.44
-9 15 1 12.99 0.4
9 15 1 13.22 0.48
-10 15 1 6.04 0.43
10 15 1 6.4 0.46
-11 15 1 12.92 0.48
11 15 1 14.26 0.56
-12 15 1 15.07 0.48
12 15 1 14.68 0.56
-13 15 1 30.03 0.58
13 15 1 30.63 0.61
-14 15 1 4.9 0.51
14 15 1 4.64 0.46
-15 15 1 3.12 0.54
15 15 1 3.48 0.51
-16 15 1 2.18 0.5
16 15 1 2.17 0.51
-17 15 1 0.6 0.73
17 15 1 0.63 0.34
-18 15 1 1.13 1.22
18 15 1 1.26 0.66
0 16 1 2.3 0.28
-1 16 1 32.58 0.36
1 16 1 32.36 0.37
-2 16 1 97.35 0.54
2 16 1 96.19 0.56
-3 16 1 26.39 0.37
3 16 1 26.16 0.42
-4 16 1 1.06 0.26
4 16 1 1.47 0.29
-5 16 1 42.79 0.49
5 16 1 42.84 0.55
-6 16 1 4.02 0.32
6 16 1 3.78 0.36
-7 16 1 32.62 0.48
7 16 1 32.24 0.62
-8 16 1 28.61 0.52
8 16 1 28.27 0.61
-9 16 1 0.61 0.48
9 16 1 0.07 0.1
-10 16 1 5.31 0.48
10 16 1 6.23 0.45
-11 16 1 0.57 0.34
11 16 1 1.12 0.41
-12 16 1 1.13 0.44
12 16 1 0.97 0.54
-13 16 1 0.02 0.03
13 16 1 0.42 0.43
-14 16 1 1.79 0.48
14 16 1 1.35 0.43
-15 16 1 1.01 0.51
15 16 1 0.76 0.42
-16 16 1 1.55 0.85
16 16 1 2.29 0.67
-17 16 1 1.1 1.28
17 16 1 0.96 0.7
0 17 1 1.43 0.3
-1 17 1 1.08 0.27
1 17 1 1.29 0.28
-2 17 1 30.58 0.45
2 17 1 30.61 0.38
-3 17 1 95.09 0.68
3 17 1 94.41 0.66
-4 17 1 2.99 0.37
4 17 1 2.74 0.34
-5 17 1 143.16 0.82
5 17 1 140.45 0.89
-6 17 1 7.48 0.37
6 17 1 7.46 0.4
-7 17 1 0.1 0.1
7 17 1 0.07 0.04
-8 17 1 18.12 0.44
8 17 1 18.33 0.57
-9 17 1 3.27 0.45
9 17 1 3.25 0.52
-10 17 1 1.88 0.42
10 17 1 1.9 0.47
-11 17 1 0.72 0.3
11 17 1 0.94 0.49
-12 17 1 4.22 0.48
12 17 1 4.35 0.57
-13 17 1 0.86 0.5
13 17 1 0.3 0.21
-14 17 1 0.33 0.24
14 17 1 0.34 0.13
-15 17 1 5.98 0.61
15 17 1 6.69 0.63
-16 17 1 0.68 0.51
16 17 1 0.21 0.31
-17 17 1 1.32 0.84
17 17 1 1.63 0.46
0 18 1 9.79 0.36
-1 18 1 0.77 0.37
1 18 1 0.95 0.29
-2 18 1 7.05 0.37
2 18 1 6.88 0.33
-3 18 1 14.05 0.41
3 18 1 13.94 0.36
-4 18 1 1.13 0.41
4 18 1 1.04 0.36
-5 18 1 3.89 0.39
5 18 1 3.99 0.39
-6 18 1 32.9 0.58
6 18 1 32.82 0.62
-7 18 1 43.64 0.67
7 18 1 43.11 0.76
-8 18 1 1.17 0.59
8 18 1 1.32 0.47
-9 18 1 2.62 0.59
9 18 1 2.53 0.56
-10 18 1 3.05 0.73
10 18 1 2.71 0.51
-11 18 1 3.56 0.6
11 18 1 3.3 0.51
-12 18 1 4.98 0.72
12 18 1 5.8 0.61
-13 18 1 3.7 0.62
13 18 1 4.03 0.57
-14 18 1 0.54 0.32
14 18 1 1.05 0.61
-15 18 1 9.34 0.66
15 18 1 9.12 0.57
-16 18 1 2.42 0.97
16 18 1 2.19 0.67
0 19 1 7.05 0.35
-1 19 1 12.99 0.4
1 19 1 13.09 0.38
-2 19 1 12.11 0.44
2 19 1 12.12 0.38
-3 19 1 39.59 0.57
3 19 1 38.8 0.48
-4 19 1 5.76 0.39
4 19 1 5.71 0.39
-5 19 1 17.61 0.5
5 19 1 16.63 0.44
-6 19 1 4.93 0.49
6 19 1 5.17 0.48
-7 19 1 6.67 0.48
7 19 1 6.51 0.55
-8 19 1 0.38 0.47
8 19 1 0.29 0.46
-9 19 1 1.75 0.58
9 19 1 1.7 0.59
-10 19 1 3.03 0.66
10 19 1 2.98 0.53
-11 19 1 12.68 0.69
11 19 1 13.16 0.62
-12 19 1 0.94 0.55
12 19 1 1.03 0.84
-13 19 1 14 0.6
13 19 1 14.22 0.56
-14 19 1 21.94 0.72
14 19 1 21.79 0.64
-15 19 1 6.61 0.57
15 19 1 7.67 0.73
0 20 1 23.2 0.47
-1 20 1 10.52 0.43
1 20 1 9.9 0.38
-2 20 1 0.78 0.52
2 20 1 0.66 0.33
-3 20 1 2.35 0.39
3 20 1 2.25 0.37
-4 20 1 9.72 0.44
4 20 1 9.13 0.44
-5 20 1 37.09 0.6
5 20 1 36.89 0.56
-6 20 1 4.94 0.49
6 20 1 4.33 0.43
-7 20 1 3.6 0.57
7 20 1 3.57 0.57
-8 20 1 0.61 0.16
8 20 1 1.72 0.62
-9 20 1 8.24 0.56
9 20 1 9.22 0.71
-10 20 1 2.14 0.53
10 20 1 2.2 0.53
-11 20 1 0.95 0.8
11 20 1 0.82 0.4
-12 20 1 2.39 0.62
12 20 1 2.37 0.63
-13 20 1 6.38 0.58
13 20 1 6.65 0.62
-14 20 1 0.49 0.5
14 20 1 0.51 0.38
0 21 1 1.34 0.32
-1 21 1 2.68 0.49
1 21 1 2.71 0.39
-2 21 1 17.31 0.52
2 21 1 16.63 0.5
-3 21 1 18.15 0.57
3 21 1 17.83 0.51
-4 21 1 1.52 0.38
4 21 1 1.76 0.43
-5 21 1 15.77 0.56
5 21 1 15.99 0.5
-6 21 1 16.32 0.57
6 21 1 16.02 0.52
-7 21 1 6.54 0.56
7 21 1 7.11 0.52
-8 21 1 0.82 0.26
8 21 1 1.51 0.63
-9 21 1 1.77 0.67
9 21 1 1.57 0.53
-10 21 1 9.02 0.74
10 21 1 9.29 0.73
-11 21 1 9.49 0.66
11 21 1 8.71 0.6
-12 21 1 1.52 0.45
12 21 1 2.1 0.54
-13 21 1 2.15 0.78
13 21 1 2.39 0.64
0 22 1 1.49 0.54
-1 22 1 2.03 0.44
1 22 1 2.17 0.4
-2 22 1 9.42 0.47
2 22 1 9.48 0.52
-3 22 1 5.98 0.44
3 22 1 6.21 0.51
-4 22 1 19.18 0.54
4 22 1 19.7 0.56
-5 22 1 1.98 0.42
5 22 1 1.66 0.48
-6 22 1 8.22 0.57
6 22 1 8.11 0.53
-7 22 1 13.51 0.62
7 22 1 13.16 0.66
-8 22 1 5.47 0.6
8 22 1 5.26 0.54
-9 22 1 1.71 0.48
9 22 1 2.34 0.61
-10 22 1 1.68 0.59
10 22 1 1.33 0.55
-11 22 1 7.95 0.7
11 22 1 7.63 0.61
-12 22 1 0.87 0.41
12 22 1 0.38 0.35
0 23 1 3.15 0.46
-1 23 1 10.26 0.47
1 23 1 10.01 0.57
-2 23 1 1.95 0.45
2 23 1 1.35 0.53
-3 23 1 12.16 0.56
3 23 1 11.37 0.55
-4 23 1 0.53 0.23
4 23 1 1.08 0.47
-5 23 1 9.46 0.62
5 23 1 9.4 0.48
-6 23 1 0.63 0.4
6 23 1 1.11 0.5
-7 23 1 0.21 0.29
7 23 1 0.43 0.74
-8 23 1 15.91 0.56
8 23 1 16.46 0.68
-9 23 1 4.58 0.51
9 23 1 4.8 0.61
-10 23 1 0.9 0.51
10 23 1 0.83 0.79
-11 23 1 0.59 0.59
11 23 1 0.83 0.43
0 24 1 18.14 0.61
-1 24 1 24.82 0.7
1 24 1 25.18 0.88
-2 24 1 2.29 0.55
2 24 1 2.34 0.54
-3 24 1 14.54 0.59
3 24 1 14.8 0.49
-4 24 1 5.17 0.7
4 24 1 5.16 0.52
-5 24 1 4.63 0.58
5 24 1 4.4 0.46
-6 24 1 1.97 0.95
6 24 1 1.71 0.76
-7 24 1 1.35 0.72
7 24 1 0.97 0.45
-8 24 1 1.22 0.63
8 24 1 0.88 0.46
-9 24 1 1.23 0.44
9 24 1 1.24 0.59
-10 24 1 4.45 0.73
10 24 1 3.87 0.51
0 25 1 1.17 0.41
-1 25 1 5.63 0.55
1 25 1 5.84 0.54
-2 25 1 0.67 0.4
2 25 1 0.69 0.43
-3 25 1 0.27 0.19
3 25 1 0.28 0.72
-4 25 1 5.14 0.62
4 25 1 4.91 0.51
-5 25 1 4.24 0.61
5 25 1 3.95 0.52
-6 25 1 1.14 0.51
6 25 1 0.98 0.48
-7 25 1 2.85 0.65
7 25 1 2.97 0.46
-8 25 1 5.42 0.75
8 25 1 5.16 0.59
0 26 1 5.85 0.55
-1 26 1 0.94 0.71
1 26 1 0.82 0.54
-2 26 1 3.52 0.65
2 26 1 3.76 0.73
-3 26 1 1.83 0.48
3 26 1 1.15 0.97
-4 26 1 0.42 0.82
4 26 1 0.23 0.42
-5 26 1 1.86 0.69
5 26 1 1.8 0.63
-6 26 1 0.77 0.64
6 26 1 0.08 1.12
-1 27 1 3.77 0.48
1 27 1 2.82 0.69
-2 27 1 1.8 0.72
2 27 1 1.93 0.69
0 0 2 9437.8 97.13
1 0 2 255.27 1.68
2 0 2 80.11 1.2
3 0 2 813.69 5.03
4 0 2 275.9 1.77
5 0 2 6.35 0.36
6 0 2 128.97 1.19
7 0 2 132.73 1.33
8 0 2 171.7 1.48
9 0 2 13.09 0.66
10 0 2 6.41 0.34
11 0 2 7.07 0.25
12 0 2 62.2 0.43
13 0 2 2.13 0.3
14 0 2 5.77 0.36
15 0 2 8.1 0.4
16 0 2 21.6 0.51
17 0 2 13.99 0.53
18 0 2 3.77 0.46
19 0 2 1.19 0.42
20 0 2 4.39 0.63
21 0 2 1.8 0.55
0 1 2 803.38 2.79
-1 1 2 157.41 1.43
1 1 2 157.48 1.45
-2 1 2 230.14 1.67
2 1 2 228.97 2.2
-3 1 2 81.36 1.1
3 1 2 77.67 1.57
-4 1 2 10.53 0.46
4 1 2 9.83 0.54
-5 1 2 199.02 1.37
5 1 2 204.24 1.23
-6 1 2 96.79 1.11
6 1 2 98.76 1.08
-7 1 2 117.63 1.23
7 1 2 117.18 1.14
-8 1 2 67.9 1.15
8 1 2 69.91 1.02
-9 1 2 42.75 0.91
9 1 2 42.66 1.07
-10 1 2 113.28 0.62
10 1 2 114.73 0.74
-11 1 2 6.33 0.24
11 1 2 6.39 0.24
-12 1 2 9.89 0.28
12 1 2 10.3 0.28
-13 1 2 12.35 0.33
13 1 2 12.74 0.31
-14 1 2 23.4 0.43
14 1 2 23.09 0.38
-15 1 2 4.65 0.4
15 1 2 4.77 0.37
-16 1 2 2.34 0.44
16 1 2 2.2 0.47
-17 1 2 5.09 0.46
17 1 2 4.58 0.53
-18 1 2 3.16 0.44
18 1 2 3.36 0.48
-19 1 2 2.84 0.45
19 1 2 2.98 0.52
-20 1 2 7.11 0.68
20 1 2 7.48 0.59
-21 1 2 4.27 0.66
21 1 2 4.49 0.61
0 2 2 1211.88 4.41
-1 2 2 836.66 4.17
1 2 2 833.94 3.44
-2 2 2 134.96 1.97
2 2 2 129.14 1.87
-3 2 2 115.39 0.88
3 2 2 111.43 2.02
-4 2 2 1739.24 7.64
4 2 2 1764.13 6.84
-5 2 2 276.42 1.38
5 2 2 279.64 1.5
-6 2 2 12.93 0.59
6 2 2 15.23 0.5
-7 2 2 58.43 0.98
7 2 2 59.83 0.86
-8 2 2 191.43 1.87
8 2 2 192.36 1.77
-9 2 2 91.71 1.25
9 2 2 94.41 1.72
-10 2 2 47 0.4
10 2 2 46.47 0.46
-11 2 2 40.33 0.34
11 2 2 40.2 0.35
-12 2 2 11.67 0.31
12 2 2 12 0.3
-13 2 2 5 0.33
13 2 2 5.26 0.29
-14 2 2 14.54 0.39
14 2 2 14.39 0.35
-15 2 2 0.95 0.37
15 2 2 0.72 0.31
-16 2 2 5.8 0.41
16 2 2 5.73 0.4
-17 2 2 5.53 0.44
17 2 2 5.38 0.46
-18 2 2 0.55 0.28
18 2 2 0.46 0.36
-19 2 2 6.79 0.52
19 2 2 6.74 0.51
-20 2 2 12.01 0.7
20 2 2 11.96 0.63
-21 2 2 1.71 0.54
21 2 2 1 0.64
0 3 2 48.9 1.03
-1 3 2 51.87 1.16
1 3 2 53.15 1.07
-2 3 2 477.44 2.28
2 3 2 481.38 3.05
-3 3 2 1292.84 7.53
3 3 2 1282.98 8.01
-4 3 2 362.12 1.46
4 3 2 368.59 1.96
-5 3 2 52.51 0.79
5 3 2 52.79 0.69
-6 3 2 64.54 0.83
6 3 2 68.33 0.84
-7 3 2 27.47 0.61
7 3 2 28.28 0.66
-8 3 2 75.5 1.27
8 3 2 77.84 1.25
-9 3 2 41.92 1.09
9 3 2 39.33 1.27
-10 3 2 64.46 0.43
10 3 2 64.96 0.52
-11 3 2 17.34 0.28
11 3 2 17.19 0.31
-12 3 2 69.57 0.47
12 3 2 70.25 0.47
-13 3 2 13.19 0.33
13 3 2 12.95 0.34
-14 3 2 1.65 0.39
14 3 2 1.54 0.32
-15 3 2 9.91 0.42
15 3 2 10.12 0.38
-16 3 2 8.09 0.43
16 3 2 8.43 0.4
-17 3 2 8.09 0.49
17 3 2 7.73 0.44
-18 3 2 5.26 0.58
18 3 2 5.11 0.52
-19 3 2 3.56 0.5
19 3 2 3.57 0.59
-20 3 2 3.46 0.68
20 3 2 3.59 0.6
-21 3 2 1.12 0.75
21 3 2 1.06 0.7
0 4 2 1449.34 8.6
-1 4 2 133.88 1.37
1 4 2 133.49 1.37
-2 4 2 182.75 1.13
2 4 2 182.98 1.34
-3 4 2 331.43 1.28
3 4 2 338.41 1.84
-4 4 2 232.1 1.11
4 4 2 239.17 1.43
-5 4 2 31.73 0.59
5 4 2 33.07 0.57
-6 4 2 192.82 1.31
6 4 2 197.66 1.34
-7 4 2 82.55 0.98
7 4 2 82.85 1.4
-8 4 2 88.84 1.1
8 4 2 87.61 1.59
-9 4 2 16.95 0.86
9 4 2 17.17 1.03
-10 4 2 41.82 0.33
10 4 2 41.64 0.38
-11 4 2 15.8 0.28
11 4 2 16.3 0.3
-12 4 2 4.91 0.26
12 4 2 4.89 0.28
-13 4 2 40.04 0.4
13 4 2 40.59 0.41
-14 4 2 14.49 0.35
14 4 2 15.26 0.46
-15 4 2 18.5 0.41
15 4 2 18.75 0.44
-16 4 2 0.47 0.43
16 4 2 0.22 0.1
-17 4 2 8.78 0.5
17 4 2 8.93 0.46
-18 4 2 18.49 0.6
18 4 2 18.24 0.71
-19 4 2 4.44 0.57
19 4 2 4.41 0.5
-20 4 2 5.26 0.79
20 4 2 4.78 0.51
-21 4 2 1.17 0.49
21 4 2 0.93 0.56
0 5 2 543.69 3.11
-1 5 2 967.25 3.78
1 5 2 957.45 3.82
-2 5 2 51.13 0.62
2 5 2 50.33 0.81
-3 5 2 94.54 0.73
3 5 2 94.87 0.76
-4 5 2 69.57 0.65
4 5 2 71.71 0.8
-5 5 2 56.39 0.76
5 5 2 53.95 0.87
-6 5 2 101.22 1.05
6 5 2 99.48 1.5
-7 5 2 132.58 1.25
7 5 2 131.63 1.78
-8 5 2 134.32 1.35
8 5 2 134.75 1.97
-9 5 2 1.82 0.27
9 5 2 1.79 0.46
-10 5 2 40.08 0.32
10 5 2 40.34 0.39
-11 5 2 97.21 0.43
11 5 2 98.3 0.54
-12 5 2 44.75 0.37
12 5 2 45 0.44
-13 5 2 15.84 0.31
13 5 2 16.1 0.38
-14 5 2 11.34 0.36
14 5 2 11.38 0.38
-15 5 2 21.08 0.48
15 5 2 20.56 0.43
-16 5 2 14.24 0.49
16 5 2 14.03 0.47
-17 5 2 15.46 0.54
17 5 2 15.37 0.54
-18 5 2 3.12 0.59
18 5 2 3.57 0.56
-19 5 2 3.2 0.61
19 5 2 2.76 0.57
-20 5 2 7.94 0.66
20 5 2 8.44 0.56
-21 5 2 0.51 0.9
21 5 2 0.2 0.55
0 6 2 170.47 1.36
-1 6 2 157.22 1.02
1 6 2 158.36 1.15
-2 6 2 56.68 0.7
2 6 2 56.94 0.73
-3 6 2 61.49 0.7
3 6 2 61.42 0.79
-4 6 2 84.95 0.68
4 6 2 85.23 0.96
-5 6 2 64.79 0.74
5 6 2 65.89 0.98
-6 6 2 155.41 1.32
6 6 2 154.18 1.52
-7 6 2 9.98 0.51
7 6 2 9.52 0.67
-8 6 2 32.28 0.81
8 6 2 30.95 0.93
-9 6 2 33.59 0.31
9 6 2 33.67 0.43
-10 6 2 51.22 0.33
10 6 2 50.62 0.42
-11 6 2 20.92 0.27
11 6 2 21.11 0.35
-12 6 2 0.15 0.07
12 6 2 0.14 0.13
-13 6 2 23.37 0.36
13 6 2 23.66 0.45
-14 6 2 15.37 0.4
14 6 2 15.95 0.38
-15 6 2 1.84 0.4
15 6 2 1.66 0.4
-16 6 2 2.27 0.41
16 6 2 2.02 0.38
-17 6 2 7.15 0.51
17 6 2 6.48 0.48
-18 6 2 2.46 0.55
18 6 2 2.52 0.46
-19 6 2 12.73 0.6
19 6 2 12.15 0.57
-20 6 2 0.36 0.37
20 6 2 0.66 0.44
-21 6 2 0.61 0.74
21 6 2 0.62 0.39
0 7 2 129.2 0.95
-1 7 2 57.99 0.75
1 7 2 58.97 0.73
-2 7 2 452.52 1.71
2 7 2 454.69 1.83
-3 7 2 527.96 2
3 7 2 541.67 2.74
-4 7 2 76.52 0.69
4 7 2 76.96 1.19
-5 7 2 45.53 0.71
5 7 2 44.62 1.06
-6 7 2 38.73 0.79
6 7 2 38.63 1.12
-7 7 2 53.32 0.87
7 7 2 51.84 1.31
-8 7 2 167.71 0.95
8 7 2 167.5 1.22
-9 7 2 20.86 0.28
9 7 2 20.96 0.37
-10 7 2 10.54 0.25
10 7 2 10.96 0.29
-11 7 2 38.24 0.35
11 7 2 38.52 0.41
-12 7 2 43.05 0.38
12 7 2 42.88 0.46
-13 7 2 9.67 0.31
13 7 2 9.7 0.34
-14 7 2 9.85 0.34
14 7 2 10.37 0.38
-15 7 2 22.5 0.49
15 7 2 22.11 0.44
-16 7 2 23.47 0.56
16 7 2 22.83 0.48
-17 7 2 3.77 0.47
17 7 2 3.54 0.45
-18 7 2 5.19 0.54
18 7 2 5.37 0.49
-19 7 2 0.54 0.58
19 7 2 0.61 0.27
-20 7 2 6.68 0.61
20 7 2 6.51 0.6
0 8 2 80 0.79
-1 8 2 18.34 0.45
1 8 2 17.91 0.47
-2 8 2 168.53 1.06
2 8 2 172.25 1.28
-3 8 2 2.13 0.33
3 8 2 1.89 0.41
-4 8 2 24.86 0.58
4 8 2 23.99 0.79
-5 8 2 149.21 1.22
5 8 2 150.54 1.63
-6 8 2 92.56 1.01
6 8 2 90.41 1.4
-7 8 2 104.52 1.16
7 8 2 103.29 1.53
-8 8 2 1.31 0.21
8 8 2 1.26 0.3
-9 8 2 7.46 0.23
9 8 2 6.87 0.28
-10 8 2 8.46 0.25
10 8 2 8.75 0.27
-11 8 2 29.13 0.34
11 8 2 29.11 0.38
-12 8 2 8.15 0.29
12 8 2 8.11 0.33
-13 8 2 0.71 0.32
13 8 2 0.53 0.23
-14 8 2 2.83 0.31
14 8 2 2.95 0.32
-15 8 2 3.12 0.39
15 8 2 3.03 0.39
-16 8 2 0.78 0.3
16 8 2 0.85 0.33
-17 8 2 13.58 0.62
17 8 2 14.51 0.54
-18 8 2 6.79 0.88
18 8 2 6.64 0.47
-19 8 2 1.92 0.75
19 8 2 1.97 0.73
-20 8 2 2.73 0.53
20 8 2 2.43 0.55
0 9 2 263.86 1.5
-1 9 2 11.62 0.43
1 9 2 11.45 0.55
-2 9 2 97 0.86
2 9 2 97.62 0.93
-3 9 2 89.78 0.89
3 9 2 91.24 0.98
-4 9 2 1.08 0.37
4 9 2 1.31 0.57
-5 9 2 94.03 1.06
5 9 2 93.46 1.39
-6 9 2 11.21 0.55
6 9 2 10.43 0.74
-7 9 2 146.62 0.62
7 9 2 144.36 0.87
-8 9 2 95.91 0.44
8 9 2 95.23 0.63
-9 9 2 10.08 0.25
9 9 2 10.05 0.29
-10 9 2 22.3 0.3
10 9 2 22.32 0.35
-11 9 2 15.82 0.32
11 9 2 15.57 0.38
-12 9 2 35.25 0.41
12 9 2 35.43 0.48
-13 9 2 2.31 0.32
13 9 2 2.25 0.36
-14 9 2 31.75 0.49
14 9 2 31.55 0.54
-15 9 2 25.01 0.51
15 9 2 24.83 0.49
-16 9 2 14.3 0.58
16 9 2 14.5 0.53
-17 9 2 6.63 0.63
17 9 2 6.4 0.47
-18 9 2 2.39 0.54
18 9 2 2.73 0.53
-19 9 2 6.35 0.76
19 9 2 6.03 0.57
-20 9 2 5.59 0.63
20 9 2 6.19 0.75
0 10 2 105.8 1.07
-1 10 2 148.55 1.1
1 10 2 149.91 1.23
-2 10 2 178.07 1.22
2 10 2 176.94 1.54
-3 10 2 64.39 0.85
3 10 2 65.29 0.95
-4 10 2 27.94 0.69
4 10 2 26.95 0.7
-5 10 2 33.4 0.86
5 10 2 33.97 0.9
-6 10 2 13.52 0.33
6 10 2 13.66 0.45
-7 10 2 25.14 0.3
7 10 2 24.93 0.41
-8 10 2 10.14 0.26
8 10 2 10.13 0.3
-9 10 2 45.76 0.36
9 10 2 46.03 0.42
-10 10 2 26.62 0.34
10 10 2 26.31 0.41
-11 10 2 0.3 0.19
11 10 2 0.59 0.33
-12 10 2 9.44 0.33
12 10 2 9.76 0.42
-13 10 2 16 0.37
13 10 2 15.69 0.45
-14 10 2 31.28 0.47
14 10 2 30.18 0.53
-15 10 2 13.74 0.56
15 10 2 13.71 0.48
-16 10 2 6.8 0.52
16 10 2 6.06 0.49
-17 10 2 1.24 0.62
17 10 2 1.39 0.45
-18 10 2 2.15 0.51
18 10 2 2.45 0.58
-19 10 2 10.18 0.66
19 10 2 10.62 0.56
-20 10 2 1.24 0.65
20 10 2 2.01 0.79
0 11 2 3.94 0.51
-1 11 2 62.01 0.81
1 11 2 61.15 0.9
-2 11 2 14.73 0.54
2 11 2 14.99 0.62
-3 11 2 26.63 0.72
3 11 2 26.85 0.84
-4 11 2 116.81 1.23
4 11 2 117.91 1.47
-5 11 2 14.48 0.3
5 11 2 14.28 0.44
-6 11 2 6.81 0.29
6 11 2 7.11 0.32
-7 11 2 19.65 0.31
7 11 2 19.17 0.33
-8 11 2 49.52 0.39
8 11 2 49.79 0.46
-9 11 2 9.22 0.28
9 11 2 9.38 0.32
-10 11 2 7.69 0.32
10 11 2 7.42 0.36
-11 11 2 68.12 0.48
11 11 2 68.31 0.62
-12 11 2 41.69 0.46
12 11 2 41.23 0.58
-13 11 2 6.72 0.38
13 11 2 6.77 0.45
-14 11 2 3.27 0.37
14 11 2 2.93 0.44
-15 11 2 6.11 0.48
15 11 2 6.16 0.44
-16 11 2 23.96 0.65
16 11 2 23.39 0.53
-17 11 2 1.16 0.54
17 11 2 0.27 0.22
-18 11 2 0.59 0.29
18 11 2 0.83 0.38
-19 11 2 5.88 1.11
19 11 2 6.12 0.65
0 12 2 4.66 0.51
-1 12 2 2.84 0.44
1 12 2 2.79 0.54
-2 12 2 38.11 0.5
2 12 2 38.39 0.53
-3 12 2 37.14 0.44
3 12 2 37.14 0.45
-4 12 2 6.27 0.25
4 12 2 5.93 0.27
-5 12 2 122.09 0.62
5 12 2 119.83 0.66
-6 12 2 115.16 0.5
6 12 2 115.73 0.7
-7 12 2 3.55 0.25
7 12 2 3.49 0.33
-8 12 2 6.31 0.27
8 12 2 6.41 0.35
-9 12 2 48.89 0.44
9 12 2 49.41 0.52
-10 12 2 3.06 0.31
10 12 2 3.34 0.32
-11 12 2 63.89 0.51
11 12 2 63.79 0.62
-12 12 2 19.05 0.44
12 12 2 18.68 0.5
-13 12 2 9.01 0.4
13 12 2 9.1 0.45
-14 12 2 15.44 0.46
14 12 2 15.64 0.49
-15 12 2 1.8 0.45
15 12 2 1.22 0.43
-16 12 2 3.95 0.57
16 12 2 3.91 0.46
-17 12 2 22 0.78
17 12 2 23.73 0.62
-18 12 2 1.09 0.45
18 12 2 2.2 0.59
-19 12 2 12.45 0.88
19 12 2 13.26 0.92
0 13 2 29.38 0.32
-1 13 2 6.45 0.27
1 13 2 6.5 0.26
-2 13 2 6.81 0.28
2 13 2 6.82 0.28
-3 13 2 25.05 0.35
3 13 2 25.76 0.35
-4 13 2 47.32 0.42
4 13 2 47.25 0.4
-5 13 2 17.19 0.34
5 13 2 17.56 0.36
-6 13 2 2.32 0.27
6 13 2 2.47 0.32
-7 13 2 16.59 0.32
7 13 2 17.14 0.4
-8 13 2 59.99 0.44
8 13 2 59.79 0.61
-9 13 2 18.79 0.39
9 13 2 18.02 0.52
-10 13 2 0.65 0.29
10 13 2 0.99 0.34
-11 13 2 26.92 0.46
11 13 2 27.11 0.59
-12 13 2 9.69 0.42
12 13 2 9.67 0.49
-13 13 2 0.77 0.36
13 13 2 0.72 0.45
-14 13 2 3.86 0.49
14 13 2 3.89 0.44
-15 13 2 12.76 0.52
15 13 2 12.86 0.51
-16 13 2 11.14 0.69
16 13 2 11.09 0.49
-17 13 2 0.7 0.49
17 13 2 0.61 0.24
-18 13 2 0.73 0.83
18 13 2 0.48 0.29
0 14 2 5.15 0.25
-1 14 2 80.21 0.43
1 14 2 80.24 0.46
-2 14 2 35.22 0.34
2 14 2 35.74 0.38
-3 14 2 42.64 0.43
3 14 2 43.38 0.41
-4 14 2 31.56 0.39
4 14 2 31.82 0.45
-5 14 2 8.88 0.33
5 14 2 8.44 0.34
-6 14 2 22.73 0.37
6 14 2 22.71 0.44
-7 14 2 7.95 0.3
7 14 2 8.14 0.38
-8 14 2 23.63 0.38
8 14 2 24.06 0.47
-9 14 2 31.14 0.44
9 14 2 31.24 0.56
-10 14 2 1.34 0.37
10 14 2 1.53 0.42
-11 14 2 11.66 0.43
11 14 2 10.99 0.52
-12 14 2 4.42 0.41
12 14 2 4.1 0.48
-13 14 2 34.77 0.6
13 14 2 34.01 0.63
-14 14 2 27.22 0.62
14 14 2 28.08 0.61
-15 14 2 16.73 0.57
15 14 2 16.84 0.61
-16 14 2 9.54 0.69
16 14 2 8.88 0.51
-17 14 2 1.13 1.07
17 14 2 1.06 0.41
-18 14 2 0.75 0.3
18 14 2 1.34 0.66
0 15 2 9.22 0.28
-1 15 2 81.7 0.45
1 15 2 81.74 0.49
-2 15 2 13.28 0.32
2 15 2 13.31 0.31
-3 15 2 4.2 0.29
3 15 2 4 0.29
-4 15 2 30.37 0.39
4 15 2 30.56 0.42
-5 15 2 9.14 0.35
5 15 2 9.42 0.41
-6 15 2 4.63 0.32
6 15 2 4.8 0.36
-7 15 2 6.47 0.39
7 15 2 6.29 0.38
-8 15 2 24.42 0.42
8 15 2 24.55 0.49
-9 15 2 19.13 0.42
9 15 2 19.7 0.49
-10 15 2 0.2 0.26
10 15 2 0.17 0.13
-11 15 2 34.61 0.65
11 15 2 34.74 0.66
-12 15 2 1.57 0.42
12 15 2 0.97 0.48
-13 15 2 2.73 0.47
13 15 2 2.88 0.5
-14 15 2 18.72 0.54
14 15 2 18.85 0.59
-15 15 2 4.09 0.55
15 15 2 4.52 0.5
-16 15 2 2.52 0.74
16 15 2 2.6 0.45
-17 15 2 2.35 1.33
17 15 2 3.06 0.53
0 16 2 24.63 0.36
-1 16 2 16.83 0.32
1 16 2 16.69 0.34
-2 16 2 2.52 0.28
2 16 2 2.43 0.29
-3 16 2 16.56 0.36
3 16 2 16.62 0.36
-4 16 2 21.99 0.38
4 16 2 22.08 0.4
-5 16 2 57.03 0.52
5 16 2 56.68 0.62
-6 16 2 53.69 0.48
6 16 2 53.37 0.64
-7 16 2 8.56 0.39
7 16 2 8.58 0.44
-8 16 2 1.62 0.37
8 16 2 1.63 0.4
-9 16 2 8.26 0.45
9 16 2 7.89 0.44
-10 16 2 2.5 0.41
10 16 2 2.91 0.47
-11 16 2 28.72 0.63
11 16 2 28.63 0.67
-12 16 2 10.5 0.53
12 16 2 10.87 0.55
-13 16 2 12.11 0.7
13 16 2 11.21 0.62
-14 16 2 3.99 0.51
14 16 2 4.64 0.5
-15 16 2 3.74 0.67
15 16 2 3.85 0.57
-16 16 2 1.32 1.07
16 16 2 2.2 0.7
-17 16 2 4.12 1.03
17 16 2 4.35 0.68
0 17 2 2.45 0.31
-1 17 2 7.77 0.31
1 17 2 7.49 0.33
-2 17 2 32.86 0.42
2 17 2 32.61 0.4
-3 17 2 64.82 0.55
3 17 2 64.89 0.55
-4 17 2 10.06 0.35
4 17 2 9.54 0.38
-5 17 2 5.34 0.37
5 17 2 5.24 0.42
-6 17 2 19.63 0.42
6 17 2 19.46 0.52
-7 17 2 17.04 0.43
7 17 2 16.6 0.53
-8 17 2 11.54 0.43
8 17 2 11.67 0.53
-9 17 2 21.61 0.54
9 17 2 21.82 0.54
-10 17 2 14.07 0.56
10 17 2 13.72 0.63
-11 17 2 10.23 0.54
11 17 2 9.64 0.58
-12 17 2 6.24 0.55
12 17 2 5.72 0.55
-13 17 2 4.74 0.51
13 17 2 4.59 0.53
-14 17 2 0.15 0.1
14 17 2 0.52 0.37
-15 17 2 1.67 0.5
15 17 2 1.63 0.51
-16 17 2 5.11 1.14
16 17 2 5.38 0.56
0 18 2 0.43 0.31
-1 18 2 19.68 0.38
1 18 2 19.83 0.39
-2 18 2 6.25 0.37
2 18 2 6.28 0.34
-3 18 2 13.01 0.39
3 18 2 12.42 0.37
-4 18 2 12.82 0.42
4 18 2 13.07 0.4
-5 18 2 19.75 0.45
5 18 2 18.95 0.52
-6 18 2 9.37 0.42
6 18 2 9.18 0.48
-7 18 2 10.88 0.49
7 18 2 10.72 0.54
-8 18 2 1.77 0.4
8 18 2 2.31 0.49
-9 18 2 16.71 0.51
9 18 2 16.07 0.56
-10 18 2 13.86 0.53
10 18 2 14.28 0.61
-11 18 2 5.35 0.55
11 18 2 5.2 0.56
-12 18 2 0.19 0.16
12 18 2 0.07 0.03
-13 18 2 9.21 0.61
13 18 2 8.6 0.62
-14 18 2 10.81 0.75
14 18 2 11.31 0.7
-15 18 2 0.12 0.12
15 18 2 0.34 0.38
-16 18 2 5.62 0.79
16 18 2 4.81 0.62
0 19 2 1.75 0.33
-1 19 2 44.33 0.52
1 19 2 44.44 0.52
-2 19 2 4.71 0.42
2 19 2 4.47 0.36
-3 19 2 5.69 0.41
3 19 2 6 0.37
-4 19 2 1.64 0.37
4 19 2 1.54 0.39
-5 19 2 2.46 0.46
5 19 2 2.55 0.43
-6 19 2 6.09 0.53
6 19 2 6.6 0.66
-7 19 2 0.25 0.36
7 19 2 0.22 0.59
-8 19 2 8.75 0.52
8 19 2 9.27 0.6
-9 19 2 7.12 0.58
9 19 2 7.65 0.52
-10 19 2 0.47 0.34
10 19 2 0.34 0.14
-11 19 2 33.03 1.01
11 19 2 33.11 0.73
-12 19 2 10.48 0.76
12 19 2 10.89 0.81
-13 19 2 1.77 0.55
13 19 2 2.98 0.68
-14 19 2 15.89 1.06
14 19 2 16.37 0.67
-15 19 2 3.25 0.81
15 19 2 3.56 0.63
0 20 2 0.13 0.34
-1 20 2 6.46 0.42
1 20 2 6.23 0.36
-2 20 2 5.21 0.43
2 20 2 5.23 0.36
-3 20 2 9.21 0.5
3 20 2 8.41 0.41
-4 20 2 6.39 0.46
4 20 2 6.72 0.41
-5 20 2 2.18 0.46
5 20 2 1.98 0.44
-6 20 2 23.69 0.6
6 20 2 23.47 0.68
-7 20 2 7.57 0.51
7 20 2 7.99 0.61
-8 20 2 4.94 0.55
8 20 2 5.84 0.64
-9 20 2 3.87 0.56
9 20 2 3.93 0.59
-10 20 2 5.84 0.63
10 20 2 6.11 0.74
-11 20 2 7.21 0.65
11 20 2 6.49 0.69
-12 20 2 0.26 0.69
-13 20 2 10.59 0.78
13 20 2 10.13 0.77
-14 20 2 1.85 0.63
14 20 2 3.09 0.52
0 21 2 1.2 0.34
-1 21 2 2.8 0.42
1 21 2 2.34 0.39
-2 21 2 1.28 0.46
2 21 2 1.78 0.39
-3 21 2 34.61 0.68
3 21 2 33.58 0.68
-4 21 2 9.25 0.57
4 21 2 8.77 0.48
-5 21 2 5.36 0.49
5 21 2 5.47 0.52
-6 21 2 2.5 0.5
6 21 2 2.39 0.53
-7 21 2 4.69 0.49
7 21 2 5.2 0.51
-8 21 2 0.53 0.8
8 21 2 1.02 0.55
-9 21 2 19.15 0.81
9 21 2 19.85 0.77
-10 21 2 0 0.02
10 21 2 0.37 0.2
-11 21 2 3.62 0.54
11 21 2 3.26 0.64
-12 21 2 4.04 0.88
12 21 2 4.85 0.64
-13 21 2 3.87 0.7
13 21 2 3.89 0.55
0 22 2 0.3 0.25
-1 22 2 8.18 0.52
1 22 2 7.4 0.58
-2 22 2 7.09 0.51
2 22 2 7.12 0.5
-3 22 2 5.76 0.48
3 22 2 5.6 0.54
-4 22 2 0.55 0.5
4 22 2 0.68 0.28
-5 22 2 14.82 0.67
5 22 2 13.97 0.57
-6 22 2 4.83 0.53
6 22 2 4.88 0.68
-7 22 2 12.1 0.68
7 22 2 12.37 0.67
-8 22 2 2.59 0.61
8 22 2 2.32 0.73
-9 22 2 8.25 0.66
9 22 2 9.03 0.65
-10 22 2 5.15 0.61
10 22 2 5.51 0.72
-11 22 2 5.07 0.56
11 22 2 4.9 0.64
-12 22 2 3.66 0.66
12 22 2 4.27 0.6
0 23 2 3.91 0.48
-1 23 2 20.86 0.58
1 23 2 20.83 0.65
-2 23 2 4.5 0.5
2 23 2 4.64 0.55
-3 23 2 4.46 0.47
3 23 2 4.06 0.48
-4 23 2 0.85 0.47
4 23 2 0.46 0.48
-5 23 2 7.45 0.64
5 23 2 6.42 0.71
-6 23 2 2.36 0.59
6 23 2 2.57 0.67
-7 23 2 6.16 0.63
7 23 2 6.82 0.64
-8 23 2 2.22 0.54
8 23 2 2.58 0.79
-9 23 2 3.57 0.72
9 23 2 3.12 0.76
-10 23 2 0.21 0.27
10 23 2 0.36 0.72
-11 23 2 9.24 0.76
11 23 2 8.29 0.64
0 24 2 26.6 0.63
-1 24 2 4.31 0.54
1 24 2 4.47 0.63
-2 24 2 0.78 0.27
2 24 2 1.13 0.62
-3 24 2 11.06 0.56
3 24 2 10.8 0.63
-4 24 2 6.04 0.56
4 24 2 5.55 0.66
-5 24 2 5.45 0.62
5 24 2 5.54 0.71
-6 24 2 1.21 0.73
6 24 2 1.34 0.65
-7 24 2 0.87 0.64
7 24 2 0.66 0.79
-8 24 2 3.86 0.5
8 24 2 3.71 0.53
-9 24 2 3.97 0.54
9 24 2 4.65 0.8
0 25 2 2.3 0.54
-1 25 2 1.34 0.5
1 25 2 1.24 0.51
-2 25 2 1.31 0.44
2 25 2 0.93 0.49
-3 25 2 9.34 0.53
3 25 2 8.92 0.61
-4 25 2 1.12 0.52
4 25 2 0.69 0.73
-5 25 2 6.84 0.73
5 25 2 6.33 0.79
6 25 2 0.4 0.36
-7 25 2 6.96 0.69
7 25 2 7.32 0.68
-8 25 2 0.73 0.99
8 25 2 0.38 0.75
0 26 2 0.11 0.13
-1 26 2 1.64 0.92
1 26 2 1.26 0.49
-2 26 2 1.42 0.53
2 26 2 1.9 0.51
-3 26 2 4.34 0.67
3 26 2 4.76 0.71
-4 26 2 4.07 0.56
4 26 2 3.9 0.6
-5 26 2 6.41 0.67
5 26 2 5.89 0.7
1 0 3 1.15 0.45
2 0 3 364.28 2.63
3 0 3 1035.65 4.96
4 0 3 68.46 0.81
5 0 3 180.5 1.72
6 0 3 178.33 1.64
7 0 3 30.47 0.88
8 0 3 123.51 1.57
9 0 3 31.72 0.69
10 0 3 0.15 0.12
11 0 3 3.91 0.27
12 0 3 4.13 0.31
13 0 3 119.22 0.65
14 0 3 81.16 0.73
15 0 3 1.2 0.45
16 0 3 11.07 0.46
17 0 3 1.68 0.48
18 0 3 0.23 0.23
19 0 3 1.15 0.51
20 0 3 4.27 0.67
21 0 3 11.79 0.64
0 1 3 797.93 3.46
-1 1 3 143.5 1.68
1 1 3 142.06 1.63
-2 1 3 178.33 1.79
2 1 3 180.51 1.97
-3 1 3 17.01 0.48
3 1 3 13.76 0.78
-4 1 3 299.13 1.47
4 1 3 307.57 2.36
-5 1 3 296.58 1.95
5 1 3 294.75 2.84
-6 1 3 31.96 0.97
6 1 3 33.35 0.81
-7 1 3 8.52 0.65
7 1 3 8.43 0.62
-8 1 3 213.41 2.05
8 1 3 215.07 1.98
-9 1 3 13.4 0.63
9 1 3 12.44 0.57
-10 1 3 23.73 0.36
10 1 3 24.3 0.4
-11 1 3 28.41 0.34
11 1 3 28.7 0.37
-12 1 3 5.38 0.29
12 1 3 5.57 0.3
-13 1 3 89.54 0.6
13 1 3 89.68 0.6
-14 1 3 5.84 0.46
14 1 3 6 0.35
-15 1 3 3.67 0.47
15 1 3 4 0.36
-16 1 3 40.39 0.6
16 1 3 42.12 0.55
-17 1 3 10.9 0.45
17 1 3 11.43 0.51
-18 1 3 7.11 0.48
18 1 3 7.13 0.54
-19 1 3 1.45 0.51
19 1 3 1.45 0.5
-20 1 3 5.84 0.58
20 1 3 6.05 0.61
-21 1 3 9.09 0.68
21 1 3 7.97 0.77
0 2 3 5.34 0.53
-1 2 3 305.15 2.59
1 2 3 300.02 2.77
-2 2 3 62.94 1.4
2 2 3 62.97 1.4
-3 2 3 139.7 1.28
3 2 3 138.97 2.27
-4 2 3 89.04 0.83
4 2 3 85.55 1.37
-5 2 3 15.27 0.48
5 2 3 15.77 0.57
-6 2 3 321.31 2.43
6 2 3 326.08 2.12
-7 2 3 10.71 0.83
7 2 3 10.74 0.64
-8 2 3 6.8 0.69
8 2 3 8.04 0.56
-9 2 3 2.42 0.49
9 2 3 1.79 0.44
-10 2 3 13.14 0.31
10 2 3 13.55 0.32
-11 2 3 182.15 0.69
11 2 3 181.63 0.71
-12 2 3 55.83 0.48
12 2 3 55.65 0.48
-13 2 3 2.88 0.37
13 2 3 3.34 0.29
-14 2 3 50.43 0.56
14 2 3 50.76 0.51
-15 2 3 7.15 0.47
15 2 3 7.39 0.37
-16 2 3 19.5 0.47
16 2 3 19.25 0.53
-17 2 3 39.16 0.58
17 2 3 40.17 0.62
-18 2 3 2.51 0.51
18 2 3 2.03 0.48
-19 2 3 3.16 0.56
19 2 3 2.9 0.43
-20 2 3 7.27 0.72
20 2 3 7.41 0.53
-21 2 3 9.07 1.83
21 2 3 10.18 0.77
0 3 3 273.28 1.91
-1 3 3 4.32 0.53
1 3 3 3.85 0.61
-2 3 3 142.85 1.47
2 3 3 140.55 2.05
-3 3 3 109.21 0.79
3 3 3 104.67 2.27
-4 3 3 139.88 0.93
4 3 3 142.84 1.17
-5 3 3 54.4 0.77
5 3 3 56.86 0.87
-6 3 3 44.13 0.86
6 3 3 45.03 0.88
-7 3 3 58.57 1.34
7 3 3 58.96 0.95
-8 3 3 130.56 1.7
8 3 3 129.49 1.4
-9 3 3 100.68 0.83
9 3 3 102.35 0.83
-10 3 3 59.75 0.46
10 3 3 59.48 0.4
-11 3 3 8.08 0.32
11 3 3 8.33 0.29
-12 3 3 14.94 0.36
12 3 3 14.81 0.34
-13 3 3 85.17 0.63
13 3 3 84.32 0.59
-14 3 3 4.2 0.34
14 3 3 4.82 0.33
-15 3 3 4.93 0.37
15 3 3 4.82 0.39
-16 3 3 51.07 0.59
16 3 3 51.69 0.58
-17 3 3 4.97 0.46
17 3 3 5.03 0.45
-18 3 3 21.55 0.61
18 3 3 22.16 0.58
-19 3 3 4.82 0.47
19 3 3 5.08 0.48
-20 3 3 2.08 0.67
20 3 3 2.28 0.48
-21 3 3 15.79 0.98
21 3 3 15.52 0.7
0 4 3 263.94 2.2
-1 4 3 35.95 0.92
1 4 3 34.76 0.79
-2 4 3 104.52 1.2
2 4 3 102.26 1.6
-3 4 3 178.65 1.14
3 4 3 183.19 1.43
-4 4 3 54.56 0.64
4 4 3 55.4 0.77
-5 4 3 245.99 1.55
5 4 3 249.47 1.47
-6 4 3 34.4 0.82
6 4 3 34.05 0.71
-7 4 3 56.14 1.38
7 4 3 57.87 0.92
-8 4 3 6.65 0.73
8 4 3 6.79 0.55
-9 4 3 54.26 0.55
9 4 3 54.4 0.55
-10 4 3 27.35 0.33
10 4 3 28.13 0.36
-11 4 3 29.16 0.37
11 4 3 29.48 0.38
-12 4 3 2.46 0.28
12 4 3 2.29 0.31
-13 4 3 16.04 0.37
13 4 3 16.13 0.41
-14 4 3 75.36 0.54
14 4 3 75.12 0.61
-15 4 3 7.64 0.37
15 4 3 7.09 0.4
-16 4 3 25.27 0.53
16 4 3 24.77 0.5
-17 4 3 3.25 0.54
17 4 3 3.18 0.42
-18 4 3 3.93 0.53
18 4 3 4.28 0.47
-19 4 3 16.3 0.62
19 4 3 17.41 0.68
-20 4 3 5.68 0.67
20 4 3 5.85 0.62
-21 4 3 15.32 0.91
21 4 3 15.11 0.56
0 5 3 491.52 3.24
-1 5 3 114.76 1.56
1 5 3 113.32 1.6
-2 5 3 350.01 1.72
2 5 3 350.97 1.79
-3 5 3 4.83 0.33
3 5 3 4.07 0.35
-4 5 3 27.54 0.58
4 5 3 28.64 0.64
-5 5 3 231.71 1.56
5 5 3 234.51 1.43
-6 5 3 56.52 1.03
6 5 3 56.13 0.85
-7 5 3 34.4 0.95
7 5 3 37.32 0.79
-8 5 3 98.12 1.22
8 5 3 97.22 1.88
-9 5 3 56.17 0.42
9 5 3 56.23 0.53
-10 5 3 24.37 0.31
10 5 3 23.91 0.36
-11 5 3 49.53 0.4
11 5 3 49.5 0.46
-12 5 3 22.71 0.37
12 5 3 22.59 0.39
-13 5 3 68.26 0.52
13 5 3 67.52 0.6
-14 5 3 49.7 0.49
14 5 3 50.17 0.54
-15 5 3 7.56 0.41
15 5 3 7.59 0.41
-16 5 3 21.16 0.58
16 5 3 21.13 0.48
-17 5 3 18.72 0.56
17 5 3 18.92 0.46
-18 5 3 0.88 0.41
18 5 3 0.57 0.24
-19 5 3 4.59 0.54
19 5 3 5 0.58
-20 5 3 3.33 0.61
20 5 3 4.04 0.53
0 6 3 18.43 0.68
-1 6 3 17.41 0.7
1 6 3 16.83 0.63
-2 6 3 117.5 1.09
2 6 3 115.89 1.18
-3 6 3 162.87 1.12
3 6 3 163.77 1.1
-4 6 3 36.72 0.65
4 6 3 36.7 0.66
-5 6 3 3.78 0.46
5 6 3 3.09 0.45
-6 6 3 202.83 1.93
6 6 3 205.88 1.62
-7 6 3 29.64 0.95
7 6 3 29.94 0.93
-8 6 3 0.39 0.26
8 6 3 0.32 0.75
-9 6 3 46.25 0.38
9 6 3 46.17 0.45
-10 6 3 37.04 0.35
10 6 3 37.59 0.39
-11 6 3 88.37 0.52
11 6 3 89.17 0.58
-12 6 3 22.96 0.36
12 6 3 23.12 0.46
-13 6 3 22.22 0.41
13 6 3 21.35 0.43
-14 6 3 2.18 0.41
14 6 3 2.83 0.37
-15 6 3 7.19 0.42
15 6 3 7.16 0.4
-16 6 3 11.38 0.5
16 6 3 10.6 0.47
-17 6 3 4.75 0.48
17 6 3 5.1 0.45
-18 6 3 9.31 0.6
18 6 3 9.2 0.52
-19 6 3 12.64 0.6
19 6 3 12.32 0.58
-20 6 3 6.86 0.52
20 6 3 7.38 0.65
0 7 3 282.52 2.01
-1 7 3 29.65 0.63
1 7 3 28.54 0.64
-2 7 3 88.05 0.86
2 7 3 90.92 1.07
-3 7 3 265.93 1.53
3 7 3 264.35 1.93
-4 7 3 34.11 0.68
4 7 3 35.36 0.84
-5 7 3 121.49 1.12
5 7 3 123.96 1.51
-6 7 3 7.81 0.7
6 7 3 7.82 0.66
-7 7 3 0.55 0.4
7 7 3 0.95 0.73
-8 7 3 76.08 0.53
8 7 3 75.64 0.61
-9 7 3 64.15 0.44
9 7 3 64.76 0.46
-10 7 3 59.77 0.43
10 7 3 59.29 0.44
-11 7 3 32.02 0.37
11 7 3 31.52 0.41
-12 7 3 1.35 0.3
12 7 3 1.26 0.32
-13 7 3 13.05 0.38
13 7 3 12.71 0.38
-14 7 3 8.86 0.39
14 7 3 9.02 0.39
-15 7 3 1.15 0.39
15 7 3 1.33 0.42
-16 7 3 2.04 0.49
16 7 3 2.6 0.41
-17 7 3 11.19 0.53
17 7 3 10.33 0.55
-18 7 3 12.37 0.65
18 7 3 12.29 0.53
-19 7 3 18.46 0.63
19 7 3 18.47 0.64
-20 7 3 5.02 0.59
20 7 3 5.37 0.54
0 8 3 4.04 0.5
-1 8 3 1.45 0.38
1 8 3 1.1 0.52
-2 8 3 176.22 1.23
2 8 3 180.62 1.57
-3 8 3 161.68 1.29
3 8 3 162.96 1.62
-4 8 3 4.58 0.49
4 8 3 4.4 0.59
-5 8 3 205.22 1.65
5 8 3 208.67 1.88
-6 8 3 9.72 0.76
6 8 3 9.86 0.71
-7 8 3 12.53 0.32
7 8 3 12.05 0.5
-8 8 3 0.62 0.21
8 8 3 0.15 0.07
-9 8 3 2.8 0.23
9 8 3 2.38 0.29
-10 8 3 117.86 0.53
10 8 3 118.71 0.62
-11 8 3 23.22 0.34
11 8 3 22.95 0.39
-12 8 3 14.04 0.35
12 8 3 13.94 0.36
-13 8 3 6.64 0.39
13 8 3 6.17 0.39
-14 8 3 3.58 0.42
14 8 3 3.52 0.37
-15 8 3 12.63 0.43
15 8 3 12.75 0.47
-16 8 3 5.79 0.48
16 8 3 5.65 0.49
-17 8 3 3.11 0.43
17 8 3 3.04 0.43
-18 8 3 4.25 0.58
18 8 3 4.61 0.48
-19 8 3 8.22 0.59
19 8 3 8.67 0.56
-20 8 3 8.38 0.64
20 8 3 8.78 0.71
0 9 3 120.23 1.27
-1 9 3 124.35 1.27
1 9 3 123.98 1.52
-2 9 3 7.59 0.47
2 9 3 7.23 0.61
-3 9 3 28.95 0.72
3 9 3 29.79 0.87
-4 9 3 62.46 0.95
4 9 3 62.05 1.2
-5 9 3 109.23 1.33
5 9 3 109.75 1.62
-6 9 3 41.84 0.5
6 9 3 41.07 0.55
-7 9 3 4.12 0.26
7 9 3 4.01 0.39
-8 9 3 21.99 0.3
8 9 3 21.6 0.36
-9 9 3 5.73 0.26
9 9 3 5.26 0.29
-10 9 3 22.47 0.33
10 9 3 22.07 0.39
-11 9 3 21.69 0.35
11 9 3 21.51 0.4
-12 9 3 26.1 0.39
12 9 3 26.91 0.44
-13 9 3 26.93 0.43
13 9 3 26.49 0.44
-14 9 3 0.65 0.23
14 9 3 0.64 0.25
-15 9 3 16.41 0.5
15 9 3 16.47 0.5
-16 9 3 1.06 0.38
16 9 3 1.14 0.44
-17 9 3 18.81 0.55
17 9 3 19.4 0.53
-18 9 3 4.52 0.71
18 9 3 4.1 0.53
-19 9 3 1.84 0.6
19 9 3 1.32 0.51
0 10 3 11.94 0.64
-1 10 3 8.14 0.55
1 10 3 8.22 0.57
-2 10 3 75.93 1.14
2 10 3 77.61 1.09
-3 10 3 124.6 1.29
3 10 3 125.88 1.4
-4 10 3 8.3 0.47
4 10 3 7.84 0.76
-5 10 3 59.04 0.54
5 10 3 59.39 0.56
-6 10 3 90.24 0.55
6 10 3 89.44 0.66
-7 10 3 7.24 0.27
7 10 3 7.13 0.37
-8 10 3 25.96 0.33
8 10 3 26.22 0.45
-9 10 3 1.72 0.28
9 10 3 1.52 0.31
-10 10 3 33.55 0.38
10 10 3 33.07 0.55
-11 10 3 24.82 0.36
11 10 3 24.16 0.44
-12 10 3 45.65 0.45
12 10 3 44.71 0.57
-13 10 3 45.47 0.5
13 10 3 45.04 0.6
-14 10 3 0.65 0.24
14 10 3 0.9 0.42
-15 10 3 20.99 0.53
15 10 3 21.49 0.56
-16 10 3 0.06 0.08
16 10 3 0.04 0.02
-17 10 3 0.29 0.35
17 10 3 0.16 0.13
-18 10 3 8.04 0.67
18 10 3 7.84 0.54
-19 10 3 3.75 0.65
19 10 3 4.26 0.63
0 11 3 1.44 0.56
-1 11 3 2.77 0.51
1 11 3 2.44 0.47
-2 11 3 14.71 0.44
2 11 3 15.04 0.53
-3 11 3 108.92 0.66
3 11 3 109.05 0.73
-4 11 3 4.1 0.28
4 11 3 3.58 0.33
-5 11 3 17.25 0.32
5 11 3 17.67 0.39
-6 11 3 2.55 0.3
6 11 3 2.57 0.31
-7 11 3 20.39 0.35
7 11 3 19.93 0.46
-8 11 3 31.5 0.39
8 11 3 31.77 0.5
-9 11 3 26.17 0.39
9 11 3 26.53 0.43
-10 11 3 3.84 0.31
10 11 3 4.02 0.38
-11 11 3 0.17 0.13
11 11 3 0.09 0.06
-12 11 3 6.97 0.36
12 11 3 6.87 0.39
-13 11 3 7.65 0.42
13 11 3 8.12 0.43
-14 11 3 11.78 0.46
14 11 3 12.09 0.47
-15 11 3 7.3 0.49
15 11 3 7.4 0.52
-16 11 3 0.87 0.56
16 11 3 1.22 0.46
-17 11 3 9.12 0.71
17 11 3 8.28 0.53
-18 11 3 0.23 0.23
18 11 3 0.7 0.57
-19 11 3 16.33 0.95
19 11 3 17.01 0.74
0 12 3 13.15 0.37
-1 12 3 28.24 0.47
1 12 3 28.77 0.41
-2 12 3 60.57 0.48
2 12 3 61.79 0.5
-3 12 3 74.7 0.51
3 12 3 75.06 0.51
-4 12 3 97 0.51
4 12 3 98.65 0.56
-5 12 3 73.55 0.47
5 12 3 74.63 0.56
-6 12 3 20.28 0.37
6 12 3 20.51 0.42
-7 12 3 20.91 0.38
7 12 3 20.65 0.44
-8 12 3 0.96 0.27
8 12 3 1.13 0.39
-9 12 3 4.83 0.33
9 12 3 5.28 0.35
-10 12 3 24.1 0.43
10 12 3 24.57 0.56
-11 12 3 38.83 0.47
11 12 3 38.27 0.51
-12 12 3 18.01 0.49
12 12 3 17.51 0.53
-13 12 3 2.58 0.42
13 12 3 3.02 0.45
-14 12 3 0.27 0.1
14 12 3 0.54 0.43
-15 12 3 8.99 0.53
15 12 3 9.01 0.53
-16 12 3 10.32 0.64
16 12 3 9.87 0.66
-17 12 3 3.8 0.67
17 12 3 4.21 0.67
-18 12 3 3.65 0.86
18 12 3 4.11 0.89
0 13 3 26.9 0.33
-1 13 3 18.96 0.34
1 13 3 19.21 0.3
-2 13 3 8.5 0.31
2 13 3 8.36 0.3
-3 13 3 22.16 0.33
3 13 3 22.2 0.35
-4 13 3 16.82 0.33
4 13 3 16.89 0.36
-5 13 3 92.02 0.54
5 13 3 93.01 0.64
-6 13 3 8.38 0.34
6 13 3 8.39 0.42
-7 13 3 5.75 0.36
7 13 3 5.39 0.37
-8 13 3 29.29 0.4
8 13 3 29.46 0.51
-9 13 3 32.15 0.43
9 13 3 31.41 0.55
-10 13 3 3.15 0.34
10 13 3 2.91 0.49
-11 13 3 7.85 0.36
11 13 3 7.78 0.49
-12 13 3 7.24 0.42
12 13 3 7.27 0.59
-13 13 3 14.9 0.49
13 13 3 15.73 0.58
-14 13 3 3.07 0.49
14 13 3 3.12 0.47
-15 13 3 4.12 0.62
15 13 3 3.81 0.53
-16 13 3 1.96 0.6
16 13 3 2.02 0.51
-17 13 3 5.24 1.07
17 13 3 4.93 0.62
-18 13 3 0.2 0.19
18 13 3 0.57 0.6
0 14 3 22.46 0.33
-1 14 3 22.37 0.37
1 14 3 22.12 0.33
-2 14 3 62.03 0.52
2 14 3 61.63 0.49
-3 14 3 111.69 0.66
3 14 3 111.39 0.61
-4 14 3 7.66 0.33
4 14 3 7.61 0.31
-5 14 3 28.53 0.44
5 14 3 28.8 0.52
-6 14 3 36.04 0.46
6 14 3 36.08 0.65
-7 14 3 13.23 0.44
7 14 3 13.15 0.43
-8 14 3 4.72 0.37
8 14 3 3.98 0.4
-9 14 3 2.71 0.35
9 14 3 2.47 0.44
-10 14 3 0.62 0.34
10 14 3 0.86 0.39
-11 14 3 7.99 0.4
11 14 3 9.09 0.58
-12 14 3 28.15 0.54
12 14 3 28.7 0.68
-13 14 3 5.03 0.48
13 14 3 5.19 0.62
-14 14 3 4.15 0.49
14 14 3 3.86 0.51
-15 14 3 3.57 0.68
15 14 3 4.09 0.53
-16 14 3 3.8 0.57
16 14 3 3.66 0.49
-17 14 3 1.09 0.64
17 14 3 1.39 0.57
18 14 3 0.41 0.46
0 15 3 26.07 0.36
-1 15 3 71.9 0.51
1 15 3 72.14 0.51
-2 15 3 2.62 0.33
2 15 3 2.06 0.31
-3 15 3 30.61 0.44
3 15 3 30.63 0.41
-4 15 3 37.34 0.46
4 15 3 36.43 0.45
-5 15 3 17.15 0.4
5 15 3 17.19 0.45
-6 15 3 14.84 0.46
6 15 3 14.63 0.49
-7 15 3 29.91 0.62
7 15 3 29.79 0.64
-8 15 3 2.22 0.41
8 15 3 2.18 0.4
-9 15 3 4.54 0.43
9 15 3 4.05 0.52
-10 15 3 3.09 0.37
10 15 3 2.95 0.51
-11 15 3 1.3 0.37
11 15 3 1.39 0.47
-12 15 3 17.07 0.58
12 15 3 16.15 0.65
-13 15 3 1.22 0.44
13 15 3 1.18 0.51
-14 15 3 5.76 0.56
14 15 3 6.14 0.51
-15 15 3 0.69 0.65
15 15 3 0.29 0.4
-16 15 3 1.37 0.55
16 15 3 1.67 0.53
-17 15 3 0.42 0.41
17 15 3 0.4 0.26
0 16 3 4.16 0.31
-1 16 3 0.47 0.29
1 16 3 0.5 0.22
-2 16 3 15.59 0.36
2 16 3 14.92 0.36
-3 16 3 11.47 0.37
3 16 3 11.28 0.35
-4 16 3 9.73 0.38
4 16 3 10.12 0.42
-5 16 3 42.6 0.53
5 16 3 43.76 0.58
-6 16 3 1.99 0.39
6 16 3 1.79 0.41
-7 16 3 1.94 0.43
7 16 3 2.13 0.48
-8 16 3 0.14 0.12
8 16 3 0.45 0.53
-9 16 3 4.59 0.48
9 16 3 4.46 0.5
-10 16 3 26.11 0.67
10 16 3 25.34 0.62
-11 16 3 16 0.55
11 16 3 16.68 0.61
-12 16 3 0.2 0.08
12 16 3 0.69 0.57
-13 16 3 1.46 0.69
13 16 3 1.31 0.67
-14 16 3 0.55 0.63
14 16 3 0.8 0.52
-15 16 3 1.93 0.7
15 16 3 2.54 0.49
-16 16 3 0.26 0.47
16 16 3 0.71 0.66
0 17 3 14.7 0.4
-1 17 3 4.06 0.36
1 17 3 3.6 0.34
-2 17 3 35.01 0.43
2 17 3 33.96 0.46
-3 17 3 39.58 0.46
3 17 3 39.05 0.48
-4 17 3 2.47 0.36
4 17 3 2.83 0.37
-5 17 3 3.81 0.36
5 17 3 3.82 0.43
-6 17 3 2.54 0.37
6 17 3 2.78 0.44
-7 17 3 23.72 0.55
7 17 3 23.09 0.56
-8 17 3 20.31 0.62
8 17 3 19.8 0.62
-9 17 3 11.28 0.61
9 17 3 11 0.57
-10 17 3 2.46 0.52
10 17 3 1.94 0.59
-11 17 3 1.89 0.55
11 17 3 2.09 0.61
-12 17 3 3.55 0.61
12 17 3 3.75 0.62
-13 17 3 4.53 0.77
13 17 3 5.32 0.61
-14 17 3 1.39 0.67
14 17 3 0.56 0.32
-15 17 3 3.11 0.99
15 17 3 3.04 0.56
-16 17 3 0.39 0.37
16 17 3 0.2 0.17
0 18 3 8.92 0.39
-1 18 3 6.22 0.36
1 18 3 6.26 0.38
-2 18 3 4.31 0.35
2 18 3 3.95 0.33
-3 18 3 8.73 0.38
3 18 3 8.74 0.42
-4 18 3 0.59 0.21
4 18 3 0.38 0.2
-5 18 3 7.14 0.44
5 18 3 7.32 0.49
-6 18 3 13.24 0.48
6 18 3 13.28 0.48
-7 18 3 2.36 0.51
7 18 3 2.22 0.55
-8 18 3 1.99 0.46
8 18 3 1.6 0.59
-9 18 3 11.65 0.57
9 18 3 10.93 0.68
-10 18 3 12.26 0.69
10 18 3 11.98 0.66
-11 18 3 3.27 0.5
11 18 3 3.57 0.56
-12 18 3 1.81 0.57
12 18 3 1.52 0.69
-13 18 3 1.14 0.71
13 18 3 1.39 0.63
-14 18 3 0.58 0.94
14 18 3 0.14 0.1
-15 18 3 3.13 0.84
15 18 3 4.09 0.53
0 19 3 27.95 0.49
-1 19 3 46.48 0.56
1 19 3 46.56 0.57
-2 19 3 23.64 0.47
2 19 3 23.88 0.48
-3 19 3 1.46 0.35
3 19 3 1.57 0.43
-4 19 3 8.54 0.45
4 19 3 8.29 0.48
-5 19 3 5.94 0.43
5 19 3 5.77 0.51
-6 19 3 15.8 0.49
6 19 3 15.82 0.57
-7 19 3 2.82 0.51
7 19 3 3.09 0.5
-8 19 3 2.68 0.66
8 19 3 2.45 0.61
-9 19 3 13.57 0.68
9 19 3 13.74 0.53
-10 19 3 0.7 0.4
10 19 3 0.14 0.07
-11 19 3 0.81 0.34
11 19 3 1.89 0.7
-12 19 3 0.27 0.16
12 19 3 0.74 0.55
-13 19 3 0.07 0.15
13 19 3 1.2 0.62
-14 19 3 8.05 1.23
14 19 3 9.97 0.63
0 20 3 3.37 0.38
-1 20 3 3.95 0.4
1 20 3 4.33 0.41
-2 20 3 2.73 0.38
2 20 3 3.12 0.44
-3 20 3 11.15 0.46
3 20 3 11.06 0.48
-4 20 3 0.35 0.15
4 20 3 0.27 0.13
-5 20 3 5.21 0.54
5 20 3 4.51 0.54
-6 20 3 0.9 0.45
6 20 3 1.37 0.54
-7 20 3 16.69 0.67
7 20 3 17.22 0.72
-8 20 3 6.18 0.6
8 20 3 6.52 0.59
-9 20 3 0.99 0.57
9 20 3 0.93 0.59
-10 20 3 4.79 0.68
10 20 3 4.15 0.92
-11 20 3 15.52 0.79
11 20 3 15.35 0.72
-12 20 3 4.27 1.08
12 20 3 3.05 0.71
-13 20 3 0.33 0.52
13 20 3 0.73 0.69
0 21 3 0.23 0.12
-1 21 3 11.99 0.47
1 21 3 11.97 0.44
-2 21 3 12.87 0.56
2 21 3 12.58 0.53
-3 21 3 7.74 0.47
3 21 3 6.9 0.55
-4 21 3 3.29 0.48
4 21 3 3.29 0.52
-5 21 3 6.34 0.51
5 21 3 5.59 0.54
-6 21 3 5.84 0.62
6 21 3 6.23 0.53
-7 21 3 2.54 0.52
7 21 3 2.51 0.68
-8 21 3 8.47 0.6
8 21 3 8.12 0.63
-9 21 3 7.7 0.64
9 21 3 7.07 0.87
-10 21 3 6.63 0.64
10 21 3 7.4 0.75
-11 21 3 1.72 0.95
11 21 3 1.98 0.86
-12 21 3 0.63 1.46
12 21 3 0.81 0.72
-13 21 3 1.86 0.93
13 21 3 1.46 0.46
0 22 3 1.52 0.34
-1 22 3 15.24 0.61
1 22 3 15.3 0.47
-2 22 3 1.66 0.43
2 22 3 1.31 0.44
-3 22 3 2.99 0.44
3 22 3 2.65 0.5
-4 22 3 11.79 0.58
4 22 3 11.74 0.66
-5 22 3 8.05 0.55
5 22 3 7.64 0.7
-6 22 3 8.2 0.67
6 22 3 7.52 0.7
-7 22 3 0.28 0.22
7 22 3 0.16 1.32
-8 22 3 1.08 0.56
8 22 3 0.94 1.67
-9 22 3 4.76 0.7
9 22 3 4.88 0.83
-10 22 3 0.18 0.52
10 22 3 0.57 0.57
-11 22 3 1.97 0.83
11 22 3 2.24 0.78
0 23 3 11.87 0.54
-1 23 3 0.73 0.48
1 23 3 1.16 0.46
-2 23 3 2.75 0.46
2 23 3 3.09 0.52
-3 23 3 1.5 0.49
3 23 3 1.58 0.53
-4 23 3 4.52 0.61
4 23 3 4.17 0.59
-5 23 3 2.74 0.72
5 23 3 2.75 0.71
-6 23 3 1.78 0.66
6 23 3 2 0.79
-7 23 3 1.4 0.68
7 23 3 0.92 0.83
-8 23 3 6.95 0.76
8 23 3 6.54 0.85
-9 23 3 0.52 0.6
9 23 3 1.19 0.67
-10 23 3 1.58 0.61
10 23 3 2.08 0.63
0 24 3 1.09 0.37
-1 24 3 0.93 0.37
1 24 3 0.81 0.25
-2 24 3 7.14 0.53
2 24 3 6.81 0.54
-3 24 3 7.92 0.52
3 24 3 8.25 0.8
-4 24 3 1.25 0.56
4 24 3 1.02 0.83
-5 24 3 1.31 0.44
5 24 3 1.55 0.68
-6 24 3 2.13 0.68
6 24 3 1.57 0.76
-7 24 3 4.8 0.64
7 24 3 4.84 0.95
-8 24 3 2.85 0.83
8 24 3 2.43 0.58
-9 24 3 0.58 1.58
9 24 3 0.54 0.67
0 25 3 0.85 0.53
-1 25 3 1.18 0.49
1 25 3 0.84 0.9
-2 25 3 0.52 0.5
2 25 3 0.13 0.46
-3 25 3 1.26 0.56
3 25 3 0.76 0.71
-4 25 3 9.63 0.78
4 25 3 10.06 0.69
-5 25 3 2.2 0.53
5 25 3 2.84 0.58
-6 25 3 0.42 0.69
6 25 3 0.76 1.26
-7 25 3 2.07 0.58
7 25 3 1.93 0.6
0 26 3 7.28 0.6
-1 26 3 0.94 0.48
1 26 3 1.33 0.72
-2 26 3 0.67 0.47
2 26 3 0.19 0.59
-3 26 3 2.36 0.59
3 26 3 2.05 0.74
-4 26 3 1.05 0.8
4 26 3 0.68 0.53
0 0 4 322.23 4.42
1 0 4 81.89 1.68
2 0 4 0.22 0.4
3 0 4 458.8 2.22
4 0 4 265.25 1.89
5 0 4 408.09 2.16
6 0 4 2.39 0.59
7 0 4 53.95 1.16
8 0 4 0.03 0.02
9 0 4 5.66 0.42
10 0 4 13.97 0.34
11 0 4 10.81 0.35
12 0 4 172.01 0.78
13 0 4 23.6 0.43
14 0 4 2.47 0.39
15 0 4 0.2 0.09
16 0 4 75.27 0.73
17 0 4 0.48 0.45
18 0 4 2.56 0.47
19 0 4 0.97 0.48
20 0 4 0.11 0.35
0 1 4 139.15 1.97
-1 1 4 83.19 1.54
1 1 4 81.22 1.67
-2 1 4 74.39 1.9
2 1 4 75.7 1.13
-3 1 4 130.69 1.1
3 1 4 129.1 1.19
-4 1 4 2.56 0.44
4 1 4 2.34 0.4
-5 1 4 157.23 1.48
5 1 4 154.69 1.66
-6 1 4 258.3 2.42
6 1 4 257.54 3.31
-7 1 4 62.41 2.04
7 1 4 60 1.18
-8 1 4 30.28 0.61
8 1 4 29.08 0.73
-9 1 4 9.56 0.42
9 1 4 9.32 0.4
-10 1 4 3.91 0.28
10 1 4 4.09 0.32
-11 1 4 3.52 0.3
11 1 4 3.52 0.32
-12 1 4 12.64 0.36
12 1 4 12.64 0.38
-13 1 4 5.02 0.37
13 1 4 5.41 0.37
-14 1 4 95.35 0.7
14 1 4 93.84 0.69
-15 1 4 2.61 0.41
15 1 4 2.54 0.43
-16 1 4 0.97 0.35
16 1 4 0.68 0.49
-17 1 4 2.86 0.44
17 1 4 2.57 0.57
-18 1 4 2.39 0.42
18 1 4 3.27 0.52
-19 1 4 2.23 0.57
19 1 4 2.82 0.48
-20 1 4 5.21 0.58
20 1 4 5.76 0.85
0 2 4 17.02 0.92
-1 2 4 157.53 2.24
1 2 4 152.12 2.26
-2 2 4 67.43 1.14
2 2 4 60.79 1.94
-3 2 4 338.91 1.84
3 2 4 325.19 2.28
-4 2 4 986.93 3.16
4 2 4 1011.79 5.13
-5 2 4 195.29 1.75
5 2 4 194 2.7
-6 2 4 9.36 0.8
6 2 4 9.04 0.63
-7 2 4 28.51 1.09
7 2 4 29.91 0.91
-8 2 4 13.47 0.5
8 2 4 13.82 0.61
-9 2 4 18.98 0.42
9 2 4 19.4 0.44
-10 2 4 23.63 0.37
10 2 4 24.15 0.4
-11 2 4 67.16 0.51
11 2 4 66.9 0.55
-12 2 4 9.05 0.36
12 2 4 9.71 0.38
-13 2 4 19.04 0.43
13 2 4 19.29 0.43
-14 2 4 21.92 0.46
14 2 4 21.99 0.44
-15 2 4 2.97 0.5
15 2 4 3.27 0.39
-16 2 4 9.1 0.44
16 2 4 9.46 0.51
-17 2 4 4.68 0.47
17 2 4 5.72 0.5
-18 2 4 0.44 0.23
18 2 4 0.8 0.46
-19 2 4 0.52 0.19
19 2 4 1.18 0.48
-20 2 4 0.24 0.14
20 2 4 0.7 0.44
0 3 4 200.67 2.58
-1 3 4 0.48 0.19
1 3 4 0.67 0.42
-2 3 4 192.59 1.99
2 3 4 185.25 3.2
-3 3 4 284.79 1.51
3 3 4 286.71 3.65
-4 3 4 161.36 1.22
4 3 4 164.02 2.18
-5 3 4 33.57 0.73
5 3 4 35.06 0.82
-6 3 4 278.21 2.68
6 3 4 283.67 2.09
-7 3 4 32.1 1.18
7 3 4 33.95 0.95
-8 3 4 28.73 0.65
8 3 4 28.49 0.51
-9 3 4 22.83 0.42
9 3 4 22.95 0.4
-10 3 4 16.09 0.37
10 3 4 16.18 0.38
-11 3 4 5.81 0.32
11 3 4 5.64 0.34
-12 3 4 43.1 0.46
12 3 4 43.64 0.56
-13 3 4 17.18 0.41
13 3 4 17.58 0.45
-14 3 4 41.42 0.53
14 3 4 41.94 0.54
-15 3 4 4.56 0.39
15 3 4 5.12 0.4
-16 3 4 0.57 0.24
16 3 4 0.88 0.4
-17 3 4 8.41 0.5
17 3 4 9.05 0.5
-18 3 4 1.19 0.55
18 3 4 1.29 0.5
-19 3 4 13.79 0.55
19 3 4 12.78 0.55
-20 3 4 1.67 0.54
20 3 4 1.82 0.59
0 4 4 0.39 0.18
-1 4 4 60.36 1.41
1 4 4 61.51 1.34
-2 4 4 36.61 1.09
2 4 4 31.86 1.56
-3 4 4 185.53 1.1
3 4 4 175.03 3.32
-4 4 4 246.7 1.56
4 4 4 253.39 1.74
-5 4 4 61.88 0.95
5 4 4 63.97 1.04
-6 4 4 30.89 0.88
6 4 4 31.98 0.86
-7 4 4 2.82 0.75
7 4 4 2.65 0.53
-8 4 4 21.89 0.53
8 4 4 22.31 0.43
-9 4 4 20.05 0.39
9 4 4 19.93 0.39
-10 4 4 91.61 0.59
10 4 4 91.97 0.62
-11 4 4 34.61 0.43
11 4 4 35.73 0.5
-12 4 4 77.6 0.56
12 4 4 76.2 0.64
-13 4 4 35.85 0.46
13 4 4 35.02 0.56
-14 4 4 6.84 0.37
14 4 4 7.03 0.45
-15 4 4 1.77 0.37
15 4 4 1.96 0.48
-16 4 4 21.6 0.55
16 4 4 21.77 0.52
-17 4 4 2.26 0.54
17 4 4 2.08 0.47
-18 4 4 8.86 0.56
18 4 4 8.32 0.57
-19 4 4 3.8 0.55
19 4 4 3.97 0.58
-20 4 4 0.06 0.05
20 4 4 0.27 0.15
0 5 4 120.12 1.88
-1 5 4 240.27 2.64
1 5 4 248.32 2.2
-2 5 4 293.28 2.73
2 5 4 285.91 1.91
-3 5 4 39.84 0.64
3 5 4 39.2 0.67
-4 5 4 84.22 1.03
4 5 4 87.41 1.37
-5 5 4 10.27 0.59
5 5 4 10.62 0.64
-6 5 4 245.75 2.17
6 5 4 255.1 2.15
-7 5 4 20.65 0.49
7 5 4 20.68 0.69
-8 5 4 91.63 0.61
8 5 4 90.37 0.82
-9 5 4 23.77 0.33
9 5 4 23.89 0.35
-10 5 4 3.44 0.31
10 5 4 3.44 0.32
-11 5 4 37.1 0.44
11 5 4 36.83 0.48
-12 5 4 25.47 0.42
12 5 4 26.21 0.44
-13 5 4 0.13 0.21
13 5 4 0.11 0.14
-14 5 4 26.69 0.46
14 5 4 27.8 0.46
-15 5 4 0.23 0.13
15 5 4 0.43 0.38
-16 5 4 9.51 0.6
16 5 4 8.5 0.47
-17 5 4 13.69 0.57
17 5 4 13.29 0.53
-18 5 4 0.63 0.39
18 5 4 0.76 0.54
-19 5 4 3.73 0.52
19 5 4 3.41 0.58
-20 5 4 9.04 0.57
20 5 4 9.63 0.63
0 6 4 0.6 0.97
-1 6 4 27.5 0.82
1 6 4 24.14 1.16
-2 6 4 58.05 0.96
2 6 4 59.13 1.11
-3 6 4 57.73 0.79
3 6 4 57.34 0.84
-4 6 4 217.22 1.51
4 6 4 222.33 1.58
-5 6 4 36.39 0.87
5 6 4 36.68 0.81
-6 6 4 56.56 0.9
6 6 4 56.11 1.04
-7 6 4 2.19 0.35
7 6 4 1.8 0.38
-8 6 4 44.97 0.4
8 6 4 44.78 0.45
-9 6 4 4.59 0.28
9 6 4 4.51 0.29
-10 6 4 31.9 0.41
10 6 4 31.33 0.43
-11 6 4 35.73 0.47
11 6 4 35.83 0.48
-12 6 4 6.6 0.36
12 6 4 7.03 0.4
-13 6 4 5.4 0.37
13 6 4 5.27 0.39
-14 6 4 13.34 0.45
14 6 4 13.27 0.46
-15 6 4 0.58 0.2
15 6 4 0.66 0.26
-16 6 4 9.46 0.47
16 6 4 9.06 0.47
-17 6 4 13.28 0.58
17 6 4 12.82 0.5
-18 6 4 2.93 0.52
18 6 4 3.3 0.56
-19 6 4 4.26 0.54
19 6 4 4.44 0.62
-20 6 4 2.59 0.54
20 6 4 2.78 0.6
0 7 4 228.29 2.09
-1 7 4 33.55 0.9
1 7 4 34.62 0.84
-2 7 4 113.64 1.23
2 7 4 108.99 2.39
-3 7 4 162.99 1.34
3 7 4 160.14 2.15
-4 7 4 78.57 0.91
4 7 4 80.68 1.26
-5 7 4 17.75 0.77
5 7 4 17.51 0.68
-6 7 4 107.28 0.85
6 7 4 108.36 1.08
-7 7 4 68.58 0.61
7 7 4 68.64 0.61
-8 7 4 85.93 0.57
8 7 4 85.61 0.57
-9 7 4 7.53 0.32
9 7 4 7.68 0.31
-10 7 4 58.68 0.51
10 7 4 59.08 0.53
-11 7 4 36.46 0.48
11 7 4 35.66 0.48
-12 7 4 26.33 0.43
12 7 4 26.01 0.48
-13 7 4 11.37 0.43
13 7 4 11.28 0.46
-14 7 4 42.94 0.57
14 7 4 43.38 0.59
-15 7 4 10.21 0.46
15 7 4 10.69 0.43
-16 7 4 4.77 0.47
16 7 4 5.16 0.4
-17 7 4 5.35 0.49
17 7 4 4.61 0.5
-18 7 4 13.58 0.62
18 7 4 13.74 0.61
-19 7 4 5.25 0.69
19 7 4 5.71 0.75
0 8 4 15.48 0.87
-1 8 4 42.65 1.05
1 8 4 42.09 1.19
-2 8 4 71.38 1.1
2 8 4 71.1 1.16
-3 8 4 19.6 0.66
3 8 4 18.79 0.98
-4 8 4 20.26 0.69
4 8 4 18.19 1.06
-5 8 4 79.37 0.83
5 8 4 79.84 0.94
-6 8 4 24.24 0.42
6 8 4 23.59 0.45
-7 8 4 19.49 0.38
7 8 4 19.2 0.4
-8 8 4 13.47 0.34
8 8 4 13.66 0.36
-9 8 4 47.09 0.43
9 8 4 46.53 0.48
-10 8 4 24.1 0.36
10 8 4 23.46 0.43
-11 8 4 9.61 0.33
11 8 4 9.27 0.39
-12 8 4 54.52 0.5
12 8 4 53.55 0.61
-13 8 4 4.03 0.39
13 8 4 3.91 0.43
-14 8 4 3.94 0.42
14 8 4 3.46 0.42
-15 8 4 3.94 0.43
15 8 4 3.43 0.43
-16 8 4 10.71 0.52
16 8 4 10.59 0.51
-17 8 4 2.05 0.58
17 8 4 1.78 0.44
-18 8 4 2.57 0.56
18 8 4 2.21 0.48
-19 8 4 3.56 0.65
19 8 4 3.34 0.82
0 9 4 154.11 1.71
-1 9 4 9.78 0.75
1 9 4 10.11 0.91
-2 9 4 230.76 1.9
2 9 4 237.01 2.6
-3 9 4 8.05 0.55
3 9 4 8.08 0.5
-4 9 4 1.32 0.39
4 9 4 1.35 0.45
-5 9 4 14.12 0.33
5 9 4 13.7 0.37
-6 9 4 24.75 0.37
6 9 4 23.99 0.4
-7 9 4 49.76 0.42
7 9 4 49.5 0.5
-8 9 4 53.24 0.46
8 9 4 51.56 0.57
-9 9 4 40.01 0.43
9 9 4 40.07 0.51
-10 9 4 23.84 0.39
10 9 4 23.51 0.47
-11 9 4 15.17 0.37
11 9 4 15.03 0.43
-12 9 4 30.07 0.43
12 9 4 29.58 0.55
-13 9 4 5.66 0.38
13 9 4 5.57 0.43
-14 9 4 4.93 0.41
14 9 4 4.93 0.47
-15 9 4 19.55 0.49
15 9 4 19.46 0.52
-16 9 4 6.64 0.55
16 9 4 6.74 0.49
-17 9 4 6.15 0.55
17 9 4 6.14 0.54
-18 9 4 0.61 0.63
18 9 4 0.54 0.76
-19 9 4 4.15 0.84
19 9 4 3.35 0.71
0 10 4 62.49 1.12
-1 10 4 18.1 0.59
1 10 4 18.58 0.7
-2 10 4 81.19 0.73
2 10 4 80.74 0.9
-3 10 4 15.57 0.44
3 10 4 15.37 0.44
-4 10 4 72.4 0.58
4 10 4 73.35 0.63
-5 10 4 30.35 0.42
5 10 4 30.36 0.46
-6 10 4 28.42 0.4
6 10 4 28.59 0.43
-7 10 4 31.01 0.38
7 10 4 30.5 0.47
-8 10 4 25.99 0.39
8 10 4 25.28 0.46
-9 10 4 6.39 0.36
9 10 4 6.66 0.36
-10 10 4 6.1 0.33
10 10 4 6.41 0.39
-11 10 4 17.82 0.42
11 10 4 18.1 0.41
-12 10 4 4.08 0.39
12 10 4 4.08 0.4
-13 10 4 14.53 0.5
13 10 4 14.44 0.49
-14 10 4 24.51 0.6
14 10 4 24.95 0.57
-15 10 4 10.18 0.54
15 10 4 10.67 0.61
-16 10 4 2.43 0.45
16 10 4 3.02 0.54
-17 10 4 7.34 0.69
17 10 4 7.73 0.64
-18 10 4 0.01 0.1
18 10 4 0.58 0.91
-19 10 4 3.73 0.74
19 10 4 4.05 0.67
0 11 4 5.55 0.32
-1 11 4 5.36 0.35
1 11 4 5.47 0.36
-2 11 4 1.73 0.28
2 11 4 1.59 0.3
-3 11 4 0.88 0.28
3 11 4 0.85 0.35
-4 11 4 96.32 0.56
4 11 4 96.72 0.65
-5 11 4 53.84 0.56
5 11 4 53.5 0.59
-6 11 4 50.63 0.52
6 11 4 48.81 0.66
-7 11 4 27.51 0.46
7 11 4 27.54 0.52
-8 11 4 24.85 0.42
8 11 4 24.2 0.52
-9 11 4 8.95 0.38
9 11 4 8.96 0.44
-10 11 4 12.58 0.41
10 11 4 12.72 0.52
-11 11 4 13.76 0.43
11 11 4 13.98 0.44
-12 11 4 26.09 0.54
12 11 4 27.19 0.6
-13 11 4 0.52 0.44
13 11 4 0.44 0.36
-14 11 4 11.63 0.61
14 11 4 11.64 0.53
-15 11 4 3.5 0.54
15 11 4 3.64 0.54
-16 11 4 16.71 0.75
16 11 4 17.79 0.64
-17 11 4 1.43 0.7
17 11 4 1.78 0.52
-18 11 4 5.1 0.88
18 11 4 5.01 0.72
0 12 4 35.99 0.43
-1 12 4 27.56 0.38
1 12 4 27.94 0.43
-2 12 4 4.62 0.3
2 12 4 4.46 0.34
-3 12 4 76.79 0.56
3 12 4 76.44 0.62
-4 12 4 27.02 0.36
4 12 4 27.99 0.5
-5 12 4 69.55 0.56
5 12 4 70.19 0.71
-6 12 4 31.63 0.45
6 12 4 31.41 0.65
-7 12 4 13.89 0.39
7 12 4 13.21 0.46
-8 12 4 5.75 0.37
8 12 4 5.63 0.4
-9 12 4 7.31 0.38
9 12 4 7.01 0.4
-10 12 4 8.85 0.43
10 12 4 8.85 0.49
-11 12 4 25.56 0.53
11 12 4 25.46 0.5
-12 12 4 34.84 0.57
12 12 4 35.33 0.62
-13 12 4 1.4 0.7
13 12 4 1.69 0.43
-14 12 4 34.61 0.7
14 12 4 34.9 0.74
-15 12 4 1.91 0.5
15 12 4 1.88 0.49
-16 12 4 4.5 0.61
16 12 4 4.14 0.54
-17 12 4 1.04 0.84
17 12 4 1.29 0.5
-18 12 4 0.33 0.67
18 12 4 0.5 0.3
0 13 4 2.12 0.31
-1 13 4 2.7 0.31
1 13 4 2.9 0.28
-2 13 4 34.76 0.42
2 13 4 35.13 0.45
-3 13 4 15.05 0.37
3 13 4 14.52 0.42
-4 13 4 41.73 0.47
4 13 4 40.26 0.49
-5 13 4 10.58 0.34
5 13 4 10.72 0.41
-6 13 4 1.4 0.37
6 13 4 1.63 0.48
-7 13 4 3.1 0.35
7 13 4 2.51 0.47
-8 13 4 13.29 0.43
8 13 4 12.67 0.49
-9 13 4 1.2 0.36
9 13 4 0.67 0.22
-10 13 4 1.98 0.39
10 13 4 2.19 0.45
-11 13 4 2.92 0.44
11 13 4 2.79 0.43
-12 13 4 1.59 0.47
12 13 4 1.86 0.51
-13 13 4 4.23 0.55
13 13 4 4.46 0.49
-14 13 4 8.89 0.58
14 13 4 9.52 0.53
-15 13 4 8.4 0.57
15 13 4 9.25 0.6
-16 13 4 11.04 0.79
16 13 4 12.12 0.58
-17 13 4 0.53 0.79
17 13 4 0.27 0.13
0 14 4 1.97 0.29
-1 14 4 11.52 0.32
1 14 4 11.65 0.32
-2 14 4 7.83 0.31
2 14 4 7.57 0.35
-3 14 4 5.32 0.33
3 14 4 5.46 0.33
-4 14 4 1.66 0.31
4 14 4 1.42 0.46
-5 14 4 1.6 0.32
5 14 4 1.79 0.38
-6 14 4 37.3 0.48
6 14 4 37.8 0.75
-7 14 4 3.89 0.36
7 14 4 3.6 0.57
-8 14 4 22.44 0.5
8 14 4 21.93 0.62
-9 14 4 11.97 0.46
9 14 4 12 0.49
-10 14 4 4.63 0.44
10 14 4 4.34 0.53
-11 14 4 14.49 0.55
11 14 4 14.8 0.54
-12 14 4 10.64 0.58
12 14 4 10.45 0.62
-13 14 4 26.29 0.7
13 14 4 25.67 0.66
-14 14 4 15.18 0.67
14 14 4 15.53 0.73
-15 14 4 8.12 0.67
15 14 4 9.09 0.59
-16 14 4 9.09 0.94
16 14 4 9.44 0.6
-17 14 4 3.68 0.6
17 14 4 3.61 0.58
0 15 4 8.24 0.31
-1 15 4 2.18 0.3
1 15 4 2.08 0.33
-2 15 4 6.47 0.32
2 15 4 6.24 0.33
-3 15 4 5.87 0.33
3 15 4 5.84 0.34
-4 15 4 45.58 0.49
4 15 4 45.21 0.55
-5 15 4 0.92 0.43
5 15 4 0.94 0.48
-6 15 4 23.03 0.55
6 15 4 22.32 0.55
-7 15 4 19.8 0.51
7 15 4 19.51 0.56
-8 15 4 7.33 0.43
8 15 4 7.16 0.53
-9 15 4 10.67 0.49
9 15 4 11.15 0.54
-10 15 4 2.64 0.5
10 15 4 2.55 0.6
-11 15 4 3.22 0.49
11 15 4 3.3 0.52
-12 15 4 0.4 0.28
12 15 4 1.18 0.52
-13 15 4 0.88 0.5
13 15 4 0.8 0.55
-14 15 4 6.71 0.62
14 15 4 6.76 0.59
-15 15 4 5.8 0.78
15 15 4 6.54 0.67
-16 15 4 4.39 0.72
16 15 4 4.4 0.62
0 16 4 18.3 0.36
-1 16 4 4.06 0.33
1 16 4 4.3 0.39
-2 16 4 8.22 0.35
2 16 4 8 0.38
-3 16 4 4.54 0.35
3 16 4 3.96 0.34
-4 16 4 16.1 0.44
4 16 4 15.45 0.5
-5 16 4 37.54 0.64
5 16 4 38.88 0.67
-6 16 4 16.19 0.5
6 16 4 16.31 0.57
-7 16 4 0.43 0.36
7 16 4 0.39 0.33
-8 16 4 8.56 0.47
8 16 4 8.57 0.54
-9 16 4 6.89 0.53
9 16 4 6.64 0.57
-10 16 4 4.89 0.53
10 16 4 4.82 0.62
-11 16 4 13.19 0.59
11 16 4 14.16 0.64
-12 16 4 4.51 0.58
12 16 4 4.18 0.62
-13 16 4 2.99 0.72
13 16 4 2.97 0.75
-14 16 4 5.34 0.75
14 16 4 5.78 0.55
-15 16 4 5.3 1.15
15 16 4 6.15 0.56
-16 16 4 0.79 0.83
16 16 4 0.57 0.34
0 17 4 0.33 0.18
-1 17 4 4.93 0.35
1 17 4 4.84 0.37
-2 17 4 35.46 0.46
2 17 4 35.72 0.52
-3 17 4 10.84 0.37
3 17 4 10.72 0.44
-4 17 4 9.6 0.39
4 17 4 9.01 0.52
-5 17 4 6.9 0.48
5 17 4 6.71 0.52
-6 17 4 0.71 0.39
6 17 4 1 0.51
-7 17 4 0.78 0.48
7 17 4 0.27 0.37
-8 17 4 13.6 0.52
8 17 4 14.01 0.6
-9 17 4 4.49 0.52
9 17 4 4.3 0.57
-10 17 4 3.08 0.48
10 17 4 2.94 0.54
-11 17 4 10.51 0.63
11 17 4 10.34 0.6
-12 17 4 2.14 0.63
12 17 4 1.85 0.6
-13 17 4 8.57 0.91
13 17 4 9.16 0.61
-14 17 4 0.31 1.01
14 17 4 0.25 0.15
-15 17 4 7 0.89
15 17 4 7.19 0.76
0 18 4 0.22 0.14
-1 18 4 6.81 0.39
1 18 4 7.06 0.39
-2 18 4 0.61 0.32
2 18 4 0.78 0.76
-3 18 4 2.32 0.34
3 18 4 1.91 0.44
-4 18 4 2.21 0.37
4 18 4 1.84 0.53
-5 18 4 0.69 0.24
5 18 4 0.83 0.44
-6 18 4 12.51 0.56
6 18 4 12.05 0.55
-7 18 4 2.51 0.43
7 18 4 1.94 0.51
-8 18 4 1.12 0.47
8 18 4 0.6 0.29
-9 18 4 6.59 0.49
9 18 4 6.23 0.58
-10 18 4 9.85 0.57
10 18 4 10.08 0.62
-11 18 4 8.92 0.73
11 18 4 9.25 0.65
-12 18 4 1.86 1
12 18 4 1.31 0.53
-13 18 4 2.85 0.75
13 18 4 3.23 0.59
-14 18 4 3.98 0.84
14 18 4 4.56 0.51
0 19 4 0.16 0.16
-1 19 4 10.15 0.43
1 19 4 9.8 0.43
-2 19 4 5.78 0.41
2 19 4 6.34 0.42
-3 19 4 6.37 0.41
3 19 4 6.2 0.51
-4 19 4 3.62 0.39
4 19 4 3.43 0.56
-5 19 4 1.85 0.41
5 19 4 1.19 0.59
-6 19 4 8.8 0.47
6 19 4 9.36 0.59
-7 19 4 6 0.56
7 19 4 5.84 0.53
-8 19 4 3.16 0.6
8 19 4 2.6 0.61
-9 19 4 15.08 0.64
9 19 4 16.09 0.68
-10 19 4 2.12 0.6
10 19 4 2.23 0.75
-11 19 4 5.45 0.9
11 19 4 6.12 0.67
-12 19 4 3.05 1.02
12 19 4 2.51 0.61
-13 19 4 0.85 0.7
13 19 4 0.86 0.37
14 19 4 2.38 0.69
0 20 4 0.22 0.24
-1 20 4 0.35 0.22
1 20 4 0.3 0.13
-2 20 4 2.67 0.4
2 20 4 2.94 0.47
-3 20 4 6.63 0.47
3 20 4 6.3 0.48
-4 20 4 0.64 0.25
4 20 4 1.26 0.53
-5 20 4 1.37 0.48
5 20 4 0.99 0.76
-6 20 4 3.63 0.46
6 20 4 3.43 0.58
-7 20 4 2.51 0.55
7 20 4 1.9 0.66
-8 20 4 1.31 0.67
8 20 4 0.8 0.47
-9 20 4 3.18 0.58
9 20 4 2.72 0.77
-10 20 4 3.64 0.62
10 20 4 2.96 0.65
-11 20 4 6.29 0.91
11 20 4 5.67 0.57
-12 20 4 0.93 0.88
12 20 4 0.59 0.53
-13 20 4 4.63 1.49
13 20 4 3.96 0.49
0 21 4 8.07 0.45
-1 21 4 0.52 0.18
1 21 4 1.12 0.48
-2 21 4 1.07 0.4
2 21 4 0.77 0.35
-3 21 4 7.88 0.45
3 21 4 7.96 0.66
-4 21 4 8.25 0.53
4 21 4 7.84 0.54
-5 21 4 0.22 0.44
5 21 4 0.01 5.64
-6 21 4 1.16 0.6
6 21 4 1.34 0.93
-7 21 4 1.82 0.57
7 21 4 0.71 0.75
-8 21 4 0.97 0.71
8 21 4 0.78 0.8
-9 21 4 8.21 0.75
9 21 4 7.94 0.72
-10 21 4 0.48 0.51
10 21 4 0.05 0.06
-11 21 4 3.84 1.08
11 21 4 4.07 0.72
-12 21 4 1.41 1.42
12 21 4 0.85 0.62
0 22 4 0.11 0.04
-1 22 4 1.1 0.39
1 22 4 1.25 0.56
-2 22 4 3.13 0.46
2 22 4 3.24 0.5
-3 22 4 4.44 0.53
3 22 4 4.45 0.55
-4 22 4 4.02 0.51
4 22 4 3.73 0.53
-5 22 4 1.85 0.53
5 22 4 1.06 0.54
-6 22 4 3.15 0.56
6 22 4 3 0.64
-7 22 4 3.21 0.76
7 22 4 3.54 0.59
-8 22 4 0.05 0.08
8 22 4 0.9 0.72
-9 22 4 1.28 0.79
9 22 4 0.43 0.48
-10 22 4 7.05 0.72
10 22 4 7.05 0.65
-11 22 4 4.85 0.93
11 22 4 5.04 1.1
0 23 4 1.56 0.6
-1 23 4 3.19 0.47
1 23 4 2.9 0.65
-2 23 4 1.76 0.48
2 23 4 2.16 0.61
-3 23 4 4.43 0.51
3 23 4 4.31 0.53
-4 23 4 4.25 0.71
4 23 4 3.66 0.63
-5 23 4 4.86 0.62
5 23 4 3.97 0.59
-6 23 4 2.43 0.67
6 23 4 1.5 1.04
-7 23 4 2.49 0.68
7 23 4 1.93 0.61
-8 23 4 1 0.93
8 23 4 0.8 0.9
-9 23 4 1.7 1.02
9 23 4 1.99 0.77
0 24 4 5.07 0.55
-1 24 4 1.19 0.58
1 24 4 1.3 0.59
-2 24 4 0.73 0.44
2 24 4 1.11 0.77
-3 24 4 3.9 0.62
3 24 4 3.42 0.55
-4 24 4 1.9 0.54
4 24 4 2.03 0.57
-5 24 4 5.63 0.6
5 24 4 5.59 0.67
-6 24 4 1.52 0.56
6 24 4 1.58 0.55
-7 24 4 0.51 0.78
7 24 4 0.45 0.72
0 25 4 1.23 0.68
-1 25 4 0.55 1.22
1 25 4 0.37 0.65
-2 25 4 0.09 0.08
2 25 4 1.04 0.73
-3 25 4 4.72 0.56
3 25 4 4.52 0.75
-4 25 4 1.6 0.55
4 25 4 1.63 0.69
-5 25 4 3.28 0.66
5 25 4 2.83 0.56
1 0 5 31.2 1.4
2 0 5 10.23 0.78
3 0 5 153.45 1.67
4 0 5 0.04 0.07
5 0 5 23.92 0.76
6 0 5 44.69 1.01
7 0 5 20.05 0.49
8 0 5 39.97 0.56
9 0 5 3.03 0.36
10 0 5 95.92 0.65
11 0 5 5.73 0.39
12 0 5 38.44 0.51
13 0 5 55.04 0.6
14 0 5 0.9 0.4
15 0 5 0.5 0.47
16 0 5 15.39 0.59
17 0 5 3.19 0.48
18 0 5 9.22 0.57
19 0 5 0.65 0.48
20 0 5 21.76 0.69
0 1 5 9.46 1.12
-1 1 5 1.34 0.85
1 1 5 0.69 0.52
-2 1 5 37.36 1.15
2 1 5 33.41 1.56
-3 1 5 114.32 1.26
3 1 5 114.09 1.87
-4 1 5 79.8 1.36
4 1 5 68.01 3.94
-5 1 5 20.7 0.8
5 1 5 18.88 1.31
-6 1 5 5.43 0.51
6 1 5 5.68 0.53
-7 1 5 5.15 0.43
7 1 5 5.38 0.39
-8 1 5 18.64 0.42
8 1 5 19.32 0.39
-9 1 5 19.86 0.47
9 1 5 20.51 0.43
-10 1 5 4.67 0.39
10 1 5 5.06 0.35
-11 1 5 55.06 0.61
11 1 5 55.51 0.58
-12 1 5 43.99 0.6
12 1 5 44.22 0.54
-13 1 5 27.48 0.58
13 1 5 28.37 0.49
-14 1 5 21.77 0.57
14 1 5 21.59 0.59
-15 1 5 2.97 0.52
15 1 5 3.03 0.5
-16 1 5 4.21 0.49
16 1 5 4.24 0.56
-17 1 5 5.69 0.54
17 1 5 5.77 0.62
-18 1 5 2.18 0.51
18 1 5 1.99 0.49
-19 1 5 3.54 0.59
19 1 5 3 0.57
-20 1 5 11.69 0.67
20 1 5 11.1 0.59
0 2 5 0.59 0.44
-1 2 5 143.16 3.5
1 2 5 144.89 3.11
-2 2 5 9.92 0.92
2 2 5 9.62 1.28
-3 2 5 9.87 0.62
3 2 5 8.64 1.49
-4 2 5 93.66 1.53
4 2 5 77.62 4.21
-5 2 5 16.47 0.76
5 2 5 15.85 1.21
-6 2 5 2.55 0.65
6 2 5 2.88 0.42
-7 2 5 14.43 0.44
7 2 5 15.17 0.44
-8 2 5 22.47 0.42
8 2 5 22.61 0.41
-9 2 5 26.18 0.5
9 2 5 26.91 0.41
-10 2 5 27.92 0.54
10 2 5 28.18 0.45
-11 2 5 23.33 0.51
11 2 5 23.92 0.48
-12 2 5 65.64 0.68
12 2 5 66.28 0.65
-13 2 5 3.32 0.47
13 2 5 4.01 0.41
-14 2 5 13.99 0.53
14 2 5 14.32 0.46
-15 2 5 12.93 0.53
15 2 5 13.22 0.56
-16 2 5 2.4 0.53
16 2 5 2.6 0.5
-17 2 5 8.47 0.52
17 2 5 8.82 0.6
-18 2 5 11.58 0.71
18 2 5 11.08 0.62
-19 2 5 6.15 0.64
19 2 5 6.19 0.56
-20 2 5 10.75 0.59
20 2 5 10.64 0.69
0 3 5 1.16 0.53
-1 3 5 32.31 1.27
1 3 5 26.91 1.56
-2 3 5 12.22 0.97
2 3 5 11.15 1.4
-3 3 5 14.74 0.67
3 3 5 12.77 1.69
-4 3 5 130.37 1.87
4 3 5 127.64 2.29
-5 3 5 20.62 0.86
5 3 5 20.56 0.96
-6 3 5 50.72 0.72
6 3 5 51.91 0.73
-7 3 5 33.75 0.53
7 3 5 34 0.51
-8 3 5 1.05 0.44
8 3 5 1.41 0.33
-9 3 5 40.45 0.51
9 3 5 40.88 0.47
-10 3 5 31.54 0.55
10 3 5 31.69 0.49
-11 3 5 59.43 0.7
11 3 5 58.96 0.64
-12 3 5 7.94 0.44
12 3 5 8.2 0.48
-13 3 5 20.6 0.49
13 3 5 20.3 0.51
-14 3 5 23.86 0.54
14 3 5 23.99 0.61
-15 3 5 8.81 0.51
15 3 5 8.89 0.47
-16 3 5 9.46 0.53
16 3 5 9.28 0.52
-17 3 5 6.05 0.63
17 3 5 6.3 0.56
-18 3 5 7.18 0.6
18 3 5 7.12 0.56
-19 3 5 7.42 0.6
19 3 5 8.2 0.59
0 4 5 124.64 2.14
-1 4 5 59.05 1.62
1 4 5 57.77 1.63
-2 4 5 72.57 1.75
2 4 5 64.83 2.64
-3 4 5 22.37 0.68
3 4 5 17.58 1.95
-4 4 5 9.66 0.69
4 4 5 9.72 0.75
-5 4 5 47.6 1.14
5 4 5 49.93 0.7
-6 4 5 0.16 0.12
6 4 5 0.08 0.13
-7 4 5 31.41 0.48
7 4 5 31.82 0.48
-8 4 5 17.53 0.39
8 4 5 17.96 0.44
-9 4 5 1.58 0.35
9 4 5 1.4 0.34
-10 4 5 15.8 0.44
10 4 5 16.12 0.45
-11 4 5 28.19 0.5
11 4 5 28.55 0.54
-12 4 5 27.69 0.49
12 4 5 28.22 0.57
-13 4 5 18.94 0.48
13 4 5 18.59 0.5
-14 4 5 1.53 0.45
14 4 5 1.9 0.38
-15 4 5 3.67 0.5
15 4 5 3.82 0.5
-16 4 5 5.1 0.56
16 4 5 5.38 0.53
-17 4 5 6.76 0.56
17 4 5 6.75 0.53
-18 4 5 0.43 0.64
18 4 5 0.21 0.38
-19 4 5 7.33 0.63
19 4 5 6.77 0.58
0 5 5 4.63 0.89
-1 5 5 20.64 1.25
1 5 5 19.12 1.25
-2 5 5 176.89 2.73
2 5 5 172.07 2.62
-3 5 5 39.93 0.85
3 5 5 39.47 1.09
-4 5 5 68.4 1.06
4 5 5 70.03 1.4
-5 5 5 28.41 0.61
5 5 5 29.65 0.51
-6 5 5 21.47 0.58
6 5 5 22.09 0.48
-7 5 5 32.4 0.5
7 5 5 33.2 0.54
-8 5 5 5.4 0.31
8 5 5 5.31 0.39
-9 5 5 108.81 0.68
9 5 5 109.56 0.68
-10 5 5 8.57 0.35
10 5 5 8.5 0.4
-11 5 5 28.23 0.55
11 5 5 28.03 0.54
-12 5 5 17.67 0.47
12 5 5 17.64 0.47
-13 5 5 23.93 0.5
13 5 5 23.82 0.52
-14 5 5 9.34 0.48
14 5 5 9.77 0.51
-15 5 5 5.56 0.5
15 5 5 5.63 0.49
-16 5 5 0.35 0.18
16 5 5 0.58 0.41
-17 5 5 12.21 0.59
17 5 5 11.8 0.6
-18 5 5 0.33 0.22
18 5 5 0.83 0.56
-19 5 5 11.87 0.6
19 5 5 11.89 0.66
0 6 5 68.08 1.91
-1 6 5 28.09 1.4
1 6 5 27.98 1.46
-2 6 5 2.63 0.69
2 6 5 2.82 0.89
-3 6 5 19.76 0.74
3 6 5 16.12 1.45
-4 6 5 1.1 0.38
4 6 5 0.97 0.4
-5 6 5 1.28 0.32
5 6 5 1.32 0.3
-6 6 5 37.6 0.51
6 6 5 38.9 0.49
-7 6 5 1.36 0.39
7 6 5 1.29 0.34
-8 6 5 14.55 0.43
8 6 5 13.91 0.42
-9 6 5 51.59 0.52
9 6 5 51.7 0.57
-10 6 5 8.94 0.37
10 6 5 8.78 0.42
-11 6 5 31.02 0.47
11 6 5 30.62 0.55
-12 6 5 15.38 0.45
12 6 5 14.75 0.5
-13 6 5 11.93 0.48
13 6 5 11.03 0.5
-14 6 5 4.75 0.42
14 6 5 4.86 0.46
-15 6 5 9.19 0.45
15 6 5 9.13 0.48
-16 6 5 3.12 0.54
16 6 5 3.56 0.52
-17 6 5 1.44 0.58
17 6 5 1.73 0.5
-18 6 5 6.04 0.76
18 6 5 5.93 0.48
-19 6 5 15.64 0.74
19 6 5 15.85 0.76
0 7 5 73.48 2
-1 7 5 28.3 1.67
1 7 5 29.72 1.75
-2 7 5 22.93 0.52
2 7 5 23.31 0.63
-3 7 5 20.75 0.53
3 7 5 20.95 0.56
-4 7 5 55.93 0.62
4 7 5 56.89 0.58
-5 7 5 25.24 0.48
5 7 5 24.99 0.45
-6 7 5 7.39 0.36
6 7 5 7.37 0.31
-7 7 5 6.72 0.4
7 7 5 6.81 0.34
-8 7 5 1.76 0.34
8 7 5 1.75 0.39
-9 7 5 17.83 0.43
9 7 5 17.56 0.42
-10 7 5 54.33 0.55
10 7 5 53.23 0.57
-11 7 5 61.74 0.64
11 7 5 61.41 0.68
-12 7 5 12.37 0.44
12 7 5 12 0.49
-13 7 5 8.24 0.39
13 7 5 8.3 0.49
-14 7 5 1.08 0.35
14 7 5 1.46 0.52
-15 7 5 8.06 0.51
15 7 5 8.21 0.49
-16 7 5 5.96 0.46
16 7 5 6.16 0.52
-17 7 5 9.8 0.72
17 7 5 9.75 0.6
-18 7 5 13.22 0.74
18 7 5 12.49 0.76
-19 7 5 11.14 0.68
19 7 5 11.14 0.7
0 8 5 61.54 1.23
-1 8 5 7.41 0.46
1 8 5 7.16 0.52
-2 8 5 18.01 0.53
2 8 5 18.33 0.63
-3 8 5 78.97 0.63
3 8 5 78.34 0.71
-4 8 5 18.5 0.42
4 8 5 18.42 0.43
-5 8 5 44.05 0.49
5 8 5 45.26 0.51
-6 8 5 21.23 0.43
6 8 5 21.48 0.41
-7 8 5 23.54 0.45
7 8 5 23.62 0.47
-8 8 5 34.18 0.56
8 8 5 34.22 0.48
-9 8 5 3.39 0.4
9 8 5 2.49 0.39
-10 8 5 20.54 0.43
10 8 5 19.96 0.41
-11 8 5 8.72 0.39
11 8 5 8.12 0.45
-12 8 5 5.39 0.4
12 8 5 5.41 0.48
-13 8 5 9.75 0.46
13 8 5 10.52 0.48
-14 8 5 18.12 0.5
14 8 5 17.23 0.57
-15 8 5 6.51 0.51
15 8 5 6.14 0.52
-16 8 5 1.61 0.53
16 8 5 2.63 0.5
-17 8 5 12.66 0.65
17 8 5 11.83 0.5
-18 8 5 2.56 0.6
18 8 5 2.49 0.65
-19 8 5 3.1 0.7
19 8 5 3.32 0.68
0 9 5 3.21 0.4
-1 9 5 21.37 0.49
1 9 5 21.13 0.63
-2 9 5 54.81 0.54
2 9 5 54.94 0.73
-3 9 5 41.04 0.46
3 9 5 42.59 0.61
-4 9 5 86.39 0.61
4 9 5 87.31 0.68
-5 9 5 21.87 0.4
5 9 5 21.92 0.45
-6 9 5 24.65 0.44
6 9 5 24.3 0.47
-7 9 5 2.97 0.34
7 9 5 2.99 0.38
-8 9 5 0.25 0.1
8 9 5 0.34 0.34
-9 9 5 4.41 0.38
9 9 5 4.19 0.34
-10 9 5 39.68 0.5
10 9 5 38.97 0.52
-11 9 5 2.15 0.35
11 9 5 2.22 0.39
-12 9 5 9.97 0.47
12 9 5 9.79 0.45
-13 9 5 19.7 0.52
13 9 5 19.77 0.61
-14 9 5 4.43 0.46
14 9 5 3.57 0.52
-15 9 5 6.11 0.47
15 9 5 6.23 0.48
-16 9 5 2.4 0.54
16 9 5 3.03 0.52
-17 9 5 2.98 0.7
17 9 5 3.22 0.56
-18 9 5 11.29 0.92
18 9 5 10.96 0.67
0 10 5 16.56 0.39
-1 10 5 32.83 0.42
1 10 5 33.09 0.49
-2 10 5 24.72 0.4
2 10 5 25.66 0.49
-3 10 5 23.18 0.4
3 10 5 23.25 0.45
-4 10 5 3.54 0.33
4 10 5 3.55 0.34
-5 10 5 62.65 0.55
5 10 5 62.35 0.6
-6 10 5 69.42 0.6
6 10 5 69.26 0.63
-7 10 5 3.95 0.37
7 10 5 3.91 0.41
-8 10 5 44.87 0.53
8 10 5 43.62 0.58
-9 10 5 12.19 0.48
9 10 5 11.84 0.42
-10 10 5 5.13 0.4
10 10 5 4.9 0.39
-11 10 5 11.32 0.45
11 10 5 11.63 0.48
-12 10 5 31.08 0.62
12 10 5 31.26 0.64
-13 10 5 8.99 0.52
13 10 5 8.5 0.53
-14 10 5 4.67 0.58
14 10 5 5.45 0.48
-15 10 5 7.43 0.69
15 10 5 7.59 0.64
-16 10 5 12.52 0.68
16 10 5 13 0.6
-17 10 5 1.46 1.06
17 10 5 0.04 0.03
-18 10 5 0.66 0.75
18 10 5 0.58 0.36
0 11 5 0.26 0.22
-1 11 5 0.6 0.24
1 11 5 1.18 0.33
-2 11 5 25.15 0.39
2 11 5 25.11 0.45
-3 11 5 38.43 0.49
3 11 5 37.43 0.56
-4 11 5 49.19 0.54
4 11 5 48.74 0.58
-5 11 5 2.35 0.35
5 11 5 2.33 0.36
-6 11 5 26.23 0.5
6 11 5 26.11 0.49
-7 11 5 6.05 0.42
7 11 5 5.74 0.42
-8 11 5 17.39 0.47
8 11 5 17.7 0.57
-9 11 5 5.72 0.43
9 11 5 5.64 0.41
-10 11 5 15.22 0.5
10 11 5 15.18 0.43
-11 11 5 0.07 0.04
11 11 5 0.89 0.42
-12 11 5 6.45 0.54
12 11 5 7.01 0.48
-13 11 5 6.69 0.56
13 11 5 6.74 0.51
-14 11 5 0.49 0.43
14 11 5 0.16 0.27
-15 11 5 0.35 0.19
15 11 5 1.45 0.63
-16 11 5 3.44 0.53
16 11 5 3.73 0.59
-17 11 5 3.18 0.9
17 11 5 3.01 0.67
-18 11 5 8.09 1.07
18 11 5 8.16 0.71
0 12 5 71.34 0.68
-1 12 5 51.46 0.52
1 12 5 51.89 0.54
-2 12 5 11.31 0.37
2 12 5 11.41 0.39
-3 12 5 84.64 0.66
3 12 5 85.48 0.83
-4 12 5 49.12 0.51
4 12 5 49.7 0.69
-5 12 5 7.78 0.39
5 12 5 7.39 0.55
-6 12 5 10.72 0.41
6 12 5 10.48 0.6
-7 12 5 14.12 0.44
7 12 5 12.78 0.55
-8 12 5 18.6 0.49
8 12 5 17.67 0.71
-9 12 5 5.59 0.48
9 12 5 5.35 0.49
-10 12 5 5.08 0.44
10 12 5 4.69 0.43
-11 12 5 24.1 0.58
11 12 5 23.81 0.56
-12 12 5 0.33 0.28
12 12 5 0.21 0.11
-13 12 5 3.38 0.52
13 12 5 3.16 0.55
-14 12 5 10.75 0.59
14 12 5 11.02 0.54
-15 12 5 4.7 0.66
15 12 5 4.34 0.7
-16 12 5 3.44 0.61
16 12 5 4.24 0.63
-17 12 5 0.62 0.6
17 12 5 0.54 0.43
0 13 5 12.25 0.42
-1 13 5 0.73 0.41
1 13 5 0.84 0.32
-2 13 5 24.96 0.44
2 13 5 25.01 0.44
-3 13 5 4.06 0.37
3 13 5 4.32 0.41
-4 13 5 3.88 0.37
4 13 5 3.71 0.47
-5 13 5 42.17 0.53
5 13 5 42.49 0.81
-6 13 5 9.52 0.43
6 13 5 9.43 0.68
-7 13 5 3.18 0.38
7 13 5 3.35 0.56
-8 13 5 16.06 0.47
8 13 5 15.06 0.61
-9 13 5 9.64 0.52
9 13 5 9.6 0.52
-10 13 5 13.92 0.6
10 13 5 13.96 0.58
-11 13 5 2.07 0.5
11 13 5 1.33 0.38
-12 13 5 8.32 0.58
12 13 5 7.7 0.58
-13 13 5 8.2 0.54
13 13 5 7.95 0.67
-14 13 5 4.28 0.53
14 13 5 3.82 0.68
-15 13 5 2.34 0.55
15 13 5 2.73 0.66
-16 13 5 8.93 0.72
16 13 5 10.67 0.84
-17 13 5 0.13 0.2
17 13 5 0.57 0.49
0 14 5 2.94 0.4
-1 14 5 31.82 0.49
1 14 5 31.31 0.5
-2 14 5 9.74 0.4
2 14 5 10.64 0.41
-3 14 5 35.36 0.51
3 14 5 36.71 0.59
-4 14 5 0.73 0.4
4 14 5 0.37 0.38
-5 14 5 67.1 0.66
5 14 5 67.25 0.83
-6 14 5 11.45 0.45
6 14 5 10.94 0.62
-7 14 5 5.46 0.4
7 14 5 5.05 0.57
-8 14 5 5.46 0.45
8 14 5 5.44 0.54
-9 14 5 3 0.51
9 14 5 3.28 0.54
-10 14 5 5.86 0.49
10 14 5 5.65 0.92
-11 14 5 5.02 0.56
11 14 5 4.74 0.53
-12 14 5 21.52 0.66
12 14 5 21.34 0.75
-13 14 5 0.73 0.64
13 14 5 0.22 0.4
-14 14 5 7.23 0.61
14 14 5 7.9 0.71
-15 14 5 0.36 0.37
15 14 5 0.34 0.28
-16 14 5 7.02 0.61
16 14 5 7.65 0.64
0 15 5 21.37 0.48
-1 15 5 22.89 0.46
1 15 5 23.82 0.51
-2 15 5 32.07 0.51
2 15 5 32.3 0.53
-3 15 5 24.49 0.48
3 15 5 24.96 0.53
-4 15 5 6.74 0.43
4 15 5 6.38 0.43
-5 15 5 2.12 0.42
5 15 5 2.17 0.5
-6 15 5 11.04 0.47
6 15 5 10.85 0.62
-7 15 5 15.85 0.51
7 15 5 15.9 0.7
-8 15 5 32.87 0.66
8 15 5 32.72 0.77
-9 15 5 4.68 0.58
9 15 5 4.08 0.54
-10 15 5 8.93 0.56
10 15 5 8.58 0.73
-11 15 5 0.1 0.06
11 15 5 0.19 0.24
-12 15 5 9.04 0.65
12 15 5 8.95 0.65
-13 15 5 0.76 0.57
13 15 5 1.4 1.25
-14 15 5 1.69 0.6
14 15 5 1.85 0.53
-15 15 5 0.12 0.17
15 15 5 1.01 0.75
-16 15 5 2.45 1.42
16 15 5 2.98 0.7
0 16 5 4.52 0.4
-1 16 5 0.7 0.42
1 16 5 0.68 0.43
-2 16 5 24.7 0.46
2 16 5 23.9 0.55
-3 16 5 29.79 0.54
3 16 5 29.51 0.53
-4 16 5 12.22 0.52
4 16 5 12.56 0.44
-5 16 5 6.82 0.44
5 16 5 6.82 0.68
-6 16 5 4.49 0.5
6 16 5 4.32 0.59
-7 16 5 9.27 0.54
7 16 5 8.64 0.6
-8 16 5 8.27 0.55
8 16 5 7.35 0.62
-9 16 5 4.78 0.61
9 16 5 4.22 0.58
-10 16 5 15.4 0.6
10 16 5 15.24 0.69
-11 16 5 8.1 0.7
11 16 5 8.15 0.6
-12 16 5 5.35 0.64
12 16 5 5.43 0.69
-13 16 5 1.48 0.68
13 16 5 1.8 0.59
-14 16 5 0.43 0.35
14 16 5 0.85 0.48
-15 16 5 1.8 0.85
15 16 5 2.38 0.71
0 17 5 116.51 0.83
-1 17 5 0.6 0.24
1 17 5 1 0.36
-2 17 5 17.23 0.48
2 17 5 17.96 0.58
-3 17 5 2.34 0.4
3 17 5 1.95 0.42
-4 17 5 1.46 0.5
4 17 5 1.35 0.44
-5 17 5 3.58 0.52
5 17 5 3.15 0.65
-6 17 5 2.58 0.46
6 17 5 2.87 0.61
-7 17 5 7.51 0.64
7 17 5 7.6 0.63
-8 17 5 15.75 0.63
8 17 5 15.66 0.7
-9 17 5 5.58 0.63
9 17 5 5.02 0.67
-10 17 5 31.43 0.7
10 17 5 31.98 1.02
-11 17 5 5.2 0.6
11 17 5 5.91 0.63
-12 17 5 0.13 0.24
12 17 5 0.39 0.52
-13 17 5 4.39 0.9
13 17 5 4.55 0.67
-14 17 5 2.2 0.72
14 17 5 2.75 0.61
0 18 5 11.54 0.49
-1 18 5 12.86 0.51
1 18 5 13.46 0.54
-2 18 5 14.45 0.48
2 18 5 14.51 0.53
-3 18 5 3.2 0.45
3 18 5 3.35 0.54
-4 18 5 2.56 0.46
4 18 5 2.7 0.51
-5 18 5 8.61 0.48
5 18 5 7.84 0.71
-6 18 5 5.1 0.48
6 18 5 5.05 0.59
-7 18 5 3.9 0.53
7 18 5 3.93 0.62
-8 18 5 1.37 0.41
8 18 5 1.49 0.57
-9 18 5 7.98 0.56
9 18 5 7.91 0.68
-10 18 5 11.15 0.58
10 18 5 10.72 0.59
-11 18 5 3.81 0.75
11 18 5 3.7 0.63
-12 18 5 6.8 0.82
12 18 5 6.69 0.81
-13 18 5 1.67 0.97
13 18 5 0.25 0.19
-14 18 5 0 0.01
14 18 5 0.29 0.28
0 19 5 15.53 0.59
-1 19 5 17.74 0.59
1 19 5 17.11 0.59
-2 19 5 38.87 0.65
2 19 5 38.93 0.66
-3 19 5 10.81 0.5
3 19 5 10.91 0.63
-4 19 5 2.32 0.42
4 19 5 1.45 0.69
-5 19 5 0.19 0.13
5 19 5 0.49 0.46
-6 19 5 11.12 0.49
6 19 5 10.8 0.64
-7 19 5 3.74 0.53
7 19 5 4.45 0.68
-8 19 5 21.6 0.58
8 19 5 20.32 0.78
-9 19 5 9.08 0.61
9 19 5 7.87 0.85
-10 19 5 1.49 1.09
10 19 5 1.27 0.58
-11 19 5 1 0.92
11 19 5 0.74 0.55
-12 19 5 0.54 0.68
12 19 5 0.2 0.44
-13 19 5 1.28 0.83
13 19 5 1.72 0.59
0 20 5 3.49 0.51
-1 20 5 6.61 0.5
1 20 5 7.15 0.52
-2 20 5 0.68 0.41
2 20 5 0.93 0.61
-3 20 5 8.78 0.55
3 20 5 9.09 0.57
-4 20 5 1.47 0.5
4 20 5 1.47 0.46
-5 20 5 4.05 0.48
5 20 5 4.22 0.54
-6 20 5 0.46 0.29
6 20 5 0.83 0.98
-7 20 5 8.65 0.53
7 20 5 8.91 0.69
-8 20 5 5.73 0.69
8 20 5 5.91 0.8
-9 20 5 2.3 0.64
9 20 5 2.41 0.65
-10 20 5 6.52 0.68
10 20 5 5.47 0.76
-11 20 5 9.69 0.88
11 20 5 8.22 0.65
-12 20 5 0.55 0.84
12 20 5 0.89 0.75
0 21 5 17.68 0.64
-1 21 5 8.3 0.54
1 21 5 8.08 0.71
-2 21 5 2.12 0.55
2 21 5 2.11 0.54
-3 21 5 2.09 0.51
3 21 5 2.45 0.85
-4 21 5 2.46 0.56
4 21 5 1.94 0.73
-5 21 5 11.25 0.66
5 21 5 11.02 0.71
-6 21 5 4.98 0.55
6 21 5 5.25 0.82
-7 21 5 2.32 0.71
7 21 5 2.26 0.76
-8 21 5 4.22 0.98
8 21 5 5.44 0.66
-9 21 5 4.79 0.62
9 21 5 5.1 1.29
-10 21 5 5.88 0.8
10 21 5 5.57 0.6
-11 21 5 4.09 0.65
11 21 5 3.85 0.56
0 22 5 0.89 0.57
-1 22 5 19.14 0.56
1 22 5 19.21 0.69
-2 22 5 5.65 0.5
2 22 5 5.47 0.81
-3 22 5 10.33 0.57
3 22 5 10.21 0.72
-4 22 5 1.9 0.61
4 22 5 1.24 0.62
-5 22 5 7.23 0.65
5 22 5 6.95 0.67
-6 22 5 2.28 0.67
6 22 5 2.39 0.88
-7 22 5 3.16 0.72
7 22 5 2.7 0.79
-8 22 5 0.85 0.74
8 22 5 1.28 0.57
-9 22 5 4.68 0.71
9 22 5 5.12 0.83
0 23 5 5.45 0.61
-1 23 5 1.77 0.6
1 23 5 1.55 0.45
-2 23 5 3.3 0.59
2 23 5 4.01 0.67
-3 23 5 7.56 0.5
3 23 5 7.71 0.79
-4 23 5 5.29 0.73
4 23 5 4.8 0.61
-5 23 5 0.58 0.47
5 23 5 0.72 1.03
-6 23 5 0.51 0.38
6 23 5 0.01 0.11
-7 23 5 1.32 0.65
7 23 5 1.37 0.87
-8 23 5 7.19 0.79
8 23 5 5.9 0.92
0 24 5 0.12 0.21
-1 24 5 3.32 0.53
1 24 5 3.48 0.52
-2 24 5 3.06 0.6
2 24 5 2.68 0.57
-3 24 5 2.04 0.53
3 24 5 2.04 0.55
-4 24 5 1.11 0.49
4 24 5 0.9 0.51
-5 24 5 6.91 0.64
5 24 5 7.43 0.74
-6 24 5 6.71 0.68
6 24 5 6.39 0.62
0 25 5 1.19 0.56
-1 25 5 0.68 0.85
1 25 5 0.42 0.79
-2 25 5 0.25 0.22
2 25 5 0.69 0.42
0 0 6 43.26 3.22
1 0 6 43.22 3.13
2 0 6 67.24 0.97
3 0 6 130.78 1
4 0 6 20.47 0.54
5 0 6 375.77 1.21
6 0 6 20.89 0.43
7 0 6 39.68 0.58
8 0 6 6.5 0.42
9 0 6 4.68 0.41
10 0 6 0.45 0.4
11 0 6 0.19 0.17
12 0 6 9.79 0.49
13 0 6 15.14 0.56
14 0 6 0.17 0.15
15 0 6 10.5 0.59
16 0 6 34.44 0.72
17 0 6 2.27 0.62
18 0 6 7.3 0.63
19 0 6 0.51 0.42
0 1 6 6.22 1.78
-1 1 6 7.2 1.88
1 1 6 5.26 3.37
-2 1 6 54.61 0.78
2 1 6 54.81 0.77
-3 1 6 34.62 0.59
3 1 6 33.97 0.66
-4 1 6 1.46 0.43
4 1 6 1.1 0.6
-5 1 6 14.81 0.37
5 1 6 14.78 0.43
-6 1 6 60.37 0.59
6 1 6 60.9 0.64
-7 1 6 58.89 0.66
7 1 6 59.1 0.57
-8 1 6 42.07 0.64
8 1 6 42.13 0.53
-9 1 6 22.19 0.51
9 1 6 22.07 0.48
-10 1 6 3.14 0.45
10 1 6 3.15 0.39
-11 1 6 2.28 0.42
11 1 6 1.88 0.41
-12 1 6 10.58 0.48
12 1 6 10.09 0.44
-13 1 6 0.4 0.44
13 1 6 0.69 0.69
-14 1 6 32.39 0.65
14 1 6 32.51 0.69
-15 1 6 4.28 0.55
15 1 6 4.81 0.56
-16 1 6 6.72 0.61
16 1 6 6.79 0.61
-17 1 6 1.4 0.6
17 1 6 1.19 0.56
-18 1 6 0.51 0.42
18 1 6 0.21 0.11
-19 1 6 1.98 0.6
19 1 6 2.03 0.59
0 2 6 7.57 2.44
-1 2 6 54.05 1.05
1 2 6 54.64 1.21
-2 2 6 36.39 0.7
2 2 6 37.33 0.67
-3 2 6 204.91 1.03
3 2 6 208.91 1.35
-4 2 6 104.58 0.8
4 2 6 103.48 1.02
-5 2 6 64.47 0.59
5 2 6 64.88 0.73
-6 2 6 54.19 0.58
6 2 6 54.17 0.55
-7 2 6 45.95 0.62
7 2 6 45.37 0.57
-8 2 6 1.25 0.46
8 2 6 1.23 0.42
-9 2 6 5.31 0.46
9 2 6 4.79 0.41
-10 2 6 0.64 0.67
10 2 6 0.66 0.46
-11 2 6 14.97 0.59
11 2 6 14.61 0.46
-12 2 6 9.41 0.69
12 2 6 9.48 0.45
-13 2 6 32.38 0.59
13 2 6 32.53 0.65
-14 2 6 9.29 0.51
14 2 6 9.35 0.52
-15 2 6 1.57 0.47
15 2 6 1.58 0.41
-16 2 6 4.39 0.61
16 2 6 5 0.56
-17 2 6 2.27 0.59
17 2 6 2.31 0.54
-18 2 6 2.15 0.6
18 2 6 2.13 0.53
-19 2 6 2.2 0.52
19 2 6 2.31 0.52
0 3 6 139.55 1.54
-1 3 6 1.01 0.28
1 3 6 1.43 0.52
-2 3 6 38.41 0.6
2 3 6 39.13 0.69
-3 3 6 3.63 0.46
3 3 6 3.93 0.36
-4 3 6 76.41 0.7
4 3 6 76.07 0.67
-5 3 6 15.23 0.45
5 3 6 14.62 0.44
-6 3 6 72.35 0.65
6 3 6 71.55 0.71
-7 3 6 0.15 0.25
7 3 6 0.36 0.32
-8 3 6 3.06 0.42
8 3 6 3.55 0.45
-9 3 6 2.42 0.43
9 3 6 2.36 0.42
-10 3 6 33.73 0.66
10 3 6 34.31 0.51
-11 3 6 10.26 0.56
11 3 6 9.9 0.47
-12 3 6 5.25 0.46
12 3 6 5.69 0.5
-13 3 6 11.13 0.63
13 3 6 11.49 0.55
-14 3 6 21.39 0.64
14 3 6 21.79 0.66
-15 3 6 11.3 0.58
15 3 6 11.27 0.55
-16 3 6 6.79 0.57
16 3 6 6.36 0.56
-17 3 6 0.01 0.01
17 3 6 0.64 0.56
-18 3 6 1.28 0.58
18 3 6 1.33 0.47
-19 3 6 10.12 0.65
19 3 6 10.25 0.65
0 4 6 6.93 0.48
-1 4 6 42.89 0.67
1 4 6 43.24 0.68
-2 4 6 68.18 0.88
2 4 6 67.44 0.71
-3 4 6 37.52 0.68
3 4 6 38.2 0.62
-4 4 6 31.51 0.55
4 4 6 31.75 0.53
-5 4 6 75.24 0.7
5 4 6 75.07 0.67
-6 4 6 22.47 0.46
6 4 6 22.11 0.54
-7 4 6 0.4 0.3
7 4 6 0.39 0.5
-8 4 6 17.86 0.46
8 4 6 18.14 0.5
-9 4 6 7.28 0.44
9 4 6 7.24 0.41
-10 4 6 13.25 0.51
10 4 6 13.22 0.46
-11 4 6 14.22 0.5
11 4 6 14.97 0.58
-12 4 6 5.09 0.49
12 4 6 5.63 0.51
-13 4 6 18.83 0.58
13 4 6 19.16 0.58
-14 4 6 0.46 0.45
14 4 6 0.6 0.49
-15 4 6 1.53 0.48
15 4 6 2.24 0.48
-16 4 6 13.52 0.75
16 4 6 13.35 0.67
-17 4 6 6.92 0.52
17 4 6 6.75 0.63
-18 4 6 9.15 0.62
18 4 6 9.43 0.56
-19 4 6 0.17 0.13
19 4 6 0.52 0.68
0 5 6 3.69 0.49
-1 5 6 13.76 0.48
1 5 6 14.23 0.48
-2 5 6 124.27 0.84
2 5 6 125.92 0.9
-3 5 6 48.74 0.58
3 5 6 49.24 0.59
-4 5 6 98.43 0.9
4 5 6 98.33 0.74
-5 5 6 26.49 0.51
5 5 6 26.94 0.45
-6 5 6 127.2 0.81
6 5 6 128.3 1.03
-7 5 6 15.95 0.43
7 5 6 15.34 0.51
-8 5 6 63 0.59
8 5 6 62.23 0.75
-9 5 6 14.75 0.51
9 5 6 14.38 0.5
-10 5 6 6.26 0.44
10 5 6 5.75 0.47
-11 5 6 15.88 0.53
11 5 6 15.71 0.68
-12 5 6 5.49 0.51
12 5 6 5.88 0.57
-13 5 6 4.12 0.55
13 5 6 4.05 0.52
-14 5 6 8.57 0.61
14 5 6 9.23 0.51
-15 5 6 0.54 0.39
15 5 6 0.3 0.23
-16 5 6 3.47 0.5
16 5 6 3.08 0.53
-17 5 6 1.25 0.56
17 5 6 0.54 0.21
-18 5 6 0.68 0.39
18 5 6 0.98 0.49
0 6 6 0.17 0.23
-1 6 6 36.02 0.6
1 6 6 36.28 0.6
-2 6 6 16.57 0.45
2 6 6 16.81 0.51
-3 6 6 57.16 0.63
3 6 6 58.23 0.64
-4 6 6 24.17 0.52
4 6 6 24.04 0.46
-5 6 6 16.88 0.52
5 6 6 16.71 0.42
-6 6 6 46.01 0.58
6 6 6 45.3 0.58
-7 6 6 11.2 0.38
7 6 6 10.63 0.45
-8 6 6 18.83 0.44
8 6 6 18.42 0.59
-9 6 6 12.83 0.48
9 6 6 12.45 0.52
-10 6 6 3.24 0.48
10 6 6 2.88 0.45
-11 6 6 5.75 0.5
11 6 6 6.13 0.52
-12 6 6 2.05 0.5
12 6 6 1.93 0.57
-13 6 6 16.76 0.71
13 6 6 18.01 0.71
-14 6 6 1.03 0.3
14 6 6 1.29 0.55
-15 6 6 3.62 0.55
15 6 6 3.74 0.64
-16 6 6 2.45 0.5
16 6 6 2.25 0.52
-17 6 6 12.47 0.69
17 6 6 12.58 0.63
-18 6 6 1.22 0.57
18 6 6 1.21 0.72
0 7 6 96.76 0.97
-1 7 6 38.93 0.6
1 7 6 40.07 0.64
-2 7 6 48.8 0.62
2 7 6 49.26 0.68
-3 7 6 48.37 0.59
3 7 6 47.81 0.54
-4 7 6 67.84 0.68
4 7 6 67.44 0.6
-5 7 6 25.85 0.55
5 7 6 26.61 0.44
-6 7 6 36.18 0.56
6 7 6 36.09 0.57
-7 7 6 5.29 0.44
7 7 6 5.27 0.49
-8 7 6 7.8 0.38
8 7 6 7.52 0.56
-9 7 6 0.53 0.31
9 7 6 0.56 0.5
-10 7 6 36.47 0.6
10 7 6 36.32 0.76
-11 7 6 60.74 0.73
11 7 6 59.42 0.88
-12 7 6 5.38 0.56
12 7 6 5.66 0.64
-13 7 6 26.48 0.58
13 7 6 25.32 0.79
-14 7 6 22.09 0.57
14 7 6 22.1 0.66
-15 7 6 8.06 0.6
15 7 6 8.05 0.58
-16 7 6 4.94 0.57
16 7 6 5.14 0.68
-17 7 6 1.06 0.41
17 7 6 1.68 0.61
-18 7 6 0.14 0.09
18 7 6 1.14 0.44
0 8 6 13.28 0.51
-1 8 6 46.33 0.61
1 8 6 45.89 0.65
-2 8 6 18.97 0.45
2 8 6 19.56 0.47
-3 8 6 16.81 0.44
3 8 6 16.67 0.53
-4 8 6 4.06 0.39
4 8 6 4.03 0.35
-5 8 6 48.8 0.67
5 8 6 49.23 0.53
-6 8 6 5.35 0.39
6 8 6 5.31 0.38
-7 8 6 13.39 0.5
7 8 6 13.53 0.56
-8 8 6 7.99 0.43
8 8 6 7.65 0.63
-9 8 6 24.95 0.56
9 8 6 24.36 0.59
-10 8 6 1.66 0.47
10 8 6 1.31 0.47
-11 8 6 0.18 0.13
11 8 6 0.26 0.77
-12 8 6 4.49 0.45
12 8 6 4.81 0.64
-13 8 6 6.98 0.47
13 8 6 6.81 0.59
-14 8 6 0.23 0.11
14 8 6 0.88 0.55
-15 8 6 5.53 0.52
15 8 6 6.34 0.59
-16 8 6 3.04 0.61
16 8 6 3.84 0.53
-17 8 6 4.24 0.62
17 8 6 4.87 0.56
-18 8 6 9 0.6
18 8 6 9.61 0.6
0 9 6 14.56 0.46
-1 9 6 0.79 0.52
1 9 6 0.26 0.28
-2 9 6 59.57 0.6
2 9 6 59.75 0.68
-3 9 6 33.71 0.53
3 9 6 34.44 0.56
-4 9 6 5.54 0.4
4 9 6 5.78 0.43
-5 9 6 10.46 0.45
5 9 6 10.41 0.39
-6 9 6 9.7 0.44
6 9 6 9.48 0.39
-7 9 6 24.31 0.49
7 9 6 23.64 0.56
-8 9 6 23.93 0.51
8 9 6 23.42 0.64
-9 9 6 48.93 0.64
9 9 6 49.21 0.73
-10 9 6 17.17 0.51
10 9 6 16.22 0.59
-11 9 6 24.27 0.62
11 9 6 23.21 0.71
-12 9 6 23.26 0.65
12 9 6 24.05 0.68
-13 9 6 12.89 0.57
13 9 6 12.92 0.63
-14 9 6 1.09 0.5
14 9 6 1.43 0.61
-15 9 6 5.14 0.63
15 9 6 6.11 0.63
-16 9 6 1.62 0.59
16 9 6 1.64 0.46
-17 9 6 3.17 0.82
17 9 6 3.37 0.61
0 10 6 0.08 0.13
-1 10 6 34.05 0.49
1 10 6 34.7 0.57
-2 10 6 11.21 0.39
2 10 6 11.25 0.48
-3 10 6 21.28 0.48
3 10 6 21.55 0.52
-4 10 6 7.88 0.42
4 10 6 8.04 0.43
-5 10 6 27.51 0.54
5 10 6 27.53 0.48
-6 10 6 4.42 0.43
6 10 6 4.68 0.37
-7 10 6 19.2 0.48
7 10 6 19.19 0.49
-8 10 6 3.14 0.43
8 10 6 2.89 0.48
-9 10 6 17.27 0.54
9 10 6 16.5 0.6
-10 10 6 12.43 0.5
10 10 6 12.83 0.56
-11 10 6 9.5 0.56
11 10 6 9.11 0.52
-12 10 6 2.49 0.51
12 10 6 2.64 0.5
-13 10 6 9.42 0.62
13 10 6 10.93 0.54
-14 10 6 0.41 0.16
14 10 6 0.36 0.38
-15 10 6 6.22 0.74
15 10 6 6.77 0.62
-16 10 6 6.77 0.79
16 10 6 7.84 0.61
-17 10 6 14.88 0.84
17 10 6 14.08 0.83
0 11 6 1.07 0.38
-1 11 6 15.9 0.44
1 11 6 15.72 0.45
-2 11 6 2.49 0.35
2 11 6 2.53 0.41
-3 11 6 6.98 0.36
3 11 6 6.79 0.43
-4 11 6 22.27 0.53
4 11 6 22.64 0.55
-5 11 6 28.44 0.56
5 11 6 28.92 0.56
-6 11 6 10.19 0.47
6 11 6 10.43 0.47
-7 11 6 9.66 0.48
7 11 6 10.12 0.45
-8 11 6 2.52 0.44
8 11 6 2.05 0.48
-9 11 6 6.01 0.59
9 11 6 6.48 0.46
-10 11 6 3.2 0.52
10 11 6 2.5 0.48
-11 11 6 33.42 0.74
11 11 6 33.22 0.71
-12 11 6 3.5 0.53
12 11 6 3.16 0.52
-13 11 6 5.6 0.55
13 11 6 5.74 0.57
-14 11 6 6.92 0.69
14 11 6 7.23 0.73
-15 11 6 4.68 0.61
15 11 6 4.43 0.83
-16 11 6 7.63 0.72
16 11 6 7.87 0.66
-17 11 6 1.39 0.79
17 11 6 1.85 0.7
0 12 6 4.51 0.37
-1 12 6 53.94 0.61
1 12 6 54.38 0.58
-2 12 6 9.16 0.41
2 12 6 9.68 0.41
-3 12 6 30.97 0.5
3 12 6 31.64 0.59
-4 12 6 29.68 0.51
4 12 6 30.46 0.61
-5 12 6 26.51 0.5
5 12 6 26.75 0.58
-6 12 6 0.83 0.34
6 12 6 0.45 0.42
-7 12 6 15.26 0.5
7 12 6 15.64 0.7
-8 12 6 8.65 0.44
8 12 6 8.26 0.5
-9 12 6 20.27 0.67
9 12 6 20.12 0.61
-10 12 6 9.63 0.52
10 12 6 8.6 0.62
-11 12 6 0.75 0.54
11 12 6 0.37 0.45
-12 12 6 13.33 0.59
12 12 6 12.8 0.66
-13 12 6 0.65 0.41
13 12 6 1 0.57
-14 12 6 16.47 0.58
14 12 6 16.24 0.74
-15 12 6 0.47 0.52
15 12 6 0.09 0.07
-16 12 6 1.97 0.93
16 12 6 3.38 0.75
0 13 6 15.72 0.43
-1 13 6 6.03 0.41
1 13 6 5.31 0.41
-2 13 6 0.88 0.39
2 13 6 0.42 0.32
-3 13 6 44.74 0.55
3 13 6 43.6 0.83
-4 13 6 2.76 0.36
4 13 6 2.58 0.56
-5 13 6 16.98 0.49
5 13 6 17.39 0.67
-6 13 6 0.13 0.13
6 13 6 0.27 0.47
-7 13 6 24.07 0.51
7 13 6 23.53 0.73
-8 13 6 11.64 0.46
8 13 6 11.24 1
-9 13 6 1.64 0.6
9 13 6 1.65 0.64
-10 13 6 4.33 0.47
10 13 6 3.27 0.56
-11 13 6 1.57 0.44
11 13 6 2.35 0.67
-12 13 6 3.47 0.55
12 13 6 3.64 0.74
-13 13 6 7.23 0.62
13 13 6 7.06 1.09
-14 13 6 2.28 0.6
14 13 6 2.38 0.57
-15 13 6 4.2 0.66
15 13 6 4.79 0.72
-16 13 6 2.06 0.64
16 13 6 2.55 0.71
0 14 6 20.98 0.46
-1 14 6 35.13 0.54
1 14 6 34.21 0.54
-2 14 6 4.12 0.4
2 14 6 3.94 0.48
-3 14 6 8.83 0.43
3 14 6 8.9 0.51
-4 14 6 1.72 0.36
4 14 6 1.65 0.54
-5 14 6 5.34 0.45
5 14 6 4.82 0.65
-6 14 6 13.65 0.49
6 14 6 14.19 0.76
-7 14 6 4.13 0.47
7 14 6 3.85 0.52
-8 14 6 15.7 0.58
8 14 6 15.62 0.75
-9 14 6 23.37 0.61
9 14 6 23.95 0.71
-10 14 6 21.58 0.68
10 14 6 21.72 0.72
-11 14 6 8.81 0.6
11 14 6 8.13 0.58
-12 14 6 5.63 0.58
12 14 6 6.33 1.47
-13 14 6 2.15 0.58
13 14 6 2.55 0.7
-14 14 6 0.74 0.6
14 14 6 1.04 1.03
-15 14 6 3.86 0.65
15 14 6 4.12 0.64
0 15 6 0.09 0.07
-1 15 6 12.08 0.47
1 15 6 11.62 0.49
-2 15 6 11.81 0.42
2 15 6 11.5 0.48
-3 15 6 3.91 0.38
3 15 6 4.3 0.47
-4 15 6 3.37 0.38
4 15 6 3.7 0.5
-5 15 6 6.64 0.44
5 15 6 6.36 0.75
-6 15 6 10.46 0.51
6 15 6 10.82 0.69
-7 15 6 22.36 0.59
7 15 6 21.91 0.74
-8 15 6 2.41 0.51
8 15 6 2.06 0.52
-9 15 6 4.66 0.62
9 15 6 4.49 0.58
-10 15 6 4.44 0.63
10 15 6 4.5 0.67
-11 15 6 4.34 0.67
11 15 6 4.46 0.74
-12 15 6 3.12 0.68
12 15 6 2.56 1.07
-13 15 6 6.8 0.74
13 15 6 6.71 0.91
-14 15 6 0.65 0.47
14 15 6 0.57 0.47
-15 15 6 8.18 0.75
15 15 6 8.55 0.73
0 16 6 0.66 0.2
-1 16 6 2.81 0.39
1 16 6 2.9 0.41
-2 16 6 1.53 0.35
2 16 6 1.42 0.5
-3 16 6 3.43 0.42
3 16 6 3.02 0.56
-4 16 6 3.48 0.42
4 16 6 3.03 0.5
-5 16 6 12.37 0.53
5 16 6 12.84 0.71
-6 16 6 0.09 0.07
6 16 6 0.39 0.54
-7 16 6 7.42 0.47
7 16 6 7.84 0.58
-8 16 6 23.2 0.65
8 16 6 23.98 0.79
-9 16 6 9.22 0.72
9 16 6 9.04 0.7
-10 16 6 7.72 0.68
10 16 6 7.56 0.83
-11 16 6 0.4 0.35
11 16 6 1.09 0.65
-12 16 6 2.71 0.6
12 16 6 2.19 0.73
-13 16 6 1.26 1.08
13 16 6 1.61 0.74
-14 16 6 1.4 0.58
14 16 6 1.61 0.9
0 17 6 3.83 0.45
-1 17 6 1.81 0.44
1 17 6 1.23 0.45
-2 17 6 0.6 0.35
2 17 6 0.79 0.45
-3 17 6 0.11 0.27
3 17 6 0.14 0.2
-4 17 6 0.48 0.36
4 17 6 0.1 0.25
-5 17 6 16.67 0.58
5 17 6 16.28 0.79
-6 17 6 1.35 0.32
6 17 6 2.16 0.55
-7 17 6 13.63 0.6
7 17 6 13.7 0.61
-8 17 6 0.72 0.55
8 17 6 1.16 0.45
-9 17 6 1.78 0.57
9 17 6 2.06 0.64
-10 17 6 5.68 0.62
10 17 6 5.96 0.72
-11 17 6 4.4 0.7
11 17 6 3.75 0.62
-12 17 6 0.66 1.01
12 17 6 0.38 0.24
-13 17 6 11.74 0.68
13 17 6 11.94 0.78
0 18 6 12.74 0.71
-1 18 6 0.09 0.13
1 18 6 0.09 0.17
-2 18 6 9.42 0.48
2 18 6 8.93 0.59
-3 18 6 9.59 0.45
3 18 6 8.89 0.66
-4 18 6 2.73 0.41
4 18 6 2.6 0.85
-5 18 6 2.35 0.42
5 18 6 2.55 0.66
-6 18 6 3.51 0.49
6 18 6 3.73 0.53
-7 18 6 4.16 0.5
7 18 6 4.02 0.57
-8 18 6 5.59 0.52
8 18 6 5.43 0.53
-9 18 6 3.47 0.55
9 18 6 3.45 0.96
-10 18 6 0.89 0.23
10 18 6 1.05 0.44
-11 18 6 1.75 0.49
11 18 6 1.38 0.76
-12 18 6 2.03 0.67
12 18 6 1.74 0.67
0 19 6 2.14 0.5
-1 19 6 12.52 0.58
1 19 6 12.5 0.52
-2 19 6 7.77 0.56
2 19 6 7.55 0.49
-3 19 6 1.94 0.4
3 19 6 2.21 0.56
-4 19 6 1.54 0.48
4 19 6 2.03 0.6
-5 19 6 7.99 0.49
5 19 6 8.56 0.7
-6 19 6 7.4 0.51
6 19 6 6.8 0.67
-7 19 6 16.9 0.68
7 19 6 17.8 0.77
-8 19 6 0.8 0.45
8 19 6 0.14 0.1
-9 19 6 8.4 0.53
9 19 6 9.08 1.04
-10 19 6 1.88 0.57
10 19 6 1.38 0.5
-11 19 6 0.03 0.03
11 19 6 0.02 0.05
0 20 6 2.19 0.54
-1 20 6 5.84 0.6
1 20 6 5.55 0.53
-2 20 6 2.24 0.64
2 20 6 2.68 0.51
-3 20 6 5.8 0.53
3 20 6 6.59 0.59
-4 20 6 2.6 0.57
4 20 6 3.13 0.65
-5 20 6 9.17 0.51
5 20 6 9.66 0.64
-6 20 6 5.43 0.44
6 20 6 5.28 0.58
-7 20 6 0.25 0.17
7 20 6 0.15 0.12
-8 20 6 4.82 0.51
8 20 6 5.06 0.79
-9 20 6 6.08 0.56
9 20 6 6.45 1.02
-10 20 6 1.71 0.62
10 20 6 1.49 0.56
0 21 6 4.38 0.5
-1 21 6 0.44 0.34
1 21 6 0.04 0.12
-2 21 6 5.49 0.54
2 21 6 5.52 0.72
-3 21 6 5.92 0.58
3 21 6 6.11 0.6
-4 21 6 0.99 0.46
4 21 6 0.99 0.42
-5 21 6 3.3 0.61
5 21 6 3.27 0.56
-6 21 6 4.37 0.57
6 21 6 5.21 0.8
-7 21 6 11.89 0.57
7 21 6 12.67 0.71
-8 21 6 0.43 0.31
8 21 6 0.74 0.5
-9 21 6 1.21 0.7
9 21 6 1.29 0.65
0 22 6 11.11 0.85
-1 22 6 1.06 0.49
1 22 6 1.32 0.51
-2 22 6 0.75 0.5
2 22 6 0.93 0.58
-3 22 6 0.55 0.36
3 22 6 0.29 0.23
-4 22 6 11.74 0.61
4 22 6 11.92 0.87
-5 22 6 1.1 0.38
5 22 6 1.21 0.68
-6 22 6 1.58 0.76
6 22 6 0.94 0.6
-7 22 6 1.59 0.72
7 22 6 1.47 0.68
-8 22 6 2.28 0.56
8 22 6 2.19 0.65
0 23 6 1.12 0.54
-1 23 6 1.66 0.53
1 23 6 1.4 0.57
-2 23 6 4.08 0.78
2 23 6 3.84 0.63
-3 23 6 0.61 0.56
3 23 6 0.4 0.67
-4 23 6 0.68 0.89
4 23 6 1.1 0.85
-5 23 6 0.75 0.54
5 23 6 1.05 0.65
0 24 6 0.11 0.64
-1 24 6 1.37 0.5
1 24 6 1.44 0.59
-2 24 6 0.6 0.47
2 24 6 0.59 0.75
1 0 7 31.64 0.51
2 0 7 27.88 0.54
3 0 7 2.21 0.4
4 0 7 0.09 0.07
5 0 7 3.63 0.39
6 0 7 0.72 0.4
7 0 7 47.12 0.61
8 0 7 46.65 0.66
9 0 7 47.42 0.75
10 0 7 81.55 0.91
11 0 7 34.23 0.71
12 0 7 14.7 0.59
13 0 7 1.62 0.55
14 0 7 1.7 0.71
15 0 7 1.62 0.75
16 0 7 15.4 0.76
17 0 7 2.54 0.66
18 0 7 14.44 0.82
0 1 7 7.81 0.4
-1 1 7 10.39 0.42
1 1 7 9.76 0.48
-2 1 7 0.15 0.15
2 1 7 0.09 0.14
-3 1 7 89.54 0.64
3 1 7 89.43 0.65
-4 1 7 24.28 0.45
4 1 7 23.69 0.49
-5 1 7 14.3 0.45
5 1 7 14.53 0.53
-6 1 7 5.89 0.41
6 1 7 5.62 0.41
-7 1 7 1.8 0.42
7 1 7 1.81 0.4
-8 1 7 11.1 0.45
8 1 7 10.54 0.49
-9 1 7 33.7 0.68
9 1 7 33.25 0.68
-10 1 7 7.17 0.5
10 1 7 6.67 0.51
-11 1 7 56 0.75
11 1 7 55.67 0.78
-12 1 7 49.93 0.83
12 1 7 50.77 0.79
-13 1 7 10.04 0.61
13 1 7 10.31 0.61
-14 1 7 6.98 0.53
14 1 7 7.28 0.61
-15 1 7 6.97 0.91
15 1 7 7.66 0.64
-16 1 7 1.52 0.65
16 1 7 2.07 0.56
-17 1 7 8.09 0.81
17 1 7 8.4 0.75
-18 1 7 4.92 0.6
18 1 7 4.71 0.76
0 2 7 0.09 0.16
-1 2 7 208.7 1.1
1 2 7 209.81 1.25
-2 2 7 40.21 0.58
2 2 7 40.16 0.6
-3 2 7 2.21 0.46
3 2 7 2.58 0.44
-4 2 7 22.82 0.51
4 2 7 23.76 0.55
-5 2 7 2.36 0.39
5 2 7 2.27 0.41
-6 2 7 6.04 0.42
6 2 7 5.82 0.49
-7 2 7 16.02 0.48
7 2 7 15.37 0.56
-8 2 7 13.6 0.48
8 2 7 13.81 0.47
-9 2 7 20.96 0.56
9 2 7 21.35 0.54
-10 2 7 43.46 0.76
10 2 7 42.72 0.63
-11 2 7 25.44 0.64
11 2 7 24.92 0.57
-12 2 7 20.28 0.68
12 2 7 19.6 0.7
-13 2 7 1.52 0.47
13 2 7 1.62 0.53
-14 2 7 1.41 0.51
14 2 7 1.85 0.67
-15 2 7 8.29 0.71
15 2 7 9.05 0.9
-16 2 7 4.91 0.76
16 2 7 4.69 0.65
-17 2 7 4.38 0.58
17 2 7 4.11 0.7
-18 2 7 11.34 0.71
18 2 7 10.45 0.8
0 3 7 34.26 0.56
-1 3 7 18.48 0.49
1 3 7 18.04 0.49
-2 3 7 0.97 0.53
2 3 7 0.2 0.26
-3 3 7 58.08 0.58
3 3 7 58.21 0.63
-4 3 7 88.45 0.68
4 3 7 89.16 0.78
-5 3 7 35.83 0.53
5 3 7 35.55 0.57
-6 3 7 14.88 0.45
6 3 7 14.15 0.55
-7 3 7 22.72 0.52
7 3 7 21.95 0.63
-8 3 7 20.65 0.49
8 3 7 20.78 0.65
-9 3 7 48.81 0.69
9 3 7 49.28 0.64
-10 3 7 3.77 0.48
10 3 7 4.18 0.47
-11 3 7 49.72 0.65
11 3 7 50.21 0.79
-12 3 7 17.96 0.62
12 3 7 16.86 0.63
-13 3 7 18.38 0.6
13 3 7 18.78 0.65
-14 3 7 12.27 0.64
14 3 7 12.85 0.66
-15 3 7 8 0.64
15 3 7 8.02 0.69
-16 3 7 1.96 0.58
16 3 7 2.17 0.65
-17 3 7 7.52 0.69
17 3 7 7.31 0.65
-18 3 7 3.05 0.56
18 3 7 3.12 0.57
0 4 7 40.68 0.54
-1 4 7 32.28 0.56
1 4 7 32.23 0.57
-2 4 7 77.66 0.69
2 4 7 77.27 0.74
-3 4 7 15.81 0.42
3 4 7 16.48 0.45
-4 4 7 2.96 0.39
4 4 7 3.13 0.43
-5 4 7 15.95 0.46
5 4 7 15.7 0.51
-6 4 7 9.13 0.44
6 4 7 8.76 0.53
-7 4 7 58.97 0.74
7 4 7 58.76 0.8
-8 4 7 3.47 0.43
8 4 7 3.12 0.52
-9 4 7 22.82 0.54
9 4 7 22.86 0.59
-10 4 7 16.26 0.56
10 4 7 15.14 0.56
-11 4 7 22.64 0.69
11 4 7 22.6 0.74
-12 4 7 10.47 0.54
12 4 7 10.7 0.6
-13 4 7 2.67 0.48
13 4 7 2.73 0.56
-14 4 7 3.67 0.6
14 4 7 3.94 0.67
-15 4 7 6.22 0.57
15 4 7 6.72 0.75
-16 4 7 4.52 0.6
16 4 7 4.93 0.85
-17 4 7 5.08 0.63
17 4 7 5.25 0.64
-18 4 7 3.13 0.59
18 4 7 3.3 0.53
0 5 7 0.77 0.35
-1 5 7 23.65 0.53
1 5 7 23.54 0.53
-2 5 7 19.16 0.48
2 5 7 19.29 0.52
-3 5 7 59.53 0.6
3 5 7 59.39 0.69
-4 5 7 58.3 0.66
4 5 7 59.65 0.72
-5 5 7 33.06 0.6
5 5 7 32.44 0.7
-6 5 7 15.27 0.48
6 5 7 15.02 0.57
-7 5 7 32.29 0.55
7 5 7 32.41 0.67
-8 5 7 0.44 0.36
8 5 7 0.19 0.1
-9 5 7 52.22 0.66
9 5 7 51.35 0.72
-10 5 7 0.12 0.13
10 5 7 0.23 0.25
-11 5 7 28.66 0.67
11 5 7 28.43 0.74
-12 5 7 25.07 0.75
12 5 7 24.11 0.74
-13 5 7 8.83 0.57
13 5 7 8.66 0.55
-14 5 7 1.5 0.54
14 5 7 1.63 0.64
-15 5 7 10.77 0.57
15 5 7 10.27 0.63
-16 5 7 4.63 0.59
16 5 7 4.5 0.56
-17 5 7 10.86 0.63
17 5 7 11.14 0.67
0 6 7 11.35 0.55
-1 6 7 102.82 0.94
1 6 7 101.99 0.86
-2 6 7 1.42 0.43
2 6 7 2.05 0.47
-3 6 7 5.91 0.46
3 6 7 5.64 0.44
-4 6 7 1.37 0.53
4 6 7 1.69 0.44
-5 6 7 8.35 0.46
5 6 7 8.91 0.47
-6 6 7 21.79 0.53
6 6 7 21.33 0.55
-7 6 7 14.15 0.45
7 6 7 14.08 0.61
-8 6 7 15.47 0.5
8 6 7 15.65 0.71
-9 6 7 17.1 0.49
9 6 7 17.19 0.62
-10 6 7 7.88 0.52
10 6 7 7.3 0.62
-11 6 7 12.84 0.55
11 6 7 12.82 0.62
-12 6 7 1.3 0.57
12 6 7 0.55 0.26
-13 6 7 5.43 0.56
13 6 7 5.77 0.6
-14 6 7 11.8 0.56
14 6 7 10.83 0.7
-15 6 7 10.86 0.54
15 6 7 11.27 0.65
-16 6 7 2.12 0.71
16 6 7 1.77 0.63
-17 6 7 2.93 0.55
17 6 7 2.62 0.57
0 7 7 19.99 0.79
-1 7 7 2.53 0.49
1 7 7 1.97 0.57
-2 7 7 22.17 0.63
2 7 7 23.02 0.55
-3 7 7 20.21 0.61
3 7 7 20.67 0.62
-4 7 7 41.12 0.74
4 7 7 41.93 0.63
-5 7 7 21.99 0.65
5 7 7 22.12 0.54
-6 7 7 0.19 0.08
6 7 7 0.59 0.43
-7 7 7 15.87 0.55
7 7 7 15.88 0.71
-8 7 7 18.41 0.53
8 7 7 18.15 0.74
-9 7 7 38.18 0.56
9 7 7 36.82 0.76
-10 7 7 13.99 0.57
10 7 7 14.96 0.69
-11 7 7 27.96 0.63
11 7 7 27.57 0.9
-12 7 7 19.36 0.62
12 7 7 19.08 0.77
-13 7 7 20.41 0.58
13 7 7 21.41 0.71
-14 7 7 5.61 0.56
14 7 7 5.63 0.66
-15 7 7 8.26 0.55
15 7 7 7.28 0.66
-16 7 7 7 0.58
16 7 7 6.64 0.62
-17 7 7 10.04 0.76
17 7 7 9.06 0.77
0 8 7 74.59 0.99
-1 8 7 10.74 0.57
1 8 7 10.6 0.53
-2 8 7 8.96 0.47
2 8 7 8.71 0.52
-3 8 7 2.94 0.41
3 8 7 3.25 0.45
-4 8 7 9.83 0.58
4 8 7 9.79 0.55
-5 8 7 4.63 0.61
5 8 7 4.87 0.45
-6 8 7 21.5 0.61
6 8 7 21.48 0.56
-7 8 7 57.42 0.77
7 8 7 57.72 0.83
-8 8 7 12.48 0.56
8 8 7 12.5 0.7
-9 8 7 10.63 0.47
9 8 7 11.14 0.64
-10 8 7 0.26 0.15
10 8 7 0.04 0.21
-11 8 7 4.82 0.51
11 8 7 3.96 0.66
-12 8 7 2.28 0.52
12 8 7 2.61 0.64
-13 8 7 1.85 0.58
13 8 7 1.93 0.66
-14 8 7 20.5 0.81
14 8 7 20.96 0.85
-15 8 7 17.5 0.72
15 8 7 17.11 0.68
-16 8 7 0.93 0.5
16 8 7 0.71 0.28
-17 8 7 8.12 0.79
17 8 7 7.93 0.59
0 9 7 0.4 0.24
-1 9 7 10.34 0.52
1 9 7 10.82 0.57
-2 9 7 15.44 0.54
2 9 7 16.41 0.67
-3 9 7 22.02 0.54
3 9 7 21.2 0.57
-4 9 7 46.71 0.72
4 9 7 47.59 0.68
-5 9 7 19.18 0.68
5 9 7 19.67 0.56
-6 9 7 14.99 0.61
6 9 7 15.11 0.48
-7 9 7 4.23 0.46
7 9 7 4.36 0.51
-8 9 7 0.46 0.28
8 9 7 0.78 0.47
-9 9 7 6.01 0.53
9 9 7 5.95 0.64
-10 9 7 6.5 0.53
10 9 7 6.47 0.63
-11 9 7 3.67 0.51
11 9 7 3.52 0.66
-12 9 7 8.44 0.62
12 9 7 8.55 0.67
-13 9 7 13.91 0.76
13 9 7 14.09 0.7
-14 9 7 1.01 0.71
14 9 7 0.9 0.48
-15 9 7 7.29 0.83
15 9 7 6.94 0.76
-16 9 7 5.71 0.66
16 9 7 6.31 0.68
0 10 7 7.15 0.47
-1 10 7 64.23 0.73
1 10 7 65.63 0.75
-2 10 7 11.59 0.44
2 10 7 10.92 0.58
-3 10 7 2.89 0.42
3 10 7 2.59 0.55
-4 10 7 3.78 0.5
4 10 7 3.98 0.43
-5 10 7 6.94 0.48
5 10 7 6.66 0.45
-6 10 7 29.8 0.72
6 10 7 31 0.65
-7 10 7 36.03 0.77
7 10 7 35.76 0.88
-8 10 7 43.65 0.77
8 10 7 41.3 0.79
-9 10 7 11 0.58
9 10 7 10.18 0.58
-10 10 7 2.92 0.6
10 10 7 3.15 0.71
-11 10 7 2.73 0.6
11 10 7 2.25 0.72
-12 10 7 1.95 0.5
12 10 7 2.33 0.68
-13 10 7 0.66 0.83
13 10 7 0.4 0.52
-14 10 7 3.59 0.81
14 10 7 3.3 0.62
-15 10 7 8.85 0.73
15 10 7 9.37 0.79
-16 10 7 5.53 0.68
16 10 7 5.95 0.69
0 11 7 0.94 0.48
-1 11 7 9.01 0.44
1 11 7 9.22 0.5
-2 11 7 9.36 0.46
2 11 7 9.65 0.47
-3 11 7 21.09 0.5
3 11 7 19.99 0.64
-4 11 7 23.08 0.54
4 11 7 21.93 0.84
-5 11 7 2.69 0.45
5 11 7 2.34 0.52
-6 11 7 6.71 0.59
6 11 7 6.99 0.51
-7 11 7 4.99 0.59
7 11 7 5.44 0.53
-8 11 7 7.63 0.59
8 11 7 7.31 0.74
-9 11 7 30.64 0.74
9 11 7 29.48 0.85
-10 11 7 7.67 0.6
10 11 7 7.38 0.63
-11 11 7 1.72 0.64
11 11 7 1.44 0.58
-12 11 7 2.86 0.66
12 11 7 2.67 0.87
-13 11 7 1.78 0.56
13 11 7 1.53 0.8
-14 11 7 1.33 0.65
14 11 7 0.88 1.13
-15 11 7 0.48 0.24
15 11 7 0.92 0.69
-16 11 7 1.15 0.62
16 11 7 1.12 1.07
0 12 7 88.78 0.77
-1 12 7 70.95 0.71
1 12 7 70.06 0.72
-2 12 7 2.52 0.53
2 12 7 1.65 0.41
-3 12 7 11.77 0.52
3 12 7 12.5 0.51
-4 12 7 2.67 0.46
4 12 7 2.75 0.55
-5 12 7 0.93 0.4
5 12 7 0.78 0.62
-6 12 7 4.21 0.57
6 12 7 4.25 0.56
-7 12 7 26.73 0.73
7 12 7 26.29 0.89
-8 12 7 8.15 0.62
8 12 7 8.21 0.77
-9 12 7 16.09 0.63
9 12 7 15.78 0.78
-10 12 7 1.31 0.52
10 12 7 0.11 0.05
-11 12 7 2.95 0.59
11 12 7 2.58 0.87
-12 12 7 0.34 0.31
12 12 7 0.02 0.05
-13 12 7 0.75 0.88
13 12 7 0.09 0.96
-14 12 7 6.34 0.68
14 12 7 6.6 0.91
-15 12 7 2.73 0.72
15 12 7 2.95 0.84
0 13 7 0.63 0.44
-1 13 7 12.54 0.48
1 13 7 12.13 0.48
-2 13 7 5.79 0.47
2 13 7 5.1 0.56
-3 13 7 8.03 0.48
3 13 7 7.85 0.52
-4 13 7 2.13 0.5
4 13 7 2.03 0.45
-5 13 7 1.18 0.44
5 13 7 0.82 0.51
-6 13 7 5.65 0.49
6 13 7 4.81 0.61
-7 13 7 10.21 0.58
7 13 7 9.83 0.79
-8 13 7 2.51 0.54
8 13 7 2.53 0.7
-9 13 7 3.87 0.57
9 13 7 4.26 0.75
-10 13 7 5.75 0.59
10 13 7 5.35 0.79
-11 13 7 7.09 0.63
11 13 7 6.59 0.96
-12 13 7 2.26 0.73
12 13 7 2.28 1.21
-13 13 7 0.47 0.53
13 13 7 0.42 0.4
-14 13 7 0.35 0.18
14 13 7 0.65 2.2
-15 13 7 0.98 0.57
15 13 7 1.43 0.79
0 14 7 2.33 0.45
-1 14 7 26.66 0.58
1 14 7 26.55 0.58
-2 14 7 4.14 0.5
2 14 7 4.01 0.45
-3 14 7 3.76 0.48
3 14 7 3.45 0.54
-4 14 7 0.82 0.5
4 14 7 0.36 0.25
-5 14 7 14.5 0.59
5 14 7 14.02 0.59
-6 14 7 1.09 0.48
6 14 7 0.93 0.5
-7 14 7 19.59 0.6
7 14 7 19.52 0.79
-8 14 7 13.4 0.6
8 14 7 12.53 1.05
-9 14 7 5.49 0.6
9 14 7 4.97 0.92
-10 14 7 0.58 0.29
10 14 7 0.74 1.4
-11 14 7 1.3 0.71
11 14 7 1.46 0.75
-12 14 7 0.95 0.34
12 14 7 1.39 0.95
-13 14 7 0.04 0.14
13 14 7 0.71 0.88
-14 14 7 1.36 0.61
14 14 7 1.29 1.09
0 15 7 4.46 0.45
-1 15 7 2.83 0.44
1 15 7 3.02 0.49
-2 15 7 14 0.55
2 15 7 14.17 0.6
-3 15 7 0.33 0.11
3 15 7 0.84 0.56
-4 15 7 5.16 0.52
4 15 7 5.13 0.59
-5 15 7 0.94 0.4
5 15 7 0.54 0.46
-6 15 7 2.92 0.5
6 15 7 3.07 0.6
-7 15 7 2.87 0.47
7 15 7 2.8 0.71
-8 15 7 6.62 0.69
8 15 7 6.27 0.76
-9 15 7 25.06 0.73
9 15 7 25.85 1.19
-10 15 7 4.84 0.63
10 15 7 4.55 0.84
-11 15 7 1.69 0.71
11 15 7 2.3 0.72
-12 15 7 2.26 0.95
12 15 7 1.91 0.96
-13 15 7 1.66 0.58
13 15 7 2.02 1.05
0 16 7 22.19 0.6
-1 16 7 6.18 0.48
1 16 7 5.21 0.56
-2 16 7 6.21 0.5
2 16 7 6.16 0.54
-3 16 7 4.76 0.48
3 16 7 4.27 0.56
-4 16 7 2.26 0.51
4 16 7 1.92 0.48
-5 16 7 2.35 0.57
5 16 7 2.66 0.68
-6 16 7 2.46 0.5
6 16 7 3.18 0.56
-7 16 7 11.79 0.6
7 16 7 13.06 0.8
-8 16 7 2.33 0.61
8 16 7 1.61 0.55
-9 16 7 0.67 0.3
9 16 7 0.88 0.53
-10 16 7 0.79 0.57
10 16 7 0.43 0.66
-11 16 7 1.36 0.67
11 16 7 1.62 1.11
-12 16 7 5.12 0.81
12 16 7 5.33 1.1
-13 16 7 0.85 0.53
13 16 7 0.98 1.37
0 17 7 33.29 0.72
-1 17 7 7.71 0.54
1 17 7 7.89 0.55
-2 17 7 13.08 0.58
2 17 7 13.04 0.57
-3 17 7 1.99 0.47
3 17 7 1.8 0.54
-4 17 7 6.58 0.52
4 17 7 6.81 0.63
-5 17 7 0.71 0.35
5 17 7 0.5 0.57
-6 17 7 1.32 0.5
6 17 7 0.38 0.15
-7 17 7 4.16 0.54
7 17 7 4.23 0.65
-8 17 7 1.86 0.74
8 17 7 2.02 0.77
-9 17 7 1.18 0.64
9 17 7 0.75 1.02
-10 17 7 16.07 0.83
10 17 7 16.08 1.6
-11 17 7 3.4 0.84
11 17 7 2.5 0.91
-12 17 7 2.13 0.65
12 17 7 1.54 0.56
0 18 7 0.16 0.2
-1 18 7 6.09 0.58
1 18 7 5.93 0.61
-2 18 7 0.84 0.47
2 18 7 0.93 0.55
-3 18 7 2.36 0.57
3 18 7 2.81 0.55
-4 18 7 3.2 0.54
4 18 7 3.65 0.78
-5 18 7 1.37 0.76
5 18 7 1.48 0.59
-6 18 7 2.63 0.6
6 18 7 2.67 0.52
-7 18 7 1.6 0.58
7 18 7 1.89 0.67
-8 18 7 2.32 0.67
8 18 7 2.11 0.58
-9 18 7 0.78 0.33
9 18 7 0.91 0.98
-10 18 7 0.74 0.65
10 18 7 0.32 0.7
-11 18 7 1.05 0.62
11 18 7 0.69 0.72
0 19 7 1.84 0.52
-1 19 7 2.22 0.58
1 19 7 2.97 0.58
-2 19 7 15.31 0.7
2 19 7 14.45 0.92
-3 19 7 2.57 0.54
3 19 7 2.85 0.99
-4 19 7 10.6 0.64
4 19 7 10.9 0.73
-5 19 7 1.85 0.54
5 19 7 1.14 0.49
-6 19 7 6.46 0.53
6 19 7 5.57 0.59
-7 19 7 2.97 0.6
7 19 7 2.91 0.94
-8 19 7 3.2 0.85
8 19 7 3.1 0.72
-9 19 7 4.09 0.54
9 19 7 4.67 0.83
-10 19 7 0.62 0.5
10 19 7 0.5 0.89
0 20 7 3.57 0.61
-1 20 7 2 0.61
1 20 7 1.61 0.62
-2 20 7 3.66 0.57
2 20 7 4.37 0.83
-3 20 7 0.99 0.48
3 20 7 1.54 0.93
-4 20 7 0.43 0.54
4 20 7 0.85 0.64
-5 20 7 4.35 0.62
5 20 7 4.1 0.68
-6 20 7 3.39 0.52
6 20 7 3.57 0.61
-7 20 7 0.58 1.05
7 20 7 0.47 0.45
-8 20 7 1.41 0.7
8 20 7 1.42 1.22
0 21 7 1.13 0.56
-1 21 7 0.13 0.15
1 21 7 0.65 0.61
-2 21 7 1.39 0.59
2 21 7 1.14 0.7
-3 21 7 2.9 0.63
3 21 7 2.65 0.96
-4 21 7 7.76 0.85
4 21 7 8.19 0.63
-5 21 7 1.09 0.53
5 21 7 1.61 0.64
-6 21 7 2.94 0.67
6 21 7 3.19 0.52
-7 21 7 1.48 0.79
7 21 7 1.6 0.62
0 22 7 1.57 0.56
-1 22 7 8.13 0.65
1 22 7 7.89 0.82
-2 22 7 0.43 0.43
2 22 7 0.31 0.36
-3 22 7 5.41 0.77
3 22 7 4.72 0.76
-4 22 7 0.04 0.03
4 22 7 0.71 0.52
-5 22 7 0.24 0.15
5 22 7 0.09 0.06
0 0 8 29.15 0.8
1 0 8 66.54 0.71
2 0 8 118.34 0.87
3 0 8 8.83 0.65
4 0 8 19.99 0.5
5 0 8 17.31 0.6
6 0 8 36.15 0.66
7 0 8 82.69 0.76
8 0 8 1.16 0.51
9 0 8 20.75 0.63
10 0 8 1.38 0.57
11 0 8 5.94 0.7
12 0 8 10.51 0.69
13 0 8 0.71 0.64
14 0 8 1.3 1.27
15 0 8 6.39 0.86
16 0 8 2.59 0.71
17 0 8 4.7 0.63
0 1 8 13.21 0.52
-1 1 8 12.98 0.56
1 1 8 13.02 0.56
-2 1 8 19.94 0.61
2 1 8 19.65 0.59
-3 1 8 6.27 0.51
3 1 8 6.08 0.58
-4 1 8 2 0.49
4 1 8 1.45 0.42
-5 1 8 6.17 0.45
5 1 8 6.21 0.48
-6 1 8 0.35 0.4
6 1 8 0.16 0.21
-7 1 8 3.35 0.46
7 1 8 3.63 0.55
-8 1 8 22.75 0.61
8 1 8 23.11 0.61
-9 1 8 43.02 0.72
9 1 8 42.94 0.82
-10 1 8 24.69 0.81
10 1 8 24.27 0.67
-11 1 8 10.52 0.65
11 1 8 10.35 0.67
-12 1 8 2.37 0.6
12 1 8 2.37 0.61
-13 1 8 2.22 0.64
13 1 8 2.59 0.78
-14 1 8 1.62 0.68
14 1 8 1.19 0.74
-15 1 8 2.84 0.69
15 1 8 2.71 1.1
-16 1 8 6.2 0.93
16 1 8 6.05 0.94
-17 1 8 4.38 0.6
17 1 8 4.64 0.67
0 2 8 1.33 0.85
-1 2 8 96.74 1.01
1 2 8 95.42 0.86
-2 2 8 36.65 0.66
2 2 8 37.35 0.65
-3 2 8 1.61 0.56
3 2 8 2.03 0.54
-4 2 8 19.35 0.52
4 2 8 18.97 0.73
-5 2 8 1.76 0.39
5 2 8 1.8 0.38
-6 2 8 76.46 0.76
6 2 8 76.84 0.91
-7 2 8 30.33 0.6
7 2 8 29.95 0.72
-8 2 8 3.45 0.46
8 2 8 3.16 0.62
-9 2 8 38.21 0.7
9 2 8 36.79 0.78
-10 2 8 1.67 0.4
10 2 8 1.36 0.32
-11 2 8 0.49 0.39
11 2 8 0.13 0.09
-12 2 8 18.23 0.62
12 2 8 18.54 0.82
-13 2 8 0.05 0.09
13 2 8 0.65 0.53
-14 2 8 9.67 0.79
14 2 8 10.35 1.16
-15 2 8 2.8 0.84
15 2 8 3.06 0.77
-16 2 8 0.93 0.44
16 2 8 0.99 0.7
-17 2 8 2.27 0.64
17 2 8 2.69 0.74
0 3 8 10.91 0.53
-1 3 8 42.09 0.68
1 3 8 42.51 0.68
-2 3 8 44.98 0.69
2 3 8 44.11 0.69
-3 3 8 35.03 0.64
3 3 8 36.97 0.66
-4 3 8 21.37 0.63
4 3 8 21.99 0.67
-5 3 8 6.36 0.44
5 3 8 6.34 0.48
-6 3 8 6.43 0.45
6 3 8 6.31 0.57
-7 3 8 26.64 0.71
7 3 8 26.45 0.71
-8 3 8 7.56 0.52
8 3 8 8.03 0.56
-9 3 8 5.01 0.53
9 3 8 4.57 0.54
-10 3 8 27.96 0.68
10 3 8 27.07 0.76
-11 3 8 6.63 0.55
11 3 8 6.75 0.69
-12 3 8 5.24 0.6
12 3 8 5.31 0.83
-13 3 8 6.35 0.75
13 3 8 6.52 0.86
-14 3 8 3.01 0.7
14 3 8 3.34 0.93
-15 3 8 2.46 0.85
15 3 8 2.07 0.92
-16 3 8 5.9 0.61
16 3 8 6.2 0.73
0 4 8 40.44 0.67
-1 4 8 58.32 0.71
1 4 8 58.06 0.75
-2 4 8 67.3 0.76
2 4 8 66.65 0.71
-3 4 8 0.04 0.02
3 4 8 0.76 0.26
-4 4 8 7.15 0.53
4 4 8 7.16 0.57
-5 4 8 11.01 0.64
5 4 8 10.91 0.61
-6 4 8 27.73 0.58
6 4 8 27.09 0.71
-7 4 8 15.47 0.59
7 4 8 15.61 0.62
-8 4 8 11.63 0.49
8 4 8 11.95 0.62
-9 4 8 22.75 0.63
9 4 8 23.15 0.65
-10 4 8 1.45 0.59
10 4 8 1.76 0.54
-11 4 8 0.73 0.34
11 4 8 0.09 0.22
-12 4 8 12.07 0.61
12 4 8 12.44 0.78
-13 4 8 0.12 0.34
13 4 8 0.41 0.44
-14 4 8 4.49 0.64
14 4 8 3.96 0.87
-15 4 8 2.1 0.65
15 4 8 1.82 0.86
-16 4 8 2.41 0.72
16 4 8 2.75 0.68
0 5 8 0.81 0.64
-1 5 8 21.21 0.55
1 5 8 20.76 0.53
-2 5 8 32.44 0.63
2 5 8 32.38 0.59
-3 5 8 15.8 0.59
3 5 8 16.31 0.57
-4 5 8 71.78 0.84
4 5 8 71.28 0.92
-5 5 8 44.54 0.75
5 5 8 43.52 0.81
-6 5 8 36.64 0.6
6 5 8 35.79 0.76
-7 5 8 12.91 0.52
7 5 8 13.23 0.64
-8 5 8 13.1 0.51
8 5 8 12.49 0.66
-9 5 8 20.73 0.54
9 5 8 20.93 0.74
-10 5 8 32.44 0.66
10 5 8 31.81 0.81
-11 5 8 0.37 0.15
11 5 8 0.11 0.12
-12 5 8 0.38 0.12
12 5 8 1.14 0.77
-13 5 8 4.12 0.61
13 5 8 4.62 0.71
-14 5 8 1.3 0.6
14 5 8 0.86 0.56
-15 5 8 7.5 0.56
15 5 8 6.69 1.1
-16 5 8 1.44 0.57
16 5 8 1.47 0.74
0 6 8 6.73 0.5
-1 6 8 7.68 0.51
1 6 8 8.03 0.53
-2 6 8 11.46 0.57
2 6 8 11.3 0.5
-3 6 8 9.11 0.54
3 6 8 9.71 0.52
-4 6 8 0.95 0.46
4 6 8 0.13 0.05
-5 6 8 1.06 0.52
5 6 8 0.95 0.49
-6 6 8 43.04 0.72
6 6 8 43.58 0.8
-7 6 8 8.29 0.49
7 6 8 8.85 0.69
-8 6 8 16.96 0.57
8 6 8 17.67 0.8
-9 6 8 3.69 0.53
9 6 8 4.11 0.62
-10 6 8 0.22 0.26
10 6 8 0.69 0.52
-11 6 8 4.71 0.53
11 6 8 5.04 0.65
-12 6 8 7.46 0.74
12 6 8 6.2 0.74
-13 6 8 0.51 0.4
13 6 8 0.73 0.47
-14 6 8 4.83 0.69
14 6 8 4.39 0.88
-15 6 8 6.35 0.65
15 6 8 6.51 0.72
-16 6 8 0.66 0.38
16 6 8 0.69 0.61
0 7 8 2.72 0.52
-1 7 8 13.17 0.57
1 7 8 12.47 0.63
-2 7 8 47.04 0.78
2 7 8 47.95 0.81
-3 7 8 14.29 0.6
3 7 8 13.96 0.62
-4 7 8 34.25 0.69
4 7 8 33.28 0.87
-5 7 8 30.64 0.78
5 7 8 31.06 0.86
-6 7 8 8.26 0.58
6 7 8 8.37 0.68
-7 7 8 13.23 0.63
7 7 8 13.12 0.78
-8 7 8 0.98 1.61
8 7 8 0.26 1.49
-9 7 8 5.79 0.59
9 7 8 5.7 0.67
-10 7 8 26.17 0.7
10 7 8 25.46 0.79
-11 7 8 1.79 0.43
11 7 8 0.87 0.55
-12 7 8 10.45 0.59
12 7 8 10.61 0.74
-13 7 8 30.45 0.71
13 7 8 31.7 0.8
-14 7 8 6.19 0.53
14 7 8 5.38 0.64
-15 7 8 10.4 0.87
15 7 8 10.54 0.69
-16 7 8 3.27 0.66
16 7 8 2.93 0.83
0 8 8 64.12 0.75
-1 8 8 1.89 0.44
1 8 8 2.17 0.49
-2 8 8 4.12 0.51
2 8 8 3.93 0.59
-3 8 8 17.45 0.64
3 8 8 17.59 0.61
-4 8 8 4.88 0.53
4 8 8 4.77 0.6
-5 8 8 14.02 0.61
5 8 8 14.26 0.66
-6 8 8 3.23 0.52
6 8 8 3.04 0.68
-7 8 8 3.89 0.52
7 8 8 4.25 0.91
-8 8 8 6.48 0.55
8 8 8 6.46 0.74
-9 8 8 0.45 0.26
9 8 8 0.6 0.56
-10 8 8 8.78 0.61
10 8 8 7.47 0.67
-11 8 8 2.42 0.64
11 8 8 2.09 0.72
-12 8 8 4.74 0.54
12 8 8 4.86 0.81
-13 8 8 0.77 0.44
13 8 8 0.87 0.75
-14 8 8 5.79 0.72
14 8 8 5.92 0.67
-15 8 8 3.51 0.95
15 8 8 3.18 0.65
0 9 8 0.86 0.38
-1 9 8 8.12 0.56
1 9 8 8.47 0.56
-2 9 8 19.33 0.58
2 9 8 20.01 0.6
-3 9 8 4.55 0.52
3 9 8 4.66 0.5
-4 9 8 12.33 0.6
4 9 8 11.65 0.62
-5 9 8 28.21 0.71
5 9 8 27.94 0.75
-6 9 8 1.29 0.54
6 9 8 1.38 0.66
-7 9 8 22.2 0.69
7 9 8 21.31 1.01
-8 9 8 5.42 0.56
8 9 8 5.73 0.98
-9 9 8 16.75 0.87
9 9 8 16.65 0.79
-10 9 8 34.56 0.93
10 9 8 33.66 0.81
-11 9 8 3.47 0.58
11 9 8 3.16 0.99
-12 9 8 16.06 0.98
12 9 8 16 0.94
-13 9 8 7.1 0.69
13 9 8 6.63 0.92
-14 9 8 0.4 0.66
14 9 8 0.57 0.89
-15 9 8 7.71 0.65
15 9 8 7.12 0.67
0 10 8 19.11 0.59
-1 10 8 8.83 0.52
1 10 8 8.98 0.56
-2 10 8 10.44 0.65
2 10 8 11.15 0.56
-3 10 8 24.37 0.63
3 10 8 23.4 0.72
-4 10 8 1.02 0.51
4 10 8 0.6 0.64
-5 10 8 29.32 0.75
5 10 8 28.52 0.89
-6 10 8 4.02 0.6
6 10 8 3.73 0.6
-7 10 8 3.4 0.6
7 10 8 3.59 0.72
-8 10 8 21.69 0.65
8 10 8 21.35 1.08
-9 10 8 3.62 0.59
9 10 8 4.17 0.73
-10 10 8 12.53 0.81
10 10 8 13.12 1.08
-11 10 8 2.1 0.86
11 10 8 0.94 1.31
-12 10 8 1.78 0.9
12 10 8 0.9 0.67
-13 10 8 1.27 0.96
13 10 8 1.44 0.93
-14 10 8 0.96 0.63
14 10 8 1.09 0.61
-15 10 8 0.55 0.66
15 10 8 0.12 0.24
0 11 8 20.76 0.61
-1 11 8 2.44 0.55
1 11 8 2.13 0.5
-2 11 8 9.4 0.58
2 11 8 9.28 0.59
-3 11 8 2.47 0.53
3 11 8 3.23 0.48
-4 11 8 13.93 0.61
4 11 8 14.23 0.56
-5 11 8 6.92 0.59
5 11 8 6.69 0.61
-6 11 8 6 0.55
6 11 8 5.82 0.72
-7 11 8 12.61 0.65
7 11 8 11.88 1.3
-8 11 8 4.34 0.55
8 11 8 3.86 0.81
-9 11 8 6.46 0.66
9 11 8 7.42 0.99
-10 11 8 7.74 0.79
10 11 8 7.02 1.01
-11 11 8 0.58 0.49
11 11 8 0.22 1.74
-12 11 8 4.76 0.82
12 11 8 4.61 0.86
-13 11 8 7.98 0.75
13 11 8 7.43 1.52
-14 11 8 2.53 0.64
14 11 8 2.16 0.66
0 12 8 29.72 0.69
-1 12 8 5.19 0.51
1 12 8 5.85 0.5
-2 12 8 26.99 0.68
2 12 8 26.63 0.65
-3 12 8 9.39 0.66
3 12 8 9.77 0.56
-4 12 8 4.53 0.57
4 12 8 4.54 0.49
-5 12 8 4.36 0.53
5 12 8 5.14 0.57
-6 12 8 0.16 0.1
6 12 8 0.02 0.56
-7 12 8 8.02 0.55
7 12 8 7.21 1.1
-8 12 8 9.56 0.56
8 12 8 9.94 1.12
-9 12 8 1.71 0.54
9 12 8 1.5 0.86
-10 12 8 17.56 0.77
10 12 8 18.3 1.67
-11 12 8 3.38 0.59
-12 12 8 6.71 0.77
12 12 8 6.7 1.37
-13 12 8 3.6 0.62
13 12 8 2.72 0.84
-14 12 8 2.04 0.82
14 12 8 1.28 1.18
0 13 8 23.12 0.61
-1 13 8 0.87 0.34
1 13 8 1.71 0.54
-2 13 8 5.7 0.56
2 13 8 5.14 0.57
-3 13 8 1.65 0.5
3 13 8 1.85 0.64
-4 13 8 3.03 0.57
4 13 8 3.3 0.57
-5 13 8 5.04 0.8
5 13 8 4.98 0.66
-6 13 8 0.19 0.12
6 13 8 0.12 0.45
-7 13 8 1.1 0.42
7 13 8 1.38 0.61
-8 13 8 10.53 0.59
8 13 8 10.2 0.98
-9 13 8 1.81 0.64
9 13 8 2.16 0.88
-10 13 8 5.63 0.7
10 13 8 6.1 1.4
-11 13 8 0.29 0.47
-12 13 8 5.25 0.72
12 13 8 5.62 1.07
-13 13 8 3.21 0.65
13 13 8 2.41 1.6
0 14 8 14.76 0.56
-1 14 8 8.56 0.6
1 14 8 8.28 0.71
-2 14 8 6.8 0.52
2 14 8 6.03 0.57
-3 14 8 7.07 0.54
3 14 8 6.93 0.61
-4 14 8 1.89 0.6
4 14 8 1.88 0.61
-5 14 8 0.35 0.29
5 14 8 0.18 0.17
-6 14 8 0.43 0.59
6 14 8 0.31 0.51
-7 14 8 0.34 0.38
7 14 8 0.09 0.05
-8 14 8 22.77 0.72
8 14 8 22.81 1.12
-9 14 8 5.24 0.63
9 14 8 5.13 0.96
-10 14 8 18.14 0.72
10 14 8 17.28 1.12
-11 14 8 4.69 0.62
11 14 8 4.62 1.51
-12 14 8 1.43 0.71
12 14 8 1.8 1.06
0 15 8 2.14 0.5
-1 15 8 0.78 0.52
1 15 8 0.97 0.61
-2 15 8 4.61 0.48
2 15 8 5.19 0.56
-3 15 8 0.31 0.49
3 15 8 0.34 0.67
-4 15 8 0 0.06
4 15 8 0.52 0.53
-5 15 8 1.18 0.63
5 15 8 0.91 0.61
-6 15 8 15.59 0.66
6 15 8 15.36 0.76
-7 15 8 2.45 0.58
7 15 8 2.43 0.63
-8 15 8 3.69 0.62
8 15 8 4.1 0.74
-9 15 8 1.09 0.5
9 15 8 1.34 0.63
-10 15 8 3 0.62
10 15 8 2.5 0.81
-11 15 8 1.01 0.62
11 15 8 0.93 1.96
-12 15 8 5.21 0.64
12 15 8 5.51 1.04
0 16 8 5.76 0.63
-1 16 8 2.62 0.57
1 16 8 2.29 0.53
-2 16 8 2.19 0.55
2 16 8 1.9 0.57
-3 16 8 0.83 0.63
3 16 8 0.88 0.64
-4 16 8 0.16 0.51
4 16 8 0.77 0.87
-5 16 8 1.01 0.54
5 16 8 0.33 0.77
-6 16 8 0.07 0.02
6 16 8 0.29 0.7
-7 16 8 5.86 0.63
7 16 8 5.44 0.6
-8 16 8 11.23 0.73
8 16 8 10.42 0.88
-9 16 8 0.59 0.35
9 16 8 0.96 0.79
-10 16 8 12.86 0.67
10 16 8 11.99 0.75
-11 16 8 1.69 0.79
11 16 8 1.81 0.93
0 17 8 6.22 0.65
-1 17 8 0.67 1.23
1 17 8 0.38 0.35
-2 17 8 1.63 0.54
2 17 8 1.42 0.67
-3 17 8 3.92 0.59
3 17 8 3.64 0.64
-4 17 8 1.98 0.63
4 17 8 1.56 0.51
-5 17 8 4.34 0.54
5 17 8 4.94 0.79
-6 17 8 2.81 0.52
6 17 8 2.34 0.84
-7 17 8 1.56 0.53
7 17 8 1.49 0.62
-8 17 8 8.08 0.8
8 17 8 7.56 0.7
-9 17 8 0.04 0.25
9 17 8 0.35 0.67
-10 17 8 0.11 0.06
10 17 8 0.79 0.8
0 18 8 5 0.64
-1 18 8 2.82 0.64
1 18 8 2.54 0.61
-2 18 8 5.44 0.7
2 18 8 5.53 0.74
-3 18 8 4.54 0.55
3 18 8 3.42 0.81
-4 18 8 3.11 0.62
4 18 8 2.97 0.6
-5 18 8 1.28 0.91
5 18 8 0.08 1.71
-6 18 8 2.62 0.58
6 18 8 1.6 0.98
-7 18 8 0.51 0.42
7 18 8 0.49 0.54
-8 18 8 3.63 0.68
8 18 8 3.42 0.72
-9 18 8 1.01 0.53
9 18 8 0.86 0.64
0 19 8 1.85 0.76
-1 19 8 1.27 0.59
1 19 8 0.51 0.27
-2 19 8 0.59 0.38
2 19 8 0.45 0.88
-3 19 8 0.06 0.08
3 19 8 0.82 0.62
-4 19 8 4.14 0.64
4 19 8 4.05 0.77
-5 19 8 3.18 0.59
5 19 8 4.14 0.85
-6 19 8 9.88 0.57
6 19 8 9.97 0.79
-7 19 8 5.5 0.65
7 19 8 5.62 0.68
0 20 8 0.31 0.22
-1 20 8 2.09 0.67
1 20 8 1.9 0.96
-2 20 8 1.19 0.49
2 20 8 0.83 0.78
-3 20 8 1.81 0.59
3 20 8 1.79 0.75
-4 20 8 1.26 0.6
4 20 8 1.46 0.8
-5 20 8 4.92 0.57
5 20 8 4.75 1.31
-6 20 8 1.81 0.62
6 20 8 2.09 0.56
0 21 8 0.91 0.75
-1 21 8 1.34 0.83
1 21 8 1.65 0.81
-2 21 8 3.77 0.61
2 21 8 3.95 1.02
-3 21 8 0.88 0.72
3 21 8 0.43 0.51
1 0 9 5.41 0.49
2 0 9 1.99 0.69
3 0 9 0.38 0.59
4 0 9 0.09 0.34
5 0 9 33.35 0.77
6 0 9 1.5 0.54
7 0 9 0.34 0.58
8 0 9 40.28 0.85
9 0 9 10.26 0.68
10 0 9 6.11 0.57
11 0 9 12.54 0.79
12 0 9 0.4 0.75
13 0 9 6.74 0.93
14 0 9 1.78 1.3
15 0 9 8.08 0.86
0 1 9 0.47 0.48
-1 1 9 2.95 0.54
1 1 9 3.21 0.53
-2 1 9 0.53 0.34
2 1 9 0.59 0.43
-3 1 9 8.29 0.58
3 1 9 7.38 0.58
-4 1 9 0.99 0.77
4 1 9 1.24 1.24
-5 1 9 1.71 0.9
5 1 9 0.37 0.12
-6 1 9 9.3 0.64
6 1 9 10.15 0.83
-7 1 9 18.59 0.69
7 1 9 19.03 0.83
-8 1 9 0.15 0.39
8 1 9 0.09 0.4
-9 1 9 2 0.56
9 1 9 2.25 0.69
-10 1 9 5.7 0.57
10 1 9 6.83 0.61
-11 1 9 16.27 0.84
11 1 9 15.93 0.93
-12 1 9 5.11 0.65
12 1 9 5.73 0.98
-13 1 9 1.4 0.65
13 1 9 1.93 0.87
-14 1 9 0.88 0.79
14 1 9 0.84 0.93
-15 1 9 21.61 0.98
15 1 9 21.8 0.98
0 2 9 0 0.01
-1 2 9 33.62 0.71
1 2 9 33.16 0.69
-2 2 9 2.02 0.58
2 2 9 2.46 0.52
-3 2 9 3.53 0.59
3 2 9 4 0.54
-4 2 9 0.69 0.66
4 2 9 0.11 0.4
-5 2 9 10.77 0.72
5 2 9 10.06 0.62
-6 2 9 4.36 0.84
6 2 9 4.64 0.75
-7 2 9 2.86 0.48
7 2 9 2.41 0.84
-8 2 9 4.9 0.61
8 2 9 4.53 0.65
-9 2 9 5.44 0.56
9 2 9 6.5 0.65
-10 2 9 2.63 0.56
10 2 9 2.64 0.64
-11 2 9 8.1 0.7
11 2 9 8.31 0.81
-12 2 9 1.7 0.74
12 2 9 2.35 1.59
-13 2 9 5.14 1
13 2 9 5.8 1.08
-14 2 9 1.81 0.92
14 2 9 1.77 0.79
-15 2 9 10.18 0.88
15 2 9 10.61 0.92
0 3 9 1.78 0.54
-1 3 9 2.27 0.54
1 3 9 2.21 0.55
-2 3 9 1.74 0.52
2 3 9 1.86 0.5
-3 3 9 7.64 0.58
3 3 9 8.06 0.56
-4 3 9 4.87 0.59
4 3 9 4 0.6
-5 3 9 6.16 0.61
5 3 9 4.65 0.74
-6 3 9 0.03 0.18
6 3 9 0.01 0.01
-7 3 9 24.27 0.75
7 3 9 23.54 0.94
-8 3 9 13.96 0.72
8 3 9 13.58 0.73
-9 3 9 2.21 0.56
9 3 9 2.44 0.55
-10 3 9 1.39 0.49
10 3 9 0.69 0.29
-11 3 9 12.58 0.68
11 3 9 12.96 0.91
-12 3 9 2.68 0.6
12 3 9 3.32 1.11
-13 3 9 9.45 0.7
13 3 9 9.88 1.09
-14 3 9 3.68 0.87
14 3 9 4.05 0.97
-15 3 9 12.73 0.79
15 3 9 13.12 0.95
0 4 9 0.21 0.46
-1 4 9 2.78 0.57
1 4 9 2.72 0.55
-2 4 9 2.44 0.6
2 4 9 2.26 0.56
-3 4 9 11.44 0.67
3 4 9 11.36 0.53
-4 4 9 4.84 0.6
4 4 9 4.51 0.77
-5 4 9 22.83 0.75
5 4 9 22.32 0.74
-6 4 9 0.45 0.57
6 4 9 1.34 0.69
-7 4 9 2.4 0.54
7 4 9 2.77 0.8
-8 4 9 1.56 0.5
8 4 9 1.84 0.54
-9 4 9 4.38 0.62
9 4 9 3.88 0.74
-10 4 9 1.15 0.58
10 4 9 0.76 0.73
-11 4 9 3.19 0.55
11 4 9 3.58 0.78
-12 4 9 2.43 0.59
12 4 9 2.72 0.89
-13 4 9 0.46 0.26
13 4 9 1.2 0.97
-14 4 9 5.12 0.66
14 4 9 5.25 1.02
-15 4 9 4.4 0.59
15 4 9 5.01 0.96
0 5 9 6.79 0.53
-1 5 9 1.95 0.54
1 5 9 1.67 0.58
-2 5 9 1.22 0.56
2 5 9 1.35 0.4
-3 5 9 20.87 0.72
3 5 9 21.86 0.65
-4 5 9 6.66 0.62
4 5 9 6.77 0.55
-5 5 9 9.35 0.66
5 5 9 8.96 0.67
-6 5 9 0.86 0.64
6 5 9 0.3 0.16
-7 5 9 30.07 0.95
7 5 9 29.22 0.93
-8 5 9 7.63 0.6
8 5 9 7.63 0.75
-9 5 9 3.61 0.54
9 5 9 3.91 0.62
-10 5 9 7.91 0.66
10 5 9 6.81 0.7
-11 5 9 9.68 0.66
11 5 9 10.94 1.13
-12 5 9 11.53 0.78
12 5 9 13.01 1.11
-13 5 9 1.56 0.57
13 5 9 2.82 1.06
-14 5 9 0.98 0.56
14 5 9 0.93 0.52
-15 5 9 9.91 0.73
15 5 9 10.56 1.01
0 6 9 0.19 0.99
-1 6 9 15.09 0.66
1 6 9 15.46 0.66
-2 6 9 3.64 0.62
2 6 9 4.3 0.76
-3 6 9 7.99 0.62
3 6 9 7.62 0.53
-4 6 9 17.77 0.67
4 6 9 18.5 0.72
-5 6 9 13.71 0.7
5 6 9 14.02 0.8
-6 6 9 1.21 0.55
6 6 9 1.28 0.7
-7 6 9 3.11 0.67
7 6 9 3.07 0.87
-8 6 9 2.48 0.6
8 6 9 2.67 0.76
-9 6 9 1.54 0.65
9 6 9 1.29 0.61
-10 6 9 3.99 0.65
10 6 9 3.58 0.7
-11 6 9 0.19 0.22
11 6 9 0.5 0.74
-12 6 9 5.84 0.57
12 6 9 5.67 0.84
-13 6 9 0.33 0.2
13 6 9 0.63 0.48
-14 6 9 6.87 0.7
14 6 9 7.2 1.01
0 7 9 23.41 0.69
-1 7 9 6.38 0.61
1 7 9 5.86 0.59
-2 7 9 12.69 0.66
2 7 9 12.02 0.68
-3 7 9 7.62 0.62
3 7 9 8.39 0.75
-4 7 9 3.79 0.69
4 7 9 3.73 0.57
-5 7 9 11.55 0.61
5 7 9 10.88 0.79
-6 7 9 1.91 0.62
6 7 9 1.69 1.03
-7 7 9 16.17 0.69
7 7 9 15.88 1.08
-8 7 9 21.56 0.8
8 7 9 20.34 0.9
-9 7 9 2.73 0.59
9 7 9 2.72 0.86
-10 7 9 6.77 0.68
10 7 9 6.8 0.89
-11 7 9 3.21 0.77
11 7 9 2.5 0.81
-12 7 9 6.46 0.69
12 7 9 6.18 1.12
-13 7 9 9.28 0.66
13 7 9 9.68 1.08
-14 7 9 5.04 0.65
14 7 9 5.85 1.07
0 8 9 13.13 0.72
-1 8 9 1.29 0.39
1 8 9 1.31 0.61
-2 8 9 6.83 0.71
2 8 9 6.82 0.57
-3 8 9 4.06 0.53
3 8 9 4.33 0.6
-4 8 9 13.35 0.75
4 8 9 14.43 0.72
-5 8 9 1.09 0.46
5 8 9 1.2 0.67
-6 8 9 2.96 0.61
6 8 9 2.52 0.92
-7 8 9 16.61 0.69
7 8 9 16.46 1.12
-8 8 9 0.97 0.57
8 8 9 1.3 0.77
-9 8 9 1.46 1.09
9 8 9 1.61 1.01
-10 8 9 8.18 0.92
10 8 9 8 0.84
-11 8 9 2.18 0.72
11 8 9 2 1
-12 8 9 11.32 0.83
12 8 9 11.49 1.68
-13 8 9 0.7 1.05
13 8 9 1.01 1.18
-14 8 9 3.73 0.74
14 8 9 4.89 1.42
0 9 9 15.46 0.61
-1 9 9 0.78 0.55
1 9 9 0.95 0.56
-2 9 9 2.49 0.61
2 9 9 2.43 0.55
-3 9 9 9.54 0.55
3 9 9 9.26 0.68
-4 9 9 3.28 0.6
4 9 9 3.4 0.64
-5 9 9 7.03 0.66
5 9 9 7.71 0.68
-6 9 9 2.58 0.72
6 9 9 2.1 0.8
-7 9 9 1.06 0.46
7 9 9 1.56 0.82
-8 9 9 8.05 0.67
8 9 9 8.22 0.84
-9 9 9 5.62 0.87
9 9 9 4.14 1.12
-10 9 9 1.42 0.71
10 9 9 1.01 0.91
-11 9 9 1.25 0.66
11 9 9 2.19 1.5
-12 9 9 6.86 0.88
12 9 9 5.78 1.01
-13 9 9 6.53 0.69
13 9 9 6.63 1.07
0 10 9 3.61 0.59
-1 10 9 12.17 0.69
1 10 9 12.9 0.61
-2 10 9 4.58 0.57
2 10 9 4.24 0.55
-3 10 9 1.88 0.52
3 10 9 1.92 0.48
-4 10 9 27.89 0.71
4 10 9 28.83 0.82
-5 10 9 0.57 0.23
5 10 9 0.84 0.71
-6 10 9 1.07 0.66
6 10 9 1.27 0.96
-7 10 9 19.52 0.83
7 10 9 18.6 1.71
-8 10 9 9.53 0.68
-9 10 9 3.22 0.72
9 10 9 3.4 1.31
-10 10 9 12.83 0.96
10 10 9 12.2 1.54
-11 10 9 1.42 0.92
11 10 9 1.25 1.66
-12 10 9 3.95 0.8
12 10 9 3.77 1.31
-13 10 9 2 0.95
13 10 9 1.22 1.61
0 11 9 2.52 0.56
-1 11 9 7.05 0.57
1 11 9 6.87 0.53
-2 11 9 2.94 0.54
2 11 9 2.56 0.6
-3 11 9 9.45 0.57
3 11 9 9.67 0.58
-4 11 9 0.47 0.2
4 11 9 1.15 0.64
-5 11 9 1.33 0.47
5 11 9 0.98 0.66
-6 11 9 6.4 0.62
6 11 9 6.31 0.68
-7 11 9 1.85 0.54
7 11 9 2.34 1.13
-8 11 9 7.19 0.58
8 11 9 8.36 1.46
-9 11 9 6.59 0.91
9 11 9 4.97 1.44
-10 11 9 0.31 0.23
10 11 9 0.62 1.13
-11 11 9 3.78 0.67
11 11 9 3.78 1.28
-12 11 9 2.14 0.76
12 11 9 2.44 1.36
0 12 9 20.58 0.62
-1 12 9 32.57 0.73
1 12 9 31.92 0.69
-2 12 9 9.29 0.65
2 12 9 8.94 0.52
-3 12 9 1.06 0.71
3 12 9 0.41 0.41
-4 12 9 20.03 0.7
4 12 9 20.5 0.67
-5 12 9 0.88 0.81
5 12 9 0.05 0.17
-6 12 9 6.98 0.62
6 12 9 6.23 0.75
-7 12 9 9 0.59
7 12 9 9.26 1.01
-8 12 9 1.38 0.7
8 12 9 1.38 0.73
-9 12 9 8.5 0.85
9 12 9 6.73 1.39
-10 12 9 7.42 0.98
10 12 9 7.3 1.38
-11 12 9 1.07 0.54
11 12 9 0.85 1.94
-12 12 9 4.85 0.78
12 12 9 4.8 1.5
0 13 9 18.31 0.65
-1 13 9 6.97 0.54
1 13 9 6.81 0.6
-2 13 9 0.64 0.38
2 13 9 0.16 0.23
-3 13 9 7.84 0.75
3 13 9 7.66 0.65
-4 13 9 7.83 0.68
4 13 9 7.52 0.99
-5 13 9 1.12 0.78
-6 13 9 6.67 0.66
6 13 9 6.14 0.95
-7 13 9 3.19 0.58
7 13 9 2.23 0.93
-8 13 9 1.71 0.8
8 13 9 2.05 0.88
-9 13 9 7.33 0.83
9 13 9 9.16 1.08
-10 13 9 2.65 0.83
10 13 9 3.06 1.14
-11 13 9 3.62 0.72
11 13 9 4.19 0.9
0 14 9 3.28 0.77
-1 14 9 10.19 0.64
1 14 9 10.24 0.7
-2 14 9 15.79 0.66
2 14 9 15.53 0.71
-3 14 9 1.08 0.42
3 14 9 1.27 0.75
-4 14 9 17.88 0.75
4 14 9 17.41 0.79
-5 14 9 0.36 0.66
5 14 9 0.09 0.34
-6 14 9 7.06 0.6
6 14 9 7.55 1.02
-7 14 9 15.04 0.69
7 14 9 16.26 1.16
-8 14 9 4.26 0.74
8 14 9 4.13 0.81
-9 14 9 2.12 0.86
9 14 9 2.24 0.92
-10 14 9 2.45 0.8
10 14 9 2.6 1.33
0 15 9 0.72 0.72
-1 15 9 6.93 0.62
1 15 9 6.56 0.59
-2 15 9 0.04 0.03
2 15 9 0.33 0.32
-3 15 9 2.2 0.54
3 15 9 1.74 0.59
-4 15 9 12.91 0.81
4 15 9 13.4 0.77
-5 15 9 1.86 0.47
5 15 9 2.24 0.89
-6 15 9 5.88 0.64
6 15 9 5.4 0.68
-7 15 9 3.18 0.61
7 15 9 2.75 0.89
-8 15 9 2.23 0.96
8 15 9 2.04 1.65
-9 15 9 14.03 0.85
-10 15 9 1.07 0.89
10 15 9 0.35 3.66
0 16 9 5.91 0.65
-1 16 9 4.2 0.63
1 16 9 4.62 0.58
-2 16 9 1.68 0.63
2 16 9 0.43 0.17
-3 16 9 0.38 0.28
3 16 9 0.96 1.06
-4 16 9 5.1 0.64
4 16 9 5.75 1
-5 16 9 2.67 0.62
5 16 9 2.72 0.88
-6 16 9 9.71 0.73
6 16 9 7.97 1.04
-7 16 9 3.45 0.74
7 16 9 3.41 0.76
-8 16 9 0.58 0.52
8 16 9 0.95 0.88
-9 16 9 3.11 0.64
9 16 9 2.94 1.22
0 17 9 0.51 0.85
-1 17 9 11.35 0.61
1 17 9 11.19 0.7
-2 17 9 7.64 0.66
2 17 9 7.54 0.61
-3 17 9 3.58 0.57
3 17 9 3.73 0.63
-4 17 9 9.26 0.62
4 17 9 9.39 0.86
-5 17 9 1.7 0.6
5 17 9 1.72 0.79
-6 17 9 1.61 0.58
6 17 9 1.29 2.14
-7 17 9 7.63 0.65
7 17 9 7.65 1.34
0 18 9 0.72 0.56
-1 18 9 3.29 0.58
1 18 9 2.78 0.79
-2 18 9 2.52 0.54
2 18 9 2.78 0.66
-3 18 9 1.4 0.73
3 18 9 1.23 1.09
-4 18 9 2.82 0.66
4 18 9 2.36 0.62
-5 18 9 3.63 0.62
5 18 9 3.04 0.82
-6 18 9 7.32 0.77
6 18 9 6.91 0.59
0 19 9 0.2 0.18
-1 19 9 8.29 0.62
1 19 9 9.17 0.73
-2 19 9 1.15 0.56
2 19 9 1.48 0.53
-3 19 9 2.81 0.6
3 19 9 3.09 0.77
0 0 10 2.78 1.16
1 0 10 12.91 0.85
2 0 10 81.86 1.14
3 0 10 0.25 0.6
4 0 10 16.35 0.84
5 0 10 0.63 0.96
6 0 10 18.62 1.07
7 0 10 19.26 1.04
8 0 10 2.79 0.77
9 0 10 9.39 1.13
10 0 10 17.69 0.96
11 0 10 6.34 0.91
12 0 10 5.86 1.11
13 0 10 3.28 1.57
0 1 10 5.04 0.7
-1 1 10 9.02 0.83
1 1 10 10.16 0.93
-2 1 10 1.81 0.82
2 1 10 2.26 1.19
-3 1 10 8.33 0.68
3 1 10 10.06 0.85
-4 1 10 5.95 0.82
4 1 10 5.92 0.88
-5 1 10 1.89 0.89
5 1 10 1.91 0.75
-6 1 10 0.05 0.22
6 1 10 0.34 0.56
-7 1 10 2.49 0.94
7 1 10 2.99 0.7
-8 1 10 4.17 0.86
8 1 10 4.75 0.79
-9 1 10 16.54 1.01
9 1 10 17.16 0.98
-10 1 10 6.4 0.9
10 1 10 5.69 0.93
-11 1 10 10.56 1.14
11 1 10 11.41 1.11
-12 1 10 10.79 0.94
12 1 10 11.37 1.62
-13 1 10 0.6 1.28
13 1 10 0.41 1.37
0 2 10 1.82 0.61
-1 2 10 29.16 0.78
1 2 10 28.87 0.88
-2 2 10 60.63 1.01
2 2 10 61.49 0.92
-3 2 10 3.26 0.76
3 2 10 2.42 0.86
-4 2 10 10.58 0.7
4 2 10 8.81 0.86
-5 2 10 1.45 0.79
5 2 10 1.45 1.08
-6 2 10 32.63 0.92
6 2 10 34.41 0.88
-7 2 10 3.37 0.9
7 2 10 4.12 0.81
-8 2 10 0.1 0.27
8 2 10 1.33 1.07
-9 2 10 18.76 1.22
9 2 10 18.53 1.2
-10 2 10 6.74 1.4
10 2 10 6.74 1.67
11 2 10 1.8 1.22
-12 2 10 11.73 1.19
12 2 10 12.62 1.22
-13 2 10 3.59 1.05
13 2 10 3.78 1.12
0 3 10 0.41 0.21
-1 3 10 41.44 0.83
1 3 10 42.06 0.85
-2 3 10 9.62 0.7
2 3 10 10.87 0.66
-3 3 10 20.02 0.76
3 3 10 20.69 0.82
-4 3 10 4.15 0.83
4 3 10 4.43 0.77
-5 3 10 12.17 0.96
5 3 10 12.21 0.75
-6 3 10 1.15 0.53
6 3 10 0.96 0.5
-7 3 10 18.95 0.8
7 3 10 18.28 0.94
-8 3 10 2.78 1.48
8 3 10 2.78 0.99
-9 3 10 7.98 0.95
9 3 10 8.55 1.16
-10 3 10 5.95 0.74
-11 3 10 8.46 1.51
11 3 10 7.69 1.09
-12 3 10 5.98 0.86
12 3 10 6.96 1.58
-13 3 10 1.36 1.4
13 3 10 1.73 1
0 4 10 0.89 0.55
-1 4 10 20.83 0.84
1 4 10 19.92 0.81
-2 4 10 29.18 0.87
2 4 10 29.11 0.76
-3 4 10 3.01 0.67
3 4 10 3.06 0.71
-4 4 10 4.27 0.62
4 4 10 4.02 0.66
-5 4 10 18.42 0.86
5 4 10 17.68 0.68
-6 4 10 11.05 0.81
6 4 10 12.26 0.76
-7 4 10 4.14 0.8
7 4 10 3.67 0.9
-8 4 10 5.51 1
8 4 10 4.81 1.05
-9 4 10 13.27 1.19
9 4 10 14.59 1.16
-10 4 10 8.34 1.03
10 4 10 7.72 1.12
-11 4 10 4.79 0.77
11 4 10 5.14 1.1
-12 4 10 3.42 1.08
12 4 10 3.66 1.36
13 4 10 0.76 0.78
0 5 10 0.24 0.44
-1 5 10 42.11 0.91
1 5 10 42.07 0.91
-2 5 10 2.28 0.83
2 5 10 2.11 1.29
-3 5 10 16.18 0.76
3 5 10 16.31 0.87
-4 5 10 10.18 0.8
4 5 10 10.76 0.98
-5 5 10 12.94 0.82
5 5 10 12.17 0.81
-6 5 10 10.08 0.69
6 5 10 9.84 0.8
-7 5 10 21.12 1.19
7 5 10 19.4 0.96
-8 5 10 0.13 0.31
-9 5 10 21.54 0.85
9 5 10 19.53 1.23
-10 5 10 10.87 0.72
10 5 10 10.89 1.12
-11 5 10 2.34 0.67
11 5 10 2.82 1.51
-12 5 10 1.26 0.82
-13 5 10 1.25 0.89
13 5 10 0.12 0.78
0 6 10 1.57 0.61
-1 6 10 8.2 0.74
1 6 10 8.28 0.78
-2 6 10 6.73 0.67
2 6 10 6.91 0.69
-3 6 10 9.55 0.71
3 6 10 9.32 1.01
-4 6 10 1.67 0.81
4 6 10 2.02 0.65
-5 6 10 1.54 0.57
5 6 10 1.83 0.63
-6 6 10 8.28 0.76
6 6 10 8.25 0.84
-7 6 10 1.74 0.7
7 6 10 1.95 1
-8 6 10 3.31 1.19
8 6 10 3.67 0.73
-9 6 10 8.96 0.9
9 6 10 9.11 1.14
-10 6 10 2.88 0.88
10 6 10 2.07 1.41
-11 6 10 3.8 0.86
11 6 10 3.68 0.99
-12 6 10 4.01 0.92
12 6 10 3.03 1.58
0 7 10 0.68 0.62
-1 7 10 34.34 0.88
1 7 10 35.03 0.87
-2 7 10 5.51 0.68
2 7 10 6.02 0.66
-3 7 10 2.41 0.61
3 7 10 2.78 0.72
-4 7 10 3.05 0.72
4 7 10 2.6 0.7
-5 7 10 20.05 0.79
5 7 10 19.39 0.94
-6 7 10 7.67 0.66
6 7 10 8.09 1.06
-7 7 10 16.43 0.8
7 7 10 16.68 0.92
-8 7 10 1.59 0.89
8 7 10 1.63 0.8
-9 7 10 16.9 0.85
9 7 10 15.8 0.92
-10 7 10 10.89 0.92
10 7 10 10.01 0.89
-11 7 10 0.93 0.7
11 7 10 1.7 1.37
-12 7 10 1.78 0.75
12 7 10 0.75 2.4
0 8 10 10.49 0.8
-1 8 10 3.67 0.75
1 8 10 3.48 0.81
-2 8 10 0.29 0.4
2 8 10 0.39 0.34
-3 8 10 5.58 0.63
3 8 10 5.79 0.73
-4 8 10 8.12 0.69
4 8 10 7.48 0.85
-5 8 10 10.27 0.86
5 8 10 9.82 0.85
-6 8 10 1.49 0.55
6 8 10 1.09 0.99
-7 8 10 3.21 0.76
7 8 10 3.97 1.08
-8 8 10 0.97 0.93
8 8 10 0.99 0.67
-9 8 10 3.92 0.92
9 8 10 2.95 0.99
-10 8 10 1.8 0.84
10 8 10 0.34 0.11
-11 8 10 2.66 1.15
-12 8 10 1.35 1.58
0 9 10 0.36 1.07
-1 9 10 15.52 0.75
1 9 10 15.47 0.74
-2 9 10 0.64 0.47
2 9 10 0.75 1
-3 9 10 5.25 0.64
3 9 10 5.1 0.69
-4 9 10 1.61 0.64
4 9 10 2 0.64
-5 9 10 9.45 0.69
5 9 10 9.51 0.86
-6 9 10 5.84 0.7
6 9 10 5.41 0.99
-7 9 10 20.69 0.77
-8 9 10 1.79 0.87
8 9 10 2.33 0.93
-9 9 10 13.99 0.7
9 9 10 13.63 0.91
-10 9 10 10.67 0.94
10 9 10 11.21 1.55
-11 9 10 0.05 0.04
0 10 10 9.8 0.76
-1 10 10 8.85 0.74
1 10 10 8.46 0.67
-2 10 10 2.35 0.74
2 10 10 2.37 0.74
-3 10 10 7.96 0.78
3 10 10 8.5 0.91
-4 10 10 9.87 0.69
4 10 10 10.58 0.87
-5 10 10 15.16 0.67
5 10 10 15.28 1.17
-6 10 10 1.54 0.79
6 10 10 2.35 0.91
-7 10 10 4.97 0.64
7 10 10 5.33 1.06
-8 10 10 2.44 0.63
8 10 10 1.96 1.47
-9 10 10 4.13 0.66
9 10 10 3.59 0.91
-10 10 10 1.75 0.87
10 10 10 2.2 0.92
-11 10 10 0.89 0.69
11 10 10 1.31 1.2
0 11 10 9.89 0.67
-1 11 10 10.86 0.76
1 11 10 10.25 0.87
-2 11 10 0.93 0.66
2 11 10 0.82 0.61
-3 11 10 2.68 0.73
3 11 10 3.5 0.7
-4 11 10 1.25 0.54
4 11 10 0.85 0.51
-5 11 10 2.29 0.75
5 11 10 2.72 0.8
-6 11 10 4.5 0.73
6 11 10 4.14 1.08
-7 11 10 10.46 0.66
7 11 10 10.84 1.06
-8 11 10 2.29 0.8
8 11 10 2.78 1.65
-9 11 10 9.9 0.81
9 11 10 10.38 1.07
-10 11 10 1.93 0.65
10 11 10 1.45 0.94
0 12 10 2.46 0.66
-1 12 10 3.53 0.65
1 12 10 3.48 0.62
-2 12 10 8.47 0.68
2 12 10 8.37 0.65
-3 12 10 1.84 0.75
3 12 10 1.94 1.17
-4 12 10 11.32 0.93
4 12 10 11.53 1.15
-5 12 10 5.7 0.7
5 12 10 5.14 1.01
-6 12 10 2.68 0.61
6 12 10 1.69 1.11
-7 12 10 13.08 0.97
7 12 10 12.42 1.13
-8 12 10 0.64 0.59
8 12 10 0.26 0.36
-9 12 10 1.29 0.77
9 12 10 2.4 1.25
0 13 10 5.39 0.71
-1 13 10 0.87 0.68
1 13 10 0.84 0.94
-2 13 10 3.88 0.77
2 13 10 3.86 0.64
-3 13 10 3.78 0.79
3 13 10 3.59 0.88
-4 13 10 0.53 0.39
4 13 10 0.6 0.71
-5 13 10 0.83 0.4
5 13 10 1.03 0.75
-6 13 10 1.54 0.72
6 13 10 1.87 1.2
-7 13 10 2.08 0.73
7 13 10 1.55 0.95
-8 13 10 1.81 0.6
8 13 10 2.48 0.98
-9 13 10 4.77 0.85
9 13 10 5.37 1.35
0 14 10 0.14 0.14
-1 14 10 2.39 0.69
1 14 10 2.43 0.85
-2 14 10 0.97 0.48
2 14 10 0.54 0.4
-3 14 10 0.63 0.43
3 14 10 0.87 0.57
-4 14 10 7.19 0.66
4 14 10 6.15 0.88
-5 14 10 5.23 0.66
5 14 10 4.74 0.98
-6 14 10 1.54 0.63
6 14 10 1.26 1.23
-7 14 10 5.43 0.93
7 14 10 5.66 0.97
-8 14 10 2.77 0.61
8 14 10 2.53 0.89
0 15 10 0.43 0.23
-1 15 10 1.18 0.86
1 15 10 1.28 0.56
-2 15 10 1.32 0.49
2 15 10 0.91 1.14
-3 15 10 2.39 0.66
3 15 10 2.64 0.62
-4 15 10 1.09 0.44
4 15 10 1.37 0.95
-5 15 10 0.03 0.05
5 15 10 0.92 0.8
-6 15 10 1.42 0.61
6 15 10 1.46 0.89
0 16 10 0.56 0.35
-1 16 10 4.11 0.56
1 16 10 4.07 0.66
-2 16 10 0.62 0.49
2 16 10 0.45 0.63
-3 16 10 0.43 0.32
3 16 10 0.47 0.3
-4 16 10 3.31 0.54
4 16 10 2.54 0.66
-5 16 10 1.41 0.57
5 16 10 1.81 1.05
0 17 10 0.86 0.66
-1 17 10 0.56 0.32
1 17 10 0.7 0.5
-2 17 10 3.52 0.57
2 17 10 3.5 0.64
2 0 11 2.48 1.11
3 0 11 14.75 0.96
4 0 11 0.09 0.83
5 0 11 49.22 1.53
6 0 11 0.42 0.93
7 0 11 15.19 1.38
8 0 11 1.79 1.69
10 0 11 0.05 0.29
11 0 11 1.22 1.17
0 1 11 0.42 0.6
-1 1 11 8.17 0.96
1 1 11 9.14 0.79
-2 1 11 2.3 1.23
2 1 11 1.89 0.8
-3 1 11 1.56 0.97
3 1 11 2.69 1.27
-4 1 11 4.03 1.1
4 1 11 4.64 1.24
-5 1 11 12.73 1.36
5 1 11 13.15 1.35
-6 1 11 5.74 1.11
6 1 11 4.55 1.2
-7 1 11 28.38 1.97
7 1 11 26.43 1.38
-8 1 11 0.77 1.04
8 1 11 0.68 0.61
-9 1 11 5.23 1.54
9 1 11 4.13 1.02
-10 1 11 0.66 2.34
10 1 11 1.12 1.83
-11 1 11 1.87 1.5
0 2 11 1.11 1.05
-1 2 11 3.17 1
1 2 11 2.51 0.89
-2 2 11 1.1 0.77
2 2 11 0.78 0.74
-3 2 11 15.15 0.99
3 2 11 14.78 0.98
-4 2 11 0.77 1.2
4 2 11 0.52 0.68
-5 2 11 28.85 1.38
5 2 11 29.17 1.43
-6 2 11 0.98 1.1
6 2 11 1.58 1.36
-7 2 11 14.93 1.38
7 2 11 15.77 1.81
-8 2 11 0.25 0.67
-9 2 11 1.55 1.02
9 2 11 1.91 2.93
-10 2 11 1.75 1.23
10 2 11 1.46 0.88
-11 2 11 0.8 1.89
11 2 11 1.3 1.14
0 3 11 0.57 0.68
-1 3 11 18.31 0.83
1 3 11 18.45 0.96
-2 3 11 6.32 0.89
2 3 11 5.1 0.71
-3 3 11 1.77 0.96
3 3 11 1.55 0.91
-4 3 11 0.93 0.82
4 3 11 0.85 0.79
-5 3 11 11.15 0.92
5 3 11 10.62 0.92
-6 3 11 1.74 1.32
6 3 11 1.06 1.11
-7 3 11 23.96 1.39
7 3 11 26 1.21
-8 3 11 6.18 1.13
8 3 11 6.86 1.06
-9 3 11 5.74 1.13
9 3 11 4.83 1.8
-10 3 11 4.98 1.11
10 3 11 5.19 0.9
-11 3 11 3.1 1.39
11 3 11 2.37 1.16
0 4 11 1.67 0.79
-1 4 11 0.95 1.22
1 4 11 0.38 0.93
-2 4 11 1.56 1.02
2 4 11 1.97 0.72
-3 4 11 28.96 1.31
3 4 11 27.6 1.25
-4 4 11 1.97 1.01
4 4 11 1.89 0.92
-5 4 11 27.48 1.04
5 4 11 28.04 1.92
-6 4 11 0.43 0.69
6 4 11 0.39 2.07
-7 4 11 7.42 1.67
7 4 11 8.81 0.83
-8 4 11 0.15 1.16
8 4 11 0.29 0.45
-9 4 11 0.75 0.83
9 4 11 0.18 0.34
-10 4 11 1.18 0.65
10 4 11 0.91 0.86
0 5 11 0.72 0.7
-1 5 11 16.95 0.81
1 5 11 17.53 0.9
-2 5 11 2.95 0.75
2 5 11 2.76 0.76
-3 5 11 0.96 0.89
3 5 11 1.72 1.29
-4 5 11 8.77 1.56
4 5 11 7.46 1.53
-5 5 11 6.3 0.85
5 5 11 6.14 1.58
-6 5 11 0.66 0.67
6 5 11 1.11 1.14
-7 5 11 27.37 1.92
7 5 11 27.71 1.65
-8 5 11 7.25 1.13
8 5 11 9.31 1.63
-9 5 11 6.84 1.18
9 5 11 5.52 1.45
10 5 11 5.71 0.96
0 6 11 0.8 0.83
-1 6 11 1.07 0.89
1 6 11 0.82 0.88
-2 6 11 1.84 0.9
2 6 11 2.45 0.65
-3 6 11 14.14 0.78
3 6 11 14.39 0.89
-4 6 11 8.94 1.45
4 6 11 8.69 0.81
-5 6 11 9.57 1.42
5 6 11 11.2 1.09
-6 6 11 0.04 0.08
6 6 11 0.05 0.1
-7 6 11 1.93 1.07
7 6 11 2.01 0.83
-8 6 11 0.63 0.61
8 6 11 1.48 1.3
-9 6 11 1.96 1.01
9 6 11 2.22 0.88
-10 6 11 2.9 0.77
10 6 11 2.94 1.05
0 7 11 4.08 0.75
-1 7 11 19.92 0.84
1 7 11 20.06 0.96
-2 7 11 4.36 0.8
2 7 11 3.95 0.71
-3 7 11 0.25 0.59
3 7 11 0.02 0.03
-4 7 11 0.82 0.56
4 7 11 1.66 0.62
-5 7 11 0.62 0.52
5 7 11 0.16 0.12
-6 7 11 1.1 1.36
6 7 11 1.32 0.96
-7 7 11 19.1 0.97
7 7 11 19.07 1.22
-8 7 11 8.99 0.88
8 7 11 8.02 1.63
-9 7 11 2.46 0.64
9 7 11 2.29 1.28
0 8 11 0.59 0.59
-1 8 11 3.11 0.64
1 8 11 2.7 0.79
-2 8 11 2.19 0.7
2 8 11 1.94 0.77
-3 8 11 16.65 0.82
3 8 11 15.67 1.17
-4 8 11 10.04 0.76
4 8 11 10.67 0.88
-5 8 11 2.89 0.62
5 8 11 2.85 1.13
-6 8 11 0.65 0.85
6 8 11 0.09 0.16
-7 8 11 0.12 0.24
7 8 11 0.03 0.1
-8 8 11 1.01 0.68
8 8 11 0.43 1.2
-9 8 11 5.64 0.65
0 9 11 1.37 0.95
-1 9 11 14.84 0.95
1 9 11 14.89 0.79
-2 9 11 0.97 0.45
2 9 11 1.49 0.73
-3 9 11 1.43 0.65
3 9 11 1.47 0.7
-4 9 11 1.14 0.64
4 9 11 1.59 0.79
-5 9 11 2.12 0.67
5 9 11 2.26 0.75
-6 9 11 3.97 0.85
6 9 11 3.5 1.16
-7 9 11 8.47 0.89
7 9 11 7.75 0.88
-8 9 11 5.73 0.75
0 10 11 3.07 0.71
-1 10 11 1.38 0.71
1 10 11 1.27 0.62
-2 10 11 1.33 0.77
2 10 11 1.49 0.66
-3 10 11 11.04 0.82
3 10 11 11.31 1.06
-4 10 11 28.17 1.08
4 10 11 25.82 1.03
-5 10 11 0.33 0.43
5 10 11 0.86 0.68
-6 10 11 1.53 0.56
6 10 11 1.56 1.13
-7 10 11 0.76 0.55
-8 10 11 1.57 0.63
8 10 11 1.58 0.92
0 11 11 0.6 0.52
-1 11 11 7.58 0.74
1 11 11 6.74 0.75
-2 11 11 3.2 0.87
2 11 11 2.75 1.39
-3 11 11 1.07 0.61
3 11 11 1.97 0.93
-4 11 11 0.33 0.85
4 11 11 1.2 0.64
-5 11 11 0.9 0.86
5 11 11 0.98 0.72
-6 11 11 6.77 0.72
6 11 11 6.93 1
-7 11 11 1.61 0.9
7 11 11 1.89 0.8
0 12 11 3.24 1.16
-1 12 11 1.78 0.76
1 12 11 1.05 0.64
-2 12 11 5.16 0.78
2 12 11 4.01 0.8
-3 12 11 3.87 0.65
3 12 11 2.81 1.51
-4 12 11 25.04 0.69
-5 12 11 0.89 0.79
5 12 11 1.18 1.26
-6 12 11 4.64 0.87
6 12 11 4.91 0.93
0 13 11 2.52 0.74
-1 13 11 0.33 0.33
1 13 11 0.25 1.37
-2 13 11 1.52 0.75
2 13 11 1.73 0.89
-3 13 11 1.46 0.61
3 13 11 1.07 0.83
-4 13 11 0.84 0.5
4 13 11 0.23 0.48
0 14 11 4.5 0.62
-1 14 11 0.38 3.67
1 14 11 0.21 0.29
-2 14 11 3.92 0.82
2 14 11 3.38 0.72
0 0 12 8.84 1.07
1 0 12 6.91 0.92
2 0 12 40.37 1.4
3 0 12 0.03 0.06
4 0 12 2.88 1.13
5 0 12 0.07 0.09
6 0 12 10.46 1.25
8 0 12 2.36 1.56
0 1 12 0.51 0.8
-1 1 12 0.57 0.54
1 1 12 1.88 1.7
-2 1 12 1.55 1.33
2 1 12 0.86 1.39
-3 1 12 5.01 0.91
3 1 12 5.31 0.86
-4 1 12 5.51 1.13
4 1 12 6.18 1.19
-5 1 12 4.43 1.16
5 1 12 4.91 1.66
-6 1 12 0.35 12.25
6 1 12 0.95 1.61
-7 1 12 3.91 2
7 1 12 3.47 1.63
0 2 12 2.83 0.9
-1 2 12 4 0.96
1 2 12 3.72 1.26
-2 2 12 33.89 1.12
2 2 12 33.96 1.35
-3 2 12 0.74 1.29
3 2 12 0.57 8.57
-4 2 12 2.62 1.56
4 2 12 1.75 1.5
-5 2 12 0.69 0.87
5 2 12 0.1 0.34
-6 2 12 13.89 1.29
6 2 12 14.07 1.76
-7 2 12 5.45 1.51
7 2 12 4.16 1.56
-1 3 12 11.95 0.98
1 3 12 12.68 0.94
-2 3 12 0.32 1.69
2 3 12 0.23 0.76
-3 3 12 3.33 1.16
3 3 12 1.31 0.86
-4 3 12 4.11 1.75
-5 3 12 10.87 1.21
5 3 12 11.57 1.78
-6 3 12 1.3 1.16
6 3 12 0.37 1.74
-7 3 12 2.98 1.01
7 3 12 4.49 1.55
0 4 12 0.24 0.4
-1 4 12 4.44 0.82
1 4 12 4.82 0.76
-2 4 12 11.42 1.16
2 4 12 11.53 1.21
3 4 12 0.2 0.35
4 4 12 0.01 0.01
-5 4 12 1.09 1.09
5 4 12 2.17 0.9
-6 4 12 5.04 1.69
6 4 12 4.33 1.72
-7 4 12 4.35 1.12
7 4 12 4.82 1.63
0 5 12 1.28 0.73
-1 5 12 21.35 0.99
1 5 12 21.04 0.95
-2 5 12 0.39 0.42
2 5 12 0.54 0.87
-3 5 12 8.73 0.88
3 5 12 8 0.9
-4 5 12 1.4 0.76
4 5 12 2.01 1.76
-5 5 12 6 1.23
5 5 12 5.97 1.61
-6 5 12 3.95 1.14
6 5 12 2.76 1.15
0 6 12 0.6 0.52
-1 6 12 9.48 1.15
1 6 12 8.24 1.49
-2 6 12 3.04 0.84
2 6 12 2.59 1.8
-3 6 12 1.14 1.05
3 6 12 1.18 0.68
-4 6 12 3.51 0.95
4 6 12 3.85 0.99
5 6 12 1.62 1.03
-6 6 12 0.01 3.1
6 6 12 0.77 0.64
0 7 12 0.42 0.49
-1 7 12 16.45 0.92
1 7 12 16.35 1.1
-2 7 12 0.17 0.24
2 7 12 0.37 0.36
-3 7 12 4.79 0.99
3 7 12 3.64 0.89
-4 7 12 3.3 1.15
4 7 12 2.63 0.92
-5 7 12 9.11 1.17
5 7 12 7.26 1.36
0 8 12 1.46 1.29
-1 8 12 4.35 0.78
1 8 12 4.25 0.93
-2 8 12 1.44 0.8
2 8 12 1.57 1.32
-3 8 12 0.53 0.21
3 8 12 0.73 0.94
-4 8 12 6.94 1.05
4 8 12 7.53 1.07
0 9 12 0.01 1.31
-1 9 12 5.72 0.98
1 9 12 5.01 1.5
2 9 12 0.01 0.09
-3 9 12 1.41 0.69
3 9 12 1.12 1
0 10 12 4.23 0.97
