#------------------------------------------------------------------------------
#$Date: 2020-04-10 08:07:36 +0300 (Fri, 10 Apr 2020) $
#$Revision: 250594 $
#$URL: file:///home/coder/svn-repositories/cod/cif/2/02/20/2022015.cif $
#------------------------------------------------------------------------------
#
# This file is available in the Crystallography Open Database (COD),
# http://www.crystallography.net/. The original data for this entry
# were provided by IUCr Journals, http://journals.iucr.org/.
#
# The file may be used within the scientific community so long as
# proper attribution is given to the journal article from which the
# data were obtained.
#
data_2022015
loop_
_publ_author_name
'Jha, Kunal Kumar'
'Gruza, Barbara'
'Kumar, Prashant'
'Chodkiewicz, Michal Leszek'
'Dominiak, Paulina Maria'
_publ_section_title
;
 TAAM: a reliable and user friendly tool for hydrogen-atom location using
 routine X-ray diffraction data
;
_journal_issue                   3
_journal_name_full
'Acta Crystallographica Section B Structural Science, Crystal Engineering and Materials'
_journal_paper_doi               10.1107/S2052520620002917
_journal_volume                  76
_journal_year                    2020
_chemical_formula_moiety         'C3 H7 N O3'
_chemical_formula_sum            'C3 H7 N O3'
_chemical_formula_weight         105.09
_space_group_crystal_system      monoclinic
_space_group_IT_number           14
_space_group_name_Hall           '-P 2yab'
_space_group_name_H-M_alt        'P 1 21/a 1'
_symmetry_Int_Tables_number      14
_audit_creation_date             2019-09-24
_audit_creation_method
;
Olex2 1.2
(compiled 2018.05.29 svn.r3508 for OlexSys, GUI svn.r5506)
;
_cell_angle_alpha                90
_cell_angle_beta                 106.87(2)
_cell_angle_gamma                90
_cell_formula_units_Z            4
_cell_length_a                   10.7764(10)
_cell_length_b                   9.1947(9)
_cell_length_c                   4.7788(5)
_cell_measurement_temperature    20
_cell_volume                     453.13(9)
_computing_molecular_graphics    'Olex2 (Dolomanov et al., 2009)'
_computing_publication_material  'Olex2 (Dolomanov et al., 2009)'
_computing_structure_refinement  'olex2.refine (Bourhis et al., 2015)'
_diffrn_ambient_temperature      20
_diffrn_measured_fraction_theta_full 0.9592
_diffrn_measured_fraction_theta_max 0.9592
_diffrn_measurement_device_type
'Bruker APEX on a Huber Type 512 diffractometer'
_diffrn_radiation_type           'Mo K\a'
_diffrn_radiation_wavelength     0.71073
_diffrn_reflns_av_R_equivalents  0.0000
_diffrn_reflns_av_unetI/netI     0.0288
_diffrn_reflns_limit_h_max       7
_diffrn_reflns_limit_h_min       -25
_diffrn_reflns_limit_k_max       21
_diffrn_reflns_limit_k_min       0
_diffrn_reflns_limit_l_max       8
_diffrn_reflns_limit_l_min       -8
_diffrn_reflns_number            4999
_diffrn_reflns_theta_full        26.4919
_diffrn_reflns_theta_max         26.49
_diffrn_reflns_theta_min         2.97
_exptl_absorpt_coefficient_mu    0.138
_exptl_crystal_density_diffrn    1.5404
_exptl_crystal_F_000             224.1670
_refine_diff_density_max         0.1688
_refine_diff_density_min         -0.1612
_refine_diff_density_rms         0.0486
_refine_ls_d_res_high            0.7967
_refine_ls_d_res_low             6.8630
_refine_ls_goodness_of_fit_ref   0.9499
_refine_ls_hydrogen_treatment    refall
_refine_ls_matrix_type           full
_refine_ls_number_constraints    0
_refine_ls_number_parameters     92
_refine_ls_number_reflns         893
_refine_ls_number_restraints     0
_refine_ls_restrained_S_all      0.9499
_refine_ls_R_factor_all          0.0159
_refine_ls_R_factor_gt           0.0148
_refine_ls_shift/su_max          0.0009
_refine_ls_shift/su_mean         0.0000
_refine_ls_structure_factor_coef Fsqd
_refine_ls_weighting_details
'w=1/[\s^2^(Fo^2^)+(0.0237P)^2^] where P=(Fo^2^+2Fc^2^)/3'
_refine_ls_weighting_scheme      calc
_refine_ls_wR_factor_gt          0.0359
_refine_ls_wR_factor_ref         0.0362
_reflns_Friedel_coverage         0.0
_reflns_limit_h_max              13
_reflns_limit_h_min              0
_reflns_limit_k_max              11
_reflns_limit_k_min              0
_reflns_limit_l_max              5
_reflns_limit_l_min              -5
_reflns_number_gt                825
_reflns_number_total             893
_reflns_threshold_expression     I>=2u(I)
_iucr_refine_instructions_details
;
TITL 20K
CELL 0.71073 10.7764 9.1947 4.7788 90 106.87 90
ZERR 4 0.001 0.0009 0.0005 0 0.02 0
LATT 1
SYMM 0.5-X,0.5+Y,-Z
SFAC C H N O
UNIT 12 28 4 12

ACTA 
BOND $H
OMIT -10 53
WGHT 0.023676 0
FVAR 0.997833
REM <olex2.extras>
REM <HklSrc "%.\\0e66bb2e3f1739c7b78b2b79cc60cc15.hkl">
REM </olex2.extras>

O(1)  4     0.65873  0.40703  0.42779  11.00000  0.00849  0.00682  0.00624 =
 0.00092  0.00161 -0.00055 
O(2)  4     0.82864  0.51081  0.75163  11.00000  0.00910  0.00700  0.00639 =
 0.00007  0.00236 -0.00154 
O(3)  4     0.92865  0.17527  0.72158  11.00000  0.00648  0.00912  0.00945 =
 -0.00118  0.00442 -0.00065 
N(1)  3     0.65317  0.17335  0.74365  11.00000  0.00600  0.00679  0.00662 =
 0.00039  0.00241 -0.00039 
C(1)  1     0.74643  0.41047  0.66630  11.00000  0.00638  0.00595  0.00540 =
 -0.00050  0.00269  0.00006 
C(2)  1     0.75447  0.28348  0.87904  11.00000  0.00656  0.00648  0.00438 =
 0.00065  0.00254  0.00081 
C(3)  1     0.88953  0.21646  0.96983  11.00000  0.00615  0.00796  0.00699 =
 0.00070  0.00193  0.00081 
H(2)  2     0.73208  0.32497  1.06934  11.00000  0.02160 
H(1a  2     0.56497  0.22597  0.68961  11.00000  0.02597 
H(1b  2     0.65257  0.09660  0.89623  11.00000  0.02478 
H(1c  2     0.66738  0.12327  0.56388  11.00000  0.02317 
H(3a  2     0.95716  0.29770  1.09121  11.00000  0.02146 
H(3b  2     0.89159  0.12406  1.11707  11.00000  0.02493 
H(3)  2     0.90134  0.07664  0.67195  11.00000  0.02339 
HKLF 4

END
Q1 1 1.055556 0.2 1.266667 11 0.05 0.17
Q2 1 0.972222 0.266667 1.266667 11 0.05 0.11
Q3 1 0.805556 0.1 1.133333 11 0.05 0.1
Q4 1 0.833333 0.3 1.2 11 0.05 0.1
Q5 1 1.027778 0.133333 1 11 0.05 0.09
Q6 1 0.527778 0.433333 0.533333 11 0.05 0.09
Q7 1 0.833333 0.5 0.733333 11 0.05 0.09
Q8 1 0.555556 0.2 0.466667 11 0.05 0.09
Q9 1 0.75 0.2 1.333333 11 0.05 0.08
Q10 1 0.944444 -0.033333 0.666667 11 0.05 0.08
Q11 1 0.638889 0.4 0.4 11 0.05 0.08
Q12 1 0.944444 0.4 1.4 11 0.05 0.07
Q13 1 0.583333 0 0.933333 11 0.05 0.07
Q14 1 0.888889 0.2 1 11 0.05 0.06
Q15 1 0.416667 0.266667 0.466667 11 0.05 0.06
Q16 1 0.944444 0.5 0.8 11 0.05 0.06
Q17 1 0.916667 0.4 0.866667 11 0.05 0.05
Q18 1 0.361111 0.133333 0.533333 11 0.05 0.05
Q19 1 0.75 0 0.533333 11 0.05 0.05
Q20 1 0.527778 0.1 0.666667 11 0.05 0.04

  REM The information below was added by Olex2.
  REM
  REM R1 = 0.0148 for 825 Fo > 4sig(Fo) and 0.0159 for all 893 data
  REM 92 parameters refined using 0 restraints
  REM Highest difference peak 0.1688, deepest hole -0.1612
  REM Mean Shift 0.0000, Max Shift 0.0009.

  REM +++ Tabular Listing of Refinement Information +++
  REM R1_all = 0.0159
  REM R1_gt = 0.0148
  REM wR_ref = 0.0362
  REM GOOF = 0.9499
  REM Shift_max = 0.0009
  REM Shift_mean = 0.0000
  REM Reflections_all = 893
  REM Reflections_gt = 825
  REM Parameters = 92
  REM Hole = -0.1612
  REM Peak = 0.1688
  REM Flack = n/a

  
;
_cod_data_source_file            18_TAAM_iso_0.8.cif
_cod_data_source_block           18_TAAM_iso_0.8
_cod_original_sg_symbol_Hall     '-P 2ybc (z,y,-x)'
_cod_database_code               2022015
_olex2_refinement_description
;
;
_iucr_refine_fcf_details
;
data_DL_SER_20K
_computing_structure_refinement   'olex2.refine (Bourhis et al., 2015)'
_shelx_refln_list_code            4
loop_
  _space_group_symop_id
  _space_group_symop_operation_xyz
  1  x,y,z
  2  -x+1/2,y+1/2,-z
  3  -x,-y,-z
  4  x-1/2,-y-1/2,z

_space_group_crystal_system       monoclinic
_space_group_IT_number            14
_space_group_name_H-M_alt         'P 1 21/a 1'
_space_group_name_Hall            '-P 2ybc (z,y,-x)'
_symmetry_space_group_name_H-M    'P 1 21/a 1'
_symmetry_space_group_name_Hall   '-P 2ybc (z,y,-x)'
_symmetry_Int_Tables_number       14
_cell_length_a                    10.7764(10)
_cell_length_b                    9.1947(9)
_cell_length_c                    4.7788(5)
_cell_angle_alpha                 90
_cell_angle_beta                  106.87(2)
_cell_angle_gamma                 90
_cell_volume                      453.13(9)
loop_
  _refln_index_h
  _refln_index_k
  _refln_index_l
  _refln_F_squared_calc
  _refln_F_squared_meas
  _refln_F_squared_sigma
  _refln_F_squared_weight
  _refln_observed_status
0 0 -4 249.033 260.216 13.227 0.245 o
0 0 -3 294.510 287.786 4.700 0.739 o
0 0 -2 1372.830 1364.220 42.896 0.018 o
0 1 -5 12.272 13.669 0.713 86.225 o
0 1 -4 374.558 379.011 7.342 0.388 o
0 1 -3 329.454 319.121 8.989 0.368 o
0 1 -2 50.449 53.823 0.904 22.394 o
0 1 -1 4025.700 3049.420 62.953 0.004 o
0 2 -4 0.000 0.372 0.432 277.112 o
0 2 -3 24.477 21.513 1.034 37.470 o
0 2 -2 90.828 86.685 1.527 7.584 o
0 2 -1 1530.490 1474.210 30.442 0.023 o
0 2 0 578.439 586.087 6.297 0.226 o
0 3 -5 174.204 164.713 1.466 2.786 o
0 3 -4 76.482 75.597 1.547 9.154 o
0 3 -3 184.693 199.022 3.375 1.640 o
0 3 -2 31.952 31.818 1.316 22.455 o
0 3 -1 302.658 306.396 4.289 0.737 o
0 4 -5 0.064 0.151 0.201 1280.860 o
0 4 -4 43.136 43.639 1.024 24.605 o
0 4 -3 12.683 12.193 0.884 59.478 o
0 4 -2 20.893 19.093 1.175 32.071 o
0 4 -1 943.814 923.538 10.375 0.086 o
0 4 0 1.235 0.763 0.412 303.655 o
0 5 -5 122.322 121.878 1.466 4.914 o
0 5 -4 5.313 5.514 0.723 95.869 o
0 5 -3 327.984 335.372 5.654 0.555 o
0 5 -2 101.947 97.201 3.324 3.095 o
0 5 -1 383.036 386.232 5.815 0.444 o
0 6 -4 517.156 535.860 9.551 0.211 o
0 6 -3 0.193 0.221 0.331 470.429 o
0 6 -2 1128.700 1163.690 23.512 0.040 o
0 6 -1 88.024 88.684 2.631 4.578 o
0 6 0 97.370 99.822 3.324 3.141 o
0 7 -4 15.476 15.276 0.593 106.737 o
0 7 -3 21.102 21.965 0.954 44.297 o
0 7 -2 52.946 51.794 1.326 15.633 o
0 7 -1 150.153 154.127 3.967 1.807 o
0 8 -4 3.127 3.375 0.462 235.779 o
0 8 -3 31.311 31.587 1.105 29.146 o
0 8 -2 20.222 19.173 0.884 51.557 o
0 8 -1 2.586 2.501 0.472 228.206 o
0 8 0 78.692 80.519 1.979 6.947 o
0 9 -3 135.731 135.989 2.641 2.985 o
0 9 -2 0.921 0.803 0.372 373.113 o
0 9 -1 222.482 233.692 5.213 0.925 o
0 10 -2 0.413 0.512 0.291 608.480 o
0 10 -1 9.549 9.180 0.683 100.124 o
0 10 0 486.748 516.315 12.494 0.176 o
0 11 -1 57.909 57.087 1.838 9.864 o
1 1 -4 179.113 186.598 3.013 1.875 o
1 1 -3 400.008 402.482 5.675 0.423 o
1 1 -2 37.174 37.081 1.105 25.923 o
1 1 0 88.868 84.817 1.456 8.058 o
1 1 1 13.661 12.384 0.532 135.469 o
1 1 2 391.936 399.299 4.911 0.464 o
1 1 3 137.912 140.569 2.280 3.231 o
1 1 4 21.398 20.941 1.687 16.673 o
1 2 -5 0.609 1.105 0.532 182.199 o
1 2 -4 41.226 38.125 1.466 16.915 o
1 2 -3 156.988 158.285 2.350 2.662 o
1 2 -2 614.967 624.755 6.086 0.206 o
1 2 0 60.820 57.971 1.316 13.819 o
1 2 1 571.063 561.872 6.368 0.233 o
1 2 2 282.746 276.989 5.122 0.734 o
1 2 3 70.353 73.830 2.350 6.161 o
1 2 4 646.883 647.453 11.018 0.145 o
1 3 -5 248.795 248.827 2.059 1.327 o
1 3 -4 116.182 118.945 3.375 2.710 o
1 3 -3 233.042 243.243 3.525 1.181 o
1 3 -2 376.659 376.540 5.323 0.479 o
1 3 0 897.904 898.640 13.147 0.083 o
1 3 1 1465.050 1409.180 24.215 0.029 o
1 3 2 0.211 0.211 0.352 418.205 o
1 3 3 774.509 794.891 11.751 0.108 o
1 3 4 22.586 22.558 0.613 78.188 o
1 3 5 329.623 319.644 2.943 0.756 o
1 4 -5 2.588 2.641 0.311 513.056 o
1 4 -4 32.099 32.400 0.954 34.653 o
1 4 -3 77.926 79.856 3.013 4.122 o
1 4 -2 2.158 2.561 0.492 210.849 o
1 4 0 1051.910 1049.450 15.216 0.061 o
1 4 1 130.865 128.326 2.772 3.012 o
1 4 2 123.509 119.889 2.702 3.296 o
1 4 3 348.027 349.473 6.026 0.495 o
1 4 4 124.749 126.216 3.164 2.749 o
1 4 5 38.338 37.392 0.803 35.499 o
1 5 -5 48.595 47.536 1.245 18.100 o
1 5 -4 302.261 304.147 3.525 0.809 o
1 5 -3 3.692 3.304 0.502 199.338 o
1 5 -2 4.561 5.675 0.763 86.684 o
1 5 0 53.477 48.912 2.149 8.428 o
1 5 1 237.164 227.254 4.289 1.054 o
1 5 2 74.722 76.993 2.943 4.361 o
1 5 3 257.728 259.925 6.388 0.661 o
1 5 4 180.658 186.086 3.234 1.775 o
1 5 5 1.519 1.396 0.281 643.613 o
1 6 -5 0.207 0.221 0.261 757.716 o
1 6 -4 77.799 76.993 2.571 5.179 o
1 6 -3 41.465 40.184 1.245 20.716 o
1 6 -2 15.552 16.160 1.175 34.005 o
1 6 0 103.758 104.874 3.043 3.370 o
1 6 1 0.233 0.442 0.522 189.463 o
1 6 2 11.138 10.726 0.723 87.493 o
1 6 3 126.969 127.391 2.571 3.299 o
1 6 4 192.310 189.099 2.129 2.065 o
1 7 -4 0.003 0.000 0.261 757.995 o
1 7 -3 0.255 0.593 0.321 500.029 o
1 7 -2 1.357 1.175 0.341 439.705 o
1 7 0 165.763 171.101 4.258 1.526 o
1 7 1 0.017 0.070 0.301 569.334 o
1 7 2 33.643 32.109 1.024 31.047 o
1 7 3 44.093 44.663 1.396 16.956 o
1 7 4 100.235 99.250 1.466 6.673 o
1 8 -4 0.066 0.151 0.291 609.245 o
1 8 -3 0.212 0.151 0.311 533.086 o
1 8 -2 21.990 21.383 0.884 49.355 o
1 8 0 756.559 761.105 16.893 0.085 o
1 8 1 23.764 24.245 0.954 41.980 o
1 8 2 272.506 273.876 5.946 0.670 o
1 8 3 5.068 5.213 0.502 193.693 o
1 9 -3 160.076 161.328 2.280 2.632 o
1 9 -2 34.765 34.459 1.245 23.235 o
1 9 0 0.010 0.070 0.291 609.277 o
1 9 1 362.859 375.706 8.085 0.367 o
1 9 2 178.211 184.177 4.560 1.326 o
1 9 3 103.332 103.729 1.979 5.213 o
1 10 -2 15.831 15.577 0.663 89.364 o
1 10 0 0.557 0.803 0.372 373.671 o
1 10 1 10.827 10.947 0.613 117.059 o
1 10 2 56.241 57.378 1.617 11.716 o
1 11 0 1.397 1.547 0.321 494.774 o
1 11 1 76.771 78.018 1.838 7.694 o
2 0 -2 141.031 141.955 1.657 3.707 o
2 0 -1 1566.670 1534.390 22.136 0.028 o
2 0 0 3066.630 2491.840 22.829 0.010 o
2 0 1 648.040 679.552 12.454 0.130 o
2 0 2 396.073 400.343 12.454 0.212 o
2 0 3 1.432 1.466 0.693 107.364 o
2 0 4 70.954 68.838 1.838 8.412 o
2 0 5 84.417 78.751 0.803 11.580 o
2 1 -4 23.511 24.094 0.733 60.626 o
2 1 -3 425.852 420.199 12.454 0.202 o
2 1 -2 575.219 583.667 6.709 0.222 o
2 1 -1 1515.930 1500.500 24.215 0.028 o
2 1 0 6.717 5.604 0.452 227.855 o
2 1 1 436.562 465.023 6.920 0.324 o
2 1 2 40.921 39.843 1.587 15.024 o
2 1 3 18.299 17.847 0.884 53.518 o
2 1 4 1.925 1.617 0.341 436.292 o
2 1 5 35.368 33.716 0.502 55.475 o
2 2 -5 11.508 11.239 0.803 71.922 o
2 2 -4 450.478 481.715 6.910 0.310 o
2 2 -3 605.015 618.739 7.613 0.194 o
2 2 -2 44.017 43.448 1.034 24.075 o
2 2 -1 1701.880 1680.360 31.135 0.020 o
2 2 0 406.206 411.411 5.875 0.404 o
2 2 1 40.843 39.501 1.587 15.056 o
2 2 2 358.245 364.849 5.323 0.511 o
2 2 3 0.030 -0.070 0.412 304.821 o
2 2 4 1.191 1.326 0.241 876.674 o
2 2 5 54.038 50.549 0.703 25.073 o
2 3 -5 112.160 112.919 2.280 4.208 o
2 3 -4 63.170 64.278 1.326 12.855 o
2 3 -3 136.540 143.843 3.083 2.542 o
2 3 -2 926.587 949.832 10.375 0.087 o
2 3 -1 39.960 39.220 1.175 22.821 o
2 3 0 1518.630 1471.440 26.977 0.026 o
2 3 1 41.900 44.272 1.316 18.777 o
2 3 2 5.921 5.393 0.683 106.586 o
2 3 3 22.700 22.779 0.954 43.076 o
2 3 4 113.791 116.072 1.908 4.700 o
2 3 5 2.776 2.862 0.623 131.801 o
2 4 -5 79.732 79.705 1.768 7.729 o
2 4 -4 15.487 14.322 0.884 56.865 o
2 4 -3 20.686 20.790 1.175 31.876 o
2 4 -2 560.960 557.443 8.989 0.202 o
2 4 -1 1.901 2.280 0.522 187.912 o
2 4 0 10.510 9.823 0.834 68.537 o
2 4 1 591.370 592.796 7.613 0.203 o
2 4 2 6.155 5.745 0.763 85.726 o
2 4 3 317.758 323.028 5.072 0.623 o
2 4 4 74.341 76.702 1.687 8.599 o
2 4 5 3.372 3.596 0.402 307.563 o
2 5 -5 5.756 5.434 0.422 263.946 o
2 5 -4 34.755 35.112 0.954 32.464 o
2 5 -3 12.756 12.273 1.105 39.472 o
2 5 -2 58.561 58.734 1.938 9.094 o
2 5 -1 174.699 168.801 4.148 1.523 o
2 5 0 4.016 4.078 0.663 115.236 o
2 5 1 7.566 7.332 0.904 60.917 o
2 5 2 11.379 11.389 1.617 19.234 o
2 5 3 0.508 0.663 0.291 608.021 o
2 5 4 6.186 5.946 0.572 148.256 o
2 6 -5 58.033 57.740 1.245 15.058 o
2 6 -4 1.780 1.617 0.372 369.821 o
2 6 -3 77.874 79.564 2.200 6.237 o
2 6 -2 40.008 41.871 1.768 12.762 o
2 6 -1 18.977 16.953 1.175 32.951 o
2 6 0 140.869 140.368 4.289 1.753 o
2 6 1 160.129 172.647 4.037 1.644 o
2 6 2 11.109 10.134 0.884 61.071 o
2 6 3 349.447 357.337 6.538 0.461 o
2 6 4 199.691 200.267 2.350 1.851 o
2 7 -4 202.800 195.928 2.280 1.864 o
2 7 -3 40.112 36.950 1.245 21.481 o
2 7 -2 103.087 101.750 2.501 4.251 o
2 7 -1 385.300 396.858 7.342 0.372 o
2 7 0 15.792 15.276 1.326 27.285 o
2 7 1 0.331 0.372 0.321 500.073 o
2 7 2 24.929 25.571 1.024 36.818 o
2 7 3 21.309 21.965 1.105 34.916 o
2 7 4 1.824 1.838 0.311 523.087 o
2 8 -4 52.072 52.236 1.687 11.827 o
2 8 -3 56.163 55.390 1.617 11.837 o
2 8 -2 53.298 53.703 1.466 13.781 o
2 8 -1 35.858 35.634 1.245 22.782 o
2 8 0 24.191 23.582 1.024 37.672 o
2 8 1 20.529 20.499 1.024 40.208 o
2 8 2 13.100 13.518 0.723 83.209 o
2 8 3 32.896 32.250 0.803 41.540 o
2 9 -3 0.975 1.105 0.311 530.023 o
2 9 -2 36.433 36.659 1.245 22.491 o
2 9 -1 148.181 151.556 3.676 1.987 o
2 9 0 0.057 0.000 0.311 533.195 o
2 9 1 0.338 0.512 0.341 442.923 o
2 9 2 29.356 29.317 0.954 37.104 o
2 9 3 29.179 29.096 0.954 37.272 o
2 10 -2 0.016 0.070 0.271 702.881 o
2 10 -1 119.351 120.341 2.641 3.444 o
2 10 0 135.407 138.921 3.304 2.418 o
2 10 1 30.267 30.191 1.326 22.767 o
2 10 2 37.742 37.251 1.024 28.074 o
2 11 -1 15.212 14.985 0.803 66.779 o
2 11 0 0.012 0.070 0.271 702.882 o
2 11 1 18.101 17.335 0.653 85.476 o
3 1 -5 29.544 31.587 1.024 33.099 o
3 1 -4 581.179 639.589 16.160 0.112 o
3 1 -2 2943.840 2897.920 56.033 0.007 o
3 1 -1 2429.390 2320.270 42.896 0.010 o
3 1 0 243.204 253.055 4.630 0.931 o
3 1 1 186.995 186.849 3.806 1.517 o
3 1 2 481.028 494.149 7.613 0.272 o
3 1 3 19.096 19.103 1.326 26.343 o
3 1 4 38.043 37.542 1.326 20.176 o
3 1 5 16.217 15.357 0.432 157.216 o
3 2 -5 334.976 361.816 11.018 0.275 o
3 2 -4 129.224 133.116 3.596 2.299 o
3 2 -2 38.917 40.817 1.105 24.643 o
3 2 -1 555.490 545.963 5.534 0.256 o
3 2 0 2588.870 2355.560 52.578 0.008 o
3 2 1 785.482 780.338 11.068 0.111 o
3 2 2 705.450 715.317 8.989 0.143 o
3 2 3 220.973 222.523 6.689 0.715 o
3 2 4 17.316 16.672 0.603 98.063 o
3 2 5 0.136 0.151 0.221 1058.450 o
3 3 -5 0.063 0.221 0.382 354.833 o
3 3 -4 55.273 55.099 1.547 12.603 o
3 3 -2 35.856 35.905 1.175 24.587 o
3 3 -1 717.295 724.999 9.682 0.135 o
3 3 0 53.978 50.780 1.527 13.253 o
3 3 1 904.635 894.492 10.375 0.092 o
3 3 2 16.987 17.084 1.034 41.936 o
3 3 3 24.730 24.024 0.683 64.386 o
3 3 4 70.680 70.385 1.908 8.033 o
3 3 5 61.389 60.170 1.908 9.026 o
3 4 -5 40.366 40.776 0.803 33.023 o
3 4 -4 2.926 2.943 0.392 326.633 o
3 4 -2 131.387 130.123 3.043 2.738 o
3 4 -1 15.094 14.252 0.964 49.102 o
3 4 0 963.625 964.355 11.761 0.078 o
3 4 1 690.267 687.295 10.375 0.138 o
3 4 2 0.129 0.442 0.673 114.139 o
3 4 3 343.652 348.669 5.213 0.550 o
3 4 4 161.533 162.584 3.525 1.906 o
3 5 -5 87.841 87.941 1.617 7.444 o
3 5 -4 167.469 172.939 4.630 1.378 o
3 5 -2 9.393 8.738 0.954 53.978 o
3 5 -1 32.241 30.572 1.386 20.810 o
3 5 0 1220.720 1218.940 17.988 0.045 o
3 5 1 766.419 747.134 12.454 0.108 o
3 5 2 761.320 782.407 15.427 0.091 o
3 5 3 1.873 1.979 0.442 261.934 o
3 5 4 13.731 13.739 0.562 122.463 o
3 6 -5 4.531 4.700 0.492 203.502 o
3 6 -4 2.076 2.200 0.502 202.939 o
3 6 -2 1.343 1.838 0.432 275.243 o
3 6 -1 211.099 215.543 4.630 1.105 o
3 6 0 284.954 298.492 5.946 0.628 o
3 6 1 32.173 32.913 2.280 8.932 o
3 6 2 23.665 23.652 0.954 42.221 o
3 6 3 3.951 4.037 0.542 170.574 o
3 6 4 1.651 2.059 0.482 220.698 o
3 7 -4 3.252 3.304 0.422 281.016 o
3 7 -2 65.894 65.604 1.768 9.311 o
3 7 -1 160.495 161.037 3.746 1.813 o
3 7 0 469.081 476.201 8.818 0.255 o
3 7 1 37.408 35.554 1.175 24.158 o
3 7 2 0.126 0.151 0.301 569.275 o
3 7 3 133.359 133.337 2.571 3.118 o
3 8 -4 1.653 1.466 0.341 437.930 o
3 8 -2 126.243 129.300 2.862 2.993 o
3 8 -1 32.360 31.516 1.396 20.464 o
3 8 0 125.116 125.915 3.013 2.889 o
3 8 1 92.250 91.315 2.943 3.858 o
3 8 2 0.227 0.442 0.422 290.397 o
3 8 3 109.845 112.547 1.768 5.169 o
3 9 -2 15.472 14.985 1.105 38.232 o
3 9 -1 2.440 2.722 0.572 155.998 o
3 9 0 53.939 54.365 2.059 8.792 o
3 9 1 5.771 6.026 0.633 123.187 o
3 9 2 91.543 89.558 2.200 5.459 o
3 10 -2 114.205 115.852 2.350 4.005 o
3 10 -1 500.471 500.296 6.388 0.285 o
3 10 0 9.431 9.109 0.572 137.296 o
3 10 1 8.464 8.527 0.572 140.420 o
3 10 2 213.120 210.993 2.943 1.522 o
3 11 -1 224.171 230.458 4.188 1.118 o
3 11 0 25.512 24.536 0.803 51.625 o
4 0 -5 173.448 185.794 3.013 1.932 o
4 0 -4 75.920 75.738 4.188 2.489 o
4 0 -3 436.895 430.644 6.639 0.344 o
4 0 -2 0.338 0.623 0.341 442.857 o
4 0 -1 155.516 151.506 2.420 2.694 o
4 0 0 1032.530 1019.010 13.840 0.066 o
4 0 1 4.497 4.841 0.653 117.979 o
4 0 2 0.420 1.175 0.452 252.726 o
4 0 3 60.579 60.311 2.501 6.223 o
4 0 4 969.546 982.232 23.512 0.048 o
4 1 -5 129.343 130.184 2.350 3.459 o
4 1 -4 383.361 398.254 5.946 0.431 o
4 1 -3 41.669 39.782 1.105 23.877 o
4 1 -2 197.619 199.162 3.184 1.608 o
4 1 -1 34.716 35.002 1.175 25.089 o
4 1 0 2458.000 2271.150 47.737 0.009 o
4 1 1 34.910 33.626 1.456 18.544 o
4 1 2 127.650 125.423 3.596 2.354 o
4 1 3 323.291 318.619 5.072 0.617 o
4 1 4 19.035 17.707 0.884 53.017 o
4 2 -5 143.186 147.890 2.943 2.533 o
4 2 -4 82.457 85.219 1.908 6.856 o
4 2 -3 1349.120 1338.610 25.601 0.031 o
4 2 -2 92.372 92.149 1.868 6.254 o
4 2 -1 1236.300 1233.470 17.988 0.044 o
4 2 0 2.646 2.210 0.502 202.152 o
4 2 1 1033.960 1055.670 12.454 0.068 o
4 2 2 28.682 26.635 1.727 15.097 o
4 2 3 0.005 0.000 0.261 757.995 o
4 2 4 91.157 90.803 1.768 6.652 o
4 3 -5 13.309 10.064 1.768 16.110 o
4 3 -4 61.571 61.054 1.326 13.353 o
4 3 -3 74.364 75.155 1.979 7.345 o
4 3 -2 631.835 641.778 8.306 0.175 o
4 3 -1 902.372 893.106 10.375 0.092 o
4 3 0 238.947 235.068 3.736 1.133 o
4 3 1 4.863 4.429 0.683 107.926 o
4 3 2 194.229 201.151 4.037 1.362 o
4 3 3 0.160 0.221 0.251 819.610 o
4 3 4 0.308 0.221 0.291 608.966 o
4 4 -5 43.932 45.617 0.733 31.377 o
4 4 -4 183.794 191.007 3.304 1.703 o
4 4 -3 58.172 58.112 1.838 9.801 o
4 4 -2 0.792 0.834 0.452 252.589 o
4 4 -1 669.598 661.283 8.989 0.157 o
4 4 0 5.139 3.736 0.663 114.446 o
4 4 1 214.635 210.371 4.289 1.178 o
4 4 2 37.833 38.205 1.466 17.475 o
4 4 3 639.152 662.950 13.960 0.120 o
4 4 4 4.899 4.921 0.432 258.425 o
4 5 -5 29.340 29.387 0.954 37.093 o
4 5 -4 16.908 17.556 0.733 73.636 o
4 5 -3 2.494 1.687 0.502 202.731 o
4 5 -2 194.981 201.070 4.479 1.236 o
4 5 -1 189.875 190.384 5.122 1.112 o
4 5 0 75.023 70.977 2.210 6.522 o
4 5 1 184.906 189.169 4.258 1.375 o
4 5 2 46.458 46.431 1.396 16.365 o
4 5 3 31.349 31.516 1.024 32.257 o
4 5 4 8.295 7.864 0.683 102.620 o
4 6 -5 184.612 178.523 2.200 2.197 o
4 6 -4 15.649 14.985 0.954 49.519 o
4 6 -3 18.806 17.556 0.803 61.890 o
4 6 -2 138.548 141.784 3.596 2.167 o
4 6 -1 74.704 72.434 3.817 2.932 o
4 6 0 158.545 172.205 4.258 1.564 o
4 6 1 94.237 91.536 2.420 4.812 o
4 6 2 661.231 699.388 15.427 0.105 o
4 6 3 40.229 39.451 1.175 22.706 o
4 6 4 5.069 5.072 0.522 179.990 o
4 7 -4 198.111 190.866 2.571 1.841 o
4 7 -3 19.829 19.766 0.954 45.728 o
4 7 -2 845.248 864.683 20.569 0.062 o
4 7 -1 285.996 298.050 6.388 0.588 o
4 7 0 147.698 148.473 3.967 1.845 o
4 7 1 69.184 66.779 1.768 8.995 o
4 7 2 97.231 99.842 2.280 4.880 o
4 7 3 17.782 17.556 0.803 62.931 o
4 8 -4 0.238 0.291 0.311 532.998 o
4 8 -3 213.073 216.939 6.468 0.765 o
4 8 -2 0.281 0.372 0.392 336.767 o
4 8 -1 299.955 303.775 7.342 0.493 o
4 8 0 0.348 0.372 0.331 470.224 o
4 8 1 227.311 231.492 4.771 0.992 o
4 8 2 9.992 9.993 0.954 53.487 o
4 8 3 115.583 116.956 2.280 4.055 o
4 9 -3 30.796 31.808 1.105 29.303 o
4 9 -2 78.446 78.902 2.420 5.545 o
4 9 -1 54.423 53.703 2.722 5.709 o
4 9 0 45.305 46.210 1.768 12.047 o
4 9 1 2.943 3.083 0.683 109.637 o
4 9 2 12.083 11.530 0.803 71.298 o
4 10 -2 2.765 2.571 0.372 363.529 o
4 10 -1 27.736 26.886 1.175 28.662 o
4 10 0 2.078 1.908 0.341 434.716 o
4 10 1 48.835 45.838 1.687 12.516 o
5 1 -4 29.343 29.096 1.105 30.395 o
5 1 -3 622.513 660.600 8.818 0.170 o
5 1 -2 966.764 972.661 12.454 0.076 o
5 1 -1 80.579 83.702 1.938 6.899 o
5 1 0 310.569 300.441 5.253 0.642 o
5 1 1 4.284 3.736 0.613 134.331 o
5 1 2 0.056 0.221 0.422 290.468 o
5 1 3 155.623 157.652 3.967 1.756 o
5 1 4 82.439 86.324 1.245 9.430 o
5 2 -4 8.917 9.180 0.512 167.915 o
5 2 -3 27.633 30.854 1.245 25.677 o
5 2 -2 51.624 52.578 1.527 13.450 o
5 2 -1 57.303 55.209 1.587 11.980 o
5 2 0 49.873 50.227 1.587 13.189 o
5 2 1 577.484 583.185 8.306 0.201 o
5 2 2 165.982 173.451 3.967 1.633 o
5 2 3 16.513 16.090 0.803 64.948 o
5 2 4 2.331 2.129 0.311 517.850 o
5 3 -4 12.508 13.227 0.583 120.083 o
5 3 -3 2.824 2.792 0.572 155.605 o
5 3 -2 85.284 84.325 2.149 5.964 o
5 3 -1 617.951 622.756 8.306 0.182 o
5 3 0 50.826 50.639 1.727 11.671 o
5 3 1 156.818 152.952 4.218 1.649 o
5 3 2 0.855 0.884 0.311 530.904 o
5 3 3 66.322 65.232 1.326 12.317 o
5 3 4 11.654 11.610 0.512 152.780 o
5 4 -4 100.688 95.945 2.280 4.829 o
5 4 -3 32.120 33.133 1.326 22.012 o
5 4 -2 148.922 150.532 3.375 2.162 o
5 4 -1 58.900 57.901 1.868 9.549 o
5 4 0 115.320 109.996 2.772 3.466 o
5 4 1 216.878 227.967 6.096 0.802 o
5 4 2 156.766 160.595 3.676 1.879 o
5 4 3 179.684 182.048 3.897 1.546 o
5 4 4 22.606 22.035 0.693 67.838 o
5 5 -4 116.241 120.703 3.375 2.698 o
5 5 -3 55.720 53.923 1.908 9.671 o
5 5 -2 326.970 336.256 7.131 0.462 o
5 5 -1 231.893 239.276 5.875 0.791 o
5 5 0 541.410 579.790 10.284 0.186 o
5 5 1 305.188 317.444 6.830 0.516 o
5 5 2 489.645 502.134 8.085 0.256 o
5 5 3 10.085 9.551 0.643 110.397 o
5 5 4 30.689 30.271 0.954 36.056 o
5 6 -4 44.409 42.685 1.396 17.081 o
5 6 -3 80.040 80.298 2.200 6.126 o
5 6 -2 0.918 0.954 0.341 441.422 o
5 6 -1 22.964 22.035 0.954 43.142 o
5 6 0 172.676 173.893 4.037 1.562 o
5 6 1 50.170 49.293 1.687 12.186 o
5 6 2 30.210 31.587 1.024 32.781 o
5 6 3 0.957 1.105 0.311 530.095 o
5 7 -4 0.025 0.291 0.321 500.360 o
5 7 -3 71.149 71.630 2.350 6.172 o
5 7 -2 91.645 93.304 2.129 5.559 o
5 7 -1 592.545 615.565 13.960 0.130 o
5 7 0 1.126 1.326 0.392 335.145 o
5 7 1 54.378 52.086 1.687 11.593 o
5 7 2 75.693 76.039 1.908 7.531 o
5 7 3 1.408 1.466 0.341 438.956 o
5 8 -4 77.166 76.993 2.943 4.310 o
5 8 -3 0.022 0.070 0.271 702.879 o
5 8 -2 14.449 14.101 1.024 44.381 o
5 8 -1 69.791 71.921 2.420 5.979 o
5 8 0 2.837 2.420 0.502 201.697 o
5 8 1 128.565 132.242 3.375 2.481 o
5 8 2 3.981 3.897 0.482 214.321 o
5 9 -3 210.970 208.934 3.304 1.447 o
5 9 -2 26.588 27.178 1.105 31.853 o
5 9 -1 76.527 73.167 2.059 6.960 o
5 9 0 12.886 11.902 0.954 51.751 o
5 9 1 29.335 29.678 0.884 40.784 o
5 9 2 14.543 14.543 0.703 84.342 o
5 10 -2 1.321 1.105 0.321 496.195 o
5 10 -1 84.330 80.810 1.547 8.245 o
5 10 0 59.204 58.112 1.175 15.561 o
5 10 1 6.280 5.875 0.733 92.511 o
6 0 -5 268.265 272.409 5.293 0.752 o
6 0 -4 250.914 266.383 4.118 0.962 o
6 0 -3 1109.260 1168.830 18.369 0.049 o
6 0 -2 1.284 1.245 0.482 221.534 o
6 0 -1 67.778 66.759 1.868 8.559 o
6 0 0 2.162 1.727 0.502 203.125 o
6 0 1 764.073 759.588 11.761 0.111 o
6 0 2 17.073 16.311 1.326 26.974 o
6 0 3 4.239 5.363 0.884 65.172 o
6 1 -5 60.945 63.846 1.466 12.023 o
6 1 -4 35.502 35.333 1.245 22.918 o
6 1 -3 23.073 22.186 1.175 30.919 o
6 1 -2 470.567 469.382 6.779 0.304 o
6 1 -1 99.510 99.692 2.350 4.664 o
6 1 0 42.826 39.290 1.527 15.649 o
6 1 1 594.165 596.121 9.682 0.177 o
6 1 2 64.953 65.825 2.420 6.269 o
6 1 3 157.521 158.466 4.409 1.547 o
6 1 4 15.186 14.915 0.583 110.662 o
6 2 -5 0.026 0.151 0.261 757.966 o
6 2 -4 62.322 63.184 1.687 10.246 o
6 2 -3 2.911 2.059 0.572 155.872 o
6 2 -2 0.594 0.482 0.432 276.867 o
6 2 -1 4.834 4.630 0.693 104.846 o
6 2 0 1103.970 1094.420 15.909 0.055 o
6 2 1 104.791 104.322 4.560 1.919 o
6 2 2 44.151 45.617 1.547 14.729 o
6 2 3 30.370 28.875 1.024 33.353 o
6 2 4 1.159 0.954 0.281 648.111 o
6 3 -5 64.191 65.534 1.024 15.240 o
6 3 -4 5.115 4.851 0.452 236.628 o
6 3 -3 18.213 18.068 1.024 41.871 o
6 3 -2 205.928 209.407 4.078 1.271 o
6 3 -1 115.689 120.582 2.973 3.122 o
6 3 0 17.957 16.190 1.175 33.348 o
6 3 1 40.248 40.998 2.571 6.864 o
6 3 2 653.742 654.875 13.227 0.125 o
6 3 3 2.034 2.059 0.362 388.427 o
6 3 4 36.313 35.263 0.954 31.606 o
6 4 -5 39.126 39.963 1.245 21.346 o
6 4 -4 26.908 26.886 0.884 43.551 o
6 4 -3 63.666 67.221 1.617 10.395 o
6 4 -2 655.028 687.637 12.494 0.128 o
6 4 -1 2.575 2.641 0.673 113.201 o
6 4 0 0.000 0.291 0.522 189.495 o
6 4 1 0.373 0.372 0.372 374.080 o
6 4 2 166.693 167.726 4.258 1.530 o
6 4 3 18.265 17.556 0.733 71.813 o
6 5 -5 5.380 4.992 0.502 193.127 o
6 5 -4 62.908 62.079 1.908 8.850 o
6 5 -3 3.009 2.420 0.422 283.414 o
6 5 -2 49.325 48.711 1.838 10.926 o
6 5 -1 69.718 70.897 2.722 5.085 o
6 5 0 71.774 73.830 1.979 7.537 o
6 5 1 96.428 97.050 2.129 5.291 o
6 5 2 7.906 7.784 0.572 142.620 o
6 5 3 27.162 26.595 1.024 35.468 o
6 6 -4 45.831 44.011 1.547 14.606 o
6 6 -3 0.030 0.070 0.281 653.569 o
6 6 -2 376.511 389.807 8.085 0.352 o
6 6 -1 364.609 378.418 8.085 0.365 o
6 6 0 60.581 57.670 1.466 12.478 o
6 6 1 15.143 15.939 0.803 66.379 o
6 6 2 82.465 83.823 1.908 6.896 o
6 6 3 52.198 51.573 1.326 15.793 o
6 7 -4 78.964 77.285 1.245 10.344 o
6 7 -3 36.967 37.101 1.396 19.025 o
6 7 -2 1.206 1.105 0.372 372.216 o
6 7 -1 0.871 1.105 0.372 372.929 o
6 7 0 26.202 26.967 0.954 39.675 o
6 7 1 5.325 4.851 0.593 141.183 o
6 7 2 135.972 140.538 2.420 3.141 o
6 7 3 100.309 103.147 1.908 5.505 o
6 8 -4 4.034 3.525 0.492 206.282 o
6 8 -3 52.115 53.120 1.245 16.710 o
6 8 -2 35.359 34.459 1.245 23.074 o
6 8 -1 18.883 18.068 1.105 36.535 o
6 8 0 104.698 107.043 3.596 2.697 o
6 8 1 11.937 13.077 0.954 51.926 o
6 8 2 52.009 51.573 1.326 15.829 o
6 9 -3 69.663 68.908 1.908 8.150 o
6 9 -2 121.087 118.794 2.059 4.184 o
6 9 -1 9.007 8.527 0.562 143.493 o
6 9 0 9.367 8.888 0.593 129.653 o
6 9 1 59.581 58.694 1.687 10.729 o
6 10 -2 1.631 1.547 0.372 370.427 o
6 10 -1 43.219 43.197 1.245 19.897 o
6 10 0 0.983 0.954 0.341 441.246 o
7 1 -5 4.705 4.258 0.321 449.733 o
7 1 -4 97.210 96.096 2.501 4.490 o
7 1 -3 104.604 105.718 2.641 3.929 o
7 1 -2 96.506 95.433 2.571 4.383 o
7 1 -1 30.967 29.267 1.386 21.191 o
7 1 0 60.348 54.928 1.938 9.102 o
7 1 1 30.245 29.970 1.617 16.543 o
7 1 2 441.234 465.113 10.284 0.236 o
7 1 3 164.524 167.646 4.037 1.632 o
7 2 -5 5.480 5.654 0.392 302.939 o
7 2 -4 3.704 3.746 0.422 278.356 o
7 2 -3 5.986 5.514 0.803 77.769 o
7 2 -2 843.962 881.586 14.694 0.082 o
7 2 -1 648.987 629.535 10.375 0.152 o
7 2 0 32.017 31.737 1.617 16.223 o
7 2 1 314.154 318.107 5.514 0.600 o
7 2 2 8.545 8.376 0.693 99.275 o
7 2 3 40.760 39.160 1.326 19.397 o
7 3 -5 130.203 135.245 2.280 3.458 o
7 3 -4 157.304 156.337 3.304 2.090 o
7 3 -3 289.389 301.947 4.992 0.706 o
7 3 -2 342.671 352.556 8.085 0.390 o
7 3 -1 553.154 576.335 10.284 0.183 o
7 3 0 197.011 199.383 7.051 0.721 o
7 3 1 236.352 238.392 4.700 0.965 o
7 3 2 123.833 127.020 3.525 2.441 o
7 3 3 8.890 8.527 0.663 107.123 o
7 4 -5 27.424 26.003 0.683 59.167 o
7 4 -4 15.521 15.497 0.723 78.573 o
7 4 -3 1129.000 1159.290 29.387 0.032 o
7 4 -2 0.011 0.000 0.321 500.395 o
7 4 -1 113.837 110.860 2.943 3.272 o
7 4 0 0.897 0.512 0.311 531.382 o
7 4 1 215.157 218.335 3.746 1.284 o
7 4 2 0.050 0.070 0.281 653.563 o
7 4 3 24.748 24.094 0.733 59.081 o
7 5 -5 67.381 67.442 1.547 10.465 o
7 5 -4 148.080 147.448 3.596 2.052 o
7 5 -3 0.206 0.070 0.291 609.176 o
7 5 -2 542.944 550.845 11.018 0.179 o
7 5 -1 6.766 7.563 0.643 117.235 o
7 5 0 313.088 321.040 6.910 0.499 o
7 5 1 334.881 342.714 5.293 0.563 o
7 5 2 11.578 10.947 0.673 98.404 o
7 5 3 2.977 2.722 0.392 326.896 o
7 6 -4 5.816 5.735 0.482 205.766 o
7 6 -3 258.805 263.079 5.514 0.756 o
7 6 -2 59.335 58.041 1.768 10.195 o
7 6 -1 2.471 2.943 0.502 201.862 o
7 6 0 18.178 17.707 0.803 62.453 o
7 6 1 4.749 4.771 0.552 162.631 o
7 6 2 31.982 31.737 0.884 38.242 o
7 6 3 12.190 11.530 0.613 113.432 o
7 7 -4 0.310 0.372 0.311 532.863 o
7 7 -3 4.439 4.188 0.562 158.080 o
7 7 -2 10.194 10.134 0.703 93.587 o
7 7 -1 138.655 139.293 3.234 2.430 o
7 7 0 103.808 105.939 2.350 4.438 o
7 7 1 164.971 165.587 3.596 1.831 o
7 7 2 0.002 0.291 0.281 653.533 o
7 8 -3 57.360 57.961 1.979 8.955 o
7 8 -2 77.417 75.085 1.547 9.092 o
7 8 -1 16.943 16.461 1.024 42.810 o
7 8 0 25.084 25.420 1.175 29.762 o
7 8 1 16.116 16.090 0.693 82.608 o
7 9 -2 30.937 29.970 1.245 24.893 o
7 9 -1 17.212 16.311 0.713 77.281 o
7 9 0 148.396 149.497 2.280 2.936 o
7 9 1 0.246 0.221 0.281 653.316 o
8 0 -5 0.891 0.663 0.231 961.920 o
8 0 -4 879.344 923.458 22.779 0.053 o
8 0 -3 148.330 156.698 3.013 2.362 o
8 0 -2 45.922 42.976 1.838 11.460 o
8 0 -1 74.319 74.784 2.501 5.520 o
8 0 0 3.403 3.525 0.733 94.980 o
8 0 1 133.444 136.421 3.596 2.241 o
8 0 2 406.353 431.317 16.893 0.135 o
8 1 -5 16.538 15.718 0.633 94.206 o
8 1 -4 107.624 107.043 2.862 3.525 o
8 1 -3 287.618 293.711 5.514 0.668 o
8 1 -2 20.066 19.766 1.326 26.091 o
8 1 -1 0.310 0.803 0.542 175.646 o
8 1 0 616.840 646.569 12.494 0.137 o
8 1 1 6.680 6.980 0.723 94.201 o
8 1 2 80.128 79.414 2.200 6.142 o
8 1 3 43.303 41.801 0.954 26.679 o
8 2 -5 95.229 90.873 4.339 2.176 o
8 2 -4 0.039 0.151 0.311 533.182 o
8 2 -3 0.004 0.070 0.281 653.574 o
8 2 -2 34.571 33.284 1.105 27.581 o
8 2 -1 68.444 69.350 2.501 5.805 o
8 2 0 100.890 104.171 2.722 3.904 o
8 2 1 723.222 742.002 16.893 0.089 o
8 2 2 7.050 6.538 0.643 117.550 o
8 2 3 61.887 60.170 1.175 14.817 o
8 3 -5 1.128 0.663 0.261 752.140 o
8 3 -4 0.601 0.663 0.311 532.010 o
8 3 -3 171.102 170.880 3.525 1.793 o
8 3 -2 135.663 138.479 2.792 2.831 o
8 3 -1 56.623 54.807 1.979 9.110 o
8 3 0 30.565 29.899 1.768 14.197 o
8 3 1 235.687 240.963 5.213 0.879 o
8 3 2 188.139 192.704 3.967 1.440 o
8 3 3 3.108 2.792 0.412 295.999 o
8 4 -5 4.790 4.409 0.422 271.857 o
8 4 -4 0.094 0.151 0.311 533.160 o
8 4 -3 402.788 421.545 7.342 0.350 o
8 4 -2 161.700 160.153 3.234 2.066 o
8 4 -1 168.527 170.508 3.525 1.815 o
8 4 0 1.201 1.396 0.341 439.866 o
8 4 1 0.293 0.291 0.321 500.163 o
8 4 2 29.709 30.412 1.175 27.443 o
8 4 3 102.943 102.634 1.687 5.890 o
8 5 -4 5.525 5.514 0.462 224.206 o
8 5 -3 6.574 6.538 0.613 129.385 o
8 5 -2 81.323 82.206 2.059 6.483 o
8 5 -1 172.151 171.392 3.375 1.849 o
8 5 0 3.333 3.746 0.482 216.119 o
8 5 1 68.065 67.814 1.687 9.505 o
8 5 2 46.181 45.105 1.105 21.558 o
8 6 -4 1.292 1.466 0.321 495.493 o
8 6 -3 114.053 111.663 2.501 3.844 o
8 6 -2 479.984 497.504 11.018 0.204 o
8 6 -1 42.766 43.709 1.326 18.473 o
8 6 0 300.055 299.004 5.213 0.667 o
8 6 1 65.410 65.383 1.687 9.855 o
8 6 2 4.309 3.746 0.472 222.455 o
8 7 -4 11.416 11.018 0.613 115.706 o
8 7 -3 20.492 19.766 0.954 45.330 o
8 7 -2 100.598 103.147 2.792 3.810 o
8 7 -1 14.447 13.960 0.803 68.012 o
8 7 0 29.445 29.899 1.105 30.199 o
8 7 1 83.488 82.206 1.466 8.589 o
8 7 2 306.472 314.803 4.339 0.714 o
8 8 -3 74.365 72.956 1.687 8.749 o
8 8 -2 0.359 0.372 0.291 608.750 o
8 8 -1 93.313 92.862 2.792 4.082 o
8 8 0 3.599 3.164 0.462 234.802 o
8 8 1 131.891 132.534 2.280 3.450 o
8 9 -2 3.758 3.596 0.472 224.224 o
8 9 -1 5.367 5.293 0.532 172.666 o
8 9 0 38.123 37.613 1.326 20.151 o
9 1 -5 52.137 52.086 0.954 21.243 o
9 1 -4 0.321 0.291 0.311 532.901 o
9 1 -3 10.301 10.505 0.683 98.133 o
9 1 -2 109.923 109.755 2.501 3.970 o
9 1 -1 29.461 29.166 1.024 33.721 o
9 1 0 31.860 32.400 1.175 26.421 o
9 1 1 83.892 85.219 2.420 5.250 o
9 1 2 117.183 119.015 4.700 1.730 o
9 1 3 3.457 2.722 0.392 324.648 o
9 2 -5 0.010 0.000 0.231 968.628 o
9 2 -4 123.447 123.786 2.722 3.237 o
9 2 -3 219.662 221.499 4.630 1.063 o
9 2 -2 81.405 85.289 2.129 6.177 o
9 2 -1 2.950 2.943 0.482 217.833 o
9 2 0 216.221 223.558 5.805 0.854 o
9 2 1 60.210 59.799 1.687 10.614 o
9 2 2 13.078 13.006 0.884 58.958 o
9 2 3 2.345 2.641 0.572 156.116 o
9 3 -5 31.689 31.004 0.803 43.058 o
9 3 -4 51.447 48.630 1.979 9.671 o
9 3 -3 12.210 12.414 0.954 51.953 o
9 3 -2 108.477 112.989 2.641 3.757 o
9 3 -1 2.070 2.350 0.633 128.261 o
9 3 0 25.550 25.490 1.326 24.347 o
9 3 1 111.059 115.560 3.013 3.194 o
9 3 2 94.101 93.083 1.687 6.648 o
9 4 -4 2.738 2.862 0.643 123.801 o
9 4 -3 113.391 115.199 2.571 3.720 o
9 4 -2 54.482 54.436 1.617 12.083 o
9 4 -1 41.759 41.289 1.617 14.418 o
9 4 0 1.092 0.803 0.352 416.416 o
9 4 1 63.068 64.057 2.350 6.647 o
9 4 2 17.040 16.461 0.954 48.330 o
9 5 -4 219.482 221.499 2.792 1.478 o
9 5 -3 46.212 45.698 1.326 17.546 o
9 5 -2 11.727 11.831 0.733 84.031 o
9 5 -1 0.192 0.221 0.301 569.195 o
9 5 0 248.207 250.073 4.921 0.877 o
9 5 1 0.096 0.000 0.352 418.282 o
9 5 2 55.435 55.470 1.547 12.559 o
9 6 -4 0.707 0.733 0.321 499.008 o
9 6 -3 1.529 1.617 0.311 525.817 o
9 6 -2 4.239 4.118 0.572 153.096 o
9 6 -1 0.698 0.733 0.341 442.186 o
9 6 0 28.367 27.921 1.024 34.554 o
9 6 1 84.926 86.766 1.547 7.959 o
9 7 -3 35.550 34.891 1.326 21.034 o
9 7 -2 26.023 25.129 1.024 36.388 o
9 7 -1 1.209 1.175 0.311 528.815 o
9 7 0 23.901 23.733 0.803 53.600 o
9 7 1 191.763 189.611 2.571 1.909 o
9 8 -2 21.505 21.011 0.803 57.375 o
9 8 -1 29.069 28.503 1.105 30.618 o
9 8 0 135.259 136.059 2.200 3.415 o
10 0 -5 0.288 0.221 0.643 125.087 o
10 0 -4 19.903 19.032 0.803 60.017 o
10 0 -3 204.105 207.538 4.851 1.096 o
10 0 -2 585.602 603.000 13.227 0.139 o
10 0 -1 33.624 34.750 1.175 25.476 o
10 0 0 645.866 677.714 16.160 0.103 o
10 0 1 498.947 536.954 13.227 0.161 o
10 0 2 9.637 10.435 0.884 61.817 o
10 1 -5 1.291 1.547 0.311 527.421 o
10 1 -4 5.640 5.735 0.693 103.730 o
10 1 -3 149.502 149.648 2.943 2.438 o
10 1 -2 184.385 188.878 3.967 1.472 o
10 1 -1 265.724 271.234 5.805 0.700 o
10 1 0 3.013 2.501 0.492 209.497 o
10 1 1 50.924 52.156 1.768 11.232 o
10 1 2 22.378 21.814 0.954 43.566 o
10 2 -5 183.950 184.248 2.722 1.958 o
10 2 -4 3.488 3.525 0.442 255.679 o
10 2 -3 62.519 60.391 2.059 8.100 o
10 2 -2 98.793 99.471 2.420 4.552 o
10 2 -1 16.475 16.602 0.803 64.730 o
10 2 0 1.013 1.175 0.372 372.570 o
10 2 1 79.869 81.543 2.420 5.449 o
10 2 2 12.995 12.705 0.623 107.455 o
10 3 -4 161.061 161.841 2.420 2.528 o
10 3 -3 76.844 77.134 1.838 7.718 o
10 3 -2 17.589 16.532 0.884 54.540 o
10 3 -1 63.868 63.033 2.280 6.924 o
10 3 0 2.105 2.200 0.452 249.908 o
10 3 1 23.774 23.291 1.466 20.988 o
10 3 2 0.194 0.151 0.301 569.225 o
10 4 -4 29.209 29.317 1.175 27.785 o
10 4 -3 303.832 308.114 6.468 0.549 o
10 4 -2 0.290 0.593 0.492 213.338 o
10 4 -1 65.521 62.812 2.059 7.855 o
10 4 0 73.454 74.352 2.129 6.816 o
10 4 1 10.854 10.656 0.593 124.136 o
10 4 2 9.559 9.260 0.803 74.291 o
10 5 -4 27.114 26.304 0.803 49.248 o
10 5 -3 64.826 63.324 1.396 12.109 o
10 5 -2 4.499 4.630 0.623 129.438 o
10 5 -1 14.472 13.739 0.884 57.775 o
10 5 0 74.058 73.689 1.547 9.472 o
10 5 1 21.014 21.383 0.803 57.685 o
10 6 -3 154.296 148.473 2.420 2.739 o
10 6 -2 37.203 37.030 1.105 25.921 o
10 6 -1 246.209 241.847 3.234 1.174 o
10 6 0 2.002 1.768 0.372 368.750 o
10 6 1 1.295 1.175 0.362 392.721 o
10 7 -2 4.736 4.771 0.502 195.183 o
10 7 -1 55.774 54.807 1.687 11.308 o
10 7 0 13.935 13.810 0.683 89.949 o
11 1 -4 19.084 17.707 0.693 76.606 o
11 1 -3 18.477 18.369 0.884 53.188 o
11 1 -2 63.201 62.521 1.838 9.228 o
11 1 -1 4.681 4.851 0.623 129.110 o
11 1 0 16.169 16.019 0.954 48.946 o
11 1 1 0.005 -0.070 0.251 819.847 o
11 2 -4 187.550 188.586 2.722 1.900 o
11 2 -3 13.379 13.077 0.733 81.220 o
11 2 -2 194.254 197.987 4.560 1.224 o
11 2 -1 46.217 44.081 1.617 13.690 o
11 2 0 23.847 24.245 1.024 37.678 o
11 2 1 0.497 0.512 0.291 608.268 o
11 3 -4 36.174 34.680 0.954 31.830 o
11 3 -3 360.823 362.479 5.213 0.515 o
11 3 -2 0.229 0.151 0.352 418.211 o
11 3 -1 182.853 184.027 4.258 1.399 o
11 3 0 96.346 98.516 2.059 5.429 o
11 3 1 191.115 193.066 2.792 1.819 o
11 4 -4 78.990 79.052 1.768 7.803 o
11 4 -3 36.199 35.925 1.024 29.032 o
11 4 -2 180.581 178.593 2.420 2.153 o
11 4 -1 130.202 131.941 2.792 2.973 o
11 4 0 116.781 114.757 1.908 4.616 o
11 4 1 280.947 284.461 4.188 0.832 o
11 5 -3 283.937 274.609 6.026 0.642 o
11 5 -2 106.269 104.904 2.129 4.781 o
11 5 -1 0.409 0.593 0.341 442.786 o
11 5 0 4.195 3.897 0.472 222.570 o
11 6 -2 53.519 51.724 1.245 16.561 o
11 6 -1 39.225 37.834 1.105 25.057 o
11 6 0 2.829 2.792 0.442 258.778 o
12 0 -4 32.825 31.366 1.326 22.053 o
12 0 -3 11.400 10.726 0.613 116.059 o
12 0 -2 145.225 144.877 2.350 2.983 o
12 0 -1 33.909 34.088 0.884 36.196 o
12 0 0 695.380 726.354 16.893 0.092 o
12 0 1 60.260 60.462 1.617 11.104 o
12 1 -4 5.465 4.921 0.502 192.986 o
12 1 -3 84.719 83.311 1.466 8.433 o
12 1 -2 9.970 9.772 0.562 139.199 o
12 1 -1 76.139 77.214 1.396 9.884 o
12 1 0 34.153 35.112 1.175 25.250 o
12 1 1 122.059 127.683 2.862 3.076 o
12 2 -4 50.505 49.585 1.105 19.630 o
12 2 -3 0.292 0.291 0.291 608.938 o
12 2 -2 0.049 0.221 0.281 653.525 o
12 2 -1 1.285 1.326 0.311 528.049 o
12 2 0 11.547 11.018 0.633 109.313 o
12 3 -3 3.042 2.722 0.402 310.949 o
12 3 -2 4.131 3.967 0.492 205.508 o
12 3 -1 18.083 17.114 0.733 72.354 o
12 3 0 5.478 5.142 0.643 120.396 o
12 4 -3 27.037 25.490 1.024 35.800 o
12 4 -2 41.288 40.776 1.105 23.838 o
12 4 -1 58.898 58.403 1.466 12.656 o
12 4 0 2.610 2.501 0.372 364.493 o
12 5 -2 0.690 0.593 0.301 567.823 o
12 5 -1 19.624 18.289 0.803 60.682 o
13 1 -3 84.583 82.869 1.617 7.866 o
13 1 -2 14.998 14.402 0.613 103.764 o
13 1 -1 285.864 296.433 4.409 0.779 o
13 2 -2 10.169 9.772 0.583 130.589 o
13 2 -1 35.979 36.217 0.884 34.230 o
13 3 -2 14.823 14.473 0.803 67.405 o
;
_olex2_submission_special_instructions 'No special instructions were received'
loop_
_space_group_symop_id
_space_group_symop_operation_xyz
1 x,y,z
2 -x+1/2,y+1/2,-z
3 -x,-y,-z
4 x-1/2,-y-1/2,z
loop_
_atom_site_label
_atom_site_type_symbol
_atom_site_fract_x
_atom_site_fract_y
_atom_site_fract_z
_atom_site_U_iso_or_equiv
_atom_site_adp_type
_atom_site_occupancy
_atom_site_refinement_flags_posn
O(1) O 0.65873(3) 0.40703(4) 0.42779(7) 0.00730(10) Uani 1.000000 .
O(2) O 0.82864(3) 0.51081(4) 0.75163(7) 0.00747(10) Uani 1.000000 .
O(3) O 0.92865(3) 0.17527(4) 0.72158(7) 0.00790(10) Uani 1.000000 .
N(1) N 0.65317(4) 0.17335(5) 0.74365(9) 0.00635(10) Uani 1.000000 .
C(1) C 0.74643(4) 0.41047(5) 0.66630(10) 0.00570(11) Uani 1.000000 .
C(2) C 0.75447(4) 0.28348(5) 0.87904(10) 0.00560(11) Uani 1.000000 .
C(3) C 0.88953(4) 0.21646(5) 0.96983(10) 0.00702(11) Uani 1.000000 .
H(2) H 0.7321(7) 0.3250(9) 1.0693(18) 0.0216(19) Uiso 1.000000 .
H(1a H 0.5650(10) 0.2260(11) 0.690(2) 0.026(2) Uiso 1.000000 .
H(1b H 0.6526(9) 0.0966(12) 0.896(2) 0.025(2) Uiso 1.000000 .
H(1c H 0.6674(9) 0.1233(11) 0.564(2) 0.023(2) Uiso 1.000000 .
H(3a H 0.9572(7) 0.2977(9) 1.0912(16) 0.0215(19) Uiso 1.000000 .
H(3b H 0.8916(7) 0.1241(9) 1.1171(18) 0.0249(19) Uiso 1.000000 .
H(3) H 0.9013(8) 0.0766(11) 0.6719(19) 0.023(2) Uiso 1.000000 .
loop_
_atom_site_aniso_label
_atom_site_aniso_U_11
_atom_site_aniso_U_22
_atom_site_aniso_U_33
_atom_site_aniso_U_12
_atom_site_aniso_U_13
_atom_site_aniso_U_23
O(1) 0.00849(17) 0.00682(18) 0.00624(17) -0.00055(12) 0.00161(13) 0.00092(11)
O(2) 0.00910(17) 0.00700(18) 0.00639(17) -0.00154(12) 0.00236(13) 0.00007(12)
O(3) 0.00648(17) 0.00912(19) 0.00945(18) -0.00065(12) 0.00442(13) -0.00118(13)
N(1) 0.00600(19) 0.0068(2) 0.0066(2) -0.00039(14) 0.00241(14) 0.00039(16)
C(1) 0.0064(2) 0.0059(2) 0.0054(2) 0.00006(16) 0.00269(17) -0.00050(16)
C(2) 0.0066(2) 0.0065(2) 0.0044(2) 0.00081(15) 0.00254(16) 0.00065(15)
C(3) 0.0061(2) 0.0080(2) 0.0070(2) 0.00081(16) 0.00193(16) 0.00070(16)
loop_
_atom_type_symbol
_atom_type_description
_atom_type_scat_dispersion_real
_atom_type_scat_dispersion_imag
_atom_type_scat_source
_atom_type_scat_dispersion_source
C C 0.00347 0.00161
'Clementi & Roetti, C., At. Data Nucl. Data Tables 1974, 14, (177-478); Clementi & Raimondi, J. Chem. Phys., 1963, 38, (2686-2689)'
'Henke, Gullikson and Davis, At. Data and Nucl. Data Tables, 1993, 54, 2'
H H 0.00000 0.00000
'Clementi & Roetti, C., At. Data Nucl. Data Tables 1974, 14, (177-478); Clementi & Raimondi, J. Chem. Phys., 1963, 38, (2686-2689)'
'Henke, Gullikson and Davis, At. Data and Nucl. Data Tables, 1993, 54, 2'
N N 0.00653 0.00323
'Clementi & Roetti, C., At. Data Nucl. Data Tables 1974, 14, (177-478); Clementi & Raimondi, J. Chem. Phys., 1963, 38, (2686-2689)'
'Henke, Gullikson and Davis, At. Data and Nucl. Data Tables, 1993, 54, 2'
O O 0.01158 0.00611
'Clementi & Roetti, C., At. Data Nucl. Data Tables 1974, 14, (177-478); Clementi & Raimondi, J. Chem. Phys., 1963, 38, (2686-2689)'
'Henke, Gullikson and Davis, At. Data and Nucl. Data Tables, 1993, 54, 2'
loop_
_geom_angle_atom_site_label_1
_geom_angle_atom_site_label_2
_geom_angle_atom_site_label_3
_geom_angle
_geom_angle_site_symmetry_1
_geom_angle_site_symmetry_3
_geom_angle_publ_flag
H(3) O(3) C(3) 108.3(5) . . ?
H(1a N(1) C(2) 107.2(5) . . ?
H(1b N(1) C(2) 108.4(5) . . ?
H(1b N(1) H(1a 108.0(7) . . ?
H(1c N(1) C(2) 113.6(5) . . ?
H(1c N(1) H(1a 110.6(7) . . ?
H(1c N(1) H(1b 108.9(7) . . ?
O(2) C(1) O(1) 125.88(4) . . ?
C(2) C(1) O(1) 117.81(4) . . ?
C(2) C(1) O(2) 116.29(4) . . ?
C(1) C(2) N(1) 109.61(4) . . ?
C(3) C(2) N(1) 111.55(4) . . ?
C(3) C(2) C(1) 111.24(4) . . ?
H(2) C(2) N(1) 107.0(4) . . ?
H(2) C(2) C(1) 107.9(4) . . ?
H(2) C(2) C(3) 109.4(4) . . ?
C(2) C(3) O(3) 111.13(4) . . ?
H(3a C(3) O(3) 108.3(4) . . ?
H(3a C(3) C(2) 108.1(4) . . ?
H(3b C(3) O(3) 111.9(4) . . ?
H(3b C(3) C(2) 109.6(4) . . ?
H(3b C(3) H(3a 107.7(6) . . ?
loop_
_geom_bond_atom_site_label_1
_geom_bond_atom_site_label_2
_geom_bond_distance
_geom_bond_site_symmetry_2
_geom_bond_publ_flag
O(1) C(1) 1.2522(6) . ?
O(2) C(1) 1.2620(6) . ?
O(3) C(3) 1.4209(6) . ?
O(3) H(3) 0.962(10) . ?
N(1) C(2) 1.4919(6) . ?
N(1) H(1a 1.030(10) . ?
N(1) H(1b 1.016(11) . ?
N(1) H(1c 1.025(10) . ?
C(1) C(2) 1.5340(6) . ?
C(2) C(3) 1.5231(6) . ?
C(2) H(2) 1.076(8) . ?
C(3) H(3a 1.086(8) . ?
C(3) H(3b 1.099(9) . ?
loop_
_refln_index_h
_refln_index_k
_refln_index_l
_refln_F_squared_meas
_refln_F_squared_sigma
-2 0 -8 85.14 1.46
-2 1 -8 15.14 1.02
7 2 -8 73.07 1.24
-1 2 -8 57.05 1.1
7 3 -8 24.94 0.73
6 3 -8 21.29 0.65
5 3 -8 7.83 0.45
1 3 -8 18.73 0.67
0 3 -8 61.44 1.17
-1 3 -8 17.63 0.73
7 4 -8 43.08 2.05
6 4 -8 2.78 0.39
5 4 -8 0 0.29
4 4 -8 6.29 0.48
3 4 -8 34.38 0.88
2 4 -8 38.62 0.95
1 4 -8 82.36 1.46
0 4 -8 64.37 1.32
7 5 -8 2.19 0.42
6 5 -8 11.19 0.59
5 5 -8 6.51 0.53
4 5 -8 0.37 0.31
3 5 -8 95.24 1.68
2 5 -8 1.61 0.48
1 5 -8 3.29 0.5
7 6 -8 26.48 1.32
6 6 -8 117.55 13.17
5 6 -8 2.85 0.72
4 6 -8 0.51 0.45
3 6 -8 27.06 0.8
7 14 -8 20.85 0.6
6 14 -8 22.31 0.6
-3 0 -7 0.59 0.27
-4 0 -7 51.28 1.1
-5 0 -7 0 0.33
-6 0 -7 55.67 1.39
-1 1 -7 12.29 0.46
-2 1 -7 6.88 0.42
-3 1 -7 20.48 0.66
-4 1 -7 9.95 0.56
-5 1 -7 12.14 0.65
-6 1 -7 -0.15 0.56
6 2 -7 126.03 1.46
0 2 -7 26.26 0.59
-1 2 -7 2.78 0.33
-2 2 -7 87.63 1.39
-3 2 -7 4.54 0.45
-4 2 -7 38.55 1.02
-5 2 -7 26.19 0.88
-6 2 -7 4.02 0.56
6 3 -7 24.8 0.62
3 3 -7 0.22 0.22
1 3 -7 1.39 0.29
-1 3 -7 57.05 2.85
-2 3 -7 150.68 2.63
-3 3 -7 5.71 0.54
-4 3 -7 89.61 1.76
-5 3 -7 77.1 1.68
-6 3 -7 1.02 0.41
6 4 -7 70.51 1.1
5 4 -7 14.56 0.51
1 4 -7 1.61 0.29
0 4 -7 2.49 0.48
-1 4 -7 34.01 0.8
-2 4 -7 -0.22 0.3
-3 4 -7 2.19 0.43
-4 4 -7 -0.07 0.39
-5 4 -7 26.33 1.02
6 5 -7 16.46 0.61
5 5 -7 0.29 0.28
4 5 -7 6.88 0.48
3 5 -7 -0.07 0.33
2 5 -7 1.76 0.37
1 5 -7 97.87 2.85
0 5 -7 41.26 1.97
-1 5 -7 75.85 4.1
-2 5 -7 2.63 0.45
-3 5 -7 79 1.61
-4 5 -7 37.23 1.17
-5 5 -7 34.38 1.17
6 6 -7 83.75 1.68
5 6 -7 0.22 0.31
4 6 -7 2.93 1.02
3 6 -7 33.94 1.97
2 6 -7 0.95 0.31
1 6 -7 5.27 0.5
0 6 -7 1.1 0.61
-1 6 -7 3.73 0.53
-2 6 -7 10.83 0.66
-3 6 -7 11.7 0.69
-4 6 -7 10.68 0.71
6 7 -7 0.51 0.36
5 7 -7 2.78 0.45
4 7 -7 0.8 0.34
3 7 -7 0.37 0.32
2 7 -7 10.24 0.59
1 7 -7 4.54 0.54
0 7 -7 27.5 1.83
-1 7 -7 0.8 0.66
-2 7 -7 35.26 1.61
-3 7 -7 28.02 1.02
-11 7 -7 5.63 0.41
6 8 -7 9.58 1.24
5 8 -7 18.51 1.61
4 8 -7 55.08 1.39
3 8 -7 0.37 0.35
2 8 -7 46.38 1.76
1 8 -7 57.35 2.19
0 8 -7 13.02 0.8
-1 8 -7 1.68 0.56
-10 8 -7 2.85 0.4
-11 8 -7 37.01 0.8
6 9 -7 60.93 2.34
5 9 -7 4.32 0.67
4 9 -7 1.54 0.64
3 9 -7 2.34 0.45
2 9 -7 2.63 0.49
1 9 -7 76.44 2.12
0 9 -7 1.02 0.63
-8 9 -7 -0.73 0.38
-9 9 -7 3.8 0.47
-10 9 -7 0.15 0.4
-6 10 -7 15.65 0.56
-7 10 -7 0.95 0.33
-8 10 -7 2.12 0.39
-9 10 -7 17.99 0.68
6 11 -7 28.38 0.69
5 11 -7 16.31 0.54
4 11 -7 25.75 0.64
-2 11 -7 0.44 0.26
-3 11 -7 11.48 0.5
-4 11 -7 40.96 0.8
-5 11 -7 9.66 0.49
-6 11 -7 9.07 0.49
-7 11 -7 32.99 0.73
-8 11 -7 3.51 0.43
6 12 -7 13.75 0.61
5 12 -7 27.28 0.69
4 12 -7 42.94 0.8
3 12 -7 2.71 0.45
2 12 -7 0.51 0.27
1 12 -7 3.36 0.42
0 12 -7 3.29 0.4
-1 12 -7 0.95 0.29
-2 12 -7 21.72 0.61
-3 12 -7 0.29 0.28
-4 12 -7 9.51 0.49
-5 12 -7 19.6 0.61
-6 12 -7 13.46 0.54
-7 12 -7 2.56 0.42
6 13 -7 25.38 0.8
5 13 -7 6.58 0.53
4 13 -7 6.88 0.48
3 13 -7 0.15 0.3
2 13 -7 12.73 0.56
1 13 -7 3.51 0.41
0 13 -7 0.44 0.32
-1 13 -7 3.22 0.42
-2 13 -7 55.01 0.95
-3 13 -7 3.15 0.45
-4 13 -7 122.89 1.68
-5 13 -7 6.8 0.47
-6 13 -7 0.51 0.29
6 14 -7 3.8 0.48
5 14 -7 22.31 0.73
4 14 -7 54.42 1.02
3 14 -7 2.63 0.42
2 14 -7 9.07 0.53
1 14 -7 -0.37 0.32
0 14 -7 4.54 0.43
-1 14 -7 0.73 0.35
-2 14 -7 0.88 0.33
-3 14 -7 -0.37 0.29
-4 14 -7 2.27 0.42
6 15 -7 7.02 1.61
5 15 -7 1.02 0.31
4 15 -7 10.46 0.6
3 15 -7 0.88 0.32
2 15 -7 1.02 0.31
1 15 -7 6.88 0.48
0 15 -7 29.84 0.8
-1 15 -7 40.74 0.8
-2 15 -7 9.07 0.48
6 16 -7 1.32 0.34
5 16 -7 4.68 0.48
4 16 -7 2.05 0.37
3 16 -7 46.52 1.02
2 16 -7 0.51 0.32
-6 0 -6 91.36 1.68
-7 0 -6 -0.07 0.36
-8 0 -6 77.9 3.8
-9 0 -6 0.37 0.5
-11 0 -6 0.44 0.27
-12 0 -6 124.35 1.68
-13 0 -6 0.22 0.31
-14 0 -6 1.68 0.39
-15 0 -6 -0.37 0.29
-2 1 -6 91.14 1.1
-4 1 -6 159.61 2.19
-5 1 -6 0.44 0.31
-6 1 -6 0.07 0.31
-7 1 -6 11.12 0.69
-8 1 -6 43.08 1.83
-9 1 -6 1.32 0.49
-11 1 -6 2.78 0.41
-12 1 -6 26.7 0.8
-13 1 -6 1.54 0.35
-14 1 -6 0.73 0.31
-15 1 -6 -0.44 0.29
5 2 -6 62.39 0.73
0 2 -6 5.63 0.3
-1 2 -6 16.17 0.49
-2 2 -6 8.19 0.68
-3 2 -6 3.22 0.36
-5 2 -6 14.48 0.61
-6 2 -6 110.82 2.19
-7 2 -6 49.23 2.49
-8 2 -6 13.46 1.61
-9 2 -6 1.02 0.5
-11 2 -6 6.73 0.45
-12 2 -6 6.51 0.48
-13 2 -6 0.8 0.31
-14 2 -6 4.46 0.48
-15 2 -6 4.02 0.73
5 3 -6 8.92 0.43
4 3 -6 104.6 1.1
3 3 -6 28.38 0.53
2 3 -6 71.61 0.88
1 3 -6 0.07 0.2
0 3 -6 11.56 0.42
-1 3 -6 8.12 0.39
-2 3 -6 1.1 0.26
-3 3 -6 20.26 0.6
-4 3 -6 0.44 0.3
-5 3 -6 4.61 0.52
-6 3 -6 0.44 0.37
-7 3 -6 55.96 2.34
-8 3 -6 29.26 1.1
-9 3 -6 -0.07 0.73
-10 3 -6 86.53 1.17
-11 3 -6 43.45 0.8
-12 3 -6 7.9 0.49
-13 3 -6 6 0.48
-14 3 -6 7.31 0.5
-15 3 -6 15 0.59
5 4 -6 89.09 2.19
4 4 -6 23.7 1.24
3 4 -6 24.5 0.8
2 4 -6 95.97 2.78
1 4 -6 -0.15 0.33
0 4 -6 0.8 0.23
-1 4 -6 6.29 0.44
-2 4 -6 -0.07 0.28
-3 4 -6 61.08 1.1
-4 4 -6 44.55 1.24
-5 4 -6 53.76 1.32
-6 4 -6 12.8 1.17
-7 4 -6 16.39 0.88
-8 4 -6 -0.07 0.49
-9 4 -6 25.09 0.61
-10 4 -6 1.1 0.29
-11 4 -6 8.27 0.49
-12 4 -6 11.7 0.53
-13 4 -6 0.22 0.3
-14 4 -6 19.02 0.61
-15 4 -6 76.37 1.17
5 5 -6 8.27 0.47
4 5 -6 65.1 1.32
3 5 -6 332.31 4.1
2 5 -6 5.92 0.8
1 5 -6 153.24 1.9
0 5 -6 13.9 0.51
-1 5 -6 0.73 0.29
-2 5 -6 21.65 0.65
-3 5 -6 76.95 4.32
-4 5 -6 9.29 0.69
-5 5 -6 9.66 0.8
-6 5 -6 1.54 0.47
-7 5 -6 168.68 3.36
-8 5 -6 12.58 1.1
-9 5 -6 126.91 1.54
-10 5 -6 0.59 0.28
-11 5 -6 1.83 0.31
-12 5 -6 1.68 0.32
-13 5 -6 0.73 0.31
-14 5 -6 0.29 0.31
-15 5 -6 1.83 0.34
5 6 -6 52.37 1.02
4 6 -6 66.2 2.05
3 6 -6 1.9 0.34
2 6 -6 13.46 1.02
1 6 -6 8.19 0.55
-1 6 -6 0.29 0.31
-2 6 -6 27.43 1.46
-3 6 -6 6.44 0.8
-4 6 -6 19.82 0.95
-5 6 -6 6 0.72
-6 6 -6 9.14 0.73
-7 6 -6 21.94 1.83
-8 6 -6 20.48 0.57
-9 6 -6 22.97 0.61
-10 6 -6 7.24 0.48
-11 6 -6 5.56 0.47
-12 6 -6 13.75 0.56
-13 6 -6 3 0.45
-14 6 -6 -0.15 0.3
5 7 -6 1.54 0.36
4 7 -6 61.96 4.24
3 7 -6 32.77 1.46
2 7 -6 7.24 0.64
1 7 -6 18.29 0.73
0 7 -6 38.69 1.02
-1 7 -6 58.15 1.39
-2 7 -6 0.73 0.37
-3 7 -6 47.03 1.24
-4 7 -6 0.66 0.41
-5 7 -6 52.89 1.46
-6 7 -6 0.15 0.34
-7 7 -6 4.61 0.53
-8 7 -6 14.7 0.53
-9 7 -6 17.04 0.56
-10 7 -6 7.24 0.48
-11 7 -6 4.54 0.45
-12 7 -6 4.24 0.43
-13 7 -6 23.19 0.64
-14 7 -6 3.07 0.42
5 8 -6 60.2 1.39
4 8 -6 1.32 0.38
3 8 -6 103.14 3.07
2 8 -6 20.41 0.8
1 8 -6 1.1 0.39
0 8 -6 0.15 0.34
-1 8 -6 115.35 2.27
-2 8 -6 0.73 0.39
-3 8 -6 15.87 0.8
-4 8 -6 15.65 0.73
-5 8 -6 159.97 3.07
-6 8 -6 6.51 0.56
-7 8 -6 27.14 0.68
-8 8 -6 1.39 0.34
-9 8 -6 0.22 0.36
-10 8 -6 0.07 0.34
-11 8 -6 7.83 0.56
-12 8 -6 -0.37 0.34
-13 8 -6 1.39 0.31
5 9 -6 16.09 0.88
4 9 -6 1.61 0.44
3 9 -6 15.07 0.73
2 9 -6 7.46 0.62
1 9 -6 60.79 2.12
0 9 -6 0.37 0.39
-1 9 -6 27.58 0.95
-2 9 -6 3.66 0.5
-3 9 -6 0.22 0.36
-4 9 -6 11.26 1.17
-5 9 -6 25.24 1.02
-6 9 -6 0 0.25
-7 9 -6 1.02 0.29
-8 9 -6 13.46 0.68
-9 9 -6 0.29 0.29
-10 9 -6 1.02 0.31
-11 9 -6 19.09 0.62
-12 9 -6 7.1 0.48
-13 9 -6 17.48 0.61
5 10 -6 67.22 2.12
4 10 -6 46.67 1.17
3 10 -6 0.07 0.31
2 10 -6 0.51 0.34
1 10 -6 0.22 0.34
0 10 -6 6.73 0.59
-1 10 -6 57.05 1.68
-2 10 -6 0.59 0.37
-3 10 -6 3 0.53
-4 10 -6 11.34 0.54
-5 10 -6 0.51 0.27
-6 10 -6 46.59 0.88
-7 10 -6 64.08 1.1
-8 10 -6 27.94 2.63
-9 10 -6 25.38 0.69
-10 10 -6 0.07 0.31
-11 10 -6 2.63 0.49
-12 10 -6 18.58 0.69
5 11 -6 1.32 0.4
4 11 -6 21.58 1.1
3 11 -6 22.68 0.95
2 11 -6 0.37 0.37
1 11 -6 67 1.68
0 11 -6 1.46 0.42
-1 11 -6 41.55 1.24
-2 11 -6 31.6 0.69
-3 11 -6 0 0.25
-4 11 -6 20.63 0.56
-5 11 -6 14.19 0.8
-6 11 -6 2.34 0.34
-7 11 -6 1.32 0.35
-8 11 -6 2.27 0.35
-9 11 -6 -0.15 0.3
-10 11 -6 0.07 0.31
-11 11 -6 13.9 0.6
5 12 -6 11.19 0.69
4 12 -6 41.04 1.17
3 12 -6 2.12 0.42
2 12 -6 25.75 0.8
1 12 -6 4.1 0.4
0 12 -6 46.67 2.19
-1 12 -6 36.43 1.17
-2 12 -6 5.92 0.42
-3 12 -6 0.15 0.25
-4 12 -6 122.16 8.78
-5 12 -6 3.44 0.43
-6 12 -6 71.68 11.7
-7 12 -6 7.39 0.51
-8 12 -6 8.34 0.72
-9 12 -6 3 0.45
-10 12 -6 0.51 0.31
5 13 -6 9.22 0.48
4 13 -6 205.69 2.49
3 13 -6 1.76 0.31
2 13 -6 116.23 4.39
1 13 -6 4.54 0.42
0 13 -6 2.19 0.73
-1 13 -6 0.22 0.28
-2 13 -6 0.59 0.28
-3 13 -6 2.85 0.4
-4 13 -6 8.92 0.8
-5 13 -6 1.46 0.32
-6 13 -6 0.51 0.31
-7 13 -6 4.68 0.5
-8 13 -6 88.07 1.39
-9 13 -6 0.29 0.31
5 14 -6 10.46 1.61
4 14 -6 -0.15 0.31
3 14 -6 22.31 2.78
2 14 -6 22.75 1.39
1 14 -6 24.36 1.1
0 14 -6 12.44 0.53
-1 14 -6 8.63 0.55
-2 14 -6 7.02 0.47
-3 14 -6 0.37 0.37
-4 14 -6 39.5 1.61
-5 14 -6 5.56 0.48
-6 14 -6 1.76 0.33
-7 14 -6 5.49 0.88
-8 14 -6 3.36 0.48
5 15 -6 0.22 0.48
4 15 -6 19.82 2.63
3 15 -6 0.44 0.31
2 15 -6 0.07 0.33
1 15 -6 11.85 1.24
0 15 -6 5.78 0.48
-1 15 -6 -0.07 0.52
-2 15 -6 43.38 2.85
-3 15 -6 7.31 0.48
-4 15 -6 41.69 0.88
-5 15 -6 0.29 0.3
-6 15 -6 0.22 0.3
5 16 -6 0.73 0.37
4 16 -6 22.16 1.83
3 16 -6 8.05 0.95
2 16 -6 0.15 0.31
1 16 -6 5.49 0.46
0 16 -6 3 0.48
-1 16 -6 2.78 0.41
-2 16 -6 6.88 0.48
-3 16 -6 9.8 0.55
-4 16 -6 0.44 0.31
5 17 -6 0.44 0.48
4 17 -6 16.6 5.12
3 17 -6 46.74 6.88
2 17 -6 4.9 0.68
1 17 -6 0.73 0.32
0 17 -6 0.66 0.29
-1 17 -6 12.51 0.57
4 0 -5 184.99 3
-2 0 -5 78.41 0.8
-7 0 -5 0.07 0.3
-8 0 -5 0.51 0.36
-9 0 -5 0.22 0.39
-10 0 -5 100.14 3.73
-11 0 -5 0.15 0.42
-12 0 -5 54.71 1.68
-14 0 -5 1.97 0.37
-15 0 -5 -0.29 0.29
-16 0 -5 0.44 0.43
-17 0 -5 0 0.3
4 1 -5 129.62 2.34
3 1 -5 31.45 1.02
0 1 -5 13.61 0.71
-2 1 -5 33.57 0.5
-3 1 -5 15.29 0.43
-4 1 -5 153.9 1.9
-5 1 -5 4.75 0.46
-6 1 -5 3.51 0.45
-7 1 -5 101.46 4.9
-8 1 -5 14.26 0.72
-9 1 -5 55.96 1.9
-10 1 -5 59.25 2.71
-11 1 -5 21.21 1.02
-12 1 -5 0.51 0.42
-13 1 -5 1.17 0.34
-14 1 -5 3.22 0.48
-15 1 -5 11.63 0.88
-16 1 -5 14.7 0.59
-17 1 -5 2.71 0.45
4 2 -5 147.25 2.93
3 2 -5 360.25 10.97
2 2 -5 11.19 0.8
1 2 -5 1.1 0.53
-2 2 -5 50.33 0.7
-3 2 -5 0.15 0.22
-4 2 -5 210.52 2.49
-5 2 -5 1.02 0.29
-6 2 -5 7.83 1.54
-7 2 -5 180.75 15.36
-8 2 -5 110.23 3.58
-9 2 -5 54.64 1.17
-10 2 -5 0.22 0.38
-11 2 -5 34.53 1.1
-12 2 -5 59.54 0.95
-13 2 -5 7.83 0.61
-14 2 -5 15.8 0.61
-15 2 -5 1.97 0.36
-16 2 -5 5.85 1.54
-17 2 -5 21.07 1.97
4 3 -5 10.02 1.76
3 3 -5 0.22 0.38
2 3 -5 112.43 2.27
1 3 -5 247.75 2.05
0 3 -5 164 1.46
-1 3 -5 318.26 2.93
-2 3 -5 2.85 0.62
-3 3 -5 59.91 1.9
-4 3 -5 54.49 1.02
-5 3 -5 49.52 1.24
-6 3 -5 3.8 0.47
-7 3 -5 2.63 0.42
-8 3 -5 26.48 0.8
-9 3 -5 0.07 0.31
-10 3 -5 12.73 0.88
-11 3 -5 49.89 1.32
-12 3 -5 22.46 0.62
-13 3 -5 28.6 0.72
-14 3 -5 2.05 0.35
-15 3 -5 10.68 0.55
-16 3 -5 4.39 0.49
-17 3 -5 3.73 1.32
4 4 -5 45.42 0.73
3 4 -5 40.6 0.8
2 4 -5 79.36 1.76
1 4 -5 2.63 0.31
0 4 -5 0.15 0.2
-1 4 -5 37.23 0.8
-2 4 -5 3.58 0.4
-3 4 -5 0.8 0.28
-4 4 -5 2.93 0.4
-5 4 -5 69.34 1.32
-6 4 -5 0.07 0.32
-7 4 -5 34.89 0.73
-8 4 -5 3.07 0.44
-9 4 -5 42.43 1.02
-10 4 -5 21.07 0.8
-11 4 -5 3.07 0.56
-12 4 -5 34.16 0.73
-13 4 -5 4.68 0.48
-14 4 -5 0.22 0.32
-15 4 -5 4.02 0.49
-16 4 -5 12.44 0.58
-17 4 -5 0.22 0.31
4 5 -5 29.26 0.95
3 5 -5 87.56 1.61
2 5 -5 5.41 0.42
1 5 -5 47.33 1.24
0 5 -5 121.35 1.46
-1 5 -5 1.39 0.28
-2 5 -5 41.69 1.17
-3 5 -5 29.19 0.8
-4 5 -5 16.82 0.67
-5 5 -5 18.65 1.61
-6 5 -5 2.71 0.5
-7 5 -5 37.82 0.95
-8 5 -5 1.97 0.39
-9 5 -5 55.45 1.1
-10 5 -5 34.53 1.02
-11 5 -5 38.84 0.8
-12 5 -5 25.82 0.68
-13 5 -5 0.88 0.32
-14 5 -5 5.85 0.5
-15 5 -5 4.54 0.49
-16 5 -5 0.8 0.32
-17 5 -5 0.44 0.31
4 6 -5 177.75 2.19
3 6 -5 4.68 0.49
2 6 -5 57.49 1.24
1 6 -5 0.22 0.26
0 6 -5 29.84 0.73
-1 6 -5 99.48 2.05
-2 6 -5 1.9 0.34
-3 6 -5 36.72 1.32
-4 6 -5 9.66 0.69
-5 6 -5 2.12 0.39
-6 6 -5 68.83 1.39
-7 6 -5 16.39 0.73
-8 6 -5 73 1.32
-9 6 -5 20.12 0.8
-10 6 -5 17.7 0.73
-11 6 -5 1.54 0.31
-12 6 -5 17.92 0.61
-13 6 -5 3.36 0.48
-14 6 -5 0.37 0.32
-15 6 -5 24.58 0.71
-16 6 -5 8.56 0.53
4 7 -5 25.16 0.73
3 7 -5 56.18 1.83
2 7 -5 8.56 0.8
1 7 -5 308.75 3.88
0 7 -5 134.74 1.97
-1 7 -5 89.9 1.83
-2 7 -5 5.63 0.55
-3 7 -5 -0.07 0.28
-4 7 -5 57.71 1.32
-5 7 -5 0.29 0.31
-6 7 -5 8.27 0.55
-7 7 -5 16.17 0.65
-8 7 -5 41.26 1.02
-9 7 -5 9.44 0.69
-10 7 -5 49.01 0.88
-12 7 -5 24.65 0.69
-13 7 -5 46.74 0.95
-14 7 -5 22.53 0.7
-15 7 -5 6.8 0.51
-16 7 -5 7.97 0.5
4 8 -5 82.58 1.54
3 8 -5 13.39 0.67
2 8 -5 32.55 0.8
1 8 -5 44.55 1.02
0 8 -5 23.77 1.17
-1 8 -5 20.55 1.17
-2 8 -5 14.85 0.95
-3 8 -5 0.37 0.38
-4 8 -5 51.57 1.76
-5 8 -5 13.46 0.61
-6 8 -5 0.8 0.33
-7 8 -5 47.77 1.76
-8 8 -5 56.1 1.39
-9 8 -5 73.66 2.19
-10 8 -5 0.15 0.29
-11 8 -5 7.83 0.51
-12 8 -5 5.49 0.48
-13 8 -5 0.44 0.31
-14 8 -5 1.97 0.35
-15 8 -5 14.48 0.59
4 9 -5 34.53 1.1
3 9 -5 28.16 1.02
2 9 -5 51.64 1.97
1 9 -5 17.19 0.8
0 9 -5 1.32 0.33
-1 9 -5 26.7 1.24
-2 9 -5 1.68 0.5
-3 9 -5 6.51 0.53
-4 9 -5 24.72 1.02
-5 9 -5 68.17 1.97
-6 9 -5 7.75 0.66
-7 9 -5 48.72 1.32
-8 9 -5 37.38 1.02
-9 9 -5 6.88 0.49
-10 9 -5 41.62 0.88
-11 9 -5 15.58 0.62
-12 9 -5 0.07 0.37
-13 9 -5 0.37 0.38
-14 9 -5 0.37 0.33
-15 9 -5 15.58 0.6
4 10 -5 149.59 3.22
3 10 -5 234.29 3.29
2 10 -5 90.41 1.83
1 10 -5 2.19 0.39
0 10 -5 0.44 0.3
-1 10 -5 108.4 2.34
-2 10 -5 30.43 0.88
-3 10 -5 46.3 1.17
-4 10 -5 0.44 0.34
-5 10 -5 9.58 0.69
-6 10 -5 48.79 1.46
-7 10 -5 20.92 0.8
-8 10 -5 33.06 1.9
-9 10 -5 2.12 0.35
-10 10 -5 11.34 0.8
-11 10 -5 10.68 0.8
-12 10 -5 1.02 0.33
-13 10 -5 6.29 0.51
-14 10 -5 5.27 0.5
4 11 -5 6.36 0.55
3 11 -5 7.1 0.53
2 11 -5 5.27 0.5
1 11 -5 3.51 0.48
0 11 -5 37.67 1.02
-1 11 -5 37.67 1.1
-2 11 -5 16.97 0.71
-3 11 -5 6.14 0.59
-4 11 -5 5.71 0.61
-5 11 -5 9.66 0.73
-6 11 -5 15.21 0.58
-7 11 -5 12.8 0.72
-8 11 -5 1.32 0.33
-9 11 -5 37.52 0.88
-10 11 -5 17.26 0.68
-11 11 -5 38.55 1.68
-12 11 -5 9.22 1.24
-13 11 -5 3.51 0.56
4 12 -5 0.44 0.33
3 12 -5 19.75 0.95
2 12 -5 3.8 0.57
1 12 -5 10.31 0.88
0 12 -5 1.76 0.42
-1 12 -5 25.97 0.88
-2 12 -5 15 0.73
-3 12 -5 0.07 0.37
-4 12 -5 8.49 0.61
-5 12 -5 2.12 0.34
-6 12 -5 1.32 0.32
-7 12 -5 4.75 0.53
-8 12 -5 -0.15 0.48
-9 12 -5 3.58 1.02
-10 12 -5 4.1 1.83
-11 12 -5 24.07 0.72
-12 12 -5 8.7 0.58
4 13 -5 10.53 0.68
3 13 -5 4.32 0.58
2 13 -5 69.86 1.97
1 13 -5 9.29 0.88
0 13 -5 9 0.69
-1 13 -5 -0.07 0.36
-2 13 -5 2.34 0.34
-3 13 -5 0.66 0.29
-4 13 -5 0.22 0.28
-5 13 -5 14.78 0.73
-6 13 -5 0.95 0.32
-7 13 -5 13.02 0.58
-8 13 -5 1.46 0.34
-9 13 -5 4.97 0.8
-10 13 -5 0.95 0.5
-11 13 -5 -0.07 0.33
-12 13 -5 0.95 0.36
4 14 -5 73.07 8.78
3 14 -5 14.63 0.72
2 14 -5 78.71 8.05
1 14 -5 0.22 0.37
0 14 -5 2.12 0.55
-1 14 -5 0.22 0.31
-2 14 -5 0 0.28
-3 14 -5 1.17 0.31
-4 14 -5 0.22 0.29
-5 14 -5 11.92 0.56
-6 14 -5 7.97 0.53
-7 14 -5 32.26 0.8
-8 14 -5 26.33 1.1
-9 14 -5 0.37 0.34
-10 14 -5 3.58 0.5
4 15 -5 33.65 2.85
3 15 -5 3.29 0.45
2 15 -5 25.53 1.02
1 15 -5 53.4 3.15
0 15 -5 87.7 7.31
-1 15 -5 45.64 1.24
-2 15 -5 59.47 3.15
-3 15 -5 11.05 0.88
-4 15 -5 1.97 0.35
-5 15 -5 14.92 0.6
-6 15 -5 4.39 0.73
-7 15 -5 0.37 0.31
-8 15 -5 3.07 0.66
-9 15 -5 10.61 0.54
4 16 -5 38.26 0.88
3 16 -5 47.91 3.44
2 16 -5 41.11 3
1 16 -5 1.32 0.36
0 16 -5 0.88 0.33
-1 16 -5 16.09 0.8
-2 16 -5 0.07 0.37
-3 16 -5 18.51 0.63
-4 16 -5 24.65 0.8
-5 16 -5 14.48 0.6
-6 16 -5 25.97 1.39
-7 16 -5 10.31 0.53
4 17 -5 29.55 0.88
3 17 -5 24.87 1.02
2 17 -5 0.51 0.34
1 17 -5 35.92 2.85
0 17 -5 7.9 0.52
-1 17 -5 0.15 0.31
-2 17 -5 1.9 0.4
-3 17 -5 7.02 0.5
-4 17 -5 6.73 1.17
-5 17 -5 3.44 0.45
4 18 -5 6.51 0.56
3 18 -5 3.66 0.8
2 18 -5 0 0.46
1 18 -5 11.05 0.95
0 18 -5 2.19 1.24
-1 18 -5 0.66 0.41
-2 18 -5 0.15 0.53
0 0 -4 259.09 13.17
-1 0 -4 0.51 0.34
-2 0 -4 68.54 1.83
-3 0 -4 0.07 0.29
-4 0 -4 977.98 23.41
-8 0 -4 0.66 0.3
-9 0 -4 0 0.31
-10 0 -4 4.24 0.56
-11 0 -4 0.15 0.37
-12 0 -4 16.09 0.88
-13 0 -4 0.15 0.47
-14 0 -4 87.19 3.07
-16 0 -4 27.21 0.8
-17 0 -4 -0.15 0.33
-18 0 -4 8.05 0.63
-19 0 -4 -0.29 0.32
3 1 -4 636.82 16.09
2 1 -4 23.99 0.73
1 1 -4 185.79 3
0 1 -4 377.37 7.31
-1 1 -4 20.85 1.68
-2 1 -4 1.61 0.34
-3 1 -4 37.38 1.32
-4 1 -4 17.63 0.88
-5 1 -4 85.95 1.24
-6 1 -4 14.85 0.58
-7 1 -4 44.99 1.17
-8 1 -4 18.14 0.7
-9 1 -4 172.26 2.85
-10 1 -4 20.12 0.95
-11 1 -4 56.03 1.54
-12 1 -4 65.83 1.76
-13 1 -4 1.39 0.5
-14 1 -4 22.24 0.66
-16 1 -4 0 0.34
-17 1 -4 4.46 0.8
-18 1 -4 11.34 0.59
-19 1 -4 9 0.73
3 2 -4 132.54 3.58
2 2 -4 479.63 6.88
1 2 -4 37.96 1.46
0 2 -4 0.37 0.43
-1 2 -4 644.65 10.97
-2 2 -4 1.32 0.24
-3 2 -4 16.6 0.6
-4 2 -4 90.41 1.76
-5 2 -4 2.12 0.31
-6 2 -4 0.95 0.28
-7 2 -4 1.1 0.32
-8 2 -4 5.63 0.43
-9 2 -4 1.17 0.37
-10 2 -4 10.61 0.69
-11 2 -4 79.22 1.83
-12 2 -4 18.95 0.88
-13 2 -4 51.93 1.46
-14 2 -4 15.29 0.59
-15 2 -4 4.24 0.6
-16 2 -4 -0.07 0.34
-17 2 -4 1.54 0.37
-19 2 -4 0 0.34
3 3 -4 54.86 1.54
2 3 -4 64 1.32
1 3 -4 118.43 3.36
0 3 -4 75.27 1.54
-1 3 -4 22.46 0.61
-2 3 -4 115.57 1.9
-3 3 -4 70.08 1.9
-4 3 -4 0.22 0.29
-5 3 -4 11.56 0.51
-6 3 -4 35.11 0.95
-7 3 -4 26.92 0.8
-8 3 -4 14.48 0.57
-9 3 -4 3.73 0.52
-10 3 -4 67.08 1.61
-11 3 -4 21.58 0.8
-12 3 -4 3.88 0.6
-13 3 -4 0.29 0.61
-14 3 -4 6 0.5
-15 3 -4 1.32 0.34
-16 3 -4 0.8 0.34
-17 3 -4 27.72 0.73
-18 3 -4 1.46 0.53
-19 3 -4 19.68 1.61
3 4 -4 2.93 0.39
2 4 -4 14.26 0.88
1 4 -4 32.26 0.95
0 4 -4 43.45 1.02
-1 4 -4 125.67 3.15
-2 4 -4 76.37 1.68
-3 4 -4 161.88 3.51
-4 4 -4 4.9 0.43
-5 4 -4 21.94 0.69
-6 4 -4 99.92 2.27
-7 4 -4 104.02 2.12
-8 4 -4 20.19 0.88
-9 4 -4 28.16 0.8
-10 4 -4 3.51 0.67
-11 4 -4 3.36 0.5
-12 4 -4 2.34 0.8
-13 4 -4 17.41 0.88
-14 4 -4 39.21 0.8
-15 4 -4 21.87 0.68
-16 4 -4 2.34 0.38
-17 4 -4 4.61 0.52
-18 4 -4 28.45 0.8
-19 4 -4 3.73 1.24
3 5 -4 172.19 4.61
2 5 -4 34.96 0.95
1 5 -4 302.83 3.51
0 5 -4 5.49 0.72
-1 5 -4 185.28 3.22
-2 5 -4 5.92 0.57
-3 5 -4 13.68 0.56
-4 5 -4 7.83 0.68
-5 5 -4 30.14 0.95
-6 5 -4 27.06 0.95
-7 5 -4 19.46 0.63
-8 5 -4 43.52 0.88
-9 5 -4 15.51 0.63
-10 5 -4 9.14 0.56
-11 5 -4 20.63 0.73
-12 5 -4 0.15 0.44
-13 5 -4 21.8 0.88
-14 5 -4 4.61 0.5
-15 5 -4 3.07 0.49
-16 5 -4 -0.07 0.34
-17 5 -4 8.78 0.56
-18 5 -4 11.41 0.56
3 6 -4 2.19 0.5
2 6 -4 1.61 0.37
1 6 -4 76.66 2.56
0 6 -4 533.54 9.51
-1 6 -4 188.28 2.12
-2 6 -4 199.4 2.34
-3 6 -4 2.05 0.48
-4 6 -4 5.05 0.52
-5 6 -4 9.87 0.58
-6 6 -4 6.58 0.45
-7 6 -4 42.28 1.54
-8 6 -4 25.97 0.53
-9 6 -4 31.75 0.8
-10 6 -4 38.18 1.02
-11 6 -4 1.97 0.42
-12 6 -4 221.2 4.9
-13 6 -4 1.68 0.34
-14 6 -4 9.58 0.57
-15 6 -4 7.61 0.56
-16 6 -4 0.59 0.34
-17 6 -4 3 0.48
-18 6 -4 0.15 0.33
3 7 -4 3.29 0.42
2 7 -4 195.08 2.27
1 7 -4 0 0.26
0 7 -4 15.21 0.59
-1 7 -4 98.82 1.46
-2 7 -4 1.83 0.31
-3 7 -4 188.65 2.56
-4 7 -4 87.63 2.56
-5 7 -4 1.76 0.31
-6 7 -4 0.37 0.27
-7 7 -4 17.85 0.95
-8 7 -4 144.54 2.27
-9 7 -4 15 0.68
-10 7 -4 16.39 0.73
-11 7 -4 29.92 0.88
-12 7 -4 4.24 0.56
-13 7 -4 0.73 0.32
-14 7 -4 0.59 0.34
-15 7 -4 9.95 0.58
-16 7 -4 13.82 0.62
-17 7 -4 17.41 0.65
-18 7 -4 7.83 0.52
3 8 -4 1.46 0.34
2 8 -4 52.01 1.68
1 8 -4 0.15 0.29
0 8 -4 3.36 0.46
-1 8 -4 77.46 1.9
-2 8 -4 4.24 0.52
-3 8 -4 228.88 3.07
-4 8 -4 39.65 1.32
-5 8 -4 57.42 1.24
-6 8 -4 12.22 0.59
-7 8 -4 39.79 1.32
-8 8 -4 3.29 0.48
-9 8 -4 32.92 1.02
-10 8 -4 0.22 0.35
-11 8 -4 0.51 0.37
-12 8 -4 0.44 0.31
-14 8 -4 30.87 0.8
-15 8 -4 105.11 1.61
-16 8 -4 3.8 0.48
-17 8 -4 5.19 0.48
3 9 -4 0.66 0.31
2 9 -4 82.07 1.9
1 9 -4 23.33 0.8
0 9 -4 144.03 1.97
-1 9 -4 10.46 0.59
-2 9 -4 0.07 0.27
-3 9 -4 9.07 0.53
-4 9 -4 2.12 0.35
-5 9 -4 0.73 0.31
-6 9 -4 0.29 0.34
-7 9 -4 42.06 1.1
-8 9 -4 4.54 0.56
-9 9 -4 49.3 1.17
-10 9 -4 65.47 1.39
-11 9 -4 117.18 1.61
-12 9 -4 43.52 1.1
-13 9 -4 0.66 0.33
-14 9 -4 0 0.31
-15 9 -4 0.59 0.36
-16 9 -4 2.27 0.44
-17 9 -4 0.59 0.33
3 10 -4 25.38 1.17
2 10 -4 0.07 0.25
1 10 -4 8.7 0.48
0 10 -4 0.29 0.27
-1 10 -4 0.37 0.37
-2 10 -4 25.75 0.88
-3 10 -4 26.77 0.8
-4 10 -4 101.02 1.9
-5 10 -4 0.15 0.3
-6 10 -4 24.94 1.17
-7 10 -4 1.54 0.39
-8 10 -4 0 0.34
-9 10 -4 16.17 0.8
-10 10 -4 5.63 0.51
-11 10 -4 22.24 0.72
-12 10 -4 16.97 1.02
-13 10 -4 0.73 0.35
-14 10 -4 7.02 0.56
-15 10 -4 55.88 1.1
-16 10 -4 4.54 0.5
3 11 -4 221.86 3.29
2 11 -4 0.29 0.28
1 11 -4 98.97 1.9
0 11 -4 1.24 0.31
-1 11 -4 7.9 0.51
-2 11 -4 0.07 0.29
-3 11 -4 39.28 1.24
-4 11 -4 0.88 0.34
-5 11 -4 31.31 1.1
-6 11 -4 17.77 1.1
-7 11 -4 75.34 1.9
-8 11 -4 4.24 0.58
-9 11 -4 43.6 1.39
-10 11 -4 19.38 0.64
-11 11 -4 2.41 0.57
-12 11 -4 0.44 0.34
-13 11 -4 4.68 0.95
-14 11 -4 5.12 0.56
-15 11 -4 18.14 0.69
3 12 -4 12.22 0.8
2 12 -4 49.74 1.68
1 12 -4 3 0.46
0 12 -4 60.86 1.46
-1 12 -4 33.5 1.39
-2 12 -4 3.44 0.49
-3 12 -4 0.15 0.33
-4 12 -4 23.48 0.88
-5 12 -4 12.14 0.7
-6 12 -4 0.29 0.36
-7 12 -4 34.6 1.02
-8 12 -4 0.66 0.31
-9 12 -4 20.26 0.72
-10 12 -4 18.58 0.71
-11 12 -4 21.51 0.88
-12 12 -4 26.7 0.88
-13 12 -4 18.58 1.02
-14 12 -4 22.02 0.73
3 13 -4 13.68 0.69
2 13 -4 3.8 0.5
1 13 -4 8.49 0.64
0 13 -4 52.81 1.54
-1 13 -4 2.12 0.41
-2 13 -4 65.69 1.76
-3 13 -4 0.29 0.34
-4 13 -4 43.6 1.17
-5 13 -4 0.15 0.36
-6 13 -4 26.7 0.95
-7 13 -4 1.02 0.33
-8 13 -4 36.35 1.24
-9 13 -4 16.53 0.67
-10 13 -4 33.65 0.88
-11 13 -4 16.9 0.7
-12 13 -4 7.46 0.95
-13 13 -4 0.29 0.37
3 14 -4 5.34 0.64
2 14 -4 11.85 0.95
1 14 -4 31.82 1.17
0 14 -4 18.8 1.02
-1 14 -4 105.41 2.63
-2 14 -4 0.07 0.36
-3 14 -4 17.99 0.62
-4 14 -4 0.95 0.31
-5 14 -4 0.51 0.31
-6 14 -4 40.45 2.05
-7 14 -4 7.75 0.53
-8 14 -4 3.15 0.48
-9 14 -4 -0.07 0.37
-10 14 -4 10.09 0.95
-11 14 -4 29.62 0.8
-12 14 -4 21.94 0.88
3 15 -4 21.21 0.72
2 15 -4 22.38 0.7
1 15 -4 6.58 0.53
0 15 -4 23.85 0.88
-1 15 -4 11.78 0.88
-2 15 -4 14.92 0.64
-3 15 -4 0.22 0.32
-4 15 -4 0.37 0.31
-5 15 -4 5.05 0.5
-6 15 -4 16.17 0.64
-7 15 -4 9.73 0.56
-8 15 -4 18.58 0.66
-9 15 -4 3.44 0.7
-10 15 -4 2.41 0.39
-11 15 -4 -0.07 0.34
3 16 -4 8.7 0.57
2 16 -4 12.95 1.02
1 16 -4 2.05 0.38
0 16 -4 33.57 1.76
-1 16 -4 0 0.35
-2 16 -4 53.91 2.05
-3 16 -4 28.97 0.88
-4 16 -4 34.45 1.1
-5 16 -4 0.95 0.35
-6 16 -4 2.85 0.48
-7 16 -4 3 0.48
-8 16 -4 2.41 0.42
-9 16 -4 0.44 0.34
3 17 -4 10.83 1.02
2 17 -4 23.48 0.73
1 17 -4 24.94 2.19
0 17 -4 12.22 0.73
-1 17 -4 37.16 1.9
-2 17 -4 7.02 0.7
-3 17 -4 22.38 1.32
-4 17 -4 7.83 0.54
-5 17 -4 3.95 0.49
-6 17 -4 -0.07 0.32
-7 17 -4 19.75 0.69
-8 17 -4 3.73 0.7
3 18 -4 0.29 0.7
2 18 -4 10.68 1.83
1 18 -4 4.61 0.54
0 18 -4 21.58 1.9
-1 18 -4 0.15 0.35
-2 18 -4 3.07 0.47
-3 18 -4 42.06 0.95
-4 18 -4 17.92 0.67
-5 18 -4 21.8 1.1
-6 18 -4 4.24 1.61
3 19 -4 1.83 0.45
2 19 -4 42.72 1.02
1 19 -4 0.66 0.49
0 19 -4 3.73 0.88
-1 19 -4 0.44 0.44
-2 19 -4 0.8 0.46
-3 19 -4 0.15 0.29
0 0 -3 286.54 4.68
-1 0 -3 0 0.3
-2 0 -3 1.46 0.69
-3 0 -3 0.15 0.37
-4 0 -3 60.05 2.49
-5 0 -3 -0.07 0.67
-6 0 -3 5.34 0.88
-7 0 -3 0.66 0.88
-9 0 -3 -0.37 0.26
-10 0 -3 40.45 2.56
-11 0 -3 0.07 0.34
-12 0 -3 21.51 1.32
-13 0 -3 0.07 0.38
-14 0 -3 53.25 2.34
-15 0 -3 0.22 0.5
-17 0 -3 0.07 0.37
-18 0 -3 75.12 1.32
-19 0 -3 -0.15 0.38
-20 0 -3 1.76 0.37
2 1 -3 418.38 12.4
1 1 -3 400.74 5.65
0 1 -3 317.74 8.95
-1 1 -3 139.96 2.27
-2 1 -3 17.77 0.88
-3 1 -3 19.02 1.32
-4 1 -3 317.24 5.05
-5 1 -3 156.97 3.95
-6 1 -3 157.78 4.39
-7 1 -3 166.92 4.02
-8 1 -3 41.62 0.95
-9 1 -3 2.71 0.39
-10 1 -3 25.75 0.88
-11 1 -3 5.78 0.59
-12 1 -3 0.73 0.39
-13 1 -3 28.6 1.17
-14 1 -3 146.81 2.93
-15 1 -3 0.59 0.43
-16 1 -3 26.92 0.8
-17 1 -3 45.94 0.95
-18 1 -3 1.39 0.48
-19 1 -3 20.48 0.95
-20 1 -3 15 1.24
2 2 -3 616.06 7.58
1 2 -3 157.6 2.34
0 2 -3 21.42 1.03
-1 2 -3 73.51 2.34
-2 2 -3 -0.07 0.41
-3 2 -3 221.56 6.66
-4 2 -3 0 0.26
-5 2 -3 16.02 0.8
-6 2 -3 28.75 1.02
-7 2 -3 38.99 1.32
-8 2 -3 59.91 1.17
-9 2 -3 2.63 0.57
-10 2 -3 35.55 1.02
-11 2 -3 0.8 0.37
-12 2 -3 47.69 1.17
-13 2 -3 39.06 1.1
-14 2 -3 1.02 0.41
-15 2 -3 5.27 0.8
-16 2 -3 11.12 0.59
-17 2 -3 13.97 1.76
-18 2 -3 18.07 0.67
-19 2 -3 14.34 1.24
-20 2 -3 5.41 0.56
2 3 -3 143.22 3.07
1 3 -3 242.19 3.51
0 3 -3 198.16 3.36
-1 3 -3 791.45 11.7
-2 3 -3 22.68 0.95
-3 3 -3 23.92 0.68
-4 3 -3 0.22 0.25
-5 3 -3 64.95 1.32
-6 3 -3 2.05 0.36
-7 3 -3 8.49 0.66
-8 3 -3 2.78 0.41
-9 3 -3 6.07 0.53
-10 3 -3 6.14 0.56
-11 3 -3 161.51 3.95
-12 3 -3 37.23 1.1
-13 3 -3 8.49 0.65
-14 3 -3 15.07 0.73
-15 3 -3 6.51 0.69
-16 3 -3 11.12 0.59
-17 3 -3 10.68 0.95
-18 3 -3 4.1 1.17
-19 3 -3 0.29 0.53
-20 3 -3 12.65 0.61
2 4 -3 20.7 1.17
1 4 -3 79.51 3
0 4 -3 12.14 0.88
-1 4 -3 347.96 6
-2 4 -3 321.63 5.05
-3 4 -3 347.16 5.19
-4 4 -3 660.08 13.9
-5 4 -3 181.26 3.88
-6 4 -3 17.48 0.73
-7 4 -3 23.99 0.73
-8 4 -3 102.19 1.68
-9 4 -3 0.88 0.26
-10 4 -3 0.73 0.26
-11 4 -3 21.8 0.73
-12 4 -3 41.11 1.1
-13 4 -3 33.43 0.95
-14 4 -3 47.62 1.17
-15 4 -3 119.3 2.41
-16 4 -3 28.16 0.88
-17 4 -3 0.88 0.36
-18 4 -3 2.05 0.39
-19 4 -3 29.92 1.02
-20 4 -3 1.02 0.38
2 5 -3 12.22 1.1
1 5 -3 3.29 0.5
0 5 -3 333.92 5.63
-1 5 -3 258.8 6.36
-2 5 -3 0.66 0.29
-3 5 -3 1.97 0.44
-4 5 -3 31.38 1.02
-5 5 -3 9.51 0.64
-6 5 -3 26.48 1.02
-7 5 -3 2.71 0.39
-8 5 -3 -0.07 0.31
-9 5 -3 59.1 1.02
-10 5 -3 5.56 0.51
-11 5 -3 101.6 1.68
-12 5 -3 51.93 1.02
-13 5 -3 5.78 0.54
-14 5 -3 -0.22 0.34
-15 5 -3 30.06 0.8
-16 5 -3 0.15 0.34
-17 5 -3 8.41 0.59
-18 5 -3 4.17 0.53
-19 5 -3 5.41 0.52
-20 5 -3 2.41 0.45
2 6 -3 79.22 2.19
1 6 -3 40.01 1.24
0 6 -3 0.22 0.33
-1 6 -3 126.84 2.56
-2 6 -3 355.79 6.51
-3 6 -3 4.02 0.54
-4 6 -3 39.28 1.17
-5 6 -3 1.1 0.31
-6 6 -3 51.35 1.32
-7 6 -3 11.48 0.61
-8 6 -3 22.24 0.69
-9 6 -3 18.14 0.61
-10 6 -3 62.32 1.02
-11 6 -3 3 0.41
-12 6 -3 0.37 0.3
-13 6 -3 5.05 0.55
-14 6 -3 60.86 1.32
-15 6 -3 23.92 1.1
-16 6 -3 28.53 0.8
-17 6 -3 0.51 0.36
-18 6 -3 23.77 0.73
-19 6 -3 12.22 0.61
2 7 -3 36.79 1.24
1 7 -3 0.59 0.32
0 7 -3 21.87 0.95
-1 7 -3 44.47 1.39
-2 7 -3 21.87 1.1
-3 7 -3 132.76 2.56
-4 7 -3 17.48 0.8
-5 7 -3 1.46 0.34
-6 7 -3 102.7 1.9
-7 7 -3 0.07 0.26
-8 7 -3 6.51 0.5
-9 7 -3 39.94 0.88
-10 7 -3 0.59 0.29
-11 7 -3 17.92 0.64
-12 7 -3 2.12 0.37
-13 7 -3 7.46 0.57
-14 7 -3 28.6 0.95
-15 7 -3 40.08 0.95
-16 7 -3 0.22 0.35
-17 7 -3 32.48 0.88
-18 7 -3 26.41 0.8
-19 7 -3 0.51 0.47
2 8 -3 55.15 1.61
1 8 -3 0.15 0.31
0 8 -3 31.45 1.1
-1 8 -3 5.19 0.5
-2 8 -3 32.11 0.8
-3 8 -3 112.06 1.76
-4 8 -3 116.45 2.27
-5 8 -3 78.63 1.54
-6 8 -3 0.59 0.31
-7 8 -3 91.8 1.68
-8 8 -3 77.1 1.24
-9 8 -3 10.9 0.56
-10 8 -3 0.15 0.29
-11 8 -3 80.32 1.9
-12 8 -3 1.17 0.36
-13 8 -3 35.55 1.32
-14 8 -3 8.78 0.8
-15 8 -3 3.58 0.5
-16 8 -3 18.51 0.88
-17 8 -3 0.88 0.38
-18 8 -3 4.24 1.46
2 9 -3 1.1 0.31
1 9 -3 160.63 2.27
0 9 -3 135.4 2.63
-1 9 -3 103.28 1.97
-2 9 -3 28.97 0.95
-3 9 -3 219.08 3.22
-4 9 -3 76.95 1.39
-5 9 -3 114.91 1.9
-6 9 -3 103.28 1.9
-7 9 -3 42.5 1.1
-8 9 -3 31.67 0.8
-9 9 -3 47.55 1.24
-10 9 -3 8.05 0.66
-11 9 -3 30.06 0.8
-12 9 -3 22.82 0.73
-13 9 -3 8.27 0.73
-14 9 -3 6.88 0.69
-15 9 -3 57.05 1.1
-16 9 -3 18.07 0.69
-17 9 -3 42.79 1.9
-18 9 -3 9.36 0.73
2 10 -3 0.59 0.31
1 10 -3 9.36 0.59
0 10 -3 10.68 0.61
-1 10 -3 63.42 1.54
-2 10 -3 7.1 0.54
-3 10 -3 1.02 0.28
-4 10 -3 0.15 0.26
-5 10 -3 10.24 0.67
-6 10 -3 4.24 0.53
-7 10 -3 201.01 2.78
-8 10 -3 9.44 0.64
-9 10 -3 60.93 1.32
-10 10 -3 3.07 0.59
-11 10 -3 3.36 0.59
-12 10 -3 5.41 0.62
-13 10 -3 9.51 0.59
-14 10 -3 10.39 0.61
-15 10 -3 3.44 0.52
-16 10 -3 3.44 0.53
-17 10 -3 2.05 0.39
2 11 -3 33.87 1.17
1 11 -3 13.61 0.64
0 11 -3 137.66 2.41
-1 11 -3 19.16 0.88
-2 11 -3 2.12 0.36
-3 11 -3 107.01 1.76
-4 11 -3 4.83 0.49
-5 11 -3 17.7 0.88
-6 11 -3 5.27 0.59
-7 11 -3 47.47 1.24
-8 11 -3 0.44 0.34
-9 11 -3 24.94 0.88
-10 11 -3 3 0.5
-11 11 -3 9.07 0.73
-12 11 -3 36.79 1.02
-13 11 -3 10.24 0.8
-14 11 -3 5.71 0.55
-15 11 -3 15.95 1.1
-16 11 -3 0 0.36
-17 11 -3 5.63 1.1
2 12 -3 31.38 1.17
1 12 -3 2.71 0.38
0 12 -3 21.72 0.8
-1 12 -3 73.07 1.83
-2 12 -3 25.38 0.8
-3 12 -3 62.98 1.76
-4 12 -3 181.04 3.8
-5 12 -3 5.78 0.54
-6 12 -3 6.66 0.62
-7 12 -3 26.55 0.8
-8 12 -3 16.82 0.73
-9 12 -3 0.59 0.37
-10 12 -3 49.23 1.1
-11 12 -3 15.65 0.8
-12 12 -3 60.49 1.24
-13 12 -3 12.14 0.8
-14 12 -3 9.95 0.72
-15 12 -3 23.55 1.1
-16 12 -3 1.32 0.4
2 13 -3 4.46 0.5
1 13 -3 9.95 0.59
0 13 -3 169.34 2.41
-1 13 -3 7.68 0.59
-2 13 -3 0.37 0.31
-3 13 -3 9.73 0.67
-4 13 -3 23.48 1.02
-5 13 -3 15.8 0.7
-6 13 -3 24.94 0.88
-7 13 -3 8.49 0.61
-8 13 -3 2.63 0.45
-9 13 -3 8.92 0.59
-10 13 -3 14.85 0.64
-11 13 -3 0.8 0.4
-12 13 -3 48.79 1.02
-13 13 -3 4.75 0.56
-14 13 -3 6.44 0.8
-15 13 -3 3.8 0.53
2 14 -3 0.15 0.32
1 14 -3 2.12 0.41
0 14 -3 4.46 0.54
-1 14 -3 28.89 1.24
-2 14 -3 15.51 0.8
-3 14 -3 84.27 1.76
-4 14 -3 156.39 3
-5 14 -3 43.38 1.39
-6 14 -3 0.07 0.31
-7 14 -3 3.66 0.49
-8 14 -3 84.19 1.46
-9 14 -3 7.68 0.55
-10 14 -3 3.73 0.5
-11 14 -3 0.44 0.45
-12 14 -3 20.41 0.73
-13 14 -3 13.75 0.73
-14 14 -3 3.73 0.5
2 15 -3 21.21 1.02
1 15 -3 5.71 0.63
0 15 -3 94.8 2.71
-1 15 -3 8.19 0.73
-2 15 -3 0.66 0.39
-3 15 -3 12.87 0.8
-4 15 -3 1.9 0.36
-5 15 -3 0.22 0.33
-6 15 -3 30.14 0.95
-7 15 -3 0.51 0.34
-8 15 -3 0.51 0.34
-9 15 -3 0 0.34
-10 15 -3 0.29 0.34
-11 15 -3 6.07 0.54
-12 15 -3 43.52 0.95
-13 15 -3 0.07 0.34
2 16 -3 28.67 0.95
1 16 -3 0.59 0.35
0 16 -3 3 0.47
-1 16 -3 4.17 0.51
-2 16 -3 46.45 1.02
-3 16 -3 48.06 1.1
-4 16 -3 3.88 0.5
-5 16 -3 35.04 1.24
-6 16 -3 0.15 0.34
-7 16 -3 30.21 0.8
-8 16 -3 0.51 0.36
-9 16 -3 10.68 0.66
-10 16 -3 8.56 0.7
-11 16 -3 3.22 0.5
-12 16 -3 0.07 0.33
2 17 -3 0.95 0.38
1 17 -3 10.39 0.8
0 17 -3 7.9 0.8
-1 17 -3 25.02 1.17
-2 17 -3 4.9 0.61
-3 17 -3 29.92 0.95
-4 17 -3 18.95 0.95
-5 17 -3 13.53 0.67
-6 17 -3 71.32 1.32
-7 17 -3 1.76 0.39
-8 17 -3 15.51 0.67
-9 17 -3 4.32 0.6
-10 17 -3 4.32 0.56
-11 17 -3 6.07 0.54
2 18 -3 12.73 1.02
1 18 -3 1.76 0.48
0 18 -3 0.8 0.37
-1 18 -3 0.8 0.36
-2 18 -3 15.95 0.67
-3 18 -3 4.9 0.64
-4 18 -3 19.09 0.95
-5 18 -3 10.31 0.63
-6 18 -3 14.7 0.66
-7 18 -3 14.78 0.65
-8 18 -3 2.41 0.52
2 19 -3 25.97 2.56
1 19 -3 2.12 0.46
0 19 -3 7.24 1.02
-1 19 -3 0.8 0.36
-2 19 -3 7.97 0.8
-3 19 -3 17.85 1.39
-4 19 -3 2.85 0.69
-5 19 -3 3.95 0.55
-6 19 -3 7.1 0.62
-7 19 -3 0.37 0.95
2 20 -3 4.61 0.67
1 20 -3 9.8 1.39
0 20 -3 1.54 0.38
-1 20 -3 21.72 0.8
-2 20 -3 2.34 0.8
-3 20 -3 5.85 3.66
-4 20 -3 -0.07 0.32
0 0 -2 1358.31 42.71
-1 0 -2 0.07 0.21
-2 0 -2 398.61 12.4
-3 0 -2 0.14 0.32
-4 0 -2 1.17 0.45
-5 0 -2 0.07 0.42
-6 0 -2 16.24 1.32
-7 0 -2 0.15 0.51
-8 0 -2 429.45 16.82
-9 0 -2 0.15 0.41
-10 0 -2 10.39 0.88
-11 0 -2 -0.07 0.32
-12 0 -2 204.3 2.34
-13 0 -2 0.07 0.31
-14 0 -2 12.87 1.1
-15 0 -2 0 0.56
-16 0 -2 5.92 0.8
-17 0 -2 -0.15 0.48
-18 0 -2 0.15 0.55
-19 0 -2 -0.07 0.45
-20 0 -2 31.82 1.39
-21 0 -2 0.44 0.48
-22 0 -2 3.8 0.61
1 1 -2 36.92 1.1
0 1 -2 53.59 0.9
-1 1 -2 397.57 4.89
-2 1 -2 39.67 1.58
-3 1 -2 492.01 7.58
-4 1 -2 124.88 3.58
-5 1 -2 0.22 0.42
-6 1 -2 65.54 2.41
-7 1 -2 463.1 10.24
-8 1 -2 79.07 2.19
-9 1 -2 118.5 4.68
-10 1 -2 21.72 0.95
-11 1 -2 -0.07 0.27
-12 1 -2 40.67 1.76
-13 1 -2 1.32 0.38
-14 1 -2 11.12 0.69
-15 1 -2 7.31 0.88
-16 1 -2 25.67 1.1
-17 1 -2 7.68 0.66
-18 1 -2 10.24 1.46
-19 1 -2 35.48 1.46
-20 1 -2 11.63 0.68
-21 1 -2 2.34 0.54
-22 1 -2 3.88 0.61
1 2 -2 622.05 6.06
0 2 -2 86.31 1.52
-1 2 -2 275.79 5.1
-2 2 -2 363.27 5.3
-3 2 -2 712.22 8.95
-4 2 -2 26.52 1.72
-5 2 -2 172.7 3.95
-6 2 -2 45.42 1.54
-7 2 -2 8.34 0.69
-8 2 -2 6.51 0.64
-9 2 -2 12.95 0.88
-10 2 -2 12.65 0.62
-11 2 -2 157.41 2.71
-12 2 -2 0 0.29
-13 2 -2 7.46 0.88
-14 2 -2 188.13 3.29
-15 2 -2 106.94 2.19
-16 2 -2 29.04 1.24
-17 2 -2 0.51 0.38
-18 2 -2 24.14 0.95
-19 2 -2 8.92 1.1
-20 2 -2 4.39 0.8
-21 2 -2 9.95 0.8
-22 2 -2 0.59 0.39
1 3 -2 374.91 5.3
0 3 -2 31.68 1.31
-1 3 -2 0.21 0.35
-2 3 -2 5.37 0.68
-3 3 -2 17.01 1.03
-4 3 -2 200.28 4.02
-5 3 -2 0.88 0.31
-6 3 -2 652.04 13.17
-7 3 -2 126.47 3.51
-8 3 -2 191.87 3.95
-9 3 -2 92.68 1.68
-10 3 -2 0.15 0.3
-11 3 -2 152.88 2.05
-12 3 -2 15.95 0.65
-13 3 -2 0.15 0.3
-14 3 -2 48.35 1.32
-15 3 -2 3.88 0.6
-16 3 -2 33.94 1.1
-17 3 -2 7.17 0.61
-18 3 -2 67.59 1.68
-19 3 -2 22.82 0.88
-20 3 -2 40.52 1.24
-21 3 -2 20.99 0.8
-22 3 -2 0.29 0.38
1 4 -2 2.55 0.49
0 4 -2 19.01 1.17
-1 4 -2 119.37 2.69
-2 4 -2 5.72 0.76
-3 4 -2 0.44 0.67
-4 4 -2 38.04 1.46
-5 4 -2 159.9 3.66
-6 4 -2 167 4.24
-7 4 -2 0.07 0.28
-8 4 -2 30.28 1.17
-9 4 -2 16.39 0.95
-10 4 -2 9.22 0.8
-11 4 -2 119.96 1.68
-12 4 -2 8.78 0.8
-13 4 -2 2.05 0.37
-14 4 -2 1.24 0.35
-15 4 -2 22.16 0.88
-16 4 -2 15.87 0.88
-17 4 -2 21.07 0.95
-18 4 -2 2.49 0.42
-19 4 -2 5.41 0.95
-20 4 -2 1.32 0.4
-21 4 -2 -0.07 0.39
-22 4 -2 5.41 0.56
1 5 -2 5.65 0.76
0 5 -2 96.78 3.31
-1 5 -2 76.66 2.93
-2 5 -2 11.34 1.61
-3 5 -2 779.02 15.36
-4 5 -2 46.23 1.39
-5 5 -2 499.96 8.05
-6 5 -2 7.75 0.57
-7 5 -2 10.9 0.67
-8 5 -2 44.91 1.1
-9 5 -2 55.23 1.54
-10 5 -2 19.6 0.73
-11 5 -2 19.82 0.63
-12 5 -2 25.89 0.95
-13 5 -2 0 0.3
-14 5 -2 8.19 0.6
-15 5 -2 154.41 3.36
-16 5 -2 2.34 0.47
-17 5 -2 131.01 1.9
-18 5 -2 29.7 0.88
-19 5 -2 2.34 0.44
-20 5 -2 1.32 0.4
-21 5 -2 1.39 0.5
1 6 -2 16.09 1.17
0 6 -2 1158.65 23.41
-1 6 -2 10.68 0.72
-2 6 -2 10.09 0.88
-3 6 -2 23.55 0.95
-4 6 -2 696.36 15.36
-5 6 -2 31.45 1.02
-6 6 -2 83.46 1.9
-7 6 -2 31.6 0.88
-8 6 -2 3.73 0.47
-9 6 -2 12.95 0.63
-10 6 -2 81.12 1.39
-11 6 -2 65.69 1.1
-12 6 -2 66.05 1.17
-13 6 -2 17.41 0.73
-14 6 -2 37.31 1.02
-15 6 -2 1.1 0.4
-16 6 -2 22.38 0.88
-17 6 -2 8.56 0.64
-18 6 -2 0.66 0.39
-19 6 -2 2.85 0.45
-20 6 -2 0.59 0.43
-21 6 -2 2.19 0.73
1 7 -2 1.17 0.34
0 7 -2 51.57 1.32
-1 7 -2 31.97 1.02
-2 7 -2 25.46 1.02
-3 7 -2 0.15 0.3
-4 7 -2 99.41 2.27
-5 7 -2 75.71 1.9
-6 7 -2 139.93 2.41
-7 7 -2 0.29 0.28
-8 7 -2 313.44 4.32
-9 7 -2 99.92 1.54
-10 7 -2 0.37 0.28
-11 7 -2 40.52 1.02
-12 7 -2 4.1 0.5
-13 7 -2 3.36 0.49
-14 7 -2 3 0.46
-15 7 -2 5.71 0.61
-16 7 -2 0.22 0.36
-17 7 -2 -0.07 0.37
-18 7 -2 64.3 1.24
-19 7 -2 1.32 0.39
-20 7 -2 5.34 0.57
-21 7 -2 -0.88 0.45
1 8 -2 21.29 0.88
0 8 -2 19.09 0.88
-1 8 -2 272.69 5.92
-2 8 -2 13.46 0.72
-3 8 -2 0.44 0.42
-4 8 -2 9.95 0.95
-5 8 -2 3.88 0.48
-6 8 -2 51.35 1.32
-7 8 -2 0.07 0.31
-8 8 -2 0.07 0.25
-9 8 -2 21.14 0.69
-10 8 -2 2.05 0.37
-11 8 -2 0.59 0.33
-12 8 -2 1.68 0.36
-13 8 -2 7.1 0.6
-14 8 -2 48.06 1.32
-15 8 -2 10.17 0.61
-16 8 -2 1.61 0.39
-17 8 -2 0.88 0.39
-18 8 -2 10.83 0.8
-19 8 -2 34.74 1.61
-20 8 -2 1.83 0.54
1 9 -2 34.31 1.24
0 9 -2 0.8 0.37
-1 9 -2 183.38 4.54
-2 9 -2 29.19 0.95
-3 9 -2 89.17 2.19
-4 9 -2 11.48 0.8
-5 9 -2 14.48 0.7
-6 9 -2 16.09 0.72
-7 9 -2 24.21 0.88
-8 9 -2 19.02 0.66
-9 9 -2 9.29 0.59
-10 9 -2 42.57 1.17
-11 9 -2 1.83 0.37
-12 9 -2 0.29 0.34
-13 9 -2 0.59 0.37
-14 9 -2 0.8 0.37
-15 9 -2 2.41 0.44
-16 9 -2 11.19 0.67
-17 9 -2 34.74 0.95
-18 9 -2 1.32 0.44
-19 9 -2 5.78 1.1
-20 9 -2 2.41 2.71
1 10 -2 15.51 0.66
0 10 -2 0.51 0.29
-1 10 -2 57.13 1.61
-2 10 -2 37.09 1.02
-3 10 -2 210.08 2.93
-4 10 -2 41.77 1.17
-5 10 -2 34.38 1.1
-6 10 -2 1.46 0.29
-7 10 -2 22.97 0.71
-8 10 -2 48.42 1.02
-9 10 -2 1.97 0.37
-10 10 -2 5.27 0.62
-11 10 -2 2.41 0.49
-12 10 -2 16.9 0.88
-13 10 -2 27.5 0.95
-14 10 -2 11.19 0.65
-15 10 -2 42.64 1.02
-16 10 -2 0.29 0.39
-17 10 -2 0.95 0.39
-18 10 -2 2.12 0.56
-19 10 -2 0.51 0.44
1 11 -2 3.51 0.48
0 11 -2 41.4 1.24
-1 11 -2 6.51 0.5
-2 11 -2 1.39 0.29
-3 11 -2 0.15 0.26
-4 11 -2 10.75 0.65
-5 11 -2 4.02 0.5
-6 11 -2 6.36 0.51
-7 11 -2 354.62 6.51
-8 11 -2 0.51 0.31
-9 11 -2 196.77 3.07
-10 11 -2 23.55 1.02
-11 11 -2 1.76 0.48
-12 11 -2 36.43 1.54
-13 11 -2 0.59 0.36
-14 11 -2 12.73 0.68
-15 11 -2 0.66 0.39
-16 11 -2 2.41 0.46
-17 11 -2 62.03 1.32
-18 11 -2 8.49 0.8
-19 11 -2 42.43 0.95
1 12 -2 73 2.19
0 12 -2 210.81 2.71
-1 12 -2 82.95 1.76
-2 12 -2 35.4 1.1
-3 12 -2 74.9 1.54
-4 12 -2 17.7 0.88
-5 12 -2 76.07 1.46
-6 12 -2 0.51 0.31
-7 12 -2 2.05 0.37
-8 12 -2 0.37 0.35
-9 12 -2 0 0.37
-10 12 -2 3.58 0.67
-11 12 -2 11.19 0.73
-12 12 -2 25.75 0.8
-13 12 -2 0.29 0.37
-14 12 -2 5.85 0.8
-15 12 -2 9.22 0.95
-16 12 -2 3.29 1.02
-17 12 -2 3.44 0.56
-18 12 -2 1.68 0.61
1 13 -2 12.14 0.61
0 13 -2 43.6 1.24
-1 13 -2 13.09 0.6
-2 13 -2 8.49 0.55
-3 13 -2 20.55 1.02
-4 13 -2 271.67 4.68
-5 13 -2 2.63 0.44
-6 13 -2 133.57 2.34
-7 13 -2 6.44 0.57
-8 13 -2 0.44 0.37
-9 13 -2 2.41 0.56
-10 13 -2 2.71 0.42
-11 13 -2 2.05 0.47
-12 13 -2 11.48 0.65
-13 13 -2 0.37 0.38
-14 13 -2 45.57 1.17
-15 13 -2 1.76 0.51
-16 13 -2 42.79 5.78
-17 13 -2 0.66 0.38
1 14 -2 48.28 1.54
0 14 -2 58.23 1.68
-1 14 -2 10.83 0.64
-2 14 -2 0.22 0.31
-3 14 -2 35.99 1.24
-4 14 -2 26.48 1.1
-5 14 -2 56.98 1.76
-6 14 -2 21.29 0.88
-7 14 -2 20.26 0.88
-8 14 -2 5.63 0.57
-9 14 -2 2.78 0.42
-10 14 -2 0 0.35
-11 14 -2 27.43 0.8
-12 14 -2 0.88 0.39
-13 14 -2 0.07 0.37
-14 14 -2 1.76 0.41
-15 14 -2 10.24 0.66
-16 14 -2 3.73 0.8
1 15 -2 1.61 0.39
0 15 -2 26.92 0.95
-1 15 -2 0.15 0.35
-2 15 -2 12.36 0.73
-3 15 -2 0.07 0.35
-4 15 -2 0.66 0.37
-5 15 -2 6.29 0.61
-6 15 -2 0.29 0.34
-7 15 -2 64.15 1.46
-8 15 -2 12.73 0.64
-9 15 -2 1.46 0.39
-10 15 -2 10.75 0.64
-11 15 -2 8.12 0.8
-12 15 -2 25.75 1.02
-13 15 -2 0.29 0.37
-14 15 -2 1.54 0.41
-15 15 -2 0.8 0.39
1 16 -2 1.02 0.39
0 16 -2 48.35 1.68
-1 16 -2 9.51 0.8
-2 16 -2 1.9 0.42
-3 16 -2 18.36 1.02
-4 16 -2 83.24 1.39
-5 16 -2 0.73 0.36
-6 16 -2 4.46 0.56
-7 16 -2 10.09 0.63
-8 16 -2 10.46 0.64
-9 16 -2 0.59 0.38
-10 16 -2 5.49 0.57
-11 16 -2 5.12 0.68
-12 16 -2 1.46 0.41
-13 16 -2 8.41 0.61
-14 16 -2 0.07 0.36
1 17 -2 6.22 0.56
0 17 -2 20.41 1.02
-1 17 -2 1.76 0.4
-2 17 -2 10.46 0.8
-3 17 -2 8.7 0.62
-4 17 -2 14.34 0.7
-5 17 -2 49.96 1.54
-6 17 -2 18.29 0.88
-7 17 -2 1.68 0.4
-8 17 -2 0.73 0.39
-9 17 -2 1.02 0.39
-10 17 -2 4.39 0.56
-11 17 -2 1.39 0.39
-12 17 -2 6.29 0.57
-13 17 -2 0.73 0.35
1 18 -2 10.31 0.88
0 18 -2 8.12 1.17
-1 18 -2 58.74 1.1
-2 18 -2 3.29 0.53
-3 18 -2 0.37 0.38
-4 18 -2 14.04 0.68
-5 18 -2 2.78 0.48
-6 18 -2 10.17 0.7
-7 18 -2 2.49 0.46
-8 18 -2 6.8 0.61
-9 18 -2 9.07 0.8
-10 18 -2 9.8 0.67
-11 18 -2 2.78 0.49
1 19 -2 -0.37 0.37
0 19 -2 0.88 0.59
-1 19 -2 17.26 0.8
-2 19 -2 7.24 0.73
-3 19 -2 18.07 0.95
-4 19 -2 4.02 0.57
-5 19 -2 0.15 0.4
-6 19 -2 71.98 1.39
-7 19 -2 5.12 0.64
-8 19 -2 96.99 2.41
-9 19 -2 6.29 1.02
1 20 -2 3.44 0.53
0 20 -2 15.07 0.95
-1 20 -2 4.32 0.55
-2 20 -2 2.27 0.65
-3 20 -2 15 0.8
-4 20 -2 16.53 0.71
-5 20 -2 2.49 0.72
-6 20 -2 0.15 0.36
1 21 -2 2.12 0.43
0 21 -2 1.46 0.4
-1 21 -2 3 0.8
-2 21 -2 2.05 0.35
-3 21 -2 10.39 0.69
-1 0 -1 0.21 0.19
-2 0 -1 676.61 12.4
-3 0 -1 -0.21 0.27
-4 0 -1 4.82 0.65
-5 0 -1 0.28 0.41
-6 0 -1 756.3 11.71
-7 0 -1 0.15 0.51
-8 0 -1 135.83 3.58
-9 0 -1 0.07 0.33
-10 0 -1 534.63 13.17
-11 0 -1 0.07 0.26
-12 0 -1 60.2 1.61
-13 0 -1 0.07 0.27
-14 0 -1 63.42 1.17
-15 0 -1 0 0.31
-16 0 -1 59.47 1.54
-17 0 -1 0.15 0.48
-18 0 -1 35.84 0.8
-19 0 -1 0.15 0.34
-20 0 -1 6.36 1.39
-21 0 -1 0.22 0.39
-22 0 -1 25.24 0.88
-23 0 -1 0.29 0.42
0 1 -1 3036.22 62.68
-1 1 -1 12.33 0.53
-2 1 -1 463.01 6.89
-3 1 -1 186.04 3.79
-4 1 -1 33.48 1.45
-5 1 -1 3.72 0.61
-6 1 -1 593.54 9.64
-7 1 -1 29.84 1.61
-8 1 -1 6.95 0.72
-9 1 -1 84.85 2.41
-10 1 -1 51.93 1.76
-11 1 -1 -0.07 0.25
-12 1 -1 127.13 2.85
-13 1 -1 11.92 0.8
-14 1 -1 17.48 0.73
-15 1 -1 40.23 1.1
-16 1 -1 5.71 0.59
-17 1 -1 5.56 0.73
-18 1 -1 22.09 0.95
-19 1 -1 0.66 0.4
-20 1 -1 26.11 1.32
-21 1 -1 2.27 0.59
-22 1 -1 10.31 0.73
-23 1 -1 0.73 0.42
0 2 -1 1467.83 30.31
-1 2 -1 559.44 6.34
-2 2 -1 39.33 1.58
-3 2 -1 776.96 11.02
-4 2 -1 1051.1 12.4
-5 2 -1 580.66 8.27
-6 2 -1 103.87 4.54
-7 2 -1 316.73 5.49
-8 2 -1 738.79 16.82
-9 2 -1 59.54 1.68
-10 2 -1 81.19 2.41
-11 2 -1 0.51 0.29
-12 2 -1 26.41 1.02
-13 2 -1 0.59 0.29
-14 2 -1 8.78 0.95
-15 2 -1 21.07 0.8
-16 2 -1 1.54 0.39
-17 2 -1 1.32 0.41
-18 2 -1 8.49 0.62
-19 2 -1 26.92 1.1
-20 2 -1 33.06 1.24
-21 2 -1 0.51 0.56
-22 2 -1 34.31 1.1
-23 2 -1 0.66 0.42
0 3 -1 305.07 4.27
-1 3 -1 1403.08 24.11
-2 3 -1 44.08 1.31
-3 3 -1 890.62 10.33
-4 3 -1 4.41 0.68
-5 3 -1 152.29 4.2
-6 3 -1 40.82 2.56
-7 3 -1 237.36 4.68
-8 3 -1 239.92 5.19
-9 3 -1 115.06 3
-10 3 -1 23.19 1.46
-11 3 -1 192.23 2.78
-12 3 -1 67.22 1.24
-13 3 -1 24.36 1.02
-14 3 -1 12 0.72
-15 3 -1 45.21 1.54
-16 3 -1 25.31 1.17
-17 3 -1 12.29 0.72
-18 3 -1 23.26 0.8
-19 3 -1 8.63 0.64
-20 3 -1 1.17 0.42
-21 3 -1 2.27 0.51
-22 3 -1 -0.07 0.41
-23 3 -1 4.1 0.72
0 4 -1 919.54 10.33
-1 4 -1 127.77 2.76
-2 4 -1 590.23 7.58
-3 4 -1 684.32 10.33
-4 4 -1 209.46 4.27
-5 4 -1 226.98 6.07
-6 4 -1 0.37 0.37
-7 4 -1 217.39 3.73
-8 4 -1 0.29 0.32
-9 4 -1 63.78 2.34
-10 4 -1 10.61 0.59
-11 4 -1 283.23 4.17
-12 4 -1 14.7 0.73
-13 4 -1 20.55 0.88
-14 4 -1 79.88 1.76
-15 4 -1 20.41 0.73
-16 4 -1 35.62 1.02
-17 4 -1 3 0.49
-18 4 -1 0.07 0.35
-19 4 -1 2.93 0.48
-20 4 -1 11.56 0.7
-21 4 -1 36.94 1.1
-22 4 -1 16.31 0.95
-23 4 -1 10.31 0.68
0 5 -1 384.56 5.79
-1 5 -1 226.27 4.27
-2 5 -1 7.3 0.9
-3 5 -1 743.9 12.4
-4 5 -1 188.35 4.24
-5 5 -1 316.07 6.8
-6 5 -1 96.63 2.12
-7 5 -1 341.23 5.27
-8 5 -1 67.52 1.68
-9 5 -1 0 0.35
-10 5 -1 21.29 0.8
-11 5 -1 2.85 0.41
-12 5 -1 12.07 0.54
-13 5 -1 28.53 0.8
-14 5 -1 27.65 0.88
-15 5 -1 50.18 1.1
-16 5 -1 0.95 0.36
-17 5 -1 15.8 0.8
-18 5 -1 2.27 0.42
-19 5 -1 59.03 1.24
-20 5 -1 8.27 0.69
-21 5 -1 21.29 0.8
-22 5 -1 5.56 0.73
0 6 -1 88.3 2.62
-1 6 -1 0.44 0.52
-2 6 -1 171.9 4.02
-3 6 -1 32.77 2.27
-4 6 -1 91.14 2.41
-5 6 -1 49.08 1.68
-6 6 -1 15.87 0.8
-7 6 -1 4.75 0.55
-8 6 -1 65.1 1.68
-9 6 -1 86.39 1.54
-10 6 -1 1.17 0.36
-11 6 -1 204.96 2.93
-12 6 -1 7.61 0.49
-13 6 -1 9.36 0.58
-14 6 -1 3.29 0.47
-15 6 -1 0.51 0.34
-16 6 -1 0.22 0.36
-17 6 -1 5.56 0.59
-18 6 -1 76.88 1.39
-19 6 -1 12.07 0.69
-20 6 -1 4.54 0.64
-21 6 -1 9.95 0.67
-22 6 -1 5.49 0.66
0 7 -1 153.46 3.95
-1 7 -1 0.07 0.3
-2 7 -1 0.37 0.32
-3 7 -1 35.4 1.17
-4 7 -1 66.49 1.76
-5 7 -1 51.86 1.68
-6 7 -1 4.83 0.59
-7 7 -1 164.87 3.58
-8 7 -1 81.85 1.46
-9 7 -1 188.79 2.56
-10 7 -1 4.61 0.47
-11 7 -1 1.54 0.3
-12 7 -1 19.31 0.69
-13 7 -1 51.79 1.17
-14 7 -1 54.49 1.32
-15 7 -1 1.02 0.37
-16 7 -1 13.61 0.73
-17 7 -1 53.76 1.24
-18 7 -1 2.41 0.44
-19 7 -1 12.95 0.72
-20 7 -1 1.68 0.43
-21 7 -1 2.56 0.48
-22 7 -1 11.56 2.19
0 8 -1 2.49 0.47
-1 8 -1 24.14 0.95
-2 8 -1 20.41 1.02
-3 8 -1 90.92 2.93
-4 8 -1 230.49 4.75
-5 8 -1 131.67 3.36
-6 8 -1 13.02 0.95
-7 8 -1 16.02 0.69
-8 8 -1 131.96 2.27
-9 8 -1 42.13 0.95
-10 8 -1 0.07 0.26
-11 8 -1 11.34 0.66
-12 8 -1 0 0.29
-13 8 -1 0.07 0.3
-14 8 -1 11.63 0.64
-15 8 -1 0 0.37
-16 8 -1 16.02 0.69
-17 8 -1 61.66 1.17
-18 8 -1 8.92 0.64
-19 8 -1 16.97 0.73
-20 8 -1 1.02 0.47
-21 8 -1 33.36 2.85
0 9 -1 232.68 5.19
-1 9 -1 374.08 8.05
-2 9 -1 0.51 0.34
-3 9 -1 6 0.63
-4 9 -1 3.07 0.68
-5 9 -1 29.55 0.88
-6 9 -1 58.44 1.68
-7 9 -1 0.22 0.28
-8 9 -1 15.29 0.73
-9 9 -1 62.25 1.17
-10 9 -1 20.33 0.95
-11 9 -1 131.45 2.05
-12 9 -1 29.19 0.95
-13 9 -1 2.19 0.39
-14 9 -1 0.15 0.34
-15 9 -1 2.49 0.57
-16 9 -1 1.24 0.4
-17 9 -1 15.07 0.88
-18 9 -1 9.8 0.73
-19 9 -1 1.61 0.5
-20 9 -1 1.9 0.42
-21 9 -1 0.8 0.37
0 10 -1 9.14 0.68
-1 10 -1 10.9 0.61
-2 10 -1 30.06 1.32
-3 10 -1 8.49 0.57
-4 10 -1 45.64 1.68
-5 10 -1 5.85 0.73
-6 10 -1 14.19 1.02
-7 10 -1 136.71 2.41
-8 10 -1 9.66 0.72
-9 10 -1 98.16 1.76
-10 10 -1 85.8 1.76
-11 10 -1 69.86 1.76
-12 10 -1 14.48 0.95
-13 10 -1 10.68 0.88
-14 10 -1 30.94 1.17
-15 10 -1 24.43 1.24
-16 10 -1 22.53 0.95
-17 10 -1 22.09 0.8
-18 10 -1 0.37 0.39
-19 10 -1 71.1 1.39
-20 10 -1 7.68 1.1
0 11 -1 56.84 1.83
-1 11 -1 77.68 1.83
-2 11 -1 17.26 0.65
-3 11 -1 1.68 0.31
-4 11 -1 38.33 1.17
-5 11 -1 10.9 0.61
-6 11 -1 76.51 1.9
-7 11 -1 22.24 1.1
-8 11 -1 16.97 0.8
-9 11 -1 4.1 0.5
-10 11 -1 16.46 0.73
-11 11 -1 17.34 0.73
-12 11 -1 5.34 0.66
-13 11 -1 11.7 0.73
-14 11 -1 3.36 0.53
-15 11 -1 16.17 1.02
-16 11 -1 0.37 0.45
-17 11 -1 0.51 0.44
-18 11 -1 2.05 0.56
-19 11 -1 7.17 0.88
-20 11 -1 4.46 2.63
0 12 -1 165.75 2.71
-1 12 -1 38.77 0.95
-2 12 -1 5.49 0.47
-3 12 -1 21.94 0.8
-4 12 -1 2.78 0.45
-5 12 -1 1.1 0.32
-6 12 -1 0.15 0.28
-7 12 -1 17.04 0.8
-8 12 -1 34.89 1.46
-9 12 -1 5.56 0.56
-10 12 -1 120.25 1.97
-11 12 -1 6.73 0.88
-12 12 -1 27.65 1.1
-13 12 -1 6.14 0.7
-14 12 -1 25.38 1.17
-15 12 -1 0.29 0.39
-16 12 -1 1.46 0.46
-17 12 -1 19.24 0.88
-18 12 -1 11.05 0.72
-19 12 -1 31.75 0.95
0 13 -1 9.44 0.69
-1 13 -1 42.35 1.24
-2 13 -1 11.12 0.58
-3 13 -1 3.15 0.41
-4 13 -1 29.62 1.02
-5 13 -1 0.51 0.3
-6 13 -1 17.63 0.73
-7 13 -1 0.88 0.32
-8 13 -1 35.7 0.95
-9 13 -1 8.27 0.62
-10 13 -1 45.21 1.39
-11 13 -1 12.22 0.8
-12 13 -1 5.85 0.65
-13 13 -1 3.29 0.55
-14 13 -1 89.9 1.54
-15 13 -1 1.02 0.51
-16 13 -1 1.83 0.56
-17 13 -1 2.05 0.67
-18 13 -1 27.65 0.95
0 14 -1 76.95 2.27
-1 14 -1 36.21 1.39
-2 14 -1 26.7 1.02
-3 14 -1 0.29 0.31
-4 14 -1 43.52 1.76
-5 14 -1 0.73 0.35
-6 14 -1 0.15 0.32
-7 14 -1 9.51 0.62
-8 14 -1 1.54 0.39
-9 14 -1 3.73 0.54
-10 14 -1 7.61 0.57
-11 14 -1 0.88 0.38
-12 14 -1 3.15 0.51
-13 14 -1 0.95 0.41
-14 14 -1 44.62 1.17
-15 14 -1 0.07 0.39
-16 14 -1 19.16 1.83
-17 14 -1 6.14 0.73
0 15 -1 15.95 0.95
-1 15 -1 47.77 1.61
-2 15 -1 4.97 0.56
-3 15 -1 6.44 0.7
-4 15 -1 74.61 2.56
-5 15 -1 26.99 0.95
-6 15 -1 130.49 2.78
-7 15 -1 50.11 1.61
-8 15 -1 64.15 1.39
-9 15 -1 7.02 0.59
-10 15 -1 0.66 0.37
-11 15 -1 31.16 0.88
-12 15 -1 3.29 0.53
-13 15 -1 2.27 0.44
-14 15 -1 7.1 0.61
-15 15 -1 7.17 0.8
-16 15 -1 0.8 0.36
0 16 -1 0.44 0.38
-1 16 -1 4.1 0.61
-2 16 -1 1.76 0.5
-3 16 -1 45.21 1.46
-4 16 -1 1.61 0.42
-5 16 -1 17.19 0.69
-6 16 -1 14.19 0.88
-7 16 -1 35.99 0.88
-8 16 -1 3.22 0.5
-9 16 -1 7.83 0.62
-10 16 -1 2.85 0.48
-11 16 -1 0.07 0.39
-12 16 -1 3.88 0.67
-13 16 -1 0.51 0.38
-14 16 -1 5.19 0.69
-15 16 -1 21.58 1.02
0 17 -1 46.45 1.1
-1 17 -1 24.94 1.17
-2 17 -1 -0.07 0.37
-3 17 -1 5.49 0.7
-4 17 -1 0.07 0.37
-5 17 -1 7.9 0.62
-6 17 -1 1.76 0.4
-7 17 -1 29.19 0.95
-8 17 -1 0.22 0.38
-9 17 -1 19.6 0.88
-10 17 -1 3 0.51
-11 17 -1 20.63 0.95
-12 17 -1 15.43 0.8
-13 17 -1 7.61 0.71
-14 17 -1 1.97 0.39
0 18 -1 31.89 1.39
-1 18 -1 0.15 0.36
-2 18 -1 9.29 0.73
-3 18 -1 15.07 0.71
-4 18 -1 4.46 0.58
-5 18 -1 12.22 0.68
-6 18 -1 17.77 0.73
-7 18 -1 7.17 0.64
-8 18 -1 39.13 1.24
-9 18 -1 15.14 0.72
-10 18 -1 1.39 0.41
-11 18 -1 15.95 0.7
-12 18 -1 3.15 0.6
0 19 -1 5.19 1.02
-1 19 -1 11.26 0.95
-2 19 -1 2.12 0.48
-3 19 -1 0.22 0.46
-4 19 -1 2.19 0.44
-5 19 -1 2.63 0.5
-6 19 -1 0.88 0.42
-7 19 -1 0.37 0.38
-8 19 -1 9.66 0.7
-9 19 -1 1.39 0.43
-10 19 -1 0.22 0.37
-11 19 -1 1.68 0.43
0 20 -1 7.83 1.02
-1 20 -1 2.34 0.51
-2 20 -1 -0.07 0.39
-3 20 -1 0.95 0.43
-4 20 -1 27.8 1.1
-5 20 -1 0.07 0.36
-6 20 -1 6.22 0.72
-7 20 -1 1.32 0.44
-8 20 -1 35.04 14.63
0 21 -1 64.95 6.44
-1 21 -1 1.02 0.37
-2 21 -1 2.27 0.4
-3 21 -1 19.31 1.17
-4 21 -1 2.12 0.62
-5 21 -1 0.22 0.35
-2 0 0 2481.05 22.73
-4 0 0 1014.6 13.78
-6 0 0 1.72 0.5
-8 0 0 3.51 0.73
-10 0 0 674.78 16.09
-12 0 0 723.21 16.82
-14 0 0 62.76 1.68
-16 0 0 3 0.42
-18 0 0 3.66 0.53
-20 0 0 22.68 2.41
-22 0 0 167.43 2.49
-24 0 0 6.73 0.69
0 1 0 0.07 0.14
-1 1 0 84.45 1.45
-2 1 0 5.58 0.45
-3 1 0 251.96 4.61
-4 1 0 2261.32 47.53
-5 1 0 299.14 5.23
-6 1 0 39.12 1.52
-7 1 0 54.69 1.93
-8 1 0 643.77 12.44
-9 1 0 32.26 1.17
-10 1 0 2.49 0.49
-11 1 0 15.95 0.95
-12 1 0 34.96 1.17
-13 1 0 8.49 0.57
-14 1 0 51.06 1.32
-15 1 0 7.02 0.55
-16 1 0 4.83 0.61
-17 1 0 0.8 0.35
-18 1 0 73.81 1.68
-19 1 0 0.07 0.34
-20 1 0 0.44 0.4
-21 1 0 0.15 0.4
-22 1 0 1.24 0.43
-23 1 0 13.39 0.71
-24 1 0 1.97 0.45
0 2 0 583.55 6.27
-1 2 0 57.72 1.31
-2 2 0 409.63 5.85
-3 2 0 2345.36 52.35
-4 2 0 2.2 0.5
-5 2 0 50.01 1.58
-6 2 0 1089.68 15.84
-7 2 0 31.6 1.61
-8 2 0 103.72 2.71
-9 2 0 222.59 5.78
-10 2 0 1.17 0.37
-11 2 0 24.14 1.02
-12 2 0 10.97 0.63
-13 2 0 71.68 1.97
-14 2 0 4.75 0.52
-15 2 0 32.33 0.95
-16 2 0 11.05 0.61
-17 2 0 1.32 0.39
-18 2 0 5.85 0.62
-19 2 0 26.55 0.95
-20 2 0 13.68 1.02
-21 2 0 2.85 0.46
-22 2 0 21.14 1.17
-23 2 0 3.95 0.8
-24 2 0 7.68 1.83
0 3 0 -0.48 0.3
-1 3 0 894.75 13.09
-2 3 0 1465.07 26.86
-3 3 0 50.56 1.52
-4 3 0 234.05 3.72
-5 3 0 50.42 1.72
-6 3 0 16.12 1.17
-7 3 0 198.52 7.02
-8 3 0 29.77 1.76
-9 3 0 25.38 1.32
-10 3 0 2.19 0.45
-11 3 0 98.09 2.05
-12 3 0 5.12 0.64
-13 3 0 4.02 0.5
-14 3 0 44.99 1.32
-15 3 0 0.29 0.32
-16 3 0 49.08 1.46
-17 3 0 58.08 1.54
-18 3 0 1.02 0.41
-19 3 0 4.1 0.57
-20 3 0 5.78 0.6
-21 3 0 50.84 1.1
-22 3 0 4.1 0.67
-23 3 0 3.51 0.67
-24 3 0 20.33 0.8
0 4 0 0.76 0.41
-1 4 0 1044.91 15.15
-2 4 0 9.78 0.83
-3 4 0 960.18 11.71
-4 4 0 3.72 0.66
-5 4 0 109.52 2.76
-6 4 0 0.29 0.52
-7 4 0 0.51 0.31
-8 4 0 1.39 0.34
-9 4 0 0.8 0.35
-10 4 0 74.03 2.12
-11 4 0 114.26 1.9
-12 4 0 2.49 0.37
-13 4 0 1.39 0.32
-14 4 0 87.26 1.61
-15 4 0 36.21 1.32
-16 4 0 10.53 0.64
-17 4 0 5.92 0.58
-18 4 0 10.97 0.71
-19 4 0 2.12 0.4
-20 4 0 8.12 0.63
-21 4 0 44.77 1.1
-22 4 0 3.36 0.68
-23 4 0 14.12 0.71
0 5 0 0.28 0.39
-1 5 0 48.7 2.14
-2 5 0 4.06 0.66
-3 5 0 1213.66 17.91
-4 5 0 70.67 2.2
-5 5 0 577.28 10.24
-6 5 0 73.51 1.97
-7 5 0 319.65 6.88
-8 5 0 3.73 0.48
-9 5 0 248.99 4.9
-10 5 0 73.37 1.54
-11 5 0 3.88 0.47
-12 5 0 1.1 0.32
-13 5 0 132.1 2.34
-14 5 0 1.39 0.31
-15 5 0 121.79 1.83
-16 5 0 3.15 0.46
-17 5 0 0.29 0.37
-18 5 0 25.67 0.8
-19 5 0 3.51 0.51
-20 5 0 -0.07 0.38
-21 5 0 5.41 0.61
-22 5 0 11.85 0.67
-23 5 0 0.07 0.39
0 6 0 99.39 3.31
-1 6 0 104.42 3.03
-2 6 0 139.76 4.27
-3 6 0 297.2 5.92
-4 6 0 171.46 4.24
-5 6 0 173.14 4.02
-6 6 0 57.42 1.46
-7 6 0 17.63 0.8
-8 6 0 297.71 5.19
-9 6 0 27.8 1.02
-10 6 0 1.76 0.37
-11 6 0 2.78 0.44
-12 6 0 1.24 0.29
-13 6 0 0.44 0.27
-14 6 0 80.68 1.32
-15 6 0 1.17 0.34
-16 6 0 5.27 0.56
-17 6 0 27.43 0.95
-18 6 0 8.49 0.65
-19 6 0 24.43 0.8
-20 6 0 38.18 0.95
-21 6 0 1.46 0.42
-22 6 0 1.32 0.42
-23 6 0 0.8 0.42
0 7 0 0.15 0.5
-1 7 0 170.36 4.24
-2 7 0 15.21 1.32
-3 7 0 474.14 8.78
-4 7 0 147.83 3.95
-5 7 0 1.32 0.39
-6 7 0 26.85 0.95
-7 7 0 105.48 2.34
-8 7 0 29.77 1.1
-9 7 0 23.63 0.8
-10 7 0 13.75 0.68
-11 7 0 21.21 0.68
-12 7 0 20.63 0.72
-13 7 0 0.22 0.28
-14 7 0 -0.07 0.3
-15 7 0 50.76 1.17
-16 7 0 4.9 0.61
-17 7 0 5.19 0.63
-18 7 0 18.58 0.73
-19 7 0 28.53 0.88
-20 7 0 0.95 0.4
-21 7 0 12 0.68
-22 7 0 1.76 0.41
0 8 0 80.17 1.97
-1 8 0 757.81 16.82
-2 8 0 23.48 1.02
-3 8 0 125.37 3
-4 8 0 0.37 0.33
-5 8 0 2.41 0.5
-6 8 0 106.58 3.58
-7 8 0 25.31 1.17
-8 8 0 3.15 0.46
-9 8 0 135.47 2.19
-10 8 0 22.16 1.1
-11 8 0 644.28 14.63
-12 8 0 2.49 0.42
-13 8 0 74.39 1.46
-14 8 0 40.38 1.02
-15 8 0 0.88 0.38
-16 8 0 0 0.37
-17 8 0 17.7 0.8
-18 8 0 9.66 0.65
-19 8 0 15.58 0.72
-20 8 0 5.85 0.6
-21 8 0 22.38 0.8
-22 8 0 11.41 1.32
0 9 0 0 0.28
-1 9 0 0.07 0.29
-2 9 0 0 0.31
-3 9 0 54.13 2.05
-4 9 0 46.01 1.76
-5 9 0 11.85 0.95
-6 9 0 8.85 0.59
-7 9 0 148.85 2.27
-8 9 0 37.45 1.32
-9 9 0 26.41 0.8
-10 9 0 7.1 0.64
-11 9 0 11.19 0.57
-12 9 0 23.7 0.88
-13 9 0 5.49 0.57
-14 9 0 17.12 0.8
-15 9 0 12.14 0.72
-16 9 0 0.66 0.55
-17 9 0 21.36 0.8
-18 9 0 24.36 1.02
-19 9 0 56.84 1.24
-20 9 0 -0.07 0.45
-21 9 0 4.39 0.73
-22 9 0 5.34 1.1
0 10 0 514.08 12.44
-1 10 0 0.8 0.37
-2 10 0 138.32 3.29
-3 10 0 9.07 0.57
-4 10 0 1.9 0.34
-5 10 0 57.86 1.17
-6 10 0 0.95 0.34
-7 10 0 0 0.29
-8 10 0 20.55 0.73
-9 10 0 0.8 0.28
-10 10 0 64.37 1.39
-11 10 0 81.12 1.76
-12 10 0 104.31 2.19
-13 10 0 30.58 1.24
-14 10 0 55.45 1.9
-15 10 0 42.72 1.39
-16 10 0 0.8 0.43
-17 10 0 26.04 0.95
-18 10 0 2.19 0.42
-19 10 0 6.14 0.6
-20 10 0 3.58 0.58
-21 10 0 1.61 0.43
0 11 0 0 0.26
-1 11 0 1.54 0.32
-2 11 0 0.07 0.27
-3 11 0 24.43 0.8
-4 11 0 1.24 0.33
-5 11 0 -0.07 0.28
-6 11 0 25.31 0.95
-7 11 0 64.88 1.39
-8 11 0 5.56 0.62
-9 11 0 3.07 0.48
-10 11 0 53.25 1.17
-11 11 0 5.27 0.54
-12 11 0 0.15 0.35
-13 11 0 43.52 1.76
-14 11 0 0.15 0.37
-15 11 0 7.31 0.8
-16 11 0 0.59 0.41
-17 11 0 0.29 0.38
-18 11 0 7.9 0.66
-19 11 0 18.58 1.24
-20 11 0 0.29 0.59
0 12 0 181.48 3.22
-1 12 0 9.73 0.55
-2 12 0 13.17 0.72
-3 12 0 0.07 0.25
-4 12 0 19.53 0.73
-5 12 0 1.83 0.33
-6 12 0 70.22 1.24
-7 12 0 16.53 0.95
-8 12 0 47.98 1.39
-9 12 0 6.07 0.67
-10 12 0 116.74 2.34
-11 12 0 26.92 0.95
-12 12 0 92.9 2.41
-13 12 0 0.07 0.41
-14 12 0 27.8 0.8
-15 12 0 0.44 0.4
-16 12 0 11.56 0.95
-17 12 0 8.19 1.39
-18 12 0 0.73 0.38
-19 12 0 1.24 0.43
-20 12 0 0.07 0.37
0 13 0 0.15 0.36
-1 13 0 0.29 0.27
-2 13 0 155.58 2.12
-3 13 0 1.02 0.29
-4 13 0 198.67 3.36
-5 13 0 3.58 0.48
-6 13 0 41.55 1.61
-7 13 0 0.73 0.32
-8 13 0 72.49 1.83
-9 13 0 10.24 0.65
-10 13 0 1.97 0.46
-11 13 0 2.85 0.68
-12 13 0 0.07 0.45
-13 13 0 1.46 0.42
-14 13 0 59.69 1.39
-15 13 0 -0.07 0.39
-16 13 0 61.15 2.27
-17 13 0 0.15 0.46
-18 13 0 14.7 0.73
-19 13 0 1.46 0.88
0 14 0 0.15 0.31
-1 14 0 7.1 0.64
-2 14 0 26.92 1.1
-3 14 0 35.84 1.17
-4 14 0 15.36 0.8
-5 14 0 20.41 0.88
-6 14 0 14.19 0.8
-7 14 0 32.04 1.24
-8 14 0 55.01 1.46
-9 14 0 38.69 1.32
-10 14 0 10.75 0.72
-11 14 0 9.44 0.8
-12 14 0 0.88 0.55
-13 14 0 4.61 0.6
-14 14 0 106.14 4.1
-15 14 0 0.95 0.41
-16 14 0 10.09 0.8
-17 14 0 2.05 0.42
-18 14 0 1.9 0.45
0 15 0 0.15 0.39
-1 15 0 11.7 0.67
-2 15 0 4.17 0.54
-3 15 0 2.49 0.48
-4 15 0 3.22 0.54
-5 15 0 0.29 0.36
-6 15 0 22.38 0.88
-7 15 0 5.63 0.63
-8 15 0 10.24 0.72
-9 15 0 13.68 0.7
-10 15 0 59.4 1.68
-11 15 0 2.78 0.48
-12 15 0 3.88 0.73
-13 15 0 6.29 0.64
-14 15 0 3.58 0.69
-15 15 0 1.02 0.45
-16 15 0 0.8 0.39
-17 15 0 6.44 0.7
0 16 0 96.41 3.22
-1 16 0 11.26 0.88
-2 16 0 51.64 2.27
-3 16 0 3.36 0.58
-4 16 0 8.27 0.68
-5 16 0 13.9 0.8
-6 16 0 27.28 1.17
-7 16 0 6.44 0.61
-8 16 0 80.68 1.9
-9 16 0 8.12 0.64
-10 16 0 21.51 0.8
-11 16 0 38.48 1.61
-12 16 0 12.44 0.7
-13 16 0 6 0.62
-14 16 0 34.01 1.1
-15 16 0 12.73 0.67
-16 16 0 3.88 0.88
0 17 0 -0.15 0.35
-1 17 0 4.61 0.58
-2 17 0 9.22 0.8
-3 17 0 77.24 3.8
-4 17 0 0.15 0.39
-5 17 0 7.1 0.63
-6 17 0 0.07 0.37
-7 17 0 74.68 1.76
-8 17 0 5.49 0.61
-9 17 0 6.58 0.61
-10 17 0 0.07 0.38
-11 17 0 1.54 0.42
-12 17 0 8.85 0.64
-13 17 0 4.97 0.6
-14 17 0 0.37 0.38
-15 17 0 19.46 0.69
0 18 0 31.38 2.19
-1 18 0 113.45 2.12
-2 18 0 0.44 0.39
-3 18 0 3.36 0.56
-4 18 0 10.9 0.8
-5 18 0 1.39 0.41
-6 18 0 0.44 0.41
-7 18 0 10.97 0.69
-8 18 0 0.15 0.38
-9 18 0 7.17 0.62
-10 18 0 0.66 0.4
-11 18 0 125.01 1.97
-12 18 0 1.1 0.4
-13 18 0 18.65 0.8
0 19 0 0.37 0.57
-1 19 0 0 0.38
-2 19 0 0.8 0.53
-3 19 0 1.17 0.41
-4 19 0 21.94 1.24
-5 19 0 1.02 0.42
-6 19 0 0.22 0.38
-7 19 0 5.27 0.57
-8 19 0 16.09 0.8
-9 19 0 1.68 0.42
-10 19 0 1.02 0.45
-11 19 0 -0.15 0.38
0 20 0 18.51 1.83
-1 20 0 41.26 1.17
-2 20 0 1.24 0.59
-3 20 0 1.46 0.42
-4 20 0 1.68 0.52
-5 20 0 21.29 0.95
-6 20 0 8.49 0.72
-7 20 0 3.88 0.68
-8 20 0 0.07 0.38
-9 20 0 0.37 0.36
0 21 0 0 0.56
-1 21 0 0.22 0.37
-2 21 0 2.78 0.62
-3 21 0 8.34 1.24
-4 21 0 1.83 0.55
-5 21 0 7.83 1.97
-6 21 0 2.19 0.39
-2 0 1 1527.75 22.04
-3 0 1 -0.14 0.27
-4 0 1 150.85 2.41
-5 0 1 0.21 0.42
-6 0 1 66.47 1.86
-7 0 1 0.14 0.44
-8 0 1 74.46 2.49
-9 0 1 0.07 0.35
-10 0 1 34.6 1.17
-11 0 1 0.07 0.32
-12 0 1 33.94 0.88
-13 0 1 -0.07 0.26
-14 0 1 44.77 1.39
-15 0 1 0.07 0.24
-16 0 1 1.83 0.35
-17 0 1 0.07 0.33
-18 0 1 86.09 1.76
-19 0 1 0.22 0.61
-20 0 1 12.36 1.39
-21 0 1 0 0.41
-22 0 1 28.23 0.95
-23 0 1 0.37 0.39
-24 0 1 2.05 0.42
-2 1 1 1494 24.11
-3 1 1 2310.23 42.71
-4 1 1 34.85 1.17
-5 1 1 83.34 1.93
-6 1 1 99.26 2.34
-7 1 1 29.14 1.38
-8 1 1 0.8 0.54
-9 1 1 29.04 1.02
-10 1 1 270.06 5.78
-11 1 1 4.83 0.62
-12 1 1 76.88 1.39
-13 1 1 295.15 4.39
-14 1 1 0.95 0.29
-15 1 1 161.66 2.49
-16 1 1 118.21 2.19
-17 1 1 1.61 0.41
-18 1 1 11.26 0.8
-19 1 1 0.95 0.44
-20 1 1 0.59 0.39
-21 1 1 4.75 0.64
-22 1 1 82.73 1.54
-23 1 1 4.9 0.64
-24 1 1 11.34 0.67
-2 2 1 1673.09 31
-3 2 1 543.6 5.51
-4 2 1 1228.13 17.91
-5 2 1 54.97 1.58
-6 2 1 4.61 0.69
-7 2 1 626.81 10.33
-8 2 1 69.05 2.49
-9 2 1 2.93 0.48
-10 2 1 16.53 0.8
-11 2 1 43.89 1.61
-12 2 1 1.32 0.31
-13 2 1 36.06 0.88
-14 2 1 181.11 2.85
-15 2 1 23.85 1.17
-16 2 1 29.48 0.88
-17 2 1 90.63 1.97
-18 2 1 37.82 1.1
-19 2 1 39.72 1.54
-20 2 1 0.95 0.39
-21 2 1 30.65 0.95
-22 2 1 5.78 0.8
-23 2 1 7.17 0.88
-24 2 1 3.8 0.56
-2 3 1 39.05 1.17
-3 3 1 721.86 9.64
-4 3 1 889.24 10.33
-5 3 1 620.06 8.27
-6 3 1 120.06 2.96
-7 3 1 573.84 10.24
-8 3 1 54.57 1.97
-9 3 1 2.34 0.63
-10 3 1 62.76 2.27
-11 3 1 183.23 4.24
-12 3 1 17.04 0.73
-13 3 1 19.82 0.88
-14 3 1 41.84 1.32
-15 3 1 33.79 0.88
-16 3 1 0.22 0.32
-17 3 1 4.97 0.7
-18 3 1 0.07 0.37
-19 3 1 63.2 1.17
-20 3 1 0.15 0.37
-21 3 1 0.15 0.38
-22 3 1 4.54 0.61
-23 3 1 6.88 0.62
-24 3 1 0.22 0.54
-2 4 1 2.27 0.52
-3 4 1 14.19 0.96
-4 4 1 658.42 8.95
-5 4 1 57.65 1.86
-6 4 1 2.63 0.67
-7 4 1 110.38 2.93
-8 4 1 169.77 3.51
-9 4 1 41.11 1.61
-10 4 1 62.54 2.05
-11 4 1 131.37 2.78
-12 4 1 58.15 1.46
-13 4 1 6.44 0.56
-14 4 1 0.66 0.29
-15 4 1 69.71 1.39
-16 4 1 29.7 1.24
-17 4 1 18.21 0.95
-18 4 1 5.41 0.73
-19 4 1 23.99 0.8
-20 4 1 6.58 0.61
-21 4 1 9.51 0.65
-22 4 1 20.55 0.8
-23 4 1 2.78 0.48
-24 4 1 0.88 0.72
-2 5 1 168.07 4.13
-3 5 1 30.44 1.38
-4 5 1 189.56 5.1
-5 5 1 238.24 5.85
-6 5 1 70.59 2.71
-7 5 1 7.53 0.64
-8 5 1 170.65 3.36
-9 5 1 0.22 0.3
-10 5 1 13.68 0.88
-11 5 1 0.59 0.34
-12 5 1 18.21 0.8
-13 5 1 41.26 1.02
-14 5 1 65.47 1.54
-15 5 1 2.56 0.4
-16 5 1 32.62 0.95
-17 5 1 29.26 0.95
-18 5 1 8.56 0.7
-19 5 1 7.02 0.61
-20 5 1 0.88 0.4
-21 5 1 1.32 0.42
-22 5 1 0.37 0.39
-23 5 1 8.78 0.73
-24 5 1 12.44 1.46
-2 6 1 16.88 1.17
-3 6 1 214.61 4.61
-4 6 1 72.12 3.8
-5 6 1 21.94 0.95
-6 6 1 376.78 8.05
-7 6 1 2.93 0.5
-8 6 1 43.52 1.32
-9 6 1 0.73 0.34
-10 6 1 240.8 3.22
-11 6 1 37.67 1.1
-12 6 1 43.16 1.32
-13 6 1 1.32 0.29
-14 6 1 5.05 0.5
-15 6 1 2.27 0.39
-16 6 1 19.09 0.73
-17 6 1 25.82 1.1
-18 6 1 104.67 2.12
-19 6 1 9.29 0.67
-20 6 1 2.05 0.43
-21 6 1 8.78 0.65
-22 6 1 33.36 0.95
-23 6 1 0 0.39
-2 7 1 395.14 7.31
-3 7 1 160.34 3.73
-4 7 1 296.76 6.36
-5 7 1 612.9 13.9
-6 7 1 1.1 0.37
-7 7 1 138.69 3.22
-8 7 1 13.9 0.8
-9 7 1 1.17 0.31
-10 7 1 54.57 1.68
-11 7 1 44.4 1.61
-12 7 1 1.02 0.31
-13 7 1 55.23 1.54
-14 7 1 244.31 3.29
-15 7 1 12.51 0.66
-16 7 1 34.89 1.1
-17 7 1 27.94 0.95
-18 7 1 0 0.37
-19 7 1 65.17 1.39
-20 7 1 2.85 0.5
-21 7 1 29.11 0.88
-22 7 1 12.58 0.68
-23 7 1 0.8 0.42
-2 8 1 35.48 1.24
-3 8 1 31.38 1.39
-4 8 1 302.46 7.31
-5 8 1 71.61 2.41
-6 8 1 17.99 1.1
-7 8 1 16.39 1.02
-8 8 1 92.46 2.78
-9 8 1 28.38 1.1
-10 8 1 2.41 0.39
-11 8 1 13.82 0.73
-12 8 1 4.46 0.48
-13 8 1 13.75 0.64
-14 8 1 36.28 0.95
-15 8 1 1.02 0.36
-16 8 1 20.63 0.88
-17 8 1 3.15 0.48
-18 8 1 20.19 0.88
-19 8 1 -0.15 0.38
-20 8 1 0.51 0.39
-21 8 1 0.22 0.39
-22 8 1 0.07 0.37
-23 8 1 0.29 0.41
-2 9 1 150.9 3.66
-3 9 1 2.71 0.57
-4 9 1 53.47 2.71
-5 9 1 72.85 2.05
-6 9 1 8.49 0.56
-7 9 1 16.24 0.71
-8 9 1 5.27 0.53
-9 9 1 4.83 0.5
-10 9 1 30.58 0.95
-11 9 1 300.78 4.83
-12 9 1 81.05 2.27
-13 9 1 101.16 2.34
-14 9 1 45.5 1.46
-15 9 1 0.66 0.37
-16 9 1 48.79 1.54
-17 9 1 1.83 0.4
-18 9 1 1.02 0.42
-19 9 1 1.1 0.41
-20 9 1 1.68 0.45
-21 9 1 18.95 0.95
-22 9 1 11.26 0.88
-2 10 1 119.82 2.63
-3 10 1 498.13 6.36
-4 10 1 26.77 1.17
-5 10 1 80.46 1.54
-6 10 1 43.01 1.24
-7 10 1 207.96 3.36
-8 10 1 62.1 1.32
-9 10 1 0.8 0.27
-10 10 1 0.15 0.27
-11 10 1 44.11 1.39
-12 10 1 13.68 0.73
-13 10 1 4.54 0.57
-14 10 1 2.41 0.5
-15 10 1 33.28 1.39
-16 10 1 0.15 0.38
-17 10 1 0.37 0.41
-18 10 1 0.44 0.42
-19 10 1 5.63 0.6
-20 10 1 2.19 0.49
-21 10 1 1.54 0.59
-22 10 1 0.29 0.38
-2 11 1 14.92 0.8
-3 11 1 229.46 4.17
-4 11 1 23.19 0.95
-5 11 1 2.27 0.36
-6 11 1 22.75 0.88
-7 11 1 1.39 0.32
-8 11 1 69.64 1.54
-9 11 1 0.51 0.3
-10 11 1 0.8 0.31
-11 11 1 41.62 1.17
-12 11 1 23.11 0.8
-13 11 1 41.33 1.32
-14 11 1 6.07 0.73
-15 11 1 96.85 1.61
-16 11 1 17.85 1.02
-17 11 1 0.15 0.4
-18 11 1 7.24 0.73
-19 11 1 13.46 0.95
-20 11 1 0.51 0.45
-21 11 1 19.6 1.02
-2 12 1 68.17 1.61
-3 12 1 33.06 1.1
-4 12 1 13.68 0.73
-5 12 1 0.37 0.28
-6 12 1 49.45 1.17
-7 12 1 52.37 1.46
-8 12 1 30.8 1.24
-9 12 1 34.23 1.46
-10 12 1 10.17 0.64
-11 12 1 80.46 1.9
-12 12 1 11.34 0.95
-13 12 1 3.07 0.52
-14 12 1 9.14 0.63
-15 12 1 -0.15 0.37
-16 12 1 -0.07 0.51
-17 12 1 11.26 1.32
-18 12 1 5.41 0.88
-19 12 1 4.97 0.61
-20 12 1 0.29 0.67
-2 13 1 16.97 0.88
-3 13 1 11.05 0.55
-4 13 1 19.9 1.02
-5 13 1 13.09 0.72
-6 13 1 44.84 1.46
-7 13 1 0 0.29
-8 13 1 46.01 1.54
-9 13 1 0 0.32
-10 13 1 0.29 0.36
-11 13 1 32.26 1.54
-12 13 1 16.75 1.1
-13 13 1 31.31 0.88
-14 13 1 16.46 0.95
-15 13 1 5.19 0.61
-16 13 1 1.54 0.48
-17 13 1 0.73 0.5
-18 13 1 0 0.39
-19 13 1 0.29 0.41
-20 13 1 0.8 0.39
-2 14 1 0.22 0.3
-3 14 1 0.29 0.3
-4 14 1 96.99 2.41
-5 14 1 11.7 0.95
-6 14 1 51.57 1.61
-7 14 1 13.53 0.69
-8 14 1 91.51 2.19
-9 14 1 9.73 0.67
-10 14 1 0.8 0.38
-11 14 1 33.36 1.24
-12 14 1 4.32 0.72
-13 14 1 12.58 0.73
-14 14 1 0.07 0.39
-15 14 1 0.8 0.4
-16 14 1 5.19 0.88
-17 14 1 31.09 1.97
-18 14 1 5.41 0.66
-19 14 1 4.68 0.54
-2 15 1 91.51 2.49
-3 15 1 63.42 1.83
-4 15 1 85.95 1.68
-5 15 1 39.87 1.24
-6 15 1 46.59 1.61
-7 15 1 18.36 0.95
-8 15 1 115.79 2.34
-9 15 1 1.39 0.37
-10 15 1 1.83 0.39
-11 15 1 30.87 1.02
-12 15 1 2.93 0.48
-13 15 1 6.29 0.6
-14 15 1 43.52 1.02
-15 15 1 28.67 1.61
-16 15 1 45.94 1.24
-17 15 1 4.9 0.56
-18 15 1 7.68 6.95
-2 16 1 1.9 0.42
-3 16 1 78.27 2.56
-4 16 1 0.8 0.39
-5 16 1 20.41 1.02
-6 16 1 47.33 1.32
-7 16 1 56.69 1.9
-8 16 1 12.07 0.8
-9 16 1 9.29 0.65
-10 16 1 30.36 1.54
-11 16 1 0.66 0.39
-12 16 1 5.85 0.64
-13 16 1 0.22 0.4
-14 16 1 6.14 0.61
-15 16 1 22.02 1.02
-16 16 1 4.97 1.02
-2 17 1 60.05 1.97
-3 17 1 6.07 0.73
-4 17 1 1.02 0.4
-5 17 1 59.4 1.61
-6 17 1 6.36 0.63
-7 17 1 2.85 0.5
-8 17 1 0.44 0.39
-9 17 1 0.07 0.38
-10 17 1 13.17 0.88
-11 17 1 50.62 1.17
-12 17 1 10.75 0.67
-13 17 1 7.46 0.64
-14 17 1 17.85 0.88
-15 17 1 1.9 0.42
-2 18 1 8.78 0.8
-3 18 1 0.73 0.42
-4 18 1 6.73 0.64
-5 18 1 3.36 0.52
-6 18 1 0.22 0.39
-7 18 1 4.39 0.6
-8 18 1 0.59 0.4
-9 18 1 10.83 0.69
-10 18 1 5.71 0.6
-11 18 1 4.1 0.59
-12 18 1 4.24 0.67
-13 18 1 4.1 0.88
-2 19 1 14.04 0.95
-3 19 1 1.02 0.42
-4 19 1 30.65 1.24
-5 19 1 5.19 0.69
-6 19 1 -0.07 0.39
-7 19 1 0.22 0.39
-8 19 1 5.05 0.64
-9 19 1 0.88 0.39
-10 19 1 18.95 1.02
-11 19 1 10.02 0.7
-12 19 1 3 0.64
-2 20 1 11.63 0.95
-3 20 1 44.84 0.95
-4 20 1 19.16 1.02
-5 20 1 6.07 0.88
-6 20 1 7.31 0.69
-7 20 1 3.15 0.5
-8 20 1 7.68 0.67
-9 20 1 -0.22 0.38
-10 20 1 1.76 0.38
-2 21 1 10.46 0.8
-3 21 1 1.24 0.49
-4 21 1 0.15 0.5
-5 21 1 0.8 0.42
-6 21 1 0.51 0.35
-2 0 2 141.34 1.65
-3 0 2 0.21 0.26
-4 0 2 0.62 0.34
-5 0 2 0.07 0.33
-6 0 2 1.24 0.48
-7 0 2 0.07 0.45
-8 0 2 42.79 1.83
-9 0 2 0 0.28
-10 0 2 600.39 13.17
-11 0 2 0.07 0.33
-12 0 2 144.25 2.34
-13 0 2 0 0.27
-14 0 2 52.23 1.24
-15 0 2 0 0.24
-16 0 2 55.01 1.24
-17 0 2 0.07 0.29
-18 0 2 50.69 1.39
-19 0 2 0.07 0.53
-20 0 2 2.12 0.42
-21 0 2 0 0.39
-22 0 2 26.33 0.95
-23 0 2 0.22 0.39
-24 0 2 3.66 0.8
-25 0 2 0.29 0.38
-2 1 2 581.14 6.68
-3 1 2 2885.37 55.79
-4 1 2 198.3 3.17
-5 1 2 968.45 12.4
-6 1 2 467.35 6.75
-7 1 2 95.02 2.56
-8 1 2 19.68 1.32
-9 1 2 109.28 2.49
-10 1 2 188.06 3.95
-11 1 2 62.25 1.83
-12 1 2 9.73 0.56
-13 1 2 14.34 0.61
-14 1 2 46.23 0.88
-15 1 2 201.96 3
-16 1 2 32.7 0.88
-17 1 2 17.7 0.73
-18 1 2 43.52 1.46
-19 1 2 9.66 0.67
-20 1 2 3.07 0.59
-21 1 2 4.68 0.63
-22 1 2 36.72 1.02
-23 1 2 2.12 0.57
-24 1 2 4.46 0.57
-25 1 2 2.93 1.17
-2 2 2 43.26 1.03
-3 2 2 40.64 1.1
-4 2 2 91.75 1.86
-5 2 2 52.35 1.52
-6 2 2 0.48 0.43
-7 2 2 877.77 14.63
-8 2 2 33.14 1.1
-9 2 2 84.92 2.12
-10 2 2 99.04 2.41
-11 2 2 197.13 4.54
-12 2 2 0.22 0.28
-13 2 2 9.73 0.58
-14 2 2 141.83 2.27
-15 2 2 62.32 1.17
-16 2 2 0.51 0.31
-17 2 2 20.63 0.8
-18 2 2 18.07 0.73
-19 2 2 52.3 1.24
-20 2 2 1.24 0.46
-21 2 2 0.15 0.38
-22 2 2 7.1 0.64
-23 2 2 1.83 0.43
-24 2 2 0.15 0.39
-25 2 2 11.26 0.68
-2 3 2 945.72 10.33
-3 3 2 35.75 1.17
-4 3 2 639 8.27
-5 3 2 83.96 2.14
-6 3 2 208.5 4.06
-7 3 2 351.03 8.05
-8 3 2 137.88 2.78
-9 3 2 112.5 2.63
-10 3 2 16.46 0.88
-11 3 2 0.15 0.35
-12 3 2 3.95 0.49
-13 3 2 14.41 0.8
-14 3 2 129.47 2.41
-15 3 2 12.22 0.71
-16 3 2 144.9 2.56
-17 3 2 86.68 1.76
-18 3 2 3.07 0.49
-19 3 2 65.69 1.9
-20 3 2 0 0.36
-21 3 2 13.24 0.69
-22 3 2 12.29 0.7
-23 3 2 5.27 0.59
-24 3 2 15.51 1.02
-2 4 2 555.03 8.95
-3 4 2 129.56 3.03
-4 4 2 0.83 0.45
-5 4 2 149.88 3.36
-6 4 2 684.66 12.44
-7 4 2 0 0.32
-8 4 2 159.46 3.22
-9 4 2 54.2 1.61
-10 4 2 0.59 0.49
-11 4 2 177.82 2.41
-12 4 2 40.6 1.1
-13 4 2 108.26 2.05
-14 4 2 19.16 0.88
-15 4 2 36.57 1.1
-16 4 2 1.9 0.36
-17 4 2 48.79 1.32
-18 4 2 12.73 0.73
-19 4 2 5.05 0.59
-20 4 2 29.11 0.88
-21 4 2 8.34 0.65
-22 4 2 4.97 0.6
-23 4 2 0.66 0.46
-24 4 2 19.53 0.73
-2 5 2 58.48 1.93
-3 5 2 8.7 0.95
-4 5 2 200.2 4.46
-5 5 2 334.8 7.1
-6 5 2 48.5 1.83
-7 5 2 548.46 10.97
-8 5 2 81.85 2.05
-9 5 2 11.78 0.73
-10 5 2 4.61 0.62
-11 5 2 104.45 2.12
-12 5 2 0.59 0.3
-13 5 2 90.12 1.9
-14 5 2 8.85 0.53
-15 5 2 1.24 0.32
-16 5 2 6.07 0.54
-17 5 2 42.35 1.02
-18 5 2 42.06 1.1
-19 5 2 64.3 1.17
-20 5 2 0.44 0.39
-21 5 2 0.44 0.39
-22 5 2 0.07 0.39
-23 5 2 4.02 0.57
-24 5 2 0 0.39
-2 6 2 41.69 1.76
-3 6 2 1.83 0.43
-4 6 2 141.17 3.58
-5 6 2 0.95 0.34
-6 6 2 388.12 8.05
-7 6 2 57.79 1.76
-8 6 2 495.35 10.97
-9 6 2 4.1 0.57
-10 6 2 36.87 1.1
-11 6 2 51.5 1.24
-12 6 2 109.21 1.97
-13 6 2 18.95 0.64
-14 6 2 8.41 0.64
-15 6 2 10.17 0.58
-16 6 2 31.82 1.17
-17 6 2 9.95 0.64
-18 6 2 112.79 2.05
-19 6 2 1.02 0.39
-20 6 2 21.29 0.8
-21 6 2 8.92 0.66
-22 6 2 17.7 0.73
-23 6 2 0.07 0.38
-24 6 2 1.24 1.17
-2 7 2 101.31 2.49
-3 7 2 65.32 1.76
-4 7 2 860.94 20.48
-5 7 2 92.9 2.12
-6 7 2 1.1 0.37
-7 7 2 10.09 0.7
-8 7 2 102.7 2.78
-9 7 2 25.02 1.02
-10 7 2 4.75 0.5
-11 7 2 15.8 0.67
-12 7 2 1.68 0.31
-13 7 2 32.84 1.02
-14 7 2 112.87 2.19
-15 7 2 0.73 0.32
-16 7 2 45.72 1.1
-17 7 2 0.59 0.37
-18 7 2 22.31 0.8
-19 7 2 18.73 0.73
-20 7 2 0 0.39
-21 7 2 1.76 0.42
-22 7 2 0 0.38
-23 7 2 4.39 0.57
-2 8 2 53.47 1.46
-3 8 2 128.74 2.85
-4 8 2 0.37 0.39
-5 8 2 14.04 1.02
-6 8 2 34.31 1.24
-7 8 2 74.76 1.54
-8 8 2 0.37 0.29
-9 8 2 20.92 0.8
-10 8 2 43.3 1.39
-11 8 2 27.72 1.02
-12 8 2 0.15 0.28
-13 8 2 11.26 0.67
-14 8 2 59.98 1.83
-15 8 2 16.82 0.88
-16 8 2 1.54 0.41
-17 8 2 8.92 0.69
-18 8 2 6.8 0.59
-19 8 2 7.39 0.64
-20 8 2 6.73 0.64
-21 8 2 44.77 1.24
-22 8 2 14.78 0.7
-23 8 2 2.56 0.5
-2 9 2 36.5 1.24
-3 9 2 14.92 1.1
-4 9 2 78.56 2.41
-5 9 2 27.06 1.1
-6 9 2 118.28 2.05
-7 9 2 29.84 1.24
-8 9 2 3.58 0.47
-9 9 2 43.74 1.24
-10 9 2 60.05 1.54
-11 9 2 115.94 2.19
-12 9 2 1.32 0.33
-13 9 2 28.02 1.02
-14 9 2 8.19 0.6
-15 9 2 0.07 0.34
-16 9 2 15.65 0.73
-17 9 2 40.38 0.95
-18 9 2 24.94 0.8
-19 9 2 2.19 0.48
-20 9 2 1.97 0.44
-21 9 2 45.21 1.17
-22 9 2 10.09 0.66
-2 10 2 0.07 0.27
-3 10 2 115.35 2.34
-4 10 2 2.56 0.37
-5 10 2 1.1 0.32
-6 10 2 1.54 0.37
-7 10 2 0.88 0.29
-8 10 2 10.24 0.73
-9 10 2 2.49 0.36
-10 10 2 25.97 1.1
-11 10 2 24.14 0.95
-12 10 2 6.36 0.56
-13 10 2 6.58 0.67
-14 10 2 1.1 0.48
-15 10 2 15.07 1.02
-16 10 2 15.8 1.02
-17 10 2 6.07 0.73
-18 10 2 18.58 1.17
-19 10 2 2.78 0.64
-20 10 2 0.15 0.43
-21 10 2 42.79 1.02
-22 10 2 -0.15 0.47
-2 11 2 75.2 2.05
-3 11 2 564.55 10.24
-4 11 2 0.44 0.27
-5 11 2 410.06 7.1
-6 11 2 22.16 0.8
-7 11 2 9.22 0.5
-8 11 2 44.4 1.1
-9 11 2 8.41 0.73
-10 11 2 0.22 0.29
-11 11 2 6.66 0.53
-12 11 2 0.59 0.33
-13 11 2 82.8 2.27
-14 11 2 0.95 0.38
-15 11 2 150.83 3.22
-16 11 2 29.04 1.32
-17 11 2 5.85 0.59
-18 11 2 24.94 1.61
-19 11 2 0.22 0.4
-20 11 2 -0.29 0.39
-21 11 2 1.9 0.43
-2 12 2 9.07 0.5
-3 12 2 13.02 0.58
-4 12 2 25.89 0.95
-5 12 2 16.9 0.73
-6 12 2 9.51 0.8
-7 12 2 55.23 1.32
-8 12 2 0.66 0.31
-9 12 2 16.24 0.95
-10 12 2 22.97 0.95
-11 12 2 28.45 1.17
-12 12 2 15.65 0.88
-13 12 2 14.78 1.02
-14 12 2 0.44 0.37
-15 12 2 -0.07 0.37
-16 12 2 -0.07 0.38
-17 12 2 8.85 1.02
-18 12 2 1.9 0.61
-19 12 2 19.6 0.73
-20 12 2 2.05 0.45
-21 12 2 3.29 0.51
-2 13 2 39.87 1.24
-3 13 2 12.36 0.61
-4 13 2 5.05 0.49
-5 13 2 1.68 0.34
-6 13 2 123.77 2.27
-7 13 2 0.37 0.32
-8 13 2 189.09 3.15
-9 13 2 9 0.59
-10 13 2 13.75 0.73
-11 13 2 8.85 0.63
-12 13 2 8.56 0.68
-13 13 2 0.66 0.37
-14 13 2 1.83 0.42
-15 13 2 7.02 0.61
-16 13 2 29.04 0.95
-17 13 2 3.29 0.52
-18 13 2 36.06 0.95
-19 13 2 1.68 0.51
-20 13 2 0.59 0.42
-2 14 2 44.69 1.32
-3 14 2 0.22 0.31
-4 14 2 16.09 1.02
-5 14 2 54.57 1.17
-6 14 2 24.94 1.1
-7 14 2 130.2 2.93
-8 14 2 0.22 0.34
-9 14 2 17.63 0.8
-10 14 2 0.66 0.37
-11 14 2 17.56 0.88
-12 14 2 1.24 0.38
-13 14 2 4.02 0.53
-14 14 2 21.29 1.1
-15 14 2 3 0.53
-16 14 2 0.59 0.44
-17 14 2 19.53 1.17
-18 14 2 1.46 0.61
-19 14 2 30.14 0.95
-2 15 2 27.21 1.24
-3 15 2 39.94 1.54
-4 15 2 20.33 0.95
-5 15 2 23.7 1.17
-6 15 2 2.93 0.49
-7 15 2 4.83 0.58
-8 15 2 25.82 1.17
-9 15 2 0.44 0.34
-10 15 2 0.51 0.36
-11 15 2 0.59 0.36
-12 15 2 2.05 0.42
-13 15 2 4.39 0.55
-14 15 2 1.02 0.53
-15 15 2 16.46 0.8
-16 15 2 8.78 0.72
-17 15 2 2.85 0.5
-18 15 2 18.8 0.8
-2 16 2 0.15 0.37
-3 16 2 14.78 0.95
-4 16 2 17.48 1.02
-5 16 2 10.09 0.73
-6 16 2 17.34 0.73
-7 16 2 4.02 0.53
-8 16 2 33.79 1.24
-9 16 2 4.75 0.56
-10 16 2 7.1 0.59
-11 16 2 17.48 0.72
-12 16 2 3.58 0.53
-13 16 2 9.87 0.8
-14 16 2 0.73 0.41
-15 16 2 5.12 0.8
-16 16 2 14.12 1.76
-17 16 2 0.88 1.46
-2 17 2 3.58 0.53
-3 17 2 6.73 0.64
-4 17 2 6.95 0.6
-5 17 2 0.29 0.37
-6 17 2 1.61 0.4
-7 17 2 54.79 1.32
-8 17 2 31.82 1.1
-9 17 2 0.44 0.37
-10 17 2 41.77 1.24
-11 17 2 1.61 0.4
-12 17 2 3.51 0.56
-13 17 2 0.59 0.41
-14 17 2 0.88 0.38
-15 17 2 0.95 0.4
-2 18 2 1.61 0.4
-3 18 2 18.21 0.8
-4 18 2 2.56 0.67
-5 18 2 0 0.37
-6 18 2 29.92 0.95
-7 18 2 0.44 0.39
-8 18 2 20.7 0.8
-9 18 2 1.46 0.4
-10 18 2 16.97 1.1
-11 18 2 18.29 1.17
-12 18 2 7.61 0.61
-13 18 2 1.32 0.42
-14 18 2 3.44 0.64
-2 19 2 81.41 1.97
-3 19 2 8.85 1.02
-4 19 2 149.95 3.15
-5 19 2 13.9 0.8
-6 19 2 4.46 0.59
-7 19 2 0.37 0.37
-8 19 2 2.05 0.49
-9 19 2 4.83 0.64
-10 19 2 0.07 0.37
-11 19 2 7.53 0.72
-12 19 2 0.07 0.38
-2 20 2 0.44 0.37
-3 20 2 2.56 0.53
-4 20 2 0 0.37
-5 20 2 0.29 0.46
-6 20 2 4.1 0.59
-7 20 2 1.24 0.39
-8 20 2 14.92 0.95
-9 20 2 2.56 0.54
-2 21 2 3.66 0.56
-3 21 2 8.78 1.76
-4 21 2 0.8 0.43
-4 0 3 428.78 6.61
-5 0 3 0.07 0.32
-6 0 3 1163.77 18.29
-7 0 3 0.22 0.31
-8 0 3 156.02 3
-9 0 3 -0.15 0.3
-10 0 3 206.64 4.83
-11 0 3 0.51 0.48
-12 0 3 10.68 0.61
-13 0 3 -0.15 0.28
-14 0 3 20.63 0.59
-15 0 3 0 0.24
-16 0 3 2.63 0.38
-17 0 3 0.07 0.3
-18 0 3 102.99 2.34
-19 0 3 0 0.37
-20 0 3 2.34 0.39
-21 0 3 0.15 0.34
-22 0 3 12.87 0.73
-23 0 3 0.37 0.41
-24 0 3 37.82 1.02
-25 0 3 0.37 0.57
-4 1 3 39.61 1.1
-5 1 3 657.74 8.78
-6 1 3 22.09 1.17
-7 1 3 105.26 2.63
-8 1 3 292.44 5.49
-9 1 3 10.46 0.68
-10 1 3 149 2.93
-11 1 3 18.29 0.88
-12 1 3 82.95 1.46
-13 1 3 82.51 1.61
-14 1 3 115.57 1.76
-15 1 3 5.56 0.47
-16 1 3 43.23 0.95
-17 1 3 14.7 0.66
-18 1 3 1.1 0.37
-19 1 3 2.78 0.5
-20 1 3 15.07 0.8
-21 1 3 0.8 0.39
-22 1 3 17.12 0.8
-23 1 3 5.71 0.8
-24 1 3 9.73 0.65
-25 1 3 14.19 0.73
-4 2 3 1332.82 25.49
-5 2 3 30.72 1.24
-6 2 3 2.05 0.57
-7 2 3 5.49 0.8
-8 2 3 0.07 0.28
-9 2 3 220.54 4.61
-10 2 3 60.13 2.05
-11 2 3 13.02 0.73
-12 2 3 0.29 0.29
-13 2 3 6.14 0.52
-14 2 3 56.25 1.02
-15 2 3 16.75 0.8
-16 2 3 133.27 2.12
-17 2 3 0.44 0.32
-18 2 3 30.65 0.95
-19 2 3 1.32 0.42
-20 2 3 4.97 0.56
-21 2 3 12.29 0.73
-22 2 3 0.15 0.37
-23 2 3 0.15 0.38
-24 2 3 6.58 0.88
-25 2 3 3.88 0.8
-4 3 3 74.83 1.97
-5 3 3 2.78 0.57
-6 3 3 17.99 1.02
-7 3 3 300.64 4.97
-8 3 3 170.14 3.51
-9 3 3 12.36 0.95
-10 3 3 76.8 1.83
-11 3 3 360.91 5.19
-12 3 3 2.71 0.4
-13 3 3 10.68 0.64
-14 3 3 5.56 0.59
-15 3 3 5.92 0.6
-16 3 3 1.61 0.34
-17 3 3 0.95 0.34
-18 3 3 0.15 0.34
-19 3 3 10.02 0.71
-20 3 3 6.8 0.58
-21 3 3 9.8 0.68
-22 3 3 24.43 0.8
-23 3 3 0.95 0.4
-24 3 3 5.56 0.59
-25 3 3 4.1 0.59
-4 4 3 57.86 1.83
-5 4 3 32.99 1.32
-6 4 3 66.93 1.61
-7 4 3 1154.27 29.26
-8 4 3 419.72 7.31
-9 4 3 114.7 2.56
-10 4 3 306.78 6.44
-11 4 3 35.77 1.02
-12 4 3 25.38 1.02
-13 4 3 16.02 0.6
-14 4 3 29.84 0.88
-15 4 3 3.66 0.46
-16 4 3 2.71 0.43
-17 4 3 77.32 1.83
-18 4 3 79.66 1.76
-19 4 3 96.77 1.54
-20 4 3 21.51 0.73
-21 4 3 14.85 0.72
-22 4 3 12.65 0.69
-23 4 3 5.41 0.61
-24 4 3 10.97 0.67
-4 5 3 1.68 0.5
-5 5 3 53.69 1.9
-6 5 3 2.41 0.42
-7 5 3 0.07 0.29
-8 5 3 6.51 0.61
-9 5 3 45.5 1.32
-10 5 3 63.05 1.39
-11 5 3 273.42 6
-12 5 3 5.19 0.53
-13 5 3 2.05 0.34
-14 5 3 2.71 0.38
-15 5 3 61.74 1.32
-16 5 3 8.19 0.59
-17 5 3 0.66 0.36
-18 5 3 8.05 0.69
-19 5 3 38.69 0.95
-20 5 3 1.76 0.39
-21 5 3 71.32 1.32
-22 5 3 15.43 0.72
-23 5 3 1.54 0.41
-24 5 3 1.9 0.42
-4 6 3 17.48 0.8
-5 6 3 79.95 2.19
-6 6 3 0.07 0.28
-7 6 3 261.94 5.49
-8 6 3 111.18 2.49
-9 6 3 1.61 0.31
-10 6 3 147.83 2.41
-11 6 3 0.15 0.29
-12 6 3 0.15 0.26
-13 6 3 39.21 1.02
-14 6 3 16.82 0.73
-15 6 3 19.46 0.72
-16 6 3 1.24 0.36
-17 6 3 18.58 0.8
-18 6 3 19.68 0.8
-19 6 3 29.84 0.88
-20 6 3 43.45 1.02
-21 6 3 15.87 0.71
-22 6 3 20.48 0.8
-23 6 3 0.51 0.39
-24 6 3 0.44 0.39
-4 7 3 19.68 0.95
-5 7 3 71.32 2.34
-6 7 3 36.94 1.39
-7 7 3 4.17 0.56
-8 7 3 19.68 0.95
-9 7 3 34.74 1.32
-10 7 3 18.14 0.88
-11 7 3 12.07 0.67
-12 7 3 5.12 0.48
-13 7 3 59.03 1.39
-14 7 3 54.35 1.61
-15 7 3 1.97 0.37
-16 7 3 5.12 0.65
-17 7 3 -0.07 0.38
-18 7 3 0.22 0.34
-19 7 3 0.07 0.35
-20 7 3 -0.07 0.37
-21 7 3 14.48 0.71
-22 7 3 9 0.64
-23 7 3 5.12 0.58
-4 8 3 216 6.44
-5 8 3 0.07 0.27
-6 8 3 52.89 1.24
-7 8 3 57.71 1.97
-8 8 3 72.64 1.68
-9 8 3 22.6 1.1
-10 8 3 5.49 0.45
-11 8 3 0.15 0.26
-12 8 3 7.17 0.53
-13 8 3 74.68 2.05
-14 8 3 39.87 1.32
-15 8 3 28.38 1.46
-16 8 3 11.34 0.88
-17 8 3 90.92 2.27
-18 8 3 16.46 0.73
-19 8 3 25.67 0.95
-20 8 3 0.15 0.37
-21 8 3 16.9 0.72
-22 8 3 0.66 0.39
-23 8 3 4.75 0.73
-4 9 3 31.67 1.1
-5 9 3 208.03 3.29
-6 9 3 68.61 1.9
-7 9 3 166.41 2.93
-8 9 3 39.87 1.39
-9 9 3 8.78 0.61
-10 9 3 62.61 1.97
-11 9 3 78.93 1.97
-12 9 3 56.4 1.68
-13 9 3 6.51 0.62
-14 9 3 2.12 0.41
-15 9 3 1.83 0.4
-16 9 3 6 0.68
-17 9 3 9.44 0.72
-18 9 3 2.78 0.45
-19 9 3 43.96 1.54
-20 9 3 1.76 0.42
-21 9 3 15.73 0.88
-22 9 3 10.9 0.63
-23 9 3 15.95 0.69
-4 10 3 4.39 0.54
-5 10 3 134.59 1.9
-6 10 3 55.59 1.32
-7 10 3 2.85 0.39
-8 10 3 10.31 0.59
-9 10 3 10.53 0.69
-10 10 3 8.49 0.54
-11 10 3 0.15 0.29
-12 10 3 3 0.45
-13 10 3 57.49 1.76
-14 10 3 4.02 0.56
-15 10 3 147.1 2.93
-16 10 3 6.29 0.58
-17 10 3 0.22 0.37
-18 10 3 5.27 0.6
-19 10 3 3.8 0.6
-20 10 3 2.85 0.49
-21 10 3 41.04 5.05
-22 10 3 1.17 0.4
-4 11 3 4.24 0.53
-5 11 3 8.7 0.64
-6 11 3 9.95 0.58
-7 11 3 0.22 0.29
-8 11 3 0.07 0.28
-9 11 3 1.83 0.37
-10 11 3 27.14 1.1
-11 11 3 10.31 0.71
-12 11 3 7.46 0.61
-13 11 3 97.14 3.15
-14 11 3 2.19 0.57
-15 11 3 0.37 0.36
-16 11 3 8.19 0.62
-17 11 3 6.51 0.8
-18 11 3 4.39 0.72
-19 11 3 10.24 0.8
-20 11 3 1.9 0.4
-21 11 3 0.8 0.4
-4 12 3 7.39 0.5
-5 12 3 4.97 0.61
-6 12 3 102.63 2.27
-7 12 3 23.92 1.02
-8 12 3 100.43 2.34
-9 12 3 73.88 2.78
-10 12 3 32.99 1.61
-11 12 3 14.48 0.95
-12 12 3 10.09 0.66
-13 12 3 8.34 0.88
-14 12 3 3.88 0.54
-15 12 3 8.41 0.66
-16 12 3 50.03 1.97
-17 12 3 4.54 1.17
-18 12 3 145.12 2.12
-19 12 3 4.32 0.88
-20 12 3 3.44 0.71
-21 12 3 34.96 0.95
-4 13 3 12.51 0.64
-5 13 3 23.41 1.02
-6 13 3 0.22 0.32
-7 13 3 11.56 0.71
-8 13 3 19.16 0.88
-9 13 3 0.95 0.36
-10 13 3 146.37 4.02
-11 13 3 4.39 0.59
-12 13 3 3.66 0.5
-13 13 3 0.59 0.37
-14 13 3 23.77 0.8
-15 13 3 0.29 0.37
-16 13 3 0.8 0.37
-17 13 3 0.8 0.45
-18 13 3 0.15 0.42
-19 13 3 5.63 0.64
-20 13 3 12.65 1.46
-4 14 3 21.14 1.02
-5 14 3 1.83 0.37
-6 14 3 21.36 0.95
-7 14 3 16.75 0.8
-8 14 3 65.76 1.76
-9 14 3 70.37 1.9
-10 14 3 44.69 1.32
-11 14 3 20.12 0.73
-12 14 3 9.44 0.61
-13 14 3 0.22 0.36
-14 14 3 33.65 1.24
-15 14 3 0.15 0.36
-16 14 3 1.1 0.37
-17 14 3 0.22 0.35
-18 14 3 70.95 1.61
-19 14 3 4.68 0.61
-4 15 3 0.15 0.35
-5 15 3 0.22 0.38
-6 15 3 1.97 0.42
-7 15 3 11.34 0.67
-8 15 3 0.59 0.34
-9 15 3 1.39 0.37
-10 15 3 12.51 0.8
-11 15 3 10.24 0.63
-12 15 3 0.66 0.37
-13 15 3 1.1 0.38
-14 15 3 1.46 0.45
-15 15 3 0.22 0.35
-16 15 3 14.48 0.65
-17 15 3 0 0.35
-18 15 3 6.29 0.61
-4 16 3 8.7 0.66
-5 16 3 6.07 0.61
-6 16 3 8.19 0.6
-7 16 3 42.21 1.02
-8 16 3 27.36 0.95
-9 16 3 12.07 0.8
-10 16 3 0.8 0.37
-11 16 3 8.85 0.61
-12 16 3 3.58 0.51
-13 16 3 2.41 0.45
-14 16 3 0.59 0.37
-15 16 3 23.99 0.73
-16 16 3 2.93 0.61
-17 16 3 0.15 0.38
-4 17 3 8.63 0.88
-5 17 3 9 0.67
-6 17 3 30.65 0.95
-7 17 3 9.07 0.62
-8 17 3 35.55 1.24
-9 17 3 9.07 0.63
-10 17 3 1.61 0.39
-11 17 3 30.72 1.24
-12 17 3 19.53 0.8
-13 17 3 7.97 0.88
-14 17 3 0.22 0.37
-15 17 3 4.32 0.64
-4 18 3 38.99 1.02
-5 18 3 1.54 0.39
-6 18 3 0.8 0.38
-7 18 3 16.97 1.02
-8 18 3 10.24 0.7
-9 18 3 0.15 0.37
-10 18 3 37.6 0.95
-11 18 3 1.02 0.39
-12 18 3 3.44 0.52
-13 18 3 7.31 0.73
-14 18 3 2.78 0.42
-4 19 3 2.93 0.57
-5 19 3 10.02 0.64
-6 19 3 8.78 0.62
-7 19 3 6.07 0.58
-8 19 3 7.31 0.56
-9 19 3 0.07 0.35
-10 19 3 0.07 0.36
-11 19 3 0.37 0.42
-4 20 3 24.5 1.1
-5 20 3 28.38 0.88
-6 20 3 2.19 0.45
-7 20 3 40.89 1.02
-8 20 3 0 0.37
-9 20 3 3.66 0.52
-4 0 4 75.41 4.17
-5 0 4 0.51 0.39
-6 0 4 265.23 4.1
-7 0 4 0.15 0.26
-8 0 4 919.46 22.68
-9 0 4 0.22 0.37
-10 0 4 18.95 0.8
-11 0 4 0.15 0.28
-12 0 4 31.23 1.32
-13 0 4 -0.07 0.26
-14 0 4 0.37 0.25
-15 0 4 0 0.25
-16 0 4 21.65 0.67
-17 0 4 0 0.29
-18 0 4 204.96 3.73
-19 0 4 0.15 0.34
-20 0 4 18.36 0.8
-21 0 4 -0.07 0.34
-22 0 4 10.46 0.73
-23 0 4 0.22 0.49
-24 0 4 15.87 1.1
-25 0 4 0.07 0.38
-4 1 4 396.53 5.92
-5 1 4 28.97 1.1
-6 1 4 35.18 1.24
-7 1 4 95.68 2.49
-8 1 4 106.58 2.85
-9 1 4 0.29 0.31
-10 1 4 5.71 0.69
-11 1 4 17.63 0.69
-12 1 4 4.9 0.5
-13 1 4 74.61 1.9
-14 1 4 18.21 0.61
-15 1 4 65.32 1.1
-16 1 4 2.27 0.39
-17 1 4 0 0.29
-18 1 4 9.58 0.59
-19 1 4 0.8 0.39
-20 1 4 5.34 0.55
-21 1 4 6 0.57
-22 1 4 8.7 0.62
-23 1 4 0.88 0.47
-24 1 4 0.29 0.43
-25 1 4 7.31 0.8
-4 2 4 84.85 1.9
-5 2 4 9.14 0.51
-6 2 4 62.91 1.68
-7 2 4 3.73 0.42
-8 2 4 0.15 0.31
-9 2 4 123.25 2.71
-10 2 4 3.51 0.44
-11 2 4 187.77 2.71
-12 2 4 49.37 1.1
-13 2 4 5.71 0.46
-14 2 4 90.26 1.83
-15 2 4 6.14 0.49
-16 2 4 30.58 0.8
-17 2 4 -0.07 0.29
-18 2 4 7.9 0.64
-19 2 4 3.58 0.52
-20 2 4 16.9 0.88
-21 2 4 64.88 1.54
-22 2 4 6.14 0.72
-23 2 4 0.88 0.37
-24 2 4 56.84 1.54
-25 2 4 19.9 0.73
-4 3 4 60.79 1.32
-5 3 4 13.17 0.58
-6 3 4 4.83 0.45
-7 3 4 155.66 3.29
-8 3 4 0.66 0.31
-9 3 4 48.42 1.97
-10 3 4 161.14 2.41
-11 3 4 34.53 0.95
-12 3 4 230.27 3.29
-13 3 4 14.92 0.59
-14 3 4 23.85 0.72
-15 3 4 0.07 0.28
-16 3 4 3.44 0.47
-17 3 4 116.38 2.12
-18 3 4 5.27 0.54
-19 3 4 4.17 0.5
-20 3 4 40.01 0.95
-21 3 4 16.82 0.73
-22 3 4 19.46 0.8
-23 3 4 0.15 0.38
-24 3 4 16.53 0.88
-4 4 4 190.18 3.29
-5 4 4 95.53 2.27
-6 4 4 26.77 0.88
-7 4 4 15.43 0.72
-8 4 4 0.15 0.31
-9 4 4 2.85 0.64
-10 4 4 29.19 1.17
-11 4 4 78.71 1.76
-12 4 4 1.39 0.33
-13 4 4 6.07 0.48
-14 4 4 7.68 0.5
-15 4 4 6.44 0.57
-16 4 4 23.85 0.73
-17 4 4 0.59 0.33
-18 4 4 14.41 0.73
-19 4 4 1.54 0.35
-20 4 4 1.32 0.36
-21 4 4 63.78 1.46
-22 4 4 6 0.58
-23 4 4 5.63 0.59
-24 4 4 1.54 0.38
-4 5 4 17.48 0.73
-5 5 4 120.18 3.36
-6 5 4 61.81 1.9
-7 5 4 146.81 3.58
-8 5 4 5.49 0.46
-9 5 4 220.54 2.78
-10 5 4 26.19 0.8
-11 5 4 166.63 6.22
-12 5 4 0.37 0.32
-13 5 4 13.75 0.58
-14 5 4 40.67 2.05
-15 5 4 2.71 0.4
-16 5 4 -0.07 0.29
-17 5 4 7.46 0.68
-18 5 4 50.91 1.24
-19 5 4 5.12 0.62
-20 5 4 0.8 0.36
-21 5 4 35.4 1.02
-22 5 4 9.51 0.62
-23 5 4 74.9 1.32
-24 5 4 4.75 1.39
-4 6 4 14.92 0.95
-5 6 4 42.5 1.39
-6 6 4 43.82 1.54
-7 6 4 5.71 0.48
-8 6 4 1.46 0.32
-9 6 4 0.73 0.32
-10 6 4 370.78 10.97
-11 6 4 26.85 1.17
-12 6 4 55.74 1.97
-13 6 4 85.44 2.05
-14 6 4 25.82 0.8
-15 6 4 34.6 1.24
-16 6 4 0.51 0.34
-17 6 4 0.22 0.34
-18 6 4 2.12 0.36
-19 6 4 0.07 0.34
-20 6 4 3.36 0.53
-21 6 4 18.43 0.8
-22 6 4 31.01 1.24
-23 6 4 2.05 0.39
-24 6 4 1.76 0.39
-4 7 4 190.04 2.56
-5 7 4 0.29 0.32
-6 7 4 76.95 1.24
-7 7 4 0.37 0.31
-8 7 4 10.97 0.61
-9 7 4 25.24 1.17
-10 7 4 23.85 0.8
-11 7 4 144.17 4.24
-12 7 4 11.85 0.62
-13 7 4 12.14 0.73
-14 7 4 123.33 2.34
-15 7 4 55.88 1.76
-16 7 4 3.58 0.52
-17 7 4 5.85 0.8
-18 7 4 28.89 1.02
-19 7 4 12.73 0.73
-20 7 4 10.9 0.62
-21 7 4 5.05 0.56
-22 7 4 9.58 0.6
-23 7 4 1.02 0.36
-4 8 4 0.29 0.31
-5 8 4 76.66 2.93
-6 8 4 3.51 0.49
-7 8 4 451.68 25.6
-8 8 4 5.41 0.53
-9 8 4 65.69 1.1
-10 8 4 21.65 1.17
-11 8 4 7.9 0.67
-12 8 4 5.19 0.48
-13 8 4 22.53 0.8
-14 8 4 49.01 1.68
-15 8 4 5.19 0.65
-16 8 4 0.07 0.34
-17 8 4 3.07 0.46
-18 8 4 0.29 0.34
-19 8 4 70.08 1.24
-20 8 4 7.02 0.58
-21 8 4 14.56 0.8
-22 8 4 14.56 0.66
-23 8 4 0.15 0.37
-4 9 4 0 0.3
-5 9 4 19.46 0.88
-6 9 4 9.73 0.5
-7 9 4 6.14 0.5
-8 9 4 7.46 0.5
-9 9 4 36.28 1.32
-10 9 4 8.05 0.59
-11 9 4 16.68 1.02
-12 9 4 25.97 1.1
-13 9 4 1.61 0.53
-14 9 4 4.1 0.61
-15 9 4 35.48 0.95
-16 9 4 8.63 0.73
-17 9 4 25.24 1.02
-18 9 4 12.58 0.73
-19 9 4 15.36 0.95
-20 9 4 0.59 0.36
-21 9 4 14.04 0.64
-22 9 4 5.05 0.54
-4 10 4 2.41 0.4
-5 10 4 4.61 0.45
-6 10 4 30.43 1.1
-7 10 4 52.01 1.61
-8 10 4 99.26 2.05
-9 10 4 19.02 1.1
-10 10 4 52.01 1.46
-11 10 4 34.45 1.68
-12 10 4 1.97 0.42
-13 10 4 146.08 3.29
-14 10 4 19.97 1.54
-15 10 4 54.42 1.24
-16 10 4 1.61 0.37
-17 10 4 0.44 0.36
-18 10 4 33.65 1.02
-19 10 4 2.34 0.6
-20 10 4 17.48 0.8
-21 10 4 7.17 0.6
-22 10 4 1.24 0.39
-4 11 4 4.83 0.49
-5 11 4 0.15 0.29
-6 11 4 25.46 1.39
-7 11 4 24.21 0.73
-8 11 4 2.05 0.4
-9 11 4 24.28 1.17
-10 11 4 5.85 0.6
-11 11 4 7.17 0.56
-12 11 4 2.05 0.41
-13 11 4 57.64 1.97
-14 11 4 3.58 0.49
-15 11 4 111.7 1.68
-16 11 4 3.29 0.5
-17 11 4 2.27 0.65
-18 11 4 39.79 1.24
-19 11 4 1.68 0.4
-20 11 4 1.17 0.37
-21 11 4 27.65 0.88
-4 12 4 14.56 0.71
-5 12 4 34.38 1.39
-6 12 4 38.33 1.24
-7 12 4 61.88 1.83
-8 12 4 42.28 1.83
-9 12 4 5.05 0.61
-10 12 4 87.05 1.68
-11 12 4 30.72 1.61
-12 12 4 43.82 2.34
-13 12 4 15.73 1.17
-14 12 4 0.15 0.33
-15 12 4 7.97 0.6
-16 12 4 9.51 1.02
-17 12 4 0.29 0.35
-18 12 4 2.93 0.48
-19 12 4 8.12 0.64
-20 12 4 2.56 0.47
-4 13 4 31.75 0.95
-5 13 4 15.58 0.69
-6 13 4 18.21 0.72
-7 13 4 0.07 0.34
-8 13 4 14.7 0.8
-9 13 4 3.66 0.51
-10 13 4 64.44 2.41
-11 13 4 3.73 0.5
-12 13 4 116.23 1.97
-13 13 4 5.71 0.52
-14 13 4 12.65 0.8
-15 13 4 0.95 0.35
-16 13 4 8.41 1.54
-17 13 4 4.32 0.95
-18 13 4 34.96 1.68
-19 13 4 1.61 0.39
-4 14 4 40.08 1.1
-5 14 4 4.17 0.55
-6 14 4 0.8 0.36
-7 14 4 -0.07 0.33
-8 14 4 0 0.33
-9 14 4 13.75 0.6
-10 14 4 94.65 3.88
-11 14 4 33.72 1.1
-12 14 4 3.88 0.49
-13 14 4 1.97 0.38
-14 14 4 11.05 1.1
-15 14 4 0.44 0.37
-16 14 4 21.51 1.76
-17 14 4 0.37 0.34
-18 14 4 7.61 1.1
-4 15 4 0.15 0.35
-5 15 4 0.8 0.37
-6 15 4 18.51 0.8
-7 15 4 15 0.65
-8 15 4 23.85 0.95
-9 15 4 14.04 0.7
-10 15 4 42.28 1.02
-11 15 4 18.73 0.7
-12 15 4 1.39 0.37
-13 15 4 12.73 0.64
-14 15 4 14.7 0.8
-15 15 4 4.1 0.59
-16 15 4 0.66 0.33
-17 15 4 12.51 0.8
-4 16 4 4.02 0.52
-5 16 4 0.51 0.34
-6 16 4 0.07 0.34
-7 16 4 7.02 0.55
-8 16 4 20.48 0.88
-9 16 4 1.61 0.37
-10 16 4 92.46 2.05
-11 16 4 10.61 0.64
-12 16 4 7.83 0.57
-13 16 4 26.7 0.8
-14 16 4 2.49 0.42
-15 16 4 12.22 1.39
-16 16 4 5.12 2.27
-4 17 4 0.59 0.35
-5 17 4 0.07 0.34
-6 17 4 0.44 0.35
-7 17 4 23.48 0.73
-8 17 4 0.15 0.34
-9 17 4 7.39 0.57
-10 17 4 3.58 0.49
-11 17 4 36.13 1.02
-12 17 4 3.58 0.49
-13 17 4 2.19 0.4
-14 17 4 3.44 0.59
-4 18 4 17.63 0.7
-5 18 4 9.44 0.64
-6 18 4 1.9 0.38
-7 18 4 87.19 9.51
-8 18 4 3.73 0.53
-9 18 4 10.09 0.68
-10 18 4 0.95 0.37
-11 18 4 9.29 0.88
-12 18 4 1.17 0.39
-4 19 4 67.44 9.51
-5 19 4 1.02 0.35
-6 19 4 4.32 0.51
-7 19 4 0.95 0.36
-8 19 4 10.31 0.61
-9 19 4 7.68 0.56
-10 19 4 1.68 0.42
-6 0 5 271.23 5.27
-7 0 5 -0.15 0.44
-8 0 5 0.66 0.23
-9 0 5 -0.07 0.22
-10 0 5 0.22 0.64
-11 0 5 0.15 0.64
-12 0 5 12.22 0.62
-13 0 5 0.15 0.31
-14 0 5 0.07 0.28
-15 0 5 0.07 0.29
-16 0 5 231.95 9.51
-17 0 5 0.07 0.34
-18 0 5 200.79 4.54
-19 0 5 0.07 0.27
-20 0 5 21.65 0.72
-21 0 5 -0.22 0.34
-22 0 5 2.41 0.42
-23 0 5 0 0.72
-24 0 5 7.1 0.52
-6 1 5 63.57 1.46
-7 1 5 4.24 0.32
-8 1 5 15.65 0.63
-9 1 5 51.86 0.95
-10 1 5 1.54 0.31
-11 1 5 62.54 1.17
-12 1 5 125.74 1.83
-13 1 5 0.22 0.27
-14 1 5 81.49 1.9
-15 1 5 0.95 0.33
-16 1 5 0.59 0.33
-17 1 5 1.24 0.39
-18 1 5 67.22 1.76
-19 1 5 2.71 0.48
-20 1 5 4.97 0.5
-21 1 5 48.13 1.24
-22 1 5 7.53 0.95
-23 1 5 10.39 0.64
-24 1 5 39.06 1.46
-6 2 5 0.15 0.26
-7 2 5 5.63 0.39
-8 2 5 90.48 4.32
-9 2 5 0 0.23
-10 2 5 183.45 2.71
-11 2 5 1.76 0.34
-12 2 5 5.05 0.56
-13 2 5 114.84 1.76
-14 2 5 125.37 2.63
-15 2 5 152.8 2.49
-16 2 5 3.22 0.5
-17 2 5 7.9 0.61
-18 2 5 16.39 0.8
-19 2 5 0.8 0.29
-20 2 5 1.54 0.32
-21 2 5 8.7 0.56
-22 2 5 4.39 0.49
-23 2 5 1.61 0.35
-24 2 5 3.15 0.7
-6 3 5 65.25 1.02
-7 3 5 134.66 2.27
-8 3 5 0.66 0.26
-9 3 5 30.87 0.8
-10 3 5 7.53 0.52
-11 3 5 198.23 2.85
-12 3 5 6.8 0.48
-13 3 5 7.61 0.51
-14 3 5 16.39 0.72
-15 3 5 23.85 0.88
-16 3 5 0 0.36
-17 3 5 2.27 0.47
-18 3 5 43.96 1.32
-19 3 5 30.14 0.73
-20 3 5 5.12 0.47
-21 3 5 43.16 0.95
-22 3 5 11.48 0.59
-23 3 5 18.21 0.67
-24 3 5 0.88 0.32
-6 4 5 39.79 1.24
-7 4 5 25.89 0.68
-8 4 5 4.39 0.42
-9 4 5 1.24 0.3
-10 4 5 1.97 0.35
-11 4 5 11.26 0.55
-12 4 5 13.61 0.72
-13 4 5 17.7 0.73
-14 4 5 0.15 0.31
-15 4 5 10.31 0.64
-16 4 5 6.8 0.68
-17 4 5 88.87 1.83
-18 4 5 0.15 0.29
-19 4 5 0.51 0.3
-20 4 5 1.76 0.34
-21 4 5 12.87 0.59
-22 4 5 4.46 0.5
-23 4 5 8.56 0.56
-6 5 5 4.97 0.5
-7 5 5 67.15 1.54
-8 5 5 32.11 0.8
-9 5 5 56.47 1.54
-10 5 5 140.95 2.19
-11 5 5 15.8 0.8
-12 5 5 77.9 2.12
-13 5 5 135.91 2.78
-14 5 5 0.22 0.37
-15 5 5 1.68 0.39
-16 5 5 1.02 0.38
-17 5 5 16.53 0.8
-18 5 5 0.15 0.3
-19 5 5 1.83 0.34
-20 5 5 6.58 0.49
-21 5 5 37.31 1.1
-22 5 5 17.26 0.66
-23 5 5 0 0.32
-6 6 5 13.82 0.58
-7 6 5 18.36 0.71
-8 6 5 2.41 0.39
-9 6 5 9.73 0.64
-10 6 5 32.33 1.02
-11 6 5 2.93 0.41
-12 6 5 7.83 0.54
-13 6 5 27.21 1.1
-14 6 5 111.92 5.63
-15 6 5 0.15 0.35
-16 6 5 7.24 0.62
-17 6 5 34.38 2.41
-18 6 5 21.87 0.66
-19 6 5 1.46 0.36
-20 6 5 3.66 0.48
-21 6 5 17.85 0.64
-22 6 5 8.78 0.56
-23 6 5 0.15 0.32
-6 7 5 4.17 0.62
-7 7 5 9.36 0.57
-8 7 5 12.36 0.6
-9 7 5 42.57 1.68
-10 7 5 159.24 2.27
-11 7 5 26.85 1.32
-12 7 5 35.04 1.24
-13 7 5 116.23 2.27
-14 7 5 6.58 0.6
-15 7 5 102.26 2.12
-16 7 5 0.22 0.37
-17 7 5 1.39 0.31
-18 7 5 5.56 0.65
-19 7 5 2.93 0.46
-20 7 5 13.24 0.8
-21 7 5 6.66 0.51
-22 7 5 48.57 1.39
-6 8 5 24.72 1.24
-7 8 5 132.76 2.49
-8 8 5 25.89 1.02
-9 8 5 23.7 1.02
-10 8 5 22.46 0.95
-11 8 5 0.15 0.3
-12 8 5 10.61 0.68
-13 8 5 59.4 3.29
-14 8 5 44.33 1.83
-15 8 5 34.45 1.61
-16 8 5 1.97 0.33
-17 8 5 45.72 0.95
-18 8 5 15.29 0.64
-19 8 5 14.7 1.1
-20 8 5 0 0.33
-21 8 5 0.44 0.33
-22 8 5 3.88 0.45
-6 9 5 26.63 1.02
-7 9 5 200.35 3.15
-8 9 5 16.46 1.02
-9 9 5 19.09 1.61
-10 9 5 2.05 0.42
-11 9 5 45.13 2.49
-12 9 5 28.53 1.39
-13 9 5 22.46 0.95
-14 9 5 14.12 0.95
-15 9 5 48.2 0.95
-16 9 5 0.15 0.31
-17 9 5 12.73 0.6
-18 9 5 11.63 0.73
-19 9 5 12.36 0.95
-20 9 5 7.46 0.64
-21 9 5 0 0.31
-6 10 5 16.17 0.88
-7 10 5 104.38 2.56
-8 10 5 4.61 0.53
-9 10 5 1.76 0.39
-10 10 5 2.05 0.44
-11 10 5 15.14 1.1
-12 10 5 1.39 0.39
-13 10 5 0.95 0.37
-14 10 5 35.48 1.02
-15 10 5 65.47 1.1
-16 10 5 68.32 1.17
-17 10 5 0.37 0.33
-18 10 5 10.31 0.59
-19 10 5 5.56 0.55
-20 10 5 4.9 0.51
-21 10 5 0.8 0.34
-6 11 5 8.19 0.57
-7 11 5 50.47 1.46
-8 11 5 27.06 1.24
-9 11 5 1.54 0.39
-10 11 5 34.89 1.9
-11 11 5 89.53 2.34
-12 11 5 56.47 2.93
-13 11 5 3.66 0.61
-14 11 5 1.17 0.38
-15 11 5 14.48 0.8
-16 11 5 0.22 0.34
-17 11 5 2.71 0.48
-18 11 5 0.29 0.34
-19 11 5 0 0.51
-20 11 5 0.8 0.35
-6 12 5 66.05 3.29
-7 12 5 16.31 1.02
-8 12 5 3.51 0.62
-9 12 5 5.49 0.68
-10 12 5 46.08 1.76
-11 12 5 0.07 0.28
-12 12 5 2.12 0.34
-13 12 5 0.37 0.32
-14 12 5 1.24 0.45
-15 12 5 6.14 0.55
-16 12 5 9.07 0.58
-17 12 5 4.9 0.58
-18 12 5 18.43 0.8
-19 12 5 3.88 0.95
-6 13 5 12.44 0.95
-7 13 5 28.02 1.02
-8 13 5 1.9 0.33
-9 13 5 7.97 0.71
-10 13 5 36.65 0.8
-11 13 5 0 0.3
-12 13 5 0.8 0.43
-13 13 5 1.24 0.34
-14 13 5 55.88 1.1
-15 13 5 3 0.46
-16 13 5 0.15 0.31
-17 13 5 3.29 0.45
-18 13 5 10.9 1.02
-6 14 5 22.75 0.65
-7 14 5 0.66 0.29
-8 14 5 0.07 0.29
-9 14 5 1.32 0.32
-10 14 5 10.83 0.69
-11 14 5 4.97 0.55
-12 14 5 0.22 0.31
-13 14 5 22.75 0.72
-14 14 5 18.73 0.95
-15 14 5 16.75 0.65
-16 14 5 8.63 0.55
-17 14 5 0.88 0.31
-6 15 5 2.71 0.48
-7 15 5 32.92 1.02
-8 15 5 12.51 0.61
-9 15 5 1.46 0.34
-10 15 5 92.46 1.46
-11 15 5 62.98 1.17
-12 15 5 101.53 1.61
-13 15 5 7.02 0.5
-14 15 5 7.02 0.73
-15 15 5 0.07 0.26
-16 15 5 2.12 0.37
-6 16 5 0.51 0.34
-7 16 5 36.5 0.88
-8 16 5 7.31 0.56
-9 16 5 6.58 0.61
-10 16 5 15.21 0.63
-11 16 5 14.34 0.72
-12 16 5 1.83 0.34
-13 16 5 -0.07 0.73
-14 16 5 10.31 1.32
-6 17 5 15.73 0.8
-7 17 5 14.12 0.63
-8 17 5 2.27 0.42
-9 17 5 1.17 0.34
-10 17 5 1.9 0.35
-11 17 5 -0.15 0.3
-12 17 5 2.49 0.39
-6 18 5 0.15 0.34
-7 18 5 19.82 0.69
-8 18 5 2.78 0.46
-9 18 5 15.14 2.05
-7 0 6 0.07 0.2
-8 0 6 143.73 1.61
-9 0 6 -0.07 0.24
-10 0 6 218.93 7.31
-11 0 6 0.07 0.28
-12 0 6 0.07 0.34
-13 0 6 0.15 0.34
-14 0 6 101.6 1.54
-15 0 6 0.07 0.29
-16 0 6 21.87 0.8
-17 0 6 0.15 0.34
-18 0 6 106.43 1.39
-19 0 6 0.07 0.27
-20 0 6 18.51 0.65
-21 0 6 0.07 0.31
-22 0 6 9.29 0.52
-23 0 6 -0.07 0.34
-6 1 6 201.16 1.83
-7 1 6 6.44 0.35
-8 1 6 27.94 1.17
-9 1 6 0.15 0.25
-10 1 6 75.34 1.9
-11 1 6 36.72 3.29
-12 1 6 56.1 1.24
-13 1 6 0.37 0.33
-14 1 6 56.98 1.39
-15 1 6 55.52 1.24
-16 1 6 11.7 0.65
-17 1 6 11.12 0.67
-18 1 6 159.68 1.97
-19 1 6 6.51 0.5
-20 1 6 8.92 0.51
-21 1 6 0.59 0.31
-22 1 6 0.22 0.34
-23 1 6 4.02 0.45
-6 2 6 3.58 0.29
-7 2 6 8.49 0.38
-8 2 6 12.07 0.49
-9 2 6 28.38 0.73
-10 2 6 64.37 1.32
-11 2 6 61.52 1.24
-12 2 6 32.11 1.39
-13 2 6 0.07 0.28
-14 2 6 38.11 1.02
-15 2 6 43.52 1.1
-16 2 6 21.14 0.8
-17 2 6 25.09 1.17
-18 2 6 2.63 0.42
-19 2 6 0.37 0.28
-20 2 6 1.24 1.02
-21 2 6 16.53 1.32
-22 2 6 4.9 0.48
-23 2 6 4.97 0.58
-6 3 6 1.76 0.56
-7 3 6 1.61 0.3
-8 3 6 39.06 0.8
-9 3 6 110.01 3.51
-10 3 6 7.02 0.54
-11 3 6 0.15 0.31
-12 3 6 71.68 1.54
-13 3 6 28.97 0.73
-14 3 6 4.32 0.48
-15 3 6 38.77 1.32
-16 3 6 0.51 0.35
-17 3 6 50.84 1.54
-18 3 6 3.44 0.49
-19 3 6 0.95 0.33
-20 3 6 0.37 0.31
-21 3 6 30.8 1.54
-22 3 6 0.29 0.31
-23 3 6 8.92 0.7
-6 4 6 1.02 0.24
-7 4 6 169.19 2.05
-8 4 6 0.44 0.28
-9 4 6 38.55 1.32
-10 4 6 0.15 0.45
-11 4 6 52.23 1.24
-12 4 6 4.24 0.52
-13 4 6 107.01 2.56
-14 4 6 33.79 1.54
-15 4 6 27.21 1.17
-16 4 6 28.89 1.54
-17 4 6 5.49 0.49
-18 4 6 0.73 0.31
-19 4 6 7.39 0.88
-20 4 6 24.87 0.72
-21 4 6 26.04 0.72
-22 4 6 5.85 0.48
-23 4 6 1.76 0.34
-6 5 6 3.29 0.45
-7 5 6 12.95 0.59
-8 5 6 1.39 0.34
-9 5 6 3.58 0.5
-10 5 6 20.12 1.1
-11 5 6 17.63 0.71
-12 5 6 8.19 0.67
-13 5 6 85.36 1.68
-14 5 6 26.11 0.8
-15 5 6 167.58 3.15
-16 5 6 0.07 0.37
-17 5 6 7.61 0.55
-18 5 6 1.17 0.33
-19 5 6 13.68 0.59
-20 5 6 9.22 0.54
-21 5 6 1.02 0.33
-22 5 6 0.37 0.31
-23 5 6 1.32 0.33
-6 6 6 0.95 0.39
-7 6 6 62.1 1.32
-8 6 6 19.75 1.32
-9 6 6 22.16 1.1
-10 6 6 67.37 2.19
-11 6 6 21.87 1.32
-12 6 6 56.32 1.83
-13 6 6 8.63 0.65
-14 6 6 31.01 1.32
-15 6 6 0.37 0.38
-16 6 6 28.6 2.12
-17 6 6 1.39 0.32
-18 6 6 5.41 0.49
-19 6 6 5.19 0.69
-20 6 6 2.49 0.45
-21 6 6 0.07 0.31
-22 6 6 19.24 0.95
-6 7 6 4.9 0.59
-7 7 6 168.82 6.66
-8 7 6 1.46 0.41
-9 7 6 142.86 2.56
-10 7 6 0.88 0.33
-11 7 6 9.14 0.61
-12 7 6 10.39 0.63
-13 7 6 1.02 0.37
-14 7 6 38.4 1.46
-15 7 6 6.95 1.54
-16 7 6 2.63 0.42
-17 7 6 5.92 0.5
-18 7 6 1.02 0.37
-19 7 6 7.53 0.53
-20 7 6 10.24 0.56
-21 7 6 31.16 2.27
-22 7 6 1.32 0.32
-6 8 6 0.8 0.38
-7 8 6 100.14 1.76
-8 8 6 1.17 0.34
-9 8 6 14.7 0.8
-10 8 6 28.89 1.24
-11 8 6 14.78 0.95
-12 8 6 12.36 1.02
-13 8 6 0.66 0.36
-14 8 6 39.5 1.54
-15 8 6 42.72 2.41
-16 8 6 0.07 0.33
-17 8 6 89.17 12.44
-18 8 6 1.17 0.35
-19 8 6 14.04 1.61
-20 8 6 6.8 0.51
-21 8 6 7.46 0.5
-6 9 6 52.67 1.54
-7 9 6 172.04 3.22
-8 9 6 6.22 0.56
-9 9 6 9.07 0.8
-10 9 6 0.51 0.37
-11 9 6 0.07 0.33
-12 9 6 0.22 0.35
-13 9 6 0.8 0.27
-14 9 6 7.83 0.73
-15 9 6 9.44 0.51
-16 9 6 16.24 2.41
-17 9 6 84.05 11.7
-18 9 6 52.52 8.05
-19 9 6 10.17 1.54
-20 9 6 2.63 0.43
-21 9 6 1.1 0.34
-6 10 6 121.06 2.12
-7 10 6 0.15 0.42
-8 10 6 12.51 0.88
-9 10 6 2.56 0.48
-10 10 6 4.83 0.54
-11 10 6 21.21 1.17
-12 10 6 0.07 0.26
-13 10 6 1.83 0.73
-14 10 6 8.56 0.56
-15 10 6 0.07 0.32
-16 10 6 13.09 1.24
-17 10 6 1.68 0.37
-18 10 6 16.97 2.12
-19 10 6 0.95 0.39
-20 10 6 10.39 2.05
-6 11 6 0.07 0.31
-7 11 6 27.8 1.02
-8 11 6 1.54 0.45
-9 11 6 5.63 0.59
-10 11 6 31.09 2.56
-11 11 6 21.8 2.49
-12 11 6 15.43 1.39
-13 11 6 1.17 0.31
-14 11 6 3.58 0.72
-15 11 6 2.19 0.61
-16 11 6 1.46 0.35
-17 11 6 1.61 0.34
-18 11 6 0.07 0.37
-19 11 6 2.05 0.88
-6 12 6 52.74 10.97
-7 12 6 6.51 1.68
-8 12 6 44.62 0.8
-9 12 6 0.95 0.28
-10 12 6 12.14 0.51
-11 12 6 8.19 1.32
-12 12 6 10.83 0.58
-13 12 6 6.51 0.47
-14 12 6 5.85 0.48
-15 12 6 9.07 1.02
-16 12 6 26.04 2.41
-17 12 6 0.29 0.42
-18 12 6 32.26 6.95
-6 13 6 9.58 0.48
-7 13 6 6.66 0.47
-8 13 6 35.84 2.71
-9 13 6 -0.07 0.27
-10 13 6 0.15 0.29
-11 13 6 0.88 0.31
-12 13 6 15.73 0.59
-13 13 6 0.44 0.47
-14 13 6 66.64 3.8
-15 13 6 11.19 1.83
-16 13 6 1.83 0.88
-17 13 6 10.09 3.73
-6 14 6 0.66 0.31
-7 14 6 0.29 0.41
-8 14 6 2.71 0.38
-9 14 6 0.22 0.29
-10 14 6 14.48 1.61
-11 14 6 14.34 0.57
-12 14 6 1.9 0.34
-13 14 6 14.7 0.64
-14 14 6 2.49 0.39
-15 14 6 22.9 2.19
-16 14 6 1.76 0.95
-6 15 6 0.37 0.31
-7 15 6 0.15 0.31
-8 15 6 13.31 0.7
-9 15 6 8.63 0.8
-10 15 6 37.31 2.71
-11 15 6 0.22 0.3
-12 15 6 12 0.8
-13 15 6 -0.07 0.37
-14 15 6 5.85 1.1
-6 16 6 19.97 1.9
-7 16 6 3.73 0.5
-8 16 6 -0.29 0.35
-9 16 6 1.46 0.33
-10 16 6 0 0.29
-11 16 6 2.71 0.45
-12 16 6 8.92 0.88
-6 17 6 12.07 0.61
-7 17 6 53.1 6.14
-8 17 6 1.02 0.34
-9 17 6 11.7 0.61
-8 0 7 10.75 0.47
-9 0 7 -0.07 0.26
-10 0 7 0.29 0.27
-11 0 7 -0.29 0.34
-12 0 7 57.93 1.32
-13 0 7 0.07 0.35
-14 0 7 4.39 0.61
-15 0 7 0.07 0.45
-16 0 7 1.97 0.26
-17 0 7 -0.07 0.23
-18 0 7 41.69 0.8
-19 0 7 0.15 0.28
-20 0 7 8.85 0.53
-21 0 7 0.22 0.27
-22 0 7 4.39 0.5
-8 1 7 73.29 3.36
-9 1 7 90.56 2.63
-10 1 7 83.97 1.46
-11 1 7 16.17 0.69
-12 1 7 14.48 0.8
-13 1 7 31.6 1.02
-14 1 7 12.29 0.73
-15 1 7 3.58 0.61
-16 1 7 0.51 0.23
-17 1 7 12.29 0.5
-18 1 7 4.9 0.45
-19 1 7 38.11 0.8
-20 1 7 1.32 0.31
-21 1 7 39.13 0.88
-22 1 7 2.12 0.39
-8 2 7 34.89 1.46
-9 2 7 16.24 0.64
-10 2 7 20.92 0.72
-11 2 7 2.93 0.44
-12 2 7 46.45 1.24
-13 2 7 16.97 0.88
-14 2 7 1.83 0.5
-15 2 7 7.1 0.7
-16 2 7 0.37 0.26
-17 2 7 33.57 1.17
-18 2 7 16.24 0.56
-19 2 7 1.24 0.32
-20 2 7 17.26 0.88
-21 2 7 6 0.48
-22 2 7 11.7 0.71
-8 3 7 45.79 1.61
-9 3 7 2.27 0.37
-10 3 7 134.66 2.19
-11 3 7 103.5 1.9
-12 3 7 36.43 1.32
-13 3 7 1.61 0.53
-14 3 7 -0.37 0.57
-15 3 7 2.19 0.46
-16 3 7 7.97 0.49
-17 3 7 10.83 0.52
-18 3 7 45.64 0.88
-19 3 7 9.8 1.32
-20 3 7 26.26 0.71
-21 3 7 9.8 0.67
-22 3 7 2.34 0.61
-8 4 7 0.88 0.31
-9 4 7 18.65 0.72
-10 4 7 33.21 0.95
-11 4 7 12.22 0.95
-12 4 7 0.22 0.39
-13 4 7 13.39 0.8
-14 4 7 64.95 2.71
-15 4 7 101.6 1.32
-16 4 7 24.65 1.02
-17 4 7 2.63 0.45
-18 4 7 7.46 0.5
-19 4 7 0.22 0.29
-20 4 7 3.8 0.45
-21 4 7 0.07 0.29
-22 4 7 4.39 0.45
-8 5 7 1.32 0.38
-9 5 7 37.67 1.46
-10 5 7 25.24 0.88
-11 5 7 0.44 0.67
-12 5 7 0.37 0.4
-13 5 7 65.25 1.68
-14 5 7 0.07 0.37
-15 5 7 33.36 0.69
-16 5 7 0.29 0.29
-17 5 7 13.31 0.54
-18 5 7 15 1.02
-19 5 7 7.83 0.51
-20 5 7 2.85 0.45
-21 5 7 0.15 0.29
-8 6 7 0.15 0.35
-9 6 7 63.42 1.97
-10 6 7 16.97 0.88
-11 6 7 4.75 0.61
-12 6 7 15 1.02
-13 6 7 0.88 0.38
-14 6 7 25.24 0.63
-15 6 7 18.14 1.32
-16 6 7 50.11 3.44
-17 6 7 8.49 0.53
-18 6 7 42.72 2.05
-19 6 7 0.59 0.31
-20 6 7 14.7 0.7
-21 6 7 0.95 0.31
-8 7 7 16.24 1.02
-9 7 7 0.07 0.4
-10 7 7 116.3 2.41
-11 7 7 16.02 0.95
-12 7 7 0.22 0.36
-13 7 7 2.27 0.31
-14 7 7 15.87 0.58
-15 7 7 2.71 0.46
-16 7 7 0.88 0.29
-17 7 7 1.83 0.72
-18 7 7 0.07 0.29
-19 7 7 2.85 0.72
-20 7 7 40.38 3
-21 7 7 4.54 0.45
-8 8 7 7.83 0.69
-9 8 7 18.95 0.95
-10 8 7 17.04 0.88
-11 8 7 26.7 1.1
-12 8 7 4.02 0.39
-13 8 7 2.78 0.41
-14 8 7 41.18 2.85
-15 8 7 0.37 0.28
-16 8 7 1.76 0.31
-17 8 7 33.28 5.85
-18 8 7 5.27 1.24
-19 8 7 1.83 0.4
-20 8 7 0.22 0.34
-8 9 7 83.97 2.05
-9 9 7 2.34 0.54
-10 9 7 0.37 0.25
-11 9 7 20.85 0.58
-12 9 7 1.61 0.29
-13 9 7 6.44 0.45
-14 9 7 0.07 0.3
-15 9 7 18.8 2.63
-16 9 7 1.9 0.34
-17 9 7 14.85 2.05
-18 9 7 25.6 2.85
-19 9 7 29.7 5.12
-8 10 7 12.58 0.56
-9 10 7 40.67 0.73
-10 10 7 0.8 0.27
-11 10 7 34.01 0.72
-12 10 7 9.73 0.5
-13 10 7 10.9 1.02
-14 10 7 6.73 0.5
-15 10 7 1.39 0.34
-16 10 7 0.07 0.29
-17 10 7 51.93 15.36
-18 10 7 -0.07 0.3
-19 10 7 1.76 0.34
-8 11 7 7.24 0.49
-9 11 7 122.74 1.54
-10 11 7 0.95 0.29
-11 11 7 23.7 0.64
-12 11 7 0.22 0.29
-13 11 7 6.73 0.45
-14 11 7 0.29 0.28
-15 11 7 4.97 0.73
-16 11 7 0.8 0.31
-17 11 7 5.34 1.68
-18 11 7 21.07 0.71
-8 12 7 5.85 0.46
-9 12 7 -0.07 0.28
-10 12 7 -0.15 0.29
-11 12 7 0.44 0.27
-12 12 7 6.29 0.45
-13 12 7 5.71 0.52
-14 12 7 44.33 4.97
-15 12 7 5.41 0.49
-16 12 7 0.37 0.31
-8 13 7 27.5 0.7
-9 13 7 0.59 0.29
-10 13 7 1.97 0.31
-11 13 7 0.07 0.27
-12 13 7 22.53 1.17
-13 13 7 1.1 0.37
-14 13 7 8.05 0.47
-15 13 7 0.73 1.68
-8 14 7 0.15 0.28
-9 14 7 6.88 1.02
-10 14 7 6.58 0.67
-11 14 7 10.24 0.88
-12 14 7 2.93 0.42
-13 14 7 1.1 0.63
-8 15 7 0.29 0.31
-9 15 7 16.09 0.73
-10 15 7 10.83 1.02
-11 15 7 26.85 2.12
-8 0 8 15.07 0.57
-9 0 8 0.07 0.28
-10 0 8 25.31 0.8
-11 0 8 0.15 0.31
-12 0 8 14.04 0.73
-19 0 8 0.37 0.25
-20 0 8 10.53 0.56
-21 0 8 -0.44 0.33
-8 1 8 0 0.26
-9 1 8 90.12 2.49
-10 1 8 9.22 0.62
-11 1 8 52.96 1.24
-12 1 8 3.73 0.52
-19 1 8 4.39 0.48
-20 1 8 2.41 0.45
-21 1 8 17.48 0.59
-8 2 8 9.8 0.5
-9 2 8 3.58 0.45
-10 2 8 47.69 1.1
-11 2 8 68.39 1.46
-12 2 8 22.9 0.88
-19 2 8 1.68 0.29
-20 2 8 72.27 1.17
-21 2 8 35.18 1.32
-8 3 8 59.62 1.17
-9 3 8 6.29 0.53
-10 3 8 13.61 0.67
-11 3 8 1.32 0.39
-19 3 8 0.15 0.25
-20 3 8 15 1.1
-8 4 8 -0.29 0.62
-9 4 8 9.22 0.63
-10 4 8 4.39 0.69
-18 4 8 0.29 0.26
-19 4 8 4.1 0.4
-20 4 8 0.59 0.28
-8 5 8 0.44 0.37
-9 5 8 8.85 0.72
-18 5 8 22.46 0.61
-19 5 8 23.41 0.63
-20 5 8 0.29 0.33
-17 6 8 21.8 0.65
-18 6 8 38.04 0.8
-19 6 8 2.93 0.41
-16 7 8 0.22 0.3
-17 7 8 0.29 0.27
-18 7 8 18.73 0.6
-19 7 8 0.37 0.28
-16 8 8 0.73 0.31
-17 8 8 4.61 0.52
-18 8 8 0.88 0.34
-15 9 8 3.22 0.4
-16 9 8 6.88 0.49
-17 9 8 44.33 0.95
-13 10 8 2.56 0.38
-14 10 8 0.44 0.36
-15 10 8 8.85 0.47
-16 10 8 0.44 0.29
-12 11 8 0.22 0.29
-13 11 8 11.78 0.49
-14 11 8 11.56 0.57
-15 11 8 29.11 0.68
-10 12 8 0.59 0.28
-11 12 8 37.09 0.73
-12 12 8 20.55 0.6
-13 12 8 9.66 0.47
-8 13 8 11.12 0.5
-9 13 8 10.97 0.5
-10 13 8 0.88 0.29
-11 13 8 0.51 0.29
-8 14 8 1.24 0.3
