#------------------------------------------------------------------------------
#$Date: 2020-04-10 08:38:35 +0300 (Fri, 10 Apr 2020) $
#$Revision: 250655 $
#$URL: file:///home/coder/svn-repositories/cod/cif/2/02/20/2022076.cif $
#------------------------------------------------------------------------------
#
# This file is available in the Crystallography Open Database (COD),
# http://www.crystallography.net/. The original data for this entry
# were provided by IUCr Journals, http://journals.iucr.org/.
#
# The file may be used within the scientific community so long as
# proper attribution is given to the journal article from which the
# data were obtained.
#
data_2022076
loop_
_publ_author_name
'Jha, Kunal Kumar'
'Gruza, Barbara'
'Kumar, Prashant'
'Chodkiewicz, Michal Leszek'
'Dominiak, Paulina Maria'
_publ_section_title
;
 TAAM: a reliable and user friendly tool for hydrogen-atom location using
 routine X-ray diffraction data
;
_journal_issue                   3
_journal_name_full
'Acta Crystallographica Section B Structural Science, Crystal Engineering and Materials'
_journal_paper_doi               10.1107/S2052520620002917
_journal_volume                  76
_journal_year                    2020
_chemical_formula_moiety         'C7 H6 O3'
_chemical_formula_sum            'C7 H6 O3'
_chemical_formula_weight         138.12
_space_group_crystal_system      monoclinic
_space_group_IT_number           14
_space_group_name_Hall           '-P 2ybc'
_space_group_name_H-M_alt        'P 1 21/c 1'
_symmetry_Int_Tables_number      14
_audit_creation_date             2019-09-27
_audit_creation_method
;
Olex2 1.2
(compiled 2018.05.29 svn.r3508 for OlexSys, GUI svn.r5506)
;
_cell_angle_alpha                90
_cell_angle_beta                 92.621(2)
_cell_angle_gamma                90
_cell_formula_units_Z            4
_cell_length_a                   4.8818(2)
_cell_length_b                   11.2009(5)
_cell_length_c                   11.2335(5)
_cell_measurement_temperature    90.0(2)
_cell_volume                     613.61(5)
_computing_molecular_graphics    'Olex2 (Dolomanov et al., 2009)'
_computing_publication_material  'Olex2 (Dolomanov et al., 2009)'
_computing_structure_refinement  'olex2.refine (Bourhis et al., 2015)'
_diffrn_ambient_temperature      90.0(2)
_diffrn_measured_fraction_theta_full 0.9862
_diffrn_measured_fraction_theta_max 0.9862
_diffrn_measurement_device_type  'Bruker SMART APEX CCD area detector'
_diffrn_radiation_type           MoK\a
_diffrn_radiation_wavelength     0.71073
_diffrn_reflns_av_R_equivalents  0.0000
_diffrn_reflns_av_unetI/netI     0.0171
_diffrn_reflns_limit_h_max       10
_diffrn_reflns_limit_h_min       -10
_diffrn_reflns_limit_k_max       24
_diffrn_reflns_limit_k_min       0
_diffrn_reflns_limit_l_max       24
_diffrn_reflns_limit_l_min       0
_diffrn_reflns_number            6440
_diffrn_reflns_theta_full        50.2958
_diffrn_reflns_theta_max         50.30
_diffrn_reflns_theta_min         2.57
_exptl_absorpt_coefficient_mu    0.118
_exptl_crystal_density_diffrn    1.4950
_exptl_crystal_F_000             288.2053
_refine_diff_density_max         0.3949
_refine_diff_density_min         -0.2485
_refine_diff_density_rms         0.0674
_refine_ls_d_res_high            0.4619
_refine_ls_d_res_low             7.9276
_refine_ls_goodness_of_fit_ref   1.1250
_refine_ls_hydrogen_treatment    refall
_refine_ls_matrix_type           full
_refine_ls_number_constraints    0
_refine_ls_number_parameters     145
_refine_ls_number_reflns         6440
_refine_ls_number_restraints     0
_refine_ls_restrained_S_all      1.1250
_refine_ls_R_factor_all          0.0279
_refine_ls_R_factor_gt           0.0239
_refine_ls_shift/su_max          0.0001
_refine_ls_shift/su_mean         0.0000
_refine_ls_structure_factor_coef Fsqd
_refine_ls_weighting_details
'w=1/[\s^2^(Fo^2^)+(0.0350P)^2^] where P=(Fo^2^+2Fc^2^)/3'
_refine_ls_weighting_scheme      calc
_refine_ls_wR_factor_gt          0.0588
_refine_ls_wR_factor_ref         0.0601
_reflns_Friedel_coverage         0.0
_reflns_limit_h_max              10
_reflns_limit_h_min              -10
_reflns_limit_k_max              24
_reflns_limit_k_min              0
_reflns_limit_l_max              24
_reflns_limit_l_min              0
_reflns_number_gt                5592
_reflns_number_total             6440
_reflns_threshold_expression     I>=2u(I)
_iucr_refine_instructions_details
;
TITL salicylicacid
CELL 0.71073 4.8818 11.2009 11.2335 90 92.621 90
ZERR 4 0 0 0 0 0 0
LATT 1
SYMM -X,0.5+Y,0.5-Z
SFAC C H O
UNIT 28 24 12

ACTA 
BOND $H
WGHT 0.035004 0
FVAR 1.007378
REM <olex2.extras>
REM <HklSrc "%.\\ea921789872b8fb79f81ccb3a7ca3b72.hkl">
REM </olex2.extras>

O(1)  3     0.84011  0.13907 -0.05209  11.00000  0.01464  0.01356  0.01437 =
 0.00270  0.00518  0.00285 
H(1)  2     0.97534  0.08199 -0.06740  11.00000  0.02987  0.02575  0.02032 =
 0.00763  0.00371 -0.00859 
O(3)  3     0.39309  0.06766  0.24985  11.00000  0.01828  0.01557  0.01433 =
 0.00229  0.00568  0.00315 
H(3)  2     0.53377  0.02252  0.21627  11.00000  0.02714  0.02224  0.02818 =
 0.01172  0.00065 -0.00151 
O(2)  3     0.76759  0.01499  0.09889  11.00000  0.01363  0.01151  0.01425 =
 0.00211  0.00433  0.00321 
C(1)  1     0.50515  0.19286  0.08237  11.00000  0.01012  0.01027  0.01171 =
 -0.00037  0.00140  0.00118 
C(3)  1     0.15873  0.24928  0.22022  11.00000  0.01371  0.01598  0.01430 =
 -0.00295  0.00277  0.00333 
H(3a  2     0.04738  0.22705  0.29788  11.00000  0.03007  0.03195  0.04059 =
 0.00385  0.00627  0.01415 
C(6)  1     0.45370  0.29930  0.01904  11.00000  0.01258  0.01155  0.01574 =
 0.00136  0.00142  0.00204 
H(6)  2     0.56947  0.31713 -0.05930  11.00000  0.03318  0.02085  0.04514 =
 0.00499  0.00165  0.01379 
C(2)  1     0.35613  0.16776  0.18413  11.00000  0.01159  0.01232  0.01156 =
 -0.00126  0.00196  0.00134 
C(5)  1     0.25886  0.37962  0.05542  11.00000  0.01439  0.01224  0.01990 =
 0.00007  0.00047  0.00350 
H(5)  2     0.21977  0.45913  0.00588  11.00000  0.03444  0.02625  0.04678 =
 0.00811  0.00673  0.00866 
C(4)  1     0.11110  0.35402  0.15649  11.00000  0.01358  0.01448  0.01822 =
 -0.00383  0.00043  0.00385 
H(4)  2    -0.03659  0.41525  0.18523  11.00000  0.02762  0.03814  0.03102 =
 -0.00562  0.00463  0.01207 
C(7)  1     0.71401  0.10907  0.04396  11.00000  0.01019  0.01012  0.01150 =
 0.00012  0.00180  0.00092 
HKLF 4

END
Q1 1 0.851852 0.140625 -0.046875 11 0.05 0.39
Q2 1 0.518519 0.1875 0.078125 11 0.05 0.34
Q3 1 0.37037 0.0625 0.25 11 0.05 0.32
Q4 1 0.259259 0.390625 0.0625 11 0.05 0.3
Q5 1 0.333333 0.171875 0.1875 11 0.05 0.29
Q6 1 0.703704 0.109375 0.046875 11 0.05 0.28
Q7 1 0.111111 0.359375 0.15625 11 0.05 0.28
Q8 1 0.444444 0.296875 0.015625 11 0.05 0.27
Q9 1 0.740741 0.015625 0.109375 11 0.05 0.27
Q10 1 0.148148 0.25 0.21875 11 0.05 0.21
Q11 1 0.851852 0.015625 0.28125 11 0.05 0.18
Q12 1 0.074074 0.3125 -0.03125 11 0.05 0.17
Q13 1 -0.111111 0.28125 0.078125 11 0.05 0.16
Q14 1 0.259259 0.515625 0.125 11 0.05 0.16
Q15 1 0.555556 0.0625 0.34375 11 0.05 0.16
Q16 1 -0.037037 0.078125 0.203125 11 0.05 0.16
Q17 1 0.222222 0.484375 0 11 0.05 0.16
Q18 1 0.259259 0.328125 -0.078125 11 0.05 0.16
Q19 1 0.333333 0.265625 0.296875 11 0.05 0.16
Q20 1 0.592593 0.25 0.265625 11 0.05 0.16

  REM The information below was added by Olex2.
  REM
  REM R1 = 0.0239 for 5592 Fo > 4sig(Fo) and 0.0279 for all 6440 data
  REM 145 parameters refined using 0 restraints
  REM Highest difference peak 0.3949, deepest hole -0.2485
  REM Mean Shift 0.0000, Max Shift 0.0001.

  REM +++ Tabular Listing of Refinement Information +++
  REM R1_all = 0.0279
  REM R1_gt = 0.0239
  REM wR_ref = 0.0601
  REM GOOF = 1.1250
  REM Shift_max = 0.0001
  REM Shift_mean = 0.0000
  REM Reflections_all = 6440
  REM Reflections_gt = 5592
  REM Parameters = 145
  REM Hole = -0.2485
  REM Peak = 0.3949
  REM Flack = n/a

  
;
_cod_data_source_file            48_TAAM_ANIS_max.cif
_cod_data_source_block           48_TAAM_ANIS_max
_cod_database_code               2022076
_olex2_refinement_description
;
;
_iucr_refine_fcf_details
;
data_salicylicacid
_computing_structure_refinement   'olex2.refine (Bourhis et al., 2015)'
_shelx_refln_list_code            4
loop_
  _space_group_symop_id
  _space_group_symop_operation_xyz
  1  x,y,z
  2  -x,y+1/2,-z+1/2
  3  -x,-y,-z
  4  x,-y-1/2,z-1/2

_space_group_crystal_system       monoclinic
_space_group_IT_number            14
_space_group_name_H-M_alt         'P 1 21/c 1'
_space_group_name_Hall            '-P 2ybc'
_symmetry_space_group_name_H-M    'P 1 21/c 1'
_symmetry_space_group_name_Hall   '-P 2ybc'
_symmetry_Int_Tables_number       14
_cell_length_a                    4.8818
_cell_length_b                    11.2009
_cell_length_c                    11.2335
_cell_angle_alpha                 90
_cell_angle_beta                  92.621
_cell_angle_gamma                 90
_cell_volume                      613.611413
loop_
  _refln_index_h
  _refln_index_k
  _refln_index_l
  _refln_F_squared_calc
  _refln_F_squared_meas
  _refln_F_squared_sigma
  _refln_F_squared_weight
  _refln_observed_status
-10 0 2 5.990 5.587 0.434 21.377 o
-10 0 4 5.357 5.637 0.443 21.099 o
-10 0 6 8.346 8.494 0.473 15.856 o
-10 0 8 23.662 25.453 0.719 3.970 o
-10 1 1 1.533 1.271 0.197 118.760 o
-10 1 2 0.963 0.670 0.187 136.687 o
-10 1 3 5.767 6.208 0.286 39.485 o
-10 1 4 20.241 21.019 0.759 4.508 o
-10 1 5 1.245 1.242 0.187 133.069 o
-10 1 6 2.683 2.799 0.217 87.687 o
-10 1 7 3.706 4.277 0.256 58.366 o
-10 1 8 2.103 2.000 0.187 122.013 o
-10 2 1 4.133 4.572 0.276 49.880 o
-10 2 2 8.686 8.652 0.434 17.547 o
-10 2 3 0.054 -0.039 0.236 87.905 o
-10 2 4 6.987 7.735 0.305 31.222 o
-10 2 5 55.023 60.267 3.291 0.333 o
-10 2 6 16.495 17.038 0.473 8.711 o
-10 2 7 6.193 6.987 0.286 37.035 o
-10 2 8 6.188 6.425 0.276 39.572 o
-10 3 1 5.526 5.696 0.286 41.025 o
-10 3 2 0.001 0.207 0.266 69.452 o
-10 3 3 28.715 30.449 1.114 2.146 o
-10 3 4 2.782 3.153 0.246 69.216 o
-10 3 5 0.659 0.660 0.168 171.940 o
-10 3 6 1.426 1.606 0.187 130.214 o
-10 3 7 12.420 13.086 0.355 15.285 o
-10 3 8 7.048 7.430 0.443 18.931 o
-10 4 1 5.007 5.223 0.276 45.638 o
-10 4 2 0.168 0.020 0.168 175.100 o
-10 4 3 10.902 12.239 0.995 4.282 o
-10 4 4 0.000 -0.108 0.217 104.617 o
-10 4 5 9.256 10.012 0.374 19.590 o
-10 4 6 0.329 0.276 0.266 69.342 o
-10 4 7 0.060 -0.069 0.246 81.013 o
-10 5 1 0.107 -0.069 0.266 69.452 o
-10 5 2 2.520 2.907 0.345 38.549 o
-10 5 3 0.210 0.187 0.266 69.409 o
-10 5 4 1.069 0.828 0.296 55.500 o
-10 5 5 1.122 0.887 0.296 55.415 o
-10 5 6 5.524 5.843 0.434 21.675 o
-10 6 1 7.391 7.647 0.483 16.301 o
-10 6 2 3.510 4.119 0.414 26.128 o
-10 6 3 0.273 0.207 0.276 64.520 o
-10 6 4 8.136 8.928 0.473 15.851 o
-10 6 5 5.643 5.548 0.434 21.701 o
-10 7 1 28.384 30.833 0.808 2.896 o
-10 7 2 2.582 2.789 0.355 36.568 o
-10 7 3 4.820 4.681 0.404 25.722 o
-9 0 2 2.579 2.395 0.345 38.801 o
-9 0 4 29.724 31.011 0.847 2.683 o
-9 0 6 207.521 233.482 6.031 0.053 o
-9 0 8 57.886 63.736 1.409 0.772 o
-9 0 10 46.397 49.714 1.133 1.214 o
-9 0 12 3.373 3.764 0.325 40.706 o
-9 1 1 7.450 6.878 0.305 31.140 o
-9 1 2 0.017 -0.177 0.236 87.907 o
-9 1 3 11.768 11.707 0.374 15.896 o
-9 1 4 11.025 11.480 0.374 16.765 o
-9 1 5 8.225 7.824 0.325 26.438 o
-9 1 6 11.933 12.278 0.374 15.458 o
-9 1 7 7.967 8.583 0.325 26.212 o
-9 1 8 48.094 52.640 1.360 1.011 o
-9 1 9 17.325 17.816 0.601 6.680 o
-9 1 10 0.339 0.266 0.158 196.833 o
-9 1 11 13.818 14.348 0.384 12.683 o
-9 1 12 7.650 7.312 0.434 19.086 o
-9 1 13 2.398 2.276 0.148 171.580 o
-9 2 1 0.789 0.670 0.187 137.562 o
-9 2 2 4.439 4.395 0.276 49.113 o
-9 2 3 9.443 9.519 0.345 21.489 o
-9 2 4 5.866 6.080 0.305 36.017 o
-9 2 5 6.397 6.760 0.305 33.823 o
-9 2 6 32.027 34.420 1.311 1.618 o
-9 2 7 0.006 0.266 0.168 175.141 o
-9 2 8 0.792 0.985 0.177 151.938 o
-9 2 9 9.481 10.445 0.335 21.378 o
-9 2 10 10.398 10.889 0.335 19.751 o
-9 2 11 0.046 -0.039 0.207 114.815 o
-9 2 12 5.087 5.016 0.256 50.660 o
-9 2 13 4.159 4.454 0.207 75.611 o
-9 3 1 26.010 26.744 0.552 4.279 o
-9 3 2 0.184 0.177 0.168 174.955 o
-9 3 3 2.230 1.951 0.207 101.549 o
-9 3 4 1.170 1.202 0.197 121.253 o
-9 3 5 1.688 1.872 0.207 105.570 o
-9 3 6 0.831 0.818 0.227 94.182 o
-9 3 7 4.984 5.223 0.424 23.307 o
-9 3 8 4.603 5.055 0.276 47.360 o
-9 3 9 0.646 0.503 0.138 252.529 o
-9 3 10 0.127 0.039 0.128 299.401 o
-9 3 11 0.163 0.227 0.128 298.856 o
-9 3 12 1.094 1.094 0.177 149.323 o
-9 3 13 0.027 -0.020 0.207 114.817 o
-9 4 1 1.169 1.409 0.197 120.649 o
-9 4 2 11.614 12.702 0.374 15.561 o
-9 4 3 1.435 1.350 0.207 108.667 o
-9 4 4 6.283 6.789 0.650 10.373 o
-9 4 5 0.295 0.197 0.207 114.593 o
-9 4 6 25.075 27.197 1.606 1.448 o
-9 4 7 0.046 -0.089 0.217 104.615 o
-9 4 8 9.729 10.652 0.512 12.738 o
-9 4 9 9.750 9.420 0.798 6.547 o
-9 4 10 0.007 0.049 0.158 197.788 o
-9 4 11 10.698 11.165 0.503 12.387 o
-9 4 12 8.347 8.790 0.305 27.055 o
-9 4 13 0.317 0.286 0.246 80.862 o
-9 5 1 0.299 0.187 0.168 174.684 o
-9 5 2 4.082 4.267 0.434 23.522 o
-9 5 3 16.033 16.131 0.611 7.131 o
-9 5 4 5.253 5.311 0.443 21.313 o
-9 5 5 3.112 3.114 0.365 33.954 o
-9 5 6 2.773 2.611 0.345 38.409 o
-9 5 7 0.394 0.365 0.266 69.281 o
-9 5 8 8.823 8.543 0.542 12.701 o
-9 5 9 1.820 2.030 0.305 50.329 o
-9 5 10 0.072 0.020 0.158 197.763 o
-9 5 11 15.425 15.274 0.552 8.275 o
-9 5 12 18.665 19.146 0.828 4.392 o
-9 6 1 0.056 0.197 0.168 175.126 o
-9 6 2 10.373 11.076 0.532 11.678 o
-9 6 3 0.132 0.099 0.276 64.570 o
-9 6 4 0.301 0.069 0.266 69.398 o
-9 6 5 23.064 25.424 0.739 3.955 o
-9 6 6 0.856 0.966 0.296 55.639 o
-9 6 7 0.736 0.532 0.177 153.608 o
-9 6 8 17.913 17.481 1.173 2.791 o
-9 6 9 2.993 2.818 0.217 85.430 o
-9 6 10 4.721 4.651 0.266 50.258 o
-9 6 11 10.686 11.007 0.680 8.126 o
-9 6 12 3.080 2.966 0.236 73.089 o
-9 7 1 2.131 2.316 0.207 100.933 o
-9 7 2 18.385 19.787 0.660 5.642 o
-9 7 3 0.062 -0.069 0.266 69.456 o
-9 7 4 0.019 0.108 0.266 69.455 o
-9 7 5 0.686 0.729 0.296 55.877 o
-9 7 6 0.079 -0.059 0.256 74.900 o
-9 7 7 1.306 1.212 0.207 109.716 o
-9 7 8 0.509 0.552 0.177 154.633 o
-9 7 9 23.423 23.157 0.778 3.862 o
-9 7 10 2.014 1.892 0.276 60.777 o
-9 7 11 14.678 14.968 0.374 12.060 o
-9 8 1 2.451 2.532 0.217 90.178 o
-9 8 2 5.265 5.489 0.443 21.233 o
-9 8 3 21.341 23.423 0.709 4.477 o
-9 8 4 4.214 4.129 0.414 25.508 o
-9 8 5 6.693 7.322 0.473 17.429 o
-9 8 6 1.083 1.074 0.187 134.768 o
-9 8 7 0.173 0.236 0.227 95.632 o
-9 8 8 11.330 12.219 0.365 16.468 o
-9 8 9 0.108 -0.168 0.217 104.603 o
-9 8 10 4.519 4.109 0.246 58.377 o
-9 9 1 7.975 8.691 0.483 15.569 o
-9 9 6 0.010 0.010 0.286 60.208 o
-9 9 7 2.169 2.050 0.276 60.193 o
-9 9 8 0.009 -0.020 0.227 95.718 o
-9 9 9 11.473 10.859 0.572 10.196 o
-9 10 1 16.511 16.013 0.591 7.263 o
-9 10 5 9.132 9.756 0.522 12.951 o
-9 10 6 0.654 0.897 0.305 52.319 o
-9 10 7 15.460 15.500 0.611 7.375 o
-9 10 8 29.669 30.755 0.808 2.797 o
-9 11 1 0.482 0.414 0.266 69.205 o
-9 11 5 0.815 1.133 0.296 55.599 o
-9 11 6 1.991 2.464 0.335 41.701 o
-9 12 1 2.772 3.084 0.384 31.153 o
-9 12 4 28.728 27.591 0.719 3.273 o
-8 0 2 1.065 1.350 0.217 101.070 o
-8 0 4 0.260 0.138 0.177 155.988 o
-8 0 6 28.229 28.754 1.261 1.906 o
-8 0 8 125.189 127.709 6.967 0.072 o
-8 0 10 0.176 0.187 0.158 197.477 o
-8 0 12 2.382 1.892 0.197 109.576 o
-8 0 14 2.865 3.163 0.227 79.129 o
-8 0 16 1.112 0.897 0.168 167.307 o
-8 1 1 9.208 9.529 0.266 27.761 o
-8 1 2 122.351 126.526 2.119 0.211 o
-8 1 3 0.096 0.030 0.128 299.492 o
-8 1 4 0.366 0.246 0.128 297.258 o
-8 1 5 0.392 0.227 0.128 297.093 o
-8 1 6 37.758 38.490 0.739 2.123 o
-8 1 7 37.814 33.356 1.340 1.441 o
-8 1 8 31.267 33.307 0.532 3.206 o
-8 1 9 23.924 24.064 0.641 4.412 o
-8 1 10 73.518 74.477 1.251 0.596 o
-8 1 11 8.021 7.795 0.276 32.033 o
-8 1 12 10.668 11.076 0.365 17.816 o
-8 1 13 9.355 9.233 0.414 17.712 o
-8 1 14 11.725 12.337 0.345 16.763 o
-8 1 15 0.866 0.729 0.118 332.061 o
-8 1 16 2.790 2.621 0.168 132.107 o
-8 2 1 33.163 34.943 0.463 3.052 o
-8 2 2 4.746 4.720 0.217 66.000 o
-8 2 3 2.189 2.168 0.168 145.053 o
-8 2 4 11.123 11.736 0.325 18.697 o
-8 2 5 10.813 10.465 0.374 17.533 o
-8 2 6 13.848 13.746 0.572 8.773 o
-8 2 7 61.062 58.839 4.464 0.202 o
-8 2 8 33.475 34.203 1.025 2.012 o
-8 2 9 72.614 73.915 1.833 0.497 o
-8 2 10 1.908 1.912 0.138 209.249 o
-8 2 11 11.279 11.579 0.374 16.451 o
-8 2 12 25.105 25.522 0.739 3.705 o
-8 2 13 2.522 2.779 0.158 148.148 o
-8 2 14 0.487 0.591 0.118 343.433 o
-8 2 15 0.598 0.473 0.108 405.376 o
-8 2 16 0.118 0.020 0.099 505.887 o
-8 3 1 3.515 3.409 0.168 114.606 o
-8 3 2 4.545 4.375 0.217 68.594 o
-8 3 3 3.815 3.951 0.207 80.489 o
-8 3 4 0.429 0.355 0.128 296.004 o
-8 3 5 11.521 11.598 0.443 13.658 o
-8 3 6 2.460 2.059 0.207 99.422 o
-8 3 7 1.957 1.724 0.177 137.377 o
-8 3 8 7.592 7.016 0.453 18.039 o
-8 3 9 21.878 22.743 0.798 3.968 o
-8 3 10 0.043 0.069 0.128 299.555 o
-8 3 11 1.429 1.626 0.138 225.866 o
-8 3 12 32.573 33.326 0.680 2.758 o
-8 3 13 6.023 6.070 0.197 58.868 o
-8 3 14 4.837 4.996 0.246 54.636 o
-8 3 15 16.261 16.308 0.503 8.518 o
-8 3 16 10.384 10.485 0.266 24.130 o
-8 4 1 0.989 1.261 0.128 275.622 o
-8 4 2 25.025 26.064 0.503 4.722 o
-8 4 3 0.640 0.798 0.148 219.144 o
-8 4 4 23.233 23.246 0.670 4.427 o
-8 4 5 0.835 0.591 0.138 249.226 o
-8 4 6 10.629 10.435 0.739 7.199 o
-8 4 7 1.528 1.498 0.158 177.620 o
-8 4 8 4.151 3.814 0.217 73.403 o
-8 4 9 15.170 15.471 0.798 5.328 o
-8 4 10 18.669 17.994 0.759 4.954 o
-8 4 11 12.307 12.396 0.305 17.572 o
-8 4 12 3.289 3.242 0.197 94.607 o
-8 4 13 3.002 2.907 0.177 116.318 o
-8 4 14 3.827 3.942 0.207 80.432 o
-8 4 15 7.448 7.617 0.236 39.353 o
-8 4 16 4.115 3.538 0.286 48.916 o
-8 5 1 83.026 90.293 1.084 0.486 o
-8 5 2 0.878 1.163 0.168 168.257 o
-8 5 3 61.372 63.825 1.636 0.663 o
-8 5 4 1.547 1.370 0.217 98.911 o
-8 5 5 2.671 2.020 0.305 48.829 o
-8 5 6 0.316 0.286 0.168 174.493 o
-8 5 7 4.129 3.597 0.266 54.678 o
-8 5 8 0.001 -0.010 0.227 95.718 o
-8 5 9 0.007 0.030 0.168 175.205 o
-8 5 10 23.013 22.812 0.946 3.193 o
-8 5 11 26.927 25.926 0.729 3.516 o
-8 5 12 4.025 3.942 0.266 54.410 o
-8 5 13 2.403 2.700 0.217 89.936 o
-8 5 14 6.514 6.789 0.266 39.570 o
-8 5 15 0.641 0.532 0.138 252.398 o
-8 6 1 9.879 9.677 0.276 25.333 o
-8 6 2 0.023 0.079 0.138 258.312 o
-8 6 3 1.108 1.163 0.207 110.796 o
-8 6 4 15.946 15.353 0.572 7.798 o
-8 6 5 16.045 15.865 0.414 10.150 o
-8 6 6 2.344 2.207 0.236 78.789 o
-8 6 7 14.642 14.397 0.572 8.384 o
-8 6 8 7.648 7.775 0.315 28.603 o
-8 6 9 6.532 6.612 0.305 33.671 o
-8 6 10 7.146 6.996 1.005 4.587 o
-8 6 11 0.747 0.818 0.177 152.748 o
-8 6 12 2.363 2.188 0.177 129.500 o
-8 6 13 24.916 27.020 0.453 4.870 o
-8 6 14 3.173 3.183 0.187 103.695 o
-8 6 15 7.648 7.676 0.286 32.028 o
-8 7 1 17.051 17.136 0.700 5.805 o
-8 7 2 4.365 4.326 0.266 52.309 o
-8 7 3 11.428 11.845 0.522 11.259 o
-8 7 4 2.259 2.000 0.207 101.155 o
-8 7 5 6.855 6.819 0.305 32.629 o
-8 7 6 6.795 6.494 0.305 33.170 o
-8 7 7 0.771 0.522 0.177 153.453 o
-8 7 8 11.166 11.322 0.434 14.368 o
-8 7 9 0.806 0.916 0.187 136.863 o
-8 7 10 0.357 0.227 0.168 174.459 o
-8 7 11 1.764 1.655 0.217 97.064 o
-8 7 12 5.923 6.149 0.325 32.816 o
-8 7 13 32.829 34.381 0.877 2.307 o
-8 7 14 14.942 15.964 0.345 12.137 o
-8 8 1 0.803 0.601 0.177 153.051 o
-8 8 2 31.150 33.593 0.838 2.517 o
-8 8 3 0.720 0.256 0.266 69.076 o
-8 8 4 1.740 1.803 0.207 105.462 o
-8 8 5 10.371 10.445 0.365 18.529 o
-8 8 6 39.054 39.771 1.173 1.505 o
-8 8 7 0.691 0.729 0.187 137.878 o
-8 8 8 1.478 1.616 0.305 51.130 o
-8 8 9 6.353 6.050 0.818 6.859 o
-8 8 10 2.824 2.976 0.236 74.434 o
-8 8 11 3.302 2.966 0.532 16.632 o
-8 8 12 2.885 3.183 0.236 73.557 o
-8 8 13 0.454 0.512 0.168 173.510 o
-8 8 14 0.396 0.345 0.128 296.441 o
-8 9 1 1.330 1.488 0.296 54.792 o
-8 9 2 2.399 2.483 0.325 43.526 o
-8 9 3 1.953 2.059 0.345 39.717 o
-8 9 4 0.583 1.133 0.315 49.093 o
-8 9 5 26.930 27.966 0.808 3.143 o
-8 9 6 0.000 -0.069 0.236 87.908 o
-8 9 7 0.137 0.069 0.217 104.582 o
-8 9 8 2.373 2.109 0.207 99.895 o
-8 9 9 0.928 0.946 0.187 136.114 o
-8 9 10 15.029 15.008 1.064 3.489 o
-8 9 11 14.169 14.909 0.641 7.395 o
-8 9 12 1.714 1.468 0.187 128.317 o
-8 9 13 12.367 13.145 0.453 12.267 o
-8 10 1 1.275 1.350 0.296 54.959 o
-8 10 2 2.736 3.380 0.404 28.274 o
-8 10 3 14.577 14.949 0.611 7.706 o
-8 10 4 34.878 38.421 0.976 1.932 o
-8 10 5 0.620 1.163 0.335 43.497 o
-8 10 6 119.697 124.033 2.739 0.193 o
-8 10 7 6.115 6.573 0.512 15.825 o
-8 10 8 12.532 12.584 0.591 9.063 o
-8 10 9 12.375 11.391 0.572 9.746 o
-8 10 10 3.494 3.331 0.384 30.316 o
-8 10 11 3.150 3.360 0.384 30.654 o
-8 10 12 7.020 6.720 0.503 15.797 o
-8 10 13 0.421 0.434 0.305 52.565 o
-8 11 1 8.022 7.775 0.473 16.337 o
-8 11 2 1.661 1.803 0.197 115.912 o
-8 11 3 5.382 5.666 0.483 18.218 o
-8 11 4 110.065 117.017 2.582 0.222 o
-8 11 5 9.445 9.440 0.572 11.279 o
-8 11 6 2.681 2.542 0.374 33.060 o
-8 11 7 24.114 24.103 0.749 3.862 o
-8 11 8 0.335 0.128 0.305 52.641 o
-8 11 9 6.459 6.257 0.503 16.247 o
-8 11 10 20.130 19.383 0.670 5.268 o
-8 11 11 13.485 13.372 0.581 8.787 o
-8 11 12 12.391 12.229 0.562 9.795 o
-8 12 1 0.001 -0.059 0.256 74.903 o
-8 12 2 1.440 1.222 0.187 131.661 o
-8 12 3 9.440 9.499 0.512 13.209 o
-8 12 4 1.273 1.251 0.325 45.649 o
-8 12 5 0.064 -0.049 0.296 56.259 o
-8 12 6 4.669 4.227 0.473 19.764 o
-8 12 7 0.996 1.153 0.325 45.912 o
-8 12 8 0.382 0.443 0.305 52.578 o
-8 12 9 24.934 25.059 0.739 3.752 o
-8 12 10 35.186 35.268 0.887 2.132 o
-8 12 11 4.156 4.040 0.453 21.732 o
-8 13 1 2.847 2.956 0.266 60.719 o
-8 13 2 2.497 2.523 0.207 97.337 o
-8 13 3 2.033 2.188 0.207 102.123 o
-8 13 4 0.084 -0.059 0.276 64.582 o
-8 13 5 10.839 11.007 0.542 11.195 o
-8 13 6 1.713 1.596 0.335 42.501 o
-8 13 7 0.437 0.503 0.296 56.095 o
-8 13 8 3.766 3.281 0.374 31.491 o
-8 13 9 5.543 4.828 0.473 19.042 o
-8 14 1 0.130 0.049 0.158 197.688 o
-8 14 2 0.381 0.266 0.168 174.312 o
-8 14 3 0.005 -0.148 0.217 104.617 o
-8 14 4 9.352 9.874 0.503 13.517 o
-8 14 5 2.401 2.306 0.335 41.273 o
-8 14 6 2.400 2.030 0.325 43.862 o
-8 14 7 1.731 2.089 0.325 44.722 o
-8 14 8 17.100 16.959 0.611 6.739 o
-8 15 1 17.714 17.432 0.404 9.044 o
-8 15 2 2.281 2.335 0.453 23.198 o
-8 15 3 13.871 13.599 0.365 13.448 o
-8 15 4 0.878 0.916 0.286 59.500 o
-8 15 5 4.002 4.149 0.414 25.689 o
-7 0 2 28.438 29.434 0.621 3.513 o
-7 0 4 156.718 163.824 2.868 0.125 o
-7 0 6 25.055 24.448 0.572 4.538 o
-7 0 8 15.623 15.274 0.315 12.477 o
-7 0 10 31.840 31.957 0.680 2.879 o
-7 0 12 31.993 33.287 0.847 2.451 o
-7 0 14 6.968 6.740 0.453 18.647 o
-7 0 16 2.698 2.769 0.207 94.734 o
-7 0 18 24.424 26.557 1.537 1.567 o
-7 1 1 0.094 -0.020 0.227 95.709 o
-7 1 2 9.536 8.997 0.236 30.128 o
-7 1 3 189.518 198.707 2.572 0.094 o
-7 1 4 19.986 19.541 0.365 7.993 o
-7 1 5 0.381 0.394 0.118 347.112 o
-7 1 6 0.673 0.788 0.118 336.695 o
-7 1 7 13.852 13.599 0.256 16.505 o
-7 1 8 2.345 2.237 0.108 268.951 o
-7 1 9 61.512 60.336 1.035 0.871 o
-7 1 10 0.982 0.916 0.099 453.595 o
-7 1 11 46.970 47.083 0.729 1.518 o
-7 1 12 0.314 0.207 0.108 415.118 o
-7 1 13 25.689 26.537 0.749 3.544 o
-7 1 14 0.008 -0.010 0.207 114.818 o
-7 1 15 1.963 1.902 0.138 207.839 o
-7 1 16 3.710 3.725 0.276 52.847 o
-7 1 17 16.300 17.422 0.572 7.368 o
-7 1 18 2.274 2.404 0.168 141.929 o
-7 2 1 26.142 27.355 0.542 4.249 o
-7 2 2 9.291 9.420 0.236 30.221 o
-7 2 3 3.279 3.715 0.197 92.406 o
-7 2 4 0.433 0.493 0.118 345.415 o
-7 2 5 1.062 0.985 0.108 376.295 o
-7 2 6 18.607 17.836 0.296 9.834 o
-7 2 7 8.993 8.406 0.187 37.854 o
-7 2 8 46.507 45.614 0.769 1.533 o
-7 2 9 52.296 51.399 0.719 1.284 o
-7 2 10 34.296 33.543 0.434 3.057 o
-7 2 11 3.070 2.907 0.128 178.430 o
-7 2 12 14.515 14.239 0.434 11.102 o
-7 2 13 10.549 10.623 0.434 15.130 o
-7 2 14 0.040 -0.049 0.207 114.816 o
-7 2 15 0.978 1.064 0.128 278.527 o
-7 2 16 4.004 4.178 0.177 95.139 o
-7 2 17 3.931 3.656 0.168 106.600 o
-7 2 18 25.352 26.714 0.897 3.035 o
-7 3 1 5.982 6.445 0.187 60.562 o
-7 3 2 0.012 -0.069 0.227 95.718 o
-7 3 3 8.479 7.962 0.246 33.854 o
-7 3 4 128.674 133.877 2.680 0.175 o
-7 3 5 9.521 9.351 0.217 31.366 o
-7 3 6 4.228 4.198 0.168 98.611 o
-7 3 7 15.830 15.067 0.266 13.359 o
-7 3 8 22.859 21.837 0.414 6.203 o
-7 3 9 11.357 11.273 0.207 24.574 o
-7 3 10 83.304 81.927 1.094 0.512 o
-7 3 11 171.915 170.130 2.779 0.113 o
-7 3 12 0.032 0.227 0.108 418.058 o
-7 3 13 55.756 58.543 1.133 0.942 o
-7 3 14 5.551 5.725 0.207 60.423 o
-7 3 15 38.527 41.032 0.769 1.975 o
-7 3 16 2.133 2.000 0.158 162.779 o
-7 3 17 0.077 0.355 0.128 298.972 o
-7 3 18 0.387 0.394 0.158 196.327 o
-7 4 1 0.100 0.049 0.079 790.095 o
-7 4 2 10.322 10.711 0.256 24.646 o
-7 4 3 0.247 0.266 0.118 349.660 o
-7 4 4 1.262 1.409 0.158 182.336 o
-7 4 5 7.326 6.789 0.217 44.868 o
-7 4 6 17.615 17.077 0.463 8.376 o
-7 4 7 38.512 38.579 0.857 1.925 o
-7 4 8 2.552 2.601 0.118 222.812 o
-7 4 9 20.886 20.319 0.374 7.393 o
-7 4 10 44.486 44.225 0.631 1.748 o
-7 4 11 3.115 2.493 0.207 92.455 o
-7 4 12 5.241 5.262 0.236 54.828 o
-7 4 13 4.992 4.799 0.227 60.614 o
-7 4 14 54.292 57.459 0.808 1.116 o
-7 4 15 0.133 0.177 0.128 299.125 o
-7 4 16 0.370 0.572 0.138 255.204 o
-7 4 17 7.435 7.538 0.236 39.559 o
-7 4 18 10.562 10.790 0.266 23.475 o
-7 5 1 76.322 79.729 1.025 0.585 o
-7 5 2 0.286 0.256 0.099 501.527 o
-7 5 3 28.818 28.843 0.552 3.717 o
-7 5 4 0.115 0.236 0.118 350.888 o
-7 5 5 0.947 0.739 0.138 246.142 o
-7 5 6 16.994 16.151 0.335 10.818 o
-7 5 7 10.295 9.381 0.325 21.561 o
-7 5 8 18.036 16.949 0.522 7.501 o
-7 5 9 0.048 -0.020 0.236 87.906 o
-7 5 10 0.122 -0.030 0.246 81.005 o
-7 5 11 12.936 12.249 0.305 16.887 o
-7 5 12 5.053 4.927 0.227 59.860 o
-7 5 13 25.479 25.483 0.443 4.956 o
-7 5 14 24.591 25.680 0.522 4.747 o
-7 5 15 0.351 0.463 0.138 255.857 o
-7 5 16 8.351 8.327 0.256 32.578 o
-7 5 17 0.362 0.443 0.128 296.260 o
-7 5 18 9.105 9.539 0.256 28.842 o
-7 6 1 4.062 4.050 0.207 78.040 o
-7 6 2 7.143 6.711 0.236 42.405 o
-7 6 3 10.394 10.209 0.276 23.760 o
-7 6 4 36.241 35.514 0.936 1.995 o
-7 6 5 0.489 0.414 0.128 294.881 o
-7 6 6 3.494 3.242 0.197 92.616 o
-7 6 7 14.757 14.219 0.315 13.664 o
-7 6 8 7.659 7.164 0.246 37.968 o
-7 6 9 0.199 0.039 0.128 299.141 o
-7 6 10 18.369 16.279 0.838 4.535 o
-7 6 11 3.971 3.597 0.207 80.673 o
-7 6 12 6.415 6.031 0.227 49.266 o
-7 6 13 3.849 3.833 0.207 80.703 o
-7 6 14 0.270 0.207 0.128 298.234 o
-7 6 15 3.889 4.237 0.217 73.769 o
-7 6 16 0.183 0.128 0.128 299.008 o
-7 6 17 2.698 2.897 0.177 120.439 o
-7 7 1 120.842 124.989 1.606 0.235 o
-7 7 2 228.767 240.882 2.927 0.066 o
-7 7 3 80.586 81.976 1.360 0.497 o
-7 7 4 3.530 3.360 0.197 91.686 o
-7 7 5 26.757 25.749 0.601 4.041 o
-7 7 6 36.824 36.036 0.956 1.927 o
-7 7 7 0.956 0.769 0.148 215.405 o
-7 7 8 13.593 13.303 0.305 15.535 o
-7 7 9 2.401 1.931 0.227 85.450 o
-7 7 10 4.248 3.873 0.217 72.491 o
-7 7 11 38.195 37.849 0.572 2.337 o
-7 7 12 0.013 -0.079 0.207 114.818 o
-7 7 13 15.728 15.067 0.325 12.279 o
-7 7 14 2.387 2.493 0.168 139.470 o
-7 7 15 0.010 -0.020 0.217 104.617 o
-7 7 16 1.929 2.079 0.158 165.778 o
-7 7 17 0.020 -0.079 0.207 114.818 o
-7 8 1 55.366 55.784 1.035 1.015 o
-7 8 2 3.042 3.045 0.158 135.807 o
-7 8 3 0.328 0.276 0.108 414.307 o
-7 8 4 2.321 2.316 0.168 141.884 o
-7 8 5 5.181 4.838 0.227 59.367 o
-7 8 6 8.522 8.662 0.335 24.315 o
-7 8 7 31.756 31.602 0.621 3.041 o
-7 8 8 158.650 152.117 7.864 0.054 o
-7 8 9 0.682 0.493 0.168 172.325 o
-7 8 10 14.430 13.825 0.384 12.424 o
-7 8 11 8.922 8.337 0.246 31.926 o
-7 8 12 3.431 3.222 0.207 86.767 o
-7 8 13 2.855 2.739 0.177 119.395 o
-7 8 14 1.039 0.719 0.138 244.650 o
-7 8 15 42.995 44.422 0.641 1.804 o
-7 8 16 2.310 2.444 0.158 155.343 o
-7 8 17 20.973 21.846 0.660 4.967 o
-7 9 1 13.305 13.106 0.315 15.649 o
-7 9 2 46.219 46.058 0.660 1.613 o
-7 9 3 0.054 0.286 0.138 258.054 o
-7 9 4 11.243 10.573 0.443 14.233 o
-7 9 5 70.124 71.540 1.261 0.639 o
-7 9 6 34.738 31.484 0.581 2.849 o
-7 9 7 24.874 24.162 2.779 0.581 o
-7 9 8 47.931 47.802 1.468 0.990 o
-7 9 9 8.060 7.578 0.305 28.962 o
-7 9 10 31.943 30.508 0.581 3.170 o
-7 9 11 6.469 6.178 0.227 48.624 o
-7 9 12 18.555 17.875 0.345 9.267 o
-7 9 13 2.821 3.005 0.177 118.075 o
-7 9 14 18.062 17.954 0.345 9.508 o
-7 9 15 10.455 10.810 0.266 23.665 o
-7 9 16 11.264 11.184 0.266 21.801 o
-7 10 1 1.362 1.261 0.158 181.956 o
-7 10 2 8.268 7.755 0.276 31.424 o
-7 10 3 2.693 2.661 0.177 122.073 o
-7 10 4 4.252 4.050 0.503 17.943 o
-7 10 5 3.173 2.444 0.345 37.977 o
-7 10 6 3.815 2.414 0.355 35.226 o
-7 10 8 11.923 11.332 0.572 9.930 o
-7 10 9 3.632 3.380 0.374 31.591 o
-7 10 10 2.598 2.050 0.345 38.991 o
-7 10 11 0.810 0.847 0.325 46.135 o
-7 10 12 2.257 2.059 0.197 109.934 o
-7 10 13 0.115 -0.049 0.256 74.895 o
-7 10 14 0.291 0.305 0.227 95.518 o
-7 10 15 0.190 0.177 0.148 224.607 o
-7 11 1 27.136 22.694 0.907 3.019 o
-7 11 2 0.535 0.414 0.177 154.805 o
-7 11 3 3.591 3.232 0.246 65.163 o
-7 11 4 0.054 -0.118 0.286 60.207 o
-7 11 5 0.157 -0.118 0.286 60.198 o
-7 11 6 19.032 18.417 0.670 5.566 o
-7 11 7 0.409 0.069 0.296 56.192 o
-7 11 8 9.786 9.135 0.552 11.799 o
-7 11 9 2.192 1.429 0.335 42.078 o
-7 11 10 0.421 0.493 0.315 49.328 o
-7 11 11 0.382 0.434 0.305 52.580 o
-7 11 12 10.975 10.426 0.552 10.994 o
-7 11 13 4.093 4.375 0.276 50.373 o
-7 11 14 0.277 0.286 0.168 174.609 o
-7 11 15 0.855 0.759 0.296 55.732 o
-7 12 1 2.450 1.922 0.236 78.962 o
-7 12 2 0.217 0.000 0.168 175.046 o
-7 12 3 6.963 6.878 0.483 16.834 o
-7 12 4 0.272 0.148 0.286 60.160 o
-7 12 5 19.494 20.280 0.680 5.228 o
-7 12 6 13.562 13.825 0.601 8.339 o
-7 12 7 88.293 90.283 1.941 0.365 o
-7 12 8 0.728 0.670 0.315 49.144 o
-7 12 9 15.365 14.978 0.611 7.476 o
-7 12 10 0.005 -0.148 0.286 60.208 o
-7 12 11 0.006 0.049 0.286 60.208 o
-7 12 12 0.941 0.946 0.315 48.913 o
-7 12 13 3.420 3.124 0.365 33.574 o
-7 12 14 10.597 10.376 0.315 20.912 o
-7 13 1 4.651 5.006 0.276 47.277 o
-7 13 2 0.071 0.158 0.168 175.131 o
-7 13 3 12.558 12.032 0.453 12.500 o
-7 13 4 9.242 8.504 0.325 23.995 o
-7 13 5 29.317 30.006 0.828 2.802 o
-7 13 6 61.884 63.726 1.419 0.723 o
-7 13 7 0.001 -0.039 0.286 60.208 o
-7 13 8 1.577 1.636 0.345 40.277 o
-7 13 9 0.001 0.049 0.296 56.261 o
-7 13 10 23.800 23.866 0.719 4.054 o
-7 13 11 7.016 7.105 0.483 16.726 o
-7 13 12 30.340 30.153 0.788 2.818 o
-7 13 13 25.498 25.374 0.709 3.790 o
-7 14 1 9.303 8.750 0.325 23.680 o
-7 14 2 0.001 -0.030 0.236 87.908 o
-7 14 3 0.846 0.778 0.187 137.012 o
-7 14 4 6.828 6.514 0.296 34.437 o
-7 14 5 9.849 10.150 0.542 11.847 o
-7 14 6 7.488 7.597 0.503 15.273 o
-7 14 7 2.685 3.143 0.374 32.760 o
-7 14 8 0.267 0.276 0.296 56.203 o
-7 14 9 0.115 0.069 0.286 60.199 o
-7 14 10 0.072 0.148 0.286 60.199 o
-7 14 11 23.809 24.389 0.709 4.066 o
-7 14 12 15.286 15.244 0.581 7.882 o
-7 15 1 5.404 5.942 0.296 39.149 o
-7 15 2 27.563 27.237 0.552 4.004 o
-7 15 3 0.764 0.946 0.187 137.007 o
-7 15 4 1.304 1.488 0.197 119.553 o
-7 15 5 0.212 0.453 0.286 60.130 o
-7 15 6 0.263 0.493 0.286 60.104 o
-7 15 7 2.841 3.370 0.424 25.783 o
-7 15 8 0.361 0.246 0.286 60.114 o
-7 15 9 11.598 11.923 0.542 10.650 o
-7 15 10 18.460 18.053 0.621 6.170 o
-7 16 1 0.096 0.246 0.168 175.043 o
-7 16 2 1.667 1.882 0.384 32.476 o
-7 16 3 1.767 2.040 0.207 104.499 o
-7 16 4 0.291 0.207 0.168 174.679 o
-7 16 5 4.972 5.321 0.453 20.729 o
-7 16 6 2.909 3.173 0.355 35.928 o
-7 16 7 0.724 1.015 0.305 52.228 o
-7 16 8 0.027 0.039 0.276 64.584 o
-7 16 9 8.174 7.597 0.483 15.799 o
-7 17 1 0.982 1.389 0.266 67.988 o
-7 17 2 7.597 7.617 0.305 29.952 o
-7 17 3 10.615 10.731 0.345 19.055 o
-7 17 4 32.430 34.046 0.631 2.843 o
-7 17 5 2.317 2.680 0.335 41.132 o
-7 17 6 1.121 1.429 0.315 48.553 o
-7 17 7 2.278 2.759 0.345 38.949 o
-7 18 1 9.141 9.214 0.315 24.297 o
-7 18 2 12.674 13.165 0.542 9.919 o
-6 0 2 28.814 28.941 0.847 2.828 o
-6 0 4 0.129 0.207 0.128 299.076 o
-6 0 6 9.171 8.455 0.236 31.990 o
-6 0 8 78.542 75.453 0.926 0.598 o
-6 0 10 0.569 0.394 0.108 407.380 o
-6 0 12 8.781 8.800 0.286 27.893 o
-6 0 14 1.052 0.966 0.138 242.034 o
-6 0 16 4.519 4.789 0.256 53.635 o
-6 0 18 6.118 6.642 0.276 39.446 o
-6 0 20 79.265 89.800 3.301 0.255 o
-6 1 1 109.454 110.760 1.734 0.276 o
-6 1 2 7.426 7.046 0.217 43.790 o
-6 1 3 1.879 1.823 0.128 238.088 o
-6 1 4 57.295 54.788 0.818 1.075 o
-6 1 5 64.683 62.514 0.650 0.905 o
-6 1 6 14.556 13.549 0.217 16.680 o
-6 1 7 7.720 7.578 0.168 49.072 o
-6 1 8 28.392 26.616 0.325 4.671 o
-6 1 9 2.839 2.582 0.108 233.693 o
-6 1 10 1.292 1.242 0.089 498.775 o
-6 1 11 62.166 61.125 0.828 0.916 o
-6 1 12 15.080 15.008 0.236 14.735 o
-6 1 13 2.806 2.483 0.118 214.650 o
-6 1 14 96.977 96.018 1.744 0.339 o
-6 1 15 0.011 -0.059 0.197 126.587 o
-6 1 16 0.069 0.030 0.099 506.146 o
-6 1 17 24.772 25.660 0.384 5.358 o
-6 1 18 12.358 12.820 0.266 18.723 o
-6 1 19 3.705 3.951 0.168 107.736 o
-6 1 20 16.403 17.737 0.424 9.324 o
-6 2 1 88.409 88.381 0.926 0.471 o
-6 2 2 0.264 0.256 0.089 618.538 o
-6 2 3 3.079 2.670 0.158 138.623 o
-6 2 4 0.071 0.108 0.079 790.087 o
-6 2 5 123.979 119.490 1.793 0.228 o
-6 2 6 202.097 200.264 2.069 0.091 o
-6 2 7 5.649 5.380 0.148 82.328 o
-6 2 8 43.345 41.959 0.463 1.992 o
-6 2 9 4.484 4.365 0.138 113.721 o
-6 2 10 2.315 2.227 0.108 270.895 o
-6 2 11 6.329 6.415 0.158 66.101 o
-6 2 12 20.974 20.240 0.394 7.210 o
-6 2 13 20.128 19.521 0.276 8.739 o
-6 2 14 3.464 2.986 0.158 128.581 o
-6 2 15 38.070 39.722 0.532 2.329 o
-6 2 16 14.013 13.806 0.335 14.029 o
-6 2 17 2.542 2.523 0.138 182.706 o
-6 2 18 1.319 1.242 0.128 266.361 o
-6 2 19 1.010 1.064 0.118 321.831 o
-6 2 20 0.973 0.966 0.118 324.814 o
-6 3 1 473.803 497.462 5.991 0.015 o
-6 3 2 81.583 81.404 0.966 0.542 o
-6 3 3 22.784 21.235 0.315 6.954 o
-6 3 4 217.552 216.129 2.690 0.076 o
-6 3 5 41.303 39.653 0.650 2.000 o
-6 3 6 27.592 26.163 0.434 4.515 o
-6 3 7 1.382 1.478 0.089 476.639 o
-6 3 8 0.126 0.138 0.079 788.528 o
-6 3 9 38.555 37.869 0.493 2.407 o
-6 3 10 18.368 18.368 0.335 9.353 o
-6 3 11 31.036 30.508 0.443 3.606 o
-6 3 12 43.563 42.845 0.601 1.848 o
-6 3 13 24.599 23.719 0.315 5.972 o
-6 3 14 18.481 18.023 0.453 7.968 o
-6 3 15 0.000 -0.010 0.207 114.818 o
-6 3 16 0.592 0.621 0.118 340.827 o
-6 3 17 0.022 -0.079 0.207 114.817 o
-6 3 18 10.020 10.721 0.276 23.989 o
-6 3 19 0.575 0.631 0.128 291.937 o
-6 3 20 3.587 3.784 0.197 89.094 o
-6 4 1 3.389 3.173 0.148 139.174 o
-6 4 2 49.780 48.807 0.650 1.438 o
-6 4 3 7.945 7.745 0.177 45.733 o
-6 4 4 1.531 1.429 0.108 339.228 o
-6 4 5 4.009 3.587 0.158 113.835 o
-6 4 6 13.810 12.515 0.325 15.126 o
-6 4 7 32.493 32.065 0.434 3.344 o
-6 4 8 13.387 12.938 0.217 18.788 o
-6 4 9 10.217 10.031 0.187 30.461 o
-6 4 10 38.743 37.613 0.512 2.380 o
-6 4 11 64.702 65.185 1.094 0.774 o
-6 4 12 33.913 33.849 0.443 3.065 o
-6 4 13 42.133 41.348 0.621 1.941 o
-6 4 14 24.827 24.162 0.591 4.505 o
-6 4 15 3.398 3.291 0.207 86.755 o
-6 4 16 0.001 -0.030 0.217 104.617 o
-6 4 17 14.665 15.363 0.335 12.798 o
-6 4 18 2.072 2.040 0.158 163.538 o
-6 4 19 0.301 0.246 0.128 297.838 o
-6 4 20 1.221 1.074 0.158 185.254 o
-6 5 1 14.561 14.288 0.256 15.259 o
-6 5 2 43.572 43.052 0.601 1.842 o
-6 5 3 16.973 16.141 0.256 12.075 o
-6 5 4 6.069 5.213 0.197 61.592 o
-6 5 5 4.067 3.528 0.177 98.380 o
-6 5 6 59.389 56.523 0.670 1.061 o
-6 5 7 14.044 13.372 0.246 16.683 o
-6 5 8 8.470 7.844 0.197 40.146 o
-6 5 9 2.765 2.542 0.128 194.475 o
-6 5 10 82.967 82.823 1.015 0.520 o
-6 5 11 40.196 39.081 0.670 2.055 o
-6 5 12 181.535 183.620 2.464 0.105 o
-6 5 13 22.058 21.797 0.335 6.987 o
-6 5 14 11.600 11.854 0.414 14.522 o
-6 5 15 25.856 26.261 0.453 4.759 o
-6 5 16 10.288 10.800 0.286 22.794 o
-6 5 17 9.000 9.489 0.266 28.312 o
-6 5 18 0.247 0.266 0.128 298.187 o
-6 5 19 0.503 0.266 0.128 295.642 o
-6 6 1 6.138 5.558 0.158 72.136 o
-6 6 2 0.176 0.099 0.089 622.935 o
-6 6 3 0.750 0.769 0.099 472.296 o
-6 6 4 12.181 11.835 0.276 19.319 o
-6 6 5 0.173 -0.059 0.217 104.581 o
-6 6 6 0.218 0.148 0.118 350.468 o
-6 6 7 0.076 0.030 0.108 418.308 o
-6 6 8 57.483 56.050 0.956 1.004 o
-6 6 9 45.790 44.856 0.552 1.732 o
-6 6 10 48.371 46.373 0.729 1.481 o
-6 6 11 22.672 22.250 0.394 6.325 o
-6 6 12 6.412 6.188 0.227 48.884 o
-6 6 13 12.531 11.322 0.700 7.341 o
-6 6 14 24.851 25.916 0.443 5.042 o
-6 6 15 0.785 0.788 0.138 248.458 o
-6 6 16 67.850 72.496 1.695 0.560 o
-6 6 17 0.868 0.956 0.148 215.327 o
-6 6 18 0.137 -0.079 0.207 114.791 o
-6 6 19 17.969 19.058 0.355 9.145 o
-6 7 1 1.259 1.311 0.099 420.016 o
-6 7 2 120.156 121.225 1.587 0.242 o
-6 7 3 0.495 0.611 0.108 406.401 o
-6 7 4 43.980 42.698 0.808 1.651 o
-6 7 5 11.590 11.243 0.276 20.706 o
-6 7 6 9.178 8.593 0.246 30.815 o
-6 7 7 18.046 17.333 0.335 9.817 o
-6 7 8 30.455 28.922 0.384 3.945 o
-6 7 9 125.802 127.640 1.626 0.221 o
-6 7 10 61.941 59.765 0.867 0.920 o
-6 7 11 63.372 62.642 0.966 0.845 o
-6 7 12 6.228 6.031 0.187 60.264 o
-6 7 13 46.236 47.319 0.798 1.491 o
-6 7 14 29.105 28.685 0.562 3.660 o
-6 7 15 12.254 12.574 0.315 17.153 o
-6 7 16 7.171 7.844 0.256 37.066 o
-6 7 17 2.536 2.454 0.168 137.447 o
-6 7 18 7.191 7.400 0.236 40.791 o
-6 7 19 15.508 16.614 0.434 9.896 o
-6 8 1 29.834 29.188 0.404 3.971 o
-6 8 2 114.970 117.391 1.360 0.269 o
-6 8 3 0.855 1.094 0.118 326.633 o
-6 8 4 152.235 151.614 3.134 0.129 o
-6 8 5 59.284 60.514 1.301 0.812 o
-6 8 6 15.398 14.771 0.315 12.867 o
-6 8 7 1.135 1.094 0.138 239.001 o
-6 8 8 80.554 78.970 1.320 0.513 o
-6 8 9 15.386 14.584 0.256 14.222 o
-6 8 10 0.195 0.187 0.099 503.987 o
-6 8 11 3.633 3.439 0.158 121.518 o
-6 8 12 5.785 4.848 0.749 8.228 o
-6 8 13 0.211 0.217 0.128 298.603 o
-6 8 14 0.006 0.039 0.128 299.608 o
-6 8 15 3.433 3.331 0.197 92.778 o
-6 8 16 6.074 5.981 0.227 51.156 o
-6 8 17 0.399 0.453 0.128 295.768 o
-6 8 18 8.021 8.612 0.473 16.043 o
-6 9 1 39.587 39.633 0.542 2.219 o
-6 9 2 191.369 192.627 2.493 0.096 o
-6 9 3 120.368 123.925 1.567 0.239 o
-6 9 4 212.973 211.833 2.808 0.078 o
-6 9 5 23.111 21.866 0.552 5.255 o
-6 9 6 14.681 13.451 0.453 10.806 o
-6 9 7 24.846 23.206 0.572 4.682 o
-6 9 8 0.401 0.168 0.236 87.707 o
-6 9 9 4.827 4.464 0.197 74.522 o
-6 9 10 25.629 24.123 0.493 4.838 o
-6 9 11 4.541 4.326 0.246 57.734 o
-6 9 12 14.292 13.973 0.483 10.249 o
-6 9 13 12.995 13.027 0.414 12.988 o
-6 9 14 0.018 -0.049 0.207 114.818 o
-6 9 15 8.958 8.750 0.256 30.264 o
-6 9 16 0.000 -0.020 0.217 104.617 o
-6 9 17 2.288 2.562 0.168 140.485 o
-6 9 18 3.517 3.626 0.227 73.558 o
-6 10 1 4.781 4.493 0.227 62.825 o
-6 10 2 2.971 2.868 0.187 107.775 o
-6 10 3 75.044 74.487 1.232 0.586 o
-6 10 4 14.114 13.500 0.315 14.612 o
-6 10 5 3.343 3.163 0.276 55.036 o
-6 10 6 3.371 2.868 0.266 58.984 o
-6 10 7 6.430 5.715 0.355 28.449 o
-6 10 8 15.988 15.057 0.473 9.367 o
-6 10 9 71.580 67.786 2.700 0.368 o
-6 10 10 1.675 1.163 0.158 177.939 o
-6 10 11 7.800 7.834 0.729 8.107 o
-6 10 12 0.341 0.325 0.168 174.348 o
-6 10 13 2.210 2.128 0.207 101.042 o
-6 10 14 0.123 0.059 0.128 299.382 o
-6 10 15 1.786 1.685 0.148 191.981 o
-6 10 16 4.950 5.341 0.266 48.008 o
-6 10 17 5.458 6.011 0.532 15.262 o
-6 11 1 14.768 14.811 0.325 13.164 o
-6 11 2 11.754 11.381 0.296 19.424 o
-6 11 3 3.964 3.656 0.207 80.481 o
-6 11 4 9.781 9.834 0.286 24.669 o
-6 11 5 17.984 17.067 0.503 7.737 o
-6 11 6 32.110 32.262 0.700 2.799 o
-6 11 7 14.573 14.338 0.473 10.219 o
-6 11 8 30.789 29.493 0.907 2.520 o
-6 11 9 4.257 3.656 0.453 21.791 o
-6 11 10 0.015 -0.079 0.276 64.585 o
-6 11 11 37.408 36.834 1.882 0.938 o
-6 11 12 6.396 6.080 0.286 37.778 o
-6 11 13 1.073 1.173 0.187 134.507 o
-6 11 14 4.357 4.089 0.473 19.983 o
-6 11 15 1.483 1.449 0.187 130.394 o
-6 11 16 30.497 31.868 0.778 2.762 o
-6 11 17 1.582 1.715 0.296 54.249 o
-6 12 1 0.188 0.246 0.138 257.626 o
-6 12 2 0.763 1.005 0.148 216.411 o
-6 12 3 15.839 15.146 0.335 11.970 o
-6 12 4 2.234 2.247 0.177 130.763 o
-6 12 5 10.319 9.884 0.414 16.492 o
-6 12 6 21.339 20.092 0.690 4.857 o
-6 12 7 6.281 4.622 1.123 3.776 o
-6 12 8 0.523 0.177 0.276 64.413 o
-6 12 9 0.523 0.335 0.286 60.017 o
-6 12 10 0.024 0.325 0.296 56.249 o
-6 12 11 1.430 1.518 0.187 130.543 o
-6 12 12 0.439 0.286 0.158 196.335 o
-6 12 13 0.063 0.059 0.158 197.755 o
-6 12 14 0.872 0.798 0.168 169.881 o
-6 12 15 5.402 5.499 0.315 36.254 o
-6 12 16 1.997 1.931 0.296 53.344 o
-6 13 1 4.928 4.888 0.227 60.728 o
-6 13 2 0.186 0.187 0.138 257.765 o
-6 13 3 55.264 55.242 0.887 1.086 o
-6 13 4 1.593 1.281 0.197 118.314 o
-6 13 5 1.558 1.508 0.315 48.042 o
-6 13 6 0.052 0.187 0.286 60.199 o
-6 13 7 0.101 -0.039 0.276 64.581 o
-6 13 8 24.989 24.083 0.719 3.889 o
-6 13 9 6.465 5.686 0.463 18.789 o
-6 13 10 1.945 1.675 0.325 44.713 o
-6 13 11 29.786 28.242 0.769 2.997 o
-6 13 12 7.057 6.474 0.276 36.736 o
-6 13 13 0.076 0.158 0.148 224.909 o
-6 13 14 8.971 9.145 0.305 25.449 o
-6 13 15 1.410 1.399 0.276 62.593 o
-6 14 1 10.957 10.544 0.512 12.111 o
-6 14 2 4.081 3.469 0.217 75.160 o
-6 14 3 6.740 6.632 0.246 42.473 o
-6 14 4 1.457 1.202 0.158 180.993 o
-6 14 5 23.264 22.615 0.493 5.502 o
-6 14 6 2.806 2.513 0.345 38.431 o
-6 14 7 12.335 11.933 0.562 9.875 o
-6 14 8 71.536 70.309 1.518 0.578 o
-6 14 9 33.194 32.173 0.838 2.429 o
-6 14 10 7.201 7.223 0.483 16.565 o
-6 14 11 0.360 0.217 0.286 60.120 o
-6 14 12 20.009 19.787 0.641 5.480 o
-6 14 13 0.085 0.030 0.148 224.987 o
-6 14 14 0.009 -0.197 0.197 126.587 o
-6 15 1 25.346 25.571 0.838 3.292 o
-6 15 2 12.513 12.978 0.315 16.607 o
-6 15 3 4.561 3.853 0.217 70.320 o
-6 15 4 3.797 3.390 0.197 88.960 o
-6 15 5 0.915 0.857 0.148 215.347 o
-6 15 6 1.459 1.133 0.187 131.855 o
-6 15 7 39.887 41.633 2.188 0.724 o
-6 15 8 15.492 16.535 1.340 2.337 o
-6 15 9 1.619 1.764 0.335 42.512 o
-6 15 10 0.004 -0.187 0.276 64.585 o
-6 15 11 10.145 9.953 0.512 12.702 o
-6 15 12 0.406 0.503 0.286 60.035 o
-6 15 13 13.299 13.204 0.345 14.692 o
-6 16 1 3.366 3.380 0.197 93.184 o
-6 16 2 0.082 0.128 0.138 258.184 o
-6 16 3 3.110 2.897 0.187 106.028 o
-6 16 4 0.414 0.483 0.138 255.200 o
-6 16 5 17.295 16.929 0.355 10.092 o
-6 16 6 3.476 3.331 0.246 65.483 o
-6 16 7 9.665 10.386 0.581 10.730 o
-6 16 8 0.019 0.138 0.168 175.181 o
-6 16 9 0.599 0.690 0.177 153.908 o
-6 16 10 0.689 0.690 0.177 153.439 o
-6 16 11 0.985 0.946 0.286 59.367 o
-6 16 12 0.022 -0.089 0.266 69.458 o
-6 17 1 0.058 -0.089 0.227 95.715 o
-6 17 2 0.984 0.907 0.148 214.016 o
-6 17 3 0.028 -0.148 0.227 95.717 o
-6 17 4 3.555 3.498 0.217 78.896 o
-6 17 5 9.875 10.830 0.286 23.529 o
-6 17 6 3.456 3.685 0.266 57.120 o
-6 17 7 0.345 0.434 0.177 155.430 o
-6 17 8 9.417 10.199 0.355 20.436 o
-6 17 9 0.098 0.069 0.246 81.003 o
-6 17 10 5.988 5.903 0.286 39.279 o
-6 18 1 1.104 1.182 0.158 186.075 o
-6 18 2 0.209 0.168 0.138 257.710 o
-6 18 3 0.825 0.709 0.148 217.494 o
-6 18 4 1.213 0.916 0.148 210.404 o
-6 18 5 0.582 0.828 0.177 153.645 o
-6 18 6 53.081 57.764 2.838 0.420 o
-6 18 7 5.884 6.405 0.305 35.557 o
-6 18 8 26.303 28.695 0.907 2.856 o
-6 19 1 0.042 -0.158 0.217 104.615 o
-6 19 2 0.027 -0.148 0.217 104.616 o
-6 19 3 0.004 -0.059 0.246 81.016 o
-6 19 4 32.343 33.740 0.522 3.089 o
-6 19 5 14.168 14.840 0.325 13.675 o
-6 19 6 10.100 11.056 0.522 12.117 o
-5 0 2 675.360 717.020 10.130 0.007 o
-5 0 4 133.788 134.133 1.715 0.197 o
-5 0 6 141.819 138.420 1.912 0.176 o
-5 0 8 290.028 285.827 3.449 0.043 o
-5 0 10 35.721 34.873 0.788 2.276 o
-5 0 12 6.522 6.435 0.217 49.838 o
-5 0 14 10.752 10.593 0.266 23.297 o
-5 0 16 158.834 164.277 2.562 0.129 o
-5 0 18 17.706 18.407 0.424 8.567 o
-5 0 20 27.499 29.375 0.562 3.827 o
-5 1 1 60.129 59.942 0.838 0.960 o
-5 1 2 735.933 780.411 8.947 0.006 o
-5 1 3 272.604 284.014 2.868 0.048 o
-5 1 4 143.145 142.411 1.478 0.181 o
-5 1 5 171.029 170.042 1.764 0.127 o
-5 1 6 5.100 4.897 0.197 70.370 o
-5 1 7 0.379 0.207 0.099 499.815 o
-5 1 8 19.384 17.747 0.266 9.724 o
-5 1 9 4.933 4.986 0.138 100.203 o
-5 1 10 98.574 96.560 0.946 0.389 o
-5 1 11 3.751 3.547 0.128 148.846 o
-5 1 12 27.902 27.621 0.335 4.639 o
-5 1 13 0.000 -0.010 0.207 114.818 o
-5 1 14 2.961 2.749 0.118 203.024 o
-5 1 15 20.380 20.388 0.286 8.323 o
-5 1 16 7.423 6.711 0.187 50.007 o
-5 1 17 8.279 8.297 0.217 37.503 o
-5 1 18 1.658 1.409 0.128 252.785 o
-5 1 19 15.979 16.791 0.296 11.964 o
-5 1 20 1.720 2.050 0.158 169.768 o
-5 1 21 1.246 1.173 0.148 207.668 o
-5 2 1 137.216 140.066 1.508 0.192 o
-5 2 2 1.873 2.000 0.128 235.187 o
-5 2 3 103.493 106.493 1.064 0.339 o
-5 2 4 141.639 143.712 1.498 0.182 o
-5 2 5 5.915 5.676 0.187 64.036 o
-5 2 6 1.899 1.912 0.128 235.830 o
-5 2 7 34.573 32.410 0.493 2.985 o
-5 2 8 2.138 2.040 0.108 286.216 o
-5 2 9 36.563 34.893 0.463 2.727 o
-5 2 10 0.736 0.463 0.079 731.136 o
-5 2 11 0.468 0.453 0.079 759.043 o
-5 2 12 0.855 0.926 0.089 558.019 o
-5 2 13 5.978 5.479 0.168 70.800 o
-5 2 14 34.624 34.864 0.404 3.000 o
-5 2 15 1.158 1.123 0.099 434.314 o
-5 2 16 2.361 2.030 0.138 194.820 o
-5 2 17 8.346 8.455 0.217 36.942 o
-5 2 18 5.071 5.341 0.187 72.635 o
-5 2 19 12.645 13.234 0.266 18.021 o
-5 2 20 2.224 2.454 0.158 156.859 o
-5 2 21 16.664 17.826 0.522 7.817 o
-5 3 1 39.109 37.830 0.503 2.357 o
-5 3 2 0.015 0.010 0.079 791.140 o
-5 3 3 54.232 51.763 0.611 1.271 o
-5 3 4 5.508 5.085 0.177 73.654 o
-5 3 5 2.427 2.197 0.128 212.111 o
-5 3 6 2.464 2.276 0.138 188.393 o
-5 3 7 94.304 88.746 1.114 0.420 o
-5 3 8 0.083 0.049 0.069 1032.010 o
-5 3 9 46.713 45.526 0.512 1.701 o
-5 3 10 0.667 0.631 0.079 729.444 o
-5 3 11 10.977 10.248 0.187 27.900 o
-5 3 12 65.591 65.618 0.759 0.841 o
-5 3 13 16.643 16.683 0.246 12.272 o
-5 3 14 1.740 1.636 0.099 370.391 o
-5 3 15 49.522 51.054 0.562 1.453 o
-5 3 16 12.630 11.825 0.345 16.058 o
-5 3 17 0.196 0.069 0.099 504.848 o
-5 3 18 4.822 4.622 0.177 83.094 o
-5 3 19 0.250 0.138 0.148 224.476 o
-5 3 20 0.309 0.296 0.148 223.880 o
-5 3 21 0.000 0.020 0.138 258.340 o
-5 4 1 20.257 21.728 0.335 7.686 o
-5 4 2 0.467 0.374 0.089 607.143 o
-5 4 3 0.233 0.434 0.108 414.579 o
-5 4 4 6.913 6.918 0.197 50.466 o
-5 4 5 1.087 1.202 0.108 369.666 o
-5 4 6 24.757 23.246 0.374 5.711 o
-5 4 7 214.628 211.094 2.286 0.081 o
-5 4 8 150.183 146.579 1.478 0.167 o
-5 4 9 11.315 10.987 0.217 24.479 o
-5 4 10 25.352 24.103 0.355 5.538 o
-5 4 11 110.845 109.961 1.143 0.302 o
-5 4 12 1.405 1.350 0.108 348.570 o
-5 4 13 25.438 25.355 0.365 5.321 o
-5 4 14 36.568 35.928 0.542 2.570 o
-5 4 15 0.939 0.749 0.108 387.470 o
-5 4 16 29.349 30.331 0.778 2.918 o
-5 4 17 19.428 19.954 0.374 8.046 o
-5 4 18 13.589 13.756 0.305 15.296 o
-5 4 19 4.182 4.365 0.246 59.417 o
-5 4 20 0.412 0.374 0.148 223.045 o
-5 4 21 4.103 3.991 0.266 54.005 o
-5 5 1 8.243 7.469 0.187 43.439 o
-5 5 2 149.330 152.432 1.734 0.160 o
-5 5 3 0.490 0.512 0.099 491.030 o
-5 5 4 53.543 49.526 0.631 1.316 o
-5 5 5 71.212 67.540 0.788 0.742 o
-5 5 6 110.819 107.971 1.143 0.305 o
-5 5 7 36.860 35.238 0.424 2.738 o
-5 5 8 2.182 1.872 0.108 288.483 o
-5 5 9 9.620 8.790 0.207 32.825 o
-5 5 10 26.327 25.315 0.414 4.922 o
-5 5 11 82.529 81.326 0.897 0.542 o
-5 5 12 65.764 65.470 0.818 0.826 o
-5 5 13 256.203 265.301 3.242 0.053 o
-5 5 14 19.940 19.196 0.305 8.649 o
-5 5 15 78.206 79.522 0.976 0.576 o
-5 5 16 10.873 11.175 0.345 18.449 o
-5 5 17 1.530 1.715 0.158 175.842 o
-5 5 18 4.435 4.434 0.256 54.791 o
-5 5 19 3.381 3.203 0.227 75.778 o
-5 5 20 10.784 11.519 0.325 19.296 o
-5 5 21 6.301 6.326 0.256 42.972 o
-5 6 1 45.904 46.127 0.700 1.596 o
-5 6 2 0.014 -0.030 0.266 69.458 o
-5 6 3 0.628 0.552 0.128 291.704 o
-5 6 4 28.052 26.438 0.473 4.270 o
-5 6 5 63.082 58.504 0.877 0.908 o
-5 6 6 18.269 17.412 0.266 10.527 o
-5 6 7 8.142 7.085 0.177 46.464 o
-5 6 8 38.748 37.682 0.453 2.444 o
-5 6 9 73.182 70.959 0.956 0.670 o
-5 6 10 141.229 141.199 1.606 0.182 o
-5 6 11 22.984 22.122 0.443 5.939 o
-5 6 12 157.125 159.163 1.941 0.143 o
-5 6 13 3.308 3.577 0.158 126.051 o
-5 6 14 0.398 0.374 0.099 496.812 o
-5 6 15 86.200 78.379 2.365 0.347 o
-5 6 16 4.988 4.927 0.227 60.248 o
-5 6 17 5.613 5.893 0.236 51.309 o
-5 6 18 9.969 10.445 0.335 20.664 o
-5 6 19 2.938 2.966 0.217 85.299 o
-5 6 20 8.479 8.800 0.296 27.666 o
-5 6 21 3.906 3.656 0.345 35.926 o
-5 7 1 16.948 16.476 0.315 11.052 o
-5 7 2 3.516 3.784 0.177 103.759 o
-5 7 3 151.524 149.555 2.503 0.144 o
-5 7 4 10.694 10.573 0.276 22.847 o
-5 7 5 58.890 54.986 0.926 0.999 o
-5 7 6 2.337 2.128 0.138 194.090 o
-5 7 7 14.388 13.470 0.236 16.449 o
-5 7 8 0.870 0.966 0.099 459.237 o
-5 7 9 13.408 12.613 0.236 18.375 o
-5 7 10 9.628 8.819 0.276 26.803 o
-5 7 11 6.891 6.336 0.187 54.534 o
-5 7 12 23.190 22.201 0.404 6.119 o
-5 7 13 54.242 54.118 0.828 1.147 o
-5 7 14 83.296 84.804 1.173 0.493 o
-5 7 15 27.688 27.690 0.729 3.342 o
-5 7 16 0.027 -0.148 0.207 114.817 o
-5 7 17 8.547 8.938 0.305 26.495 o
-5 7 18 9.570 10.169 0.325 22.077 o
-5 7 19 9.461 10.751 0.325 21.793 o
-5 7 20 2.331 2.345 0.187 117.795 o
-5 8 1 0.251 0.246 0.099 502.406 o
-5 8 2 0.889 0.759 0.108 389.422 o
-5 8 3 9.721 9.598 0.236 28.796 o
-5 8 4 82.639 79.778 1.232 0.507 o
-5 8 5 15.514 15.047 0.384 11.258 o
-5 8 6 40.487 38.165 0.749 1.972 o
-5 8 7 5.026 4.237 0.158 93.377 o
-5 8 8 4.803 4.375 0.168 89.921 o
-5 8 9 8.440 8.011 0.197 39.910 o
-5 8 10 3.468 3.390 0.148 135.199 o
-5 8 11 58.994 58.395 0.769 1.019 o
-5 8 12 0.872 0.847 0.108 388.249 o
-5 8 13 0.147 0.059 0.099 505.460 o
-5 8 14 1.631 1.360 0.128 254.509 o
-5 8 15 0.847 0.690 0.138 248.256 o
-5 8 16 8.851 8.879 0.256 30.382 o
-5 8 17 12.766 13.185 0.365 14.589 o
-5 8 18 17.218 18.388 0.424 8.789 o
-5 8 19 9.901 10.997 0.542 11.627 o
-5 8 20 25.078 27.601 0.552 4.360 o
-5 9 1 0.738 0.818 0.099 471.583 o
-5 9 2 5.352 4.415 0.217 62.939 o
-5 9 3 77.951 77.709 0.976 0.587 o
-5 9 4 43.468 42.904 0.601 1.851 o
-5 9 5 98.455 84.134 14.682 0.022 o
-5 9 6 12.165 11.628 0.404 14.493 o
-5 9 7 0.144 0.020 0.108 418.011 o
-5 9 8 0.111 0.069 0.118 351.342 o
-5 9 9 1.844 1.764 0.118 272.694 o
-5 9 10 61.054 59.765 0.828 0.948 o
-5 9 11 5.111 4.681 0.168 84.342 o
-5 9 12 24.295 23.699 0.424 5.518 o
-5 9 13 10.053 9.647 0.236 27.864 o
-5 9 14 15.918 15.392 0.325 12.009 o
-5 9 15 0.641 0.522 0.138 252.461 o
-5 9 16 19.287 20.151 0.493 6.903 o
-5 9 17 13.495 13.934 0.365 13.622 o
-5 9 18 0.378 0.424 0.158 196.295 o
-5 9 19 0.033 0.099 0.148 225.006 o
-5 10 1 0.006 -0.039 0.217 104.617 o
-5 10 2 1.233 1.025 0.108 366.696 o
-5 10 3 102.256 103.014 1.537 0.323 o
-5 10 4 61.041 62.238 0.749 0.948 o
-5 10 5 112.159 111.853 1.360 0.285 o
-5 10 6 278.842 277.855 4.267 0.043 o
-5 10 7 10.854 10.337 0.453 14.241 o
-5 10 8 48.918 46.817 0.985 1.287 o
-5 10 9 5.285 5.104 0.217 61.121 o
-5 10 10 30.365 29.109 0.483 3.691 o
-5 10 11 0.739 0.650 0.128 288.765 o
-5 10 12 0.817 0.680 0.138 248.803 o
-5 10 13 0.484 0.315 0.168 173.820 o
-5 10 14 0.240 0.227 0.128 298.378 o
-5 10 15 8.765 9.026 0.256 30.416 o
-5 10 16 2.267 2.247 0.207 100.174 o
-5 10 17 8.422 9.085 0.305 26.598 o
-5 10 18 15.263 16.092 0.394 10.896 o
-5 10 19 9.149 10.130 0.315 23.473 o
-5 11 1 42.778 41.515 0.621 1.903 o
-5 11 2 4.219 4.415 0.187 85.446 o
-5 11 3 1.390 1.301 0.118 302.586 o
-5 11 4 167.545 172.712 2.375 0.121 o
-5 11 5 71.847 71.777 1.242 0.625 o
-5 11 6 134.239 135.897 2.631 0.168 o
-5 11 7 6.974 6.740 0.246 41.331 o
-5 11 8 0.707 0.394 0.099 484.165 o
-5 11 9 42.245 40.362 0.877 1.700 o
-5 11 10 0.000 -0.039 0.227 95.718 o
-5 11 11 2.405 2.119 0.138 192.307 o
-5 11 12 3.320 2.887 0.305 46.528 o
-5 11 13 65.161 68.338 0.936 0.787 o
-5 11 14 0.067 0.049 0.138 258.279 o
-5 11 15 8.515 8.721 0.473 15.659 o
-5 11 16 6.149 6.238 0.434 20.944 o
-5 11 17 0.095 0.020 0.236 87.898 o
-5 11 18 0.175 0.108 0.246 80.978 o
-5 12 1 23.581 23.058 0.394 5.947 o
-5 12 2 36.531 35.445 0.759 2.257 o
-5 12 3 7.955 7.657 0.217 40.101 o
-5 12 4 13.645 12.781 0.256 17.297 o
-5 12 5 22.352 22.290 0.414 6.285 o
-5 12 6 75.211 76.852 1.468 0.535 o
-5 12 7 5.628 5.380 0.227 55.214 o
-5 12 8 4.269 3.942 0.207 76.793 o
-5 12 9 43.057 42.501 0.690 1.802 o
-5 12 10 2.779 2.444 0.138 177.186 o
-5 12 11 26.189 24.674 0.700 3.789 o
-5 12 12 5.957 5.883 0.443 20.508 o
-5 12 13 17.886 18.279 0.522 7.333 o
-5 12 14 7.467 7.499 0.296 31.537 o
-5 12 15 4.295 4.178 0.266 52.877 o
-5 12 16 0.149 0.158 0.236 87.863 o
-5 12 17 2.310 2.306 0.305 49.244 o
-5 12 18 9.892 10.672 0.493 13.323 o
-5 13 1 24.478 24.113 0.503 5.020 o
-5 13 2 52.759 52.059 0.946 1.150 o
-5 13 3 3.783 3.626 0.168 108.980 o
-5 13 4 1.684 1.606 0.128 248.575 o
-5 13 5 0.668 0.562 0.108 401.719 o
-5 13 6 7.143 6.898 0.246 40.372 o
-5 13 7 4.035 4.188 0.217 72.892 o
-5 13 8 42.782 43.575 1.192 1.332 o
-5 13 9 0.026 -0.049 0.217 104.617 o
-5 13 10 1.631 1.616 0.148 195.990 o
-5 13 11 1.006 1.035 0.148 212.741 o
-5 13 12 8.084 8.277 0.305 28.147 o
-5 13 13 0.273 0.296 0.128 297.863 o
-5 13 14 0.263 0.108 0.236 87.822 o
-5 13 15 0.007 0.030 0.197 126.586 o
-5 13 16 0.166 0.079 0.148 224.808 o
-5 13 17 2.563 2.572 0.315 45.737 o
-5 14 1 0.856 0.650 0.099 469.581 o
-5 14 2 4.416 4.237 0.177 89.861 o
-5 14 3 0.372 0.227 0.108 413.948 o
-5 14 4 0.117 0.197 0.108 417.567 o
-5 14 5 3.895 4.149 0.177 96.662 o
-5 14 6 17.166 16.712 0.394 9.639 o
-5 14 7 5.666 5.026 0.305 37.895 o
-5 14 8 4.478 3.981 0.424 24.301 o
-5 14 9 8.455 8.790 0.493 14.779 o
-5 14 10 1.132 1.084 0.148 210.352 o
-5 14 11 6.223 6.090 0.256 43.737 o
-5 14 12 2.539 2.690 0.168 135.525 o
-5 14 13 0.124 -0.020 0.207 114.796 o
-5 14 14 2.990 3.084 0.217 84.502 o
-5 14 15 0.001 -0.069 0.227 95.718 o
-5 14 16 12.187 11.795 0.611 8.917 o
-5 15 1 3.398 3.350 0.148 137.098 o
-5 15 2 22.023 21.906 0.581 5.286 o
-5 15 3 8.294 7.686 0.207 39.958 o
-5 15 4 4.861 4.750 0.207 68.923 o
-5 15 5 16.357 14.456 0.611 7.271 o
-5 15 6 0.172 0.177 0.227 95.649 o
-5 15 7 2.867 2.621 0.217 87.018 o
-5 15 8 3.972 3.853 0.335 37.476 o
-5 15 9 17.790 18.378 1.350 2.216 o
-5 15 10 2.139 2.217 0.217 93.225 o
-5 15 11 18.770 19.146 0.512 7.023 o
-5 15 12 20.281 21.768 0.946 3.453 o
-5 15 13 1.937 2.000 0.187 123.685 o
-5 15 14 3.660 4.050 0.246 62.801 o
-5 15 15 2.864 2.907 0.355 36.154 o
-5 16 1 3.361 2.779 0.207 89.213 o
-5 16 2 13.007 13.057 0.443 12.156 o
-5 16 3 2.571 2.513 0.177 124.665 o
-5 16 4 19.169 18.900 0.414 7.965 o
-5 16 5 5.926 6.041 0.246 47.150 o
-5 16 6 3.161 2.937 0.187 105.234 o
-5 16 7 5.366 5.627 0.296 39.709 o
-5 16 8 31.017 33.602 2.286 0.760 o
-5 16 9 127.110 140.627 8.967 0.048 o
-5 16 10 29.039 30.942 1.705 1.234 o
-5 16 11 21.074 21.768 0.512 6.005 o
-5 16 12 2.659 2.769 0.217 87.955 o
-5 16 13 11.756 12.692 0.542 10.413 o
-5 16 14 12.515 13.332 0.355 15.072 o
-5 17 1 19.417 19.294 0.709 5.104 o
-5 17 2 13.227 12.978 0.611 8.405 o
-5 17 3 3.491 3.853 0.227 73.002 o
-5 17 4 9.535 9.243 0.276 26.539 o
-5 17 5 0.002 -0.187 0.335 43.802 o
-5 17 6 9.333 9.243 0.276 26.990 o
-5 17 7 1.667 1.567 0.266 66.392 o
-5 17 8 24.114 26.902 0.778 3.577 o
-5 17 9 5.453 5.745 0.315 35.843 o
-5 17 10 32.215 34.006 0.926 2.258 o
-5 17 11 15.079 16.151 0.621 7.259 o
-5 17 12 6.927 7.302 0.532 14.290 o
-5 17 13 0.045 -0.059 0.197 126.583 o
-5 18 1 11.248 11.204 0.601 9.530 o
-5 18 2 0.683 0.611 0.148 219.692 o
-5 18 3 4.486 4.385 0.227 64.990 o
-5 18 4 0.134 0.079 0.138 258.119 o
-5 18 5 0.003 -0.118 0.227 95.718 o
-5 18 6 0.562 0.286 0.148 222.293 o
-5 18 7 27.622 29.858 1.035 2.391 o
-5 18 8 0.684 0.384 0.177 154.230 o
-5 18 9 0.447 0.384 0.168 173.830 o
-5 18 10 5.693 6.188 0.463 19.165 o
-5 18 11 0.039 -0.168 0.246 81.015 o
-5 19 1 4.398 4.415 0.286 46.639 o
-5 19 2 34.893 33.464 1.173 1.740 o
-5 19 3 0.721 0.719 0.148 218.681 o
-5 19 4 0.185 -0.049 0.227 95.683 o
-5 19 5 0.612 0.532 0.148 220.805 o
-5 19 6 0.911 1.074 0.187 135.835 o
-5 19 7 1.350 1.409 0.296 54.819 o
-5 19 8 0.927 0.828 0.177 151.566 o
-5 19 9 0.268 0.355 0.158 196.937 o
-5 19 10 0.350 0.089 0.256 74.807 o
-5 20 1 56.300 60.878 1.104 0.925 o
-5 20 2 1.269 1.360 0.158 182.605 o
-5 20 3 0.130 -0.039 0.227 95.701 o
-5 20 4 0.196 0.325 0.138 257.395 o
-5 20 5 2.238 2.326 0.168 143.093 o
-5 20 6 0.197 0.187 0.138 257.719 o
-5 20 7 26.898 28.981 1.971 1.021 o
-5 21 1 0.488 0.325 0.128 295.459 o
-5 21 2 2.296 2.375 0.168 141.807 o
-5 21 3 0.007 -0.197 0.256 74.903 o
-5 21 4 2.119 1.843 0.315 47.065 o
-4 0 2 830.855 874.951 11.509 0.005 o
-4 0 4 505.847 513.574 7.519 0.013 o
-4 0 6 786.574 819.029 13.323 0.005 o
-4 0 8 123.074 119.352 2.335 0.208 o
-4 0 10 0.036 -0.020 0.256 74.903 o
-4 0 12 8.506 8.297 0.227 35.479 o
-4 0 14 19.508 19.728 0.355 8.254 o
-4 0 16 22.335 21.984 0.384 6.533 o
-4 0 18 0.039 -0.010 0.197 126.584 o
-4 0 20 6.146 6.927 0.414 22.190 o
-4 0 22 6.198 6.730 0.404 23.079 o
-4 1 1 1.916 2.040 0.099 341.325 o
-4 1 2 8.558 7.292 0.158 46.400 o
-4 1 3 38.959 37.485 0.424 2.467 o
-4 1 4 1431.850 1456.560 22.004 0.002 o
-4 1 5 412.441 412.205 4.178 0.022 o
-4 1 6 36.336 32.440 0.522 2.767 o
-4 1 7 9.216 8.869 0.207 34.074 o
-4 1 8 91.205 86.883 1.360 0.419 o
-4 1 9 0.167 0.197 0.089 622.077 o
-4 1 10 1.183 0.907 0.079 640.810 o
-4 1 11 124.066 125.698 1.320 0.237 o
-4 1 12 14.417 13.510 0.217 16.890 o
-4 1 13 63.905 63.795 0.650 0.907 o
-4 1 14 2.286 2.266 0.108 271.422 o
-4 1 15 0.267 0.108 0.069 1021.320 o
-4 1 16 12.092 12.377 0.217 21.472 o
-4 1 17 13.943 14.190 0.227 16.816 o
-4 1 18 5.113 4.779 0.256 51.060 o
-4 1 19 12.547 13.332 0.305 16.704 o
-4 1 20 9.970 10.396 0.572 10.879 o
-4 1 21 0.115 0.148 0.138 258.078 o
-4 1 22 0.708 0.709 0.138 250.247 o
-4 2 1 51.288 51.044 0.621 1.366 o
-4 2 2 19.653 18.851 0.345 8.486 o
-4 2 3 196.051 203.516 2.059 0.094 o
-4 2 4 25.789 22.714 0.345 5.649 o
-4 2 5 28.616 27.867 0.394 4.308 o
-4 2 6 59.204 56.119 0.749 1.044 o
-4 2 7 29.031 27.049 0.512 3.937 o
-4 2 8 76.297 74.467 1.054 0.605 o
-4 2 9 4.429 5.006 0.177 85.318 o
-4 2 10 174.968 167.342 1.784 0.124 o
-4 2 11 22.782 22.349 0.296 6.873 o
-4 2 12 23.473 22.132 0.286 6.723 o
-4 2 13 13.024 12.840 0.217 19.442 o
-4 2 14 6.974 6.504 0.158 60.101 o
-4 2 15 18.597 18.703 0.286 9.697 o
-4 2 16 13.274 12.938 0.217 18.964 o
-4 2 17 88.478 93.840 0.976 0.450 o
-4 2 18 31.779 32.637 0.512 3.230 o
-4 2 19 0.118 0.246 0.118 350.837 o
-4 2 20 12.321 13.126 0.355 15.363 o
-4 2 21 1.542 1.734 0.168 157.473 o
-4 2 22 14.907 15.865 0.374 11.588 o
-4 3 1 135.201 134.321 1.281 0.205 o
-4 3 2 7.260 6.937 0.148 58.169 o
-4 3 3 162.995 167.204 1.793 0.135 o
-4 3 4 26.944 26.764 0.335 4.927 o
-4 3 5 27.308 24.812 0.365 4.957 o
-4 3 6 67.515 64.101 0.838 0.806 o
-4 3 7 41.480 41.111 0.660 1.942 o
-4 3 8 0.203 0.128 0.089 622.045 o
-4 3 9 0.828 0.798 0.099 466.933 o
-4 3 10 0.312 0.355 0.069 1005.800 o
-4 3 11 5.654 4.819 0.138 90.309 o
-4 3 12 3.082 2.996 0.128 176.663 o
-4 3 13 228.031 232.211 2.424 0.070 o
-4 3 14 113.918 117.825 1.242 0.276 o
-4 3 15 17.152 16.998 0.266 11.458 o
-4 3 16 11.529 11.608 0.207 23.817 o
-4 3 17 3.245 3.262 0.158 130.059 o
-4 3 18 37.134 39.190 0.729 2.152 o
-4 3 19 0.108 0.089 0.118 351.313 o
-4 3 20 9.323 9.608 0.315 23.626 o
-4 3 21 25.085 26.507 0.719 3.731 o
-4 3 22 0.706 0.729 0.246 80.192 o
-4 4 1 1.385 1.853 0.128 254.512 o
-4 4 2 15.153 14.150 0.207 15.764 o
-4 4 3 61.039 62.110 0.749 0.949 o
-4 4 4 11.791 12.130 0.207 22.714 o
-4 4 5 9.084 8.652 0.197 35.947 o
-4 4 6 7.897 6.622 0.187 47.520 o
-4 4 7 68.110 64.170 0.877 0.788 o
-4 4 8 27.044 24.901 0.443 4.700 o
-4 4 9 37.050 35.652 0.542 2.543 o
-4 4 10 2.566 2.217 0.108 257.413 o
-4 4 11 129.264 126.378 1.527 0.218 o
-4 4 12 61.868 60.888 0.660 0.969 o
-4 4 13 12.419 11.549 0.217 21.635 o
-4 4 14 89.348 89.416 0.985 0.457 o
-4 4 15 1.609 1.862 0.118 281.009 o
-4 4 16 32.525 33.139 0.434 3.277 o
-4 4 17 3.444 2.848 0.266 58.747 o
-4 4 18 32.686 33.740 0.621 2.854 o
-4 4 19 1.889 1.991 0.197 113.361 o
-4 4 20 1.775 2.138 0.187 124.600 o
-4 4 21 1.820 1.991 0.296 53.612 o
-4 4 22 1.821 1.527 0.276 61.639 o
-4 5 1 281.411 285.817 3.193 0.045 o
-4 5 2 0.195 0.089 0.059 1394.100 o
-4 5 3 55.837 54.118 0.621 1.191 o
-4 5 4 37.126 31.760 0.374 2.944 o
-4 5 5 12.887 12.268 0.227 19.794 o
-4 5 6 141.960 132.705 1.813 0.183 o
-4 5 7 16.195 16.318 0.286 12.150 o
-4 5 8 1.157 1.271 0.138 236.582 o
-4 5 9 38.752 35.120 0.522 2.459 o
-4 5 10 108.550 108.493 1.143 0.312 o
-4 5 11 48.045 46.028 0.552 1.610 o
-4 5 12 51.130 49.645 0.690 1.359 o
-4 5 13 53.455 52.719 0.719 1.233 o
-4 5 14 26.684 26.497 0.365 4.910 o
-4 5 15 4.260 4.671 0.168 95.012 o
-4 5 16 9.953 10.426 0.266 25.081 o
-4 5 17 5.689 5.449 0.266 44.968 o
-4 5 18 7.662 7.765 0.296 30.735 o
-4 5 19 0.015 0.010 0.168 175.206 o
-4 5 20 0.368 0.414 0.158 196.369 o
-4 5 21 2.925 2.887 0.207 92.392 o
-4 5 22 2.709 3.134 0.345 38.141 o
-4 6 1 89.132 87.159 1.064 0.458 o
-4 6 2 1.857 1.744 0.108 311.059 o
-4 6 3 34.491 36.253 0.434 2.900 o
-4 6 4 7.579 7.469 0.168 50.293 o
-4 6 5 11.462 9.844 0.207 26.012 o
-4 6 6 236.485 238.567 2.720 0.064 o
-4 6 7 95.599 91.416 1.192 0.400 o
-4 6 8 63.413 60.790 0.808 0.903 o
-4 6 9 244.437 240.685 2.720 0.062 o
-4 6 10 44.137 41.998 0.522 1.903 o
-4 6 11 0.000 0.010 0.079 791.167 o
-4 6 12 41.019 39.958 0.522 2.139 o
-4 6 13 0.111 0.099 0.089 624.011 o
-4 6 14 9.146 8.691 0.207 34.636 o
-4 6 15 42.629 42.294 0.552 1.951 o
-4 6 16 28.842 28.409 0.463 4.018 o
-4 6 17 13.714 13.924 0.641 7.646 o
-4 6 18 18.886 19.846 0.493 7.077 o
-4 6 19 3.072 3.134 0.236 72.678 o
-4 6 20 0.249 0.365 0.148 224.006 o
-4 6 21 2.131 2.089 0.187 121.267 o
-4 6 22 7.154 8.070 0.434 19.193 o
-4 7 1 0.502 0.759 0.089 593.194 o
-4 7 2 23.763 22.871 0.315 6.351 o
-4 7 3 188.020 189.395 2.099 0.103 o
-4 7 4 3.724 3.725 0.148 126.576 o
-4 7 5 24.778 23.443 0.374 5.679 o
-4 7 6 18.068 17.166 0.286 10.496 o
-4 7 7 0.179 0.128 0.089 622.577 o
-4 7 8 76.916 74.103 0.769 0.642 o
-4 7 9 13.820 13.431 0.246 16.934 o
-4 7 10 7.674 7.233 0.197 45.417 o
-4 7 11 3.460 3.163 0.118 176.697 o
-4 7 12 12.917 12.791 0.246 18.638 o
-4 7 13 42.764 42.136 0.670 1.843 o
-4 7 14 110.601 110.966 1.616 0.279 o
-4 7 15 52.214 52.769 0.739 1.257 o
-4 7 16 63.364 64.051 0.887 0.856 o
-4 7 17 4.257 4.208 0.227 66.987 o
-4 7 18 10.177 10.120 0.345 20.037 o
-4 7 19 0.140 0.049 0.138 258.141 o
-4 7 20 0.356 0.443 0.148 223.185 o
-4 7 21 2.359 2.808 0.197 105.615 o
-4 8 1 1.400 1.439 0.168 161.156 o
-4 8 2 28.834 29.227 0.512 3.810 o
-4 8 3 14.272 14.239 0.276 15.113 o
-4 8 4 9.552 9.056 0.207 32.607 o
-4 8 5 12.551 12.879 0.236 19.485 o
-4 8 6 139.233 136.725 1.705 0.186 o
-4 8 7 7.218 6.405 0.207 48.222 o
-4 8 8 11.417 11.332 0.197 24.860 o
-4 8 9 81.157 79.197 0.985 0.552 o
-4 8 10 9.706 9.312 0.187 33.361 o
-4 8 11 0.001 -0.069 0.207 114.818 o
-4 8 12 40.992 39.643 0.591 2.080 o
-4 8 13 36.066 35.425 0.552 2.616 o
-4 8 14 33.629 32.568 0.572 2.921 o
-4 8 15 7.546 7.233 0.207 44.426 o
-4 8 16 91.840 97.161 1.557 0.374 o
-4 8 17 35.280 35.297 0.739 2.373 o
-4 8 18 0.499 0.572 0.177 154.632 o
-4 8 19 3.484 3.616 0.217 78.983 o
-4 8 20 30.110 31.444 0.581 3.318 o
-4 8 21 0.194 0.177 0.138 257.750 o
-4 9 1 9.739 9.381 0.236 29.038 o
-4 9 2 113.581 115.558 1.813 0.255 o
-4 9 3 31.610 30.804 0.493 3.399 o
-4 9 4 22.276 22.448 0.355 6.671 o
-4 9 5 2.570 2.040 0.118 234.099 o
-4 9 6 0.045 0.089 0.079 790.614 o
-4 9 7 62.444 63.431 0.828 0.892 o
-4 9 8 0.363 0.542 0.108 410.812 o
-4 9 9 6.459 6.257 0.168 62.938 o
-4 9 10 15.408 14.387 0.305 13.235 o
-4 9 11 17.830 17.599 0.325 9.995 o
-4 9 12 1.785 1.724 0.099 363.487 o
-4 9 13 2.753 2.464 0.108 241.083 o
-4 9 14 10.761 10.317 0.315 20.706 o
-4 9 15 1.313 1.251 0.128 266.401 o
-4 9 16 60.182 62.682 1.202 0.819 o
-4 9 17 1.535 1.468 0.187 129.873 o
-4 9 18 0.911 0.887 0.138 245.461 o
-4 9 19 0.623 0.572 0.128 291.622 o
-4 9 20 8.495 9.253 0.256 30.843 o
-4 10 1 51.246 49.241 0.838 1.282 o
-4 10 2 9.372 8.810 0.217 32.699 o
-4 10 3 19.309 18.496 0.325 8.942 o
-4 10 4 0.784 0.798 0.099 469.488 o
-4 10 5 9.061 8.612 0.187 37.148 o
-4 10 6 30.554 30.084 0.463 3.651 o
-4 10 7 1.104 1.222 0.108 368.260 o
-4 10 8 164.242 171.963 1.951 0.130 o
-4 10 9 0.120 0.217 0.089 622.869 o
-4 10 10 17.471 17.205 0.345 10.051 o
-4 10 11 0.000 0.089 0.099 506.292 o
-4 10 12 6.237 5.745 0.197 58.509 o
-4 10 13 24.989 24.152 0.709 3.929 o
-4 10 14 8.561 7.361 0.483 15.621 o
-4 10 15 26.913 26.330 0.522 4.285 o
-4 10 16 20.417 20.762 0.611 5.526 o
-4 10 17 0.063 -0.148 0.207 114.812 o
-4 10 18 1.438 1.212 0.148 203.823 o
-4 10 19 31.325 32.528 0.916 2.372 o
-4 10 20 7.197 7.302 0.227 42.585 o
-4 11 1 90.416 92.993 1.389 0.405 o
-4 11 2 498.671 512.618 7.972 0.013 o
-4 11 3 112.492 110.631 1.360 0.286 o
-4 11 4 28.573 28.803 0.394 4.235 o
-4 11 5 30.987 30.301 0.404 3.718 o
-4 11 6 252.360 257.595 3.104 0.055 o
-4 11 7 39.173 39.347 0.552 2.245 o
-4 11 8 27.113 26.241 0.503 4.335 o
-4 11 9 0.049 0.118 0.148 224.977 o
-4 11 10 17.097 16.703 0.384 9.826 o
-4 11 11 7.198 7.154 0.197 48.173 o
-4 11 12 0.390 0.276 0.108 413.135 o
-4 11 13 0.023 -0.089 0.227 95.717 o
-4 11 14 0.054 -0.039 0.207 114.814 o
-4 11 15 2.454 2.375 0.207 98.247 o
-4 11 16 1.326 1.192 0.187 132.649 o
-4 11 17 0.085 0.059 0.168 175.162 o
-4 11 18 4.640 4.533 0.443 22.087 o
-4 11 19 2.356 2.237 0.197 108.265 o
-4 12 1 35.844 35.553 0.641 2.488 o
-4 12 2 22.036 21.551 0.325 7.105 o
-4 12 3 23.809 23.433 0.453 5.507 o
-4 12 4 4.610 4.365 0.187 81.698 o
-4 12 5 61.677 62.721 0.946 0.877 o
-4 12 6 4.329 3.833 0.207 76.748 o
-4 12 7 234.421 246.085 2.858 0.063 o
-4 12 8 105.358 108.799 1.242 0.318 o
-4 12 9 80.235 81.917 1.518 0.477 o
-4 12 10 0.204 0.197 0.099 503.754 o
-4 12 11 33.075 32.942 0.818 2.451 o
-4 12 12 13.795 13.411 0.443 11.555 o
-4 12 13 5.845 5.853 0.276 41.657 o
-4 12 14 0.043 0.079 0.148 225.006 o
-4 12 15 1.130 0.749 0.168 167.833 o
-4 12 16 6.954 6.829 0.443 19.268 o
-4 12 17 12.733 12.406 0.404 13.715 o
-4 12 18 2.159 2.079 0.246 74.204 o
-4 12 19 3.614 3.232 0.374 31.698 o
-4 13 1 2.351 2.217 0.108 269.163 o
-4 13 2 0.677 0.690 0.108 399.133 o
-4 13 3 0.594 0.532 0.099 486.187 o
-4 13 4 13.486 13.431 0.335 14.699 o
-4 13 5 0.869 0.828 0.108 388.792 o
-4 13 6 117.716 120.219 1.665 0.246 o
-4 13 7 41.006 41.072 0.641 1.988 o
-4 13 8 26.904 26.754 0.374 4.802 o
-4 13 9 7.925 7.647 0.256 34.918 o
-4 13 10 19.253 18.999 0.414 7.911 o
-4 13 11 0.002 0.010 0.108 418.469 o
-4 13 12 11.011 11.529 0.355 17.616 o
-4 13 13 4.374 4.218 0.256 55.538 o
-4 13 14 45.601 47.250 0.798 1.514 o
-4 13 15 8.196 8.474 0.315 26.778 o
-4 13 16 0.421 0.404 0.168 173.895 o
-4 13 17 1.962 2.138 0.197 112.137 o
-4 13 18 0.095 0.049 0.158 197.730 o
-4 14 1 4.950 4.868 0.158 90.137 o
-4 14 2 10.220 10.169 0.325 21.074 o
-4 14 3 34.386 33.750 0.877 2.235 o
-4 14 4 15.102 14.840 0.276 13.953 o
-4 14 5 18.141 18.003 0.296 10.063 o
-4 14 6 8.870 8.573 0.217 34.805 o
-4 14 7 0.045 0.000 0.118 351.602 o
-4 14 8 1.552 1.488 0.118 291.743 o
-4 14 9 13.069 13.441 0.296 16.353 o
-4 14 10 152.447 153.989 2.079 0.149 o
-4 14 11 0.051 0.069 0.168 175.182 o
-4 14 12 5.227 5.193 0.276 44.919 o
-4 14 13 11.047 10.879 0.345 18.417 o
-4 14 14 11.430 11.579 0.729 7.093 o
-4 14 15 0.168 0.099 0.148 224.779 o
-4 14 16 3.505 3.262 0.236 69.942 o
-4 14 17 8.465 8.070 0.305 27.559 o
-4 15 1 7.568 7.302 0.177 49.162 o
-4 15 2 4.118 3.873 0.177 95.612 o
-4 15 3 21.282 21.541 0.335 7.319 o
-4 15 4 5.149 5.035 0.187 73.317 o
-4 15 5 0.269 0.207 0.108 415.792 o
-4 15 6 0.454 0.483 0.108 409.296 o
-4 15 7 0.543 0.552 0.138 253.473 o
-4 15 8 19.919 19.994 0.335 8.200 o
-4 15 9 12.417 9.795 0.641 8.573 o
-4 15 10 14.925 15.540 0.404 11.081 o
-4 15 11 79.777 84.489 2.739 0.315 o
-4 15 12 30.616 31.523 1.951 0.988 o
-4 15 13 15.923 16.683 0.414 9.995 o
-4 15 14 2.180 2.345 0.197 109.353 o
-4 15 15 10.601 11.559 0.345 18.548 o
-4 15 16 1.360 1.439 0.187 131.432 o
-4 15 17 3.167 3.015 0.217 83.477 o
-4 16 1 5.041 4.651 0.187 76.105 o
-4 16 2 17.684 18.181 0.325 9.910 o
-4 16 3 0.985 0.847 0.118 326.403 o
-4 16 4 6.567 6.356 0.207 52.010 o
-4 16 5 2.836 2.996 0.187 108.582 o
-4 16 6 1.038 0.798 0.118 325.458 o
-4 16 7 4.653 4.454 0.286 45.763 o
-4 16 8 28.116 28.961 1.301 1.835 o
-4 16 9 18.381 18.535 0.365 8.952 o
-4 16 10 0.002 0.020 0.148 225.043 o
-4 16 11 1.779 1.793 0.187 126.221 o
-4 16 12 2.626 2.779 0.325 42.932 o
-4 16 13 6.757 6.504 0.286 36.095 o
-4 16 14 0.036 0.030 0.148 225.029 o
-4 16 15 3.725 3.745 0.236 67.360 o
-4 16 16 0.304 0.217 0.148 224.091 o
-4 17 1 0.716 0.355 0.128 291.881 o
-4 17 2 0.213 0.079 0.128 298.984 o
-4 17 3 10.258 10.071 0.522 12.288 o
-4 17 4 50.974 51.014 0.847 1.260 o
-4 17 5 12.096 12.475 0.305 17.791 o
-4 17 6 3.386 3.291 0.296 48.594 o
-4 17 7 0.040 -0.187 0.227 95.716 o
-4 17 8 0.314 0.246 0.168 174.558 o
-4 17 9 0.062 0.020 0.256 74.900 o
-4 17 10 9.926 10.189 0.335 20.912 o
-4 17 11 7.562 7.637 0.296 31.134 o
-4 17 12 29.729 31.976 0.729 2.944 o
-4 17 13 13.786 13.884 0.374 13.140 o
-4 17 14 4.828 4.947 0.256 51.933 o
-4 18 1 8.549 7.972 0.325 25.701 o
-4 18 2 7.412 7.548 0.315 29.340 o
-4 18 3 28.107 28.636 0.759 3.160 o
-4 18 4 0.129 0.069 0.138 258.144 o
-4 18 5 0.478 0.532 0.148 221.979 o
-4 18 6 14.306 14.771 0.542 8.940 o
-4 18 7 3.040 2.927 0.177 115.672 o
-4 18 8 0.245 0.227 0.168 174.771 o
-4 18 9 10.379 11.076 0.562 10.843 o
-4 18 10 23.580 25.591 1.035 2.745 o
-4 18 11 18.718 19.994 0.670 5.475 o
-4 18 12 24.828 25.896 0.709 3.840 o
-4 18 13 2.289 2.404 0.187 117.936 o
-4 19 1 0.622 0.572 0.148 220.517 o
-4 19 2 3.524 3.538 0.217 78.982 o
-4 19 3 0.231 0.276 0.138 257.339 o
-4 19 4 0.135 0.177 0.138 257.972 o
-4 19 5 2.046 2.178 0.168 147.141 o
-4 19 6 7.959 8.110 0.266 32.913 o
-4 19 7 0.261 0.069 0.138 257.695 o
-4 19 8 1.950 2.059 0.335 41.992 o
-4 19 9 4.136 4.809 0.463 20.676 o
-4 19 10 4.711 4.878 0.434 22.781 o
-4 19 11 12.173 12.367 0.335 16.624 o
-4 19 12 3.299 3.370 0.394 29.112 o
-4 20 1 0.230 0.118 0.138 257.725 o
-4 20 2 2.147 2.099 0.168 146.217 o
-4 20 3 11.826 11.884 0.572 9.861 o
-4 20 4 0.003 0.000 0.227 95.718 o
-4 20 5 1.091 1.301 0.197 121.427 o
-4 20 6 10.965 11.105 0.286 21.355 o
-4 20 7 10.643 10.465 0.522 11.992 o
-4 20 8 0.200 -0.059 0.266 69.437 o
-4 20 9 9.384 10.327 0.522 12.672 o
-4 20 10 1.343 1.005 0.276 63.049 o
-4 21 1 1.930 1.803 0.158 168.232 o
-4 21 2 16.578 17.126 0.414 9.537 o
-4 21 3 14.720 14.564 0.512 9.344 o
-4 21 4 43.911 46.462 1.222 1.245 o
-4 21 5 0.916 0.769 0.138 246.427 o
-4 21 6 0.033 -0.049 0.227 95.717 o
-4 21 7 3.236 2.927 0.217 83.301 o
-4 21 8 0.525 0.621 0.286 59.929 o
-4 22 1 13.079 12.682 0.453 11.967 o
-4 22 2 31.949 34.657 0.857 2.390 o
-4 22 3 16.505 17.333 0.788 5.087 o
-4 22 4 0.580 0.572 0.168 172.697 o
-3 0 2 11.262 11.825 0.315 18.905 o
-3 0 4 36.064 34.795 0.680 2.435 o
-3 0 6 79.229 80.143 0.956 0.567 o
-3 0 8 40.366 34.893 0.631 2.217 o
-3 0 10 0.945 0.650 0.138 246.932 o
-3 0 12 78.569 72.467 1.222 0.567 o
-3 0 14 15.987 15.599 0.305 12.248 o
-3 0 16 51.712 53.754 0.788 1.234 o
-3 0 18 68.953 72.861 1.606 0.570 o
-3 0 20 0.156 0.128 0.217 104.558 o
-3 0 22 3.224 3.557 0.345 37.086 o
-3 1 1 217.268 233.088 2.385 0.074 o
-3 1 2 45.823 45.210 0.572 1.709 o
-3 1 3 21.576 19.265 0.315 7.807 o
-3 1 4 0.318 0.552 0.089 610.201 o
-3 1 5 1025.910 1063.330 12.258 0.003 o
-3 1 6 0.953 0.769 0.089 556.278 o
-3 1 7 5.024 5.124 0.148 92.445 o
-3 1 8 32.250 30.301 0.365 3.625 o
-3 1 9 0.028 -0.010 0.217 104.616 o
-3 1 10 21.492 20.427 0.286 7.815 o
-3 1 11 2.794 3.055 0.138 168.371 o
-3 1 12 3.389 3.291 0.108 192.409 o
-3 1 13 5.161 4.897 0.148 92.105 o
-3 1 14 103.190 105.034 1.035 0.344 o
-3 1 15 108.923 112.376 1.123 0.305 o
-3 1 16 43.577 45.526 0.552 1.820 o
-3 1 17 4.617 4.454 0.177 86.304 o
-3 1 18 4.969 5.124 0.236 56.632 o
-3 1 19 55.500 57.922 0.936 1.033 o
-3 1 20 6.793 7.124 0.286 35.106 o
-3 1 21 1.892 1.803 0.168 152.166 o
-3 1 22 22.782 23.561 0.936 3.220 o
-3 1 23 1.306 1.419 0.158 181.632 o
-3 2 1 46.437 45.575 0.562 1.681 o
-3 2 2 64.607 66.515 0.788 0.842 o
-3 2 3 19.274 19.708 0.286 9.043 o
-3 2 4 434.187 434.731 4.080 0.020 o
-3 2 5 190.849 185.631 1.941 0.103 o
-3 2 6 272.496 270.494 2.680 0.050 o
-3 2 7 752.428 750.918 8.425 0.006 o
-3 2 8 98.644 100.915 1.114 0.368 o
-3 2 9 176.685 171.076 1.646 0.122 o
-3 2 10 42.134 41.614 0.473 2.065 o
-3 2 11 1.702 1.518 0.108 326.781 o
-3 2 12 6.692 6.622 0.168 59.556 o
-3 2 13 36.019 34.479 0.414 2.865 o
-3 2 14 31.261 31.356 0.424 3.564 o
-3 2 15 110.428 113.913 1.271 0.291 o
-3 2 16 45.687 46.797 0.621 1.647 o
-3 2 17 32.106 33.573 0.434 3.300 o
-3 2 18 20.033 20.516 0.453 6.973 o
-3 2 19 5.030 5.311 0.256 50.270 o
-3 2 20 12.915 13.195 0.355 14.757 o
-3 2 21 0.922 0.926 0.158 189.814 o
-3 2 22 0.282 0.246 0.177 155.838 o
-3 2 23 0.549 0.552 0.168 172.921 o
-3 3 1 162.736 162.217 1.596 0.141 o
-3 3 2 599.228 605.325 6.908 0.010 o
-3 3 3 352.919 371.990 3.498 0.029 o
-3 3 4 39.133 38.382 0.463 2.379 o
-3 3 5 278.103 280.042 2.621 0.048 o
-3 3 6 715.490 728.402 8.297 0.007 o
-3 3 7 484.890 479.557 4.966 0.016 o
-3 3 8 78.591 80.833 0.916 0.575 o
-3 3 9 3.775 4.001 0.148 122.887 o
-3 3 10 112.573 109.124 1.084 0.300 o
-3 3 11 20.853 20.004 0.286 8.193 o
-3 3 12 85.718 86.597 0.867 0.501 o
-3 3 13 224.072 226.732 2.188 0.074 o
-3 3 14 37.109 36.115 0.384 2.724 o
-3 3 15 120.326 126.437 1.596 0.235 o
-3 3 16 3.211 3.390 0.138 152.982 o
-3 3 17 0.491 0.404 0.089 604.998 o
-3 3 18 4.314 4.109 0.236 63.023 o
-3 3 19 0.121 0.108 0.118 351.209 o
-3 3 20 16.200 16.230 0.335 11.323 o
-3 3 21 9.479 9.351 0.453 15.629 o
-3 3 22 0.578 0.512 0.236 87.316 o
-3 3 23 1.839 1.922 0.276 61.156 o
-3 4 1 263.483 275.322 2.907 0.051 o
-3 4 2 199.855 206.768 2.010 0.091 o
-3 4 3 38.450 35.662 0.374 2.636 o
-3 4 4 41.046 40.333 0.463 2.180 o
-3 4 5 60.887 62.268 0.680 0.969 o
-3 4 6 0.031 0.039 0.069 1033.060 o
-3 4 7 281.328 275.529 2.700 0.048 o
-3 4 8 183.762 182.773 1.843 0.110 o
-3 4 9 0.445 0.532 0.089 603.990 o
-3 4 10 68.762 67.008 0.700 0.795 o
-3 4 11 32.362 32.627 0.404 3.383 o
-3 4 12 24.950 23.344 0.296 6.012 o
-3 4 13 0.651 0.867 0.079 717.220 o
-3 4 14 7.228 7.056 0.168 53.996 o
-3 4 15 36.806 36.243 0.463 2.647 o
-3 4 16 15.172 15.323 0.286 13.449 o
-3 4 17 10.694 10.721 0.227 25.644 o
-3 4 18 3.162 2.779 0.227 78.481 o
-3 4 19 24.572 25.936 0.719 3.827 o
-3 4 20 21.134 22.172 0.631 5.105 o
-3 4 21 1.519 1.695 0.197 117.374 o
-3 4 22 0.056 0.079 0.217 104.606 o
-3 4 23 9.423 10.140 0.463 14.950 o
-3 5 1 34.307 35.228 0.493 2.874 o
-3 5 2 111.183 114.435 1.094 0.295 o
-3 5 3 10.345 9.460 0.168 32.384 o
-3 5 4 166.236 159.675 1.744 0.137 o
-3 5 5 26.672 25.729 0.315 5.172 o
-3 5 6 0.031 -0.049 0.197 126.585 o
-3 5 7 26.831 24.340 0.394 4.998 o
-3 5 8 6.876 6.129 0.177 57.657 o
-3 5 9 178.934 176.811 1.823 0.116 o
-3 5 10 0.602 0.591 0.108 403.389 o
-3 5 11 7.919 7.716 0.197 42.990 o
-3 5 12 0.565 0.552 0.079 745.038 o
-3 5 13 0.434 0.365 0.079 765.705 o
-3 5 14 82.916 83.523 1.104 0.508 o
-3 5 15 31.498 32.164 0.424 3.481 o
-3 5 16 4.825 4.838 0.177 81.892 o
-3 5 17 2.230 2.197 0.128 219.062 o
-3 5 18 0.468 0.325 0.108 410.907 o
-3 5 19 0.017 -0.079 0.217 104.617 o
-3 5 20 6.254 6.445 0.305 34.571 o
-3 5 21 4.038 3.804 0.256 57.943 o
-3 5 22 0.044 0.030 0.148 225.024 o
-3 6 1 2.633 2.217 0.099 283.624 o
-3 6 2 3.684 3.528 0.118 163.094 o
-3 6 3 16.804 16.003 0.256 12.270 o
-3 6 4 1.776 1.498 0.108 323.007 o
-3 6 5 0.274 0.335 0.079 777.872 o
-3 6 6 20.552 21.196 0.305 7.908 o
-3 6 7 49.031 44.905 0.591 1.570 o
-3 6 8 6.867 6.188 0.177 57.507 o
-3 6 9 0.206 0.256 0.089 620.320 o
-3 6 10 26.421 24.812 0.335 5.268 o
-3 6 11 0.088 0.059 0.069 1031.740 o
-3 6 12 1.869 1.793 0.089 408.689 o
-3 6 13 2.100 1.853 0.108 293.739 o
-3 6 14 37.367 36.460 0.542 2.487 o
-3 6 15 13.114 12.899 0.266 17.610 o
-3 6 16 0.033 -0.059 0.227 95.717 o
-3 6 17 39.293 39.899 0.641 2.118 o
-3 6 18 0.884 0.690 0.138 247.632 o
-3 6 19 2.271 2.326 0.168 142.575 o
-3 6 20 19.428 19.797 0.463 7.200 o
-3 6 21 1.095 0.985 0.177 149.744 o
-3 6 22 14.915 15.254 0.473 9.825 o
-3 7 1 158.660 157.891 1.744 0.146 o
-3 7 2 28.057 28.330 0.325 4.567 o
-3 7 3 22.800 22.595 0.276 6.932 o
-3 7 4 206.669 209.379 2.099 0.086 o
-3 7 5 6.872 5.962 0.158 63.257 o
-3 7 6 7.691 8.790 0.187 42.905 o
-3 7 7 44.006 41.752 0.552 1.893 o
-3 7 8 13.712 12.229 0.236 18.210 o
-3 7 9 51.172 48.876 0.611 1.410 o
-3 7 10 1.067 0.956 0.089 536.515 o
-3 7 11 265.803 262.502 3.380 0.051 o
-3 7 12 23.231 22.359 0.493 5.540 o
-3 7 13 13.848 13.185 0.315 15.037 o
-3 7 14 0.606 0.680 0.108 401.814 o
-3 7 15 1.363 1.251 0.108 353.657 o
-3 7 16 8.406 7.804 0.207 39.234 o
-3 7 17 21.663 20.329 0.443 6.571 o
-3 7 18 6.764 6.454 0.296 34.685 o
-3 7 19 5.034 4.809 0.217 63.749 o
-3 7 20 0.028 -0.158 0.217 104.616 o
-3 7 21 5.897 5.981 0.286 39.434 o
-3 7 22 0.954 0.808 0.168 169.149 o
-3 8 1 33.285 30.666 0.414 3.371 o
-3 8 2 323.863 336.605 3.705 0.034 o
-3 8 3 3.468 3.902 0.148 129.925 o
-3 8 4 22.371 24.073 0.414 6.025 o
-3 8 5 0.048 0.118 0.079 790.375 o
-3 8 6 20.518 20.979 0.296 8.047 o
-3 8 7 44.067 43.939 0.552 1.835 o
-3 8 8 23.435 23.502 0.355 6.145 o
-3 8 9 182.688 180.901 2.197 0.108 o
-3 8 10 18.599 17.737 0.315 9.635 o
-3 8 11 172.727 171.786 1.961 0.122 o
-3 8 12 11.423 11.086 0.236 23.118 o
-3 8 13 0.336 0.394 0.089 613.053 o
-3 8 14 15.075 14.604 0.345 12.555 o
-3 8 15 5.251 4.691 0.168 82.649 o
-3 8 16 17.085 16.437 0.286 11.425 o
-3 8 17 0.992 0.847 0.138 244.335 o
-3 8 18 104.889 106.641 2.178 0.268 o
-3 8 19 8.919 9.145 0.266 28.938 o
-3 8 20 15.078 15.727 0.483 9.460 o
-3 8 21 1.363 1.350 0.345 40.563 o
-3 8 22 0.666 0.690 0.187 138.071 o
-3 9 1 1.101 1.478 0.138 235.523 o
-3 9 2 38.494 39.761 0.512 2.321 o
-3 9 3 572.181 606.487 6.799 0.011 o
-3 9 4 890.966 939.180 13.963 0.004 o
-3 9 5 0.478 0.670 0.108 406.026 o
-3 9 6 15.557 15.293 0.315 12.522 o
-3 9 7 25.194 24.901 0.414 5.214 o
-3 9 8 27.577 26.389 0.493 4.283 o
-3 9 9 4.021 3.518 0.197 86.207 o
-3 9 10 108.909 107.360 1.537 0.293 o
-3 9 11 24.257 23.413 0.522 5.032 o
-3 9 12 0.094 0.020 0.079 790.422 o
-3 9 13 21.588 20.822 0.493 6.143 o
-3 9 14 17.053 17.077 0.384 9.748 o
-3 9 15 0.010 -0.158 0.266 69.458 o
-3 9 16 60.866 58.375 1.587 0.709 o
-3 9 17 104.276 105.635 4.622 0.141 o
-3 9 18 0.002 0.197 0.128 299.514 o
-3 9 19 1.212 1.114 0.148 208.763 o
-3 9 20 4.505 4.405 0.227 64.805 o
-3 9 21 0.789 0.690 0.128 287.354 o
-3 10 1 152.166 156.137 1.724 0.154 o
-3 10 2 1.543 1.695 0.158 175.778 o
-3 10 3 15.323 16.082 0.266 13.358 o
-3 10 4 138.897 142.194 1.675 0.183 o
-3 10 5 111.312 115.962 1.399 0.280 o
-3 10 6 7.431 6.977 0.246 39.139 o
-3 10 7 72.462 72.683 0.936 0.671 o
-3 10 8 24.101 22.921 0.453 5.499 o
-3 10 9 2.189 1.922 0.197 111.128 o
-3 10 10 19.257 18.299 0.434 7.836 o
-3 10 11 0.286 0.227 0.108 415.404 o
-3 10 12 12.818 12.071 0.355 15.393 o
-3 10 13 17.282 17.668 0.512 7.755 o
-3 10 14 6.209 5.883 0.227 50.707 o
-3 10 15 25.513 24.064 0.719 3.826 o
-3 10 16 4.191 3.705 0.236 64.845 o
-3 10 17 8.558 9.036 0.266 29.999 o
-3 10 18 44.611 45.871 1.094 1.336 o
-3 10 19 9.318 9.076 0.266 28.042 o
-3 10 20 2.693 2.818 0.177 121.022 o
-3 10 21 1.676 1.439 0.138 221.905 o
-3 11 1 53.287 53.498 0.650 1.257 o
-3 11 2 272.262 281.185 3.656 0.046 o
-3 11 3 36.447 35.790 0.503 2.642 o
-3 11 4 0.007 0.069 0.079 791.052 o
-3 11 5 0.163 0.089 0.079 788.186 o
-3 11 6 0.162 0.305 0.069 1021.780 o
-3 11 7 9.108 8.662 0.197 35.840 o
-3 11 8 0.764 0.877 0.089 568.205 o
-3 11 9 35.458 34.538 0.601 2.622 o
-3 11 10 5.126 4.897 0.286 43.547 o
-3 11 11 25.695 24.931 0.690 3.875 o
-3 11 12 9.236 9.312 0.345 21.945 o
-3 11 13 8.391 8.011 0.276 30.765 o
-3 11 14 0.277 0.217 0.128 298.145 o
-3 11 15 1.591 1.301 0.197 118.257 o
-3 11 16 6.196 5.814 0.473 18.288 o
-3 11 17 8.819 8.731 0.749 7.500 o
-3 11 18 16.752 16.239 1.114 3.118 o
-3 11 19 0.058 0.099 0.158 197.743 o
-3 11 20 5.437 5.459 0.296 39.743 o
-3 12 1 259.277 266.463 2.789 0.054 o
-3 12 2 89.578 89.751 1.005 0.453 o
-3 12 3 7.540 7.440 0.187 47.230 o
-3 12 4 0.220 0.266 0.089 619.778 o
-3 12 5 0.380 0.434 0.089 610.052 o
-3 12 6 18.327 18.309 0.256 10.309 o
-3 12 7 28.417 29.198 0.365 4.311 o
-3 12 8 53.814 53.665 0.611 1.256 o
-3 12 9 57.087 56.956 0.818 1.056 o
-3 12 10 23.523 24.073 0.680 4.272 o
-3 12 11 52.944 55.163 1.202 0.988 o
-3 12 12 8.242 8.149 0.315 27.008 o
-3 12 13 1.770 1.498 0.148 194.312 o
-3 12 14 21.782 21.433 0.828 3.901 o
-3 12 15 12.049 12.081 0.365 15.802 o
-3 12 16 6.065 6.011 0.296 37.191 o
-3 12 17 0.084 0.118 0.158 197.703 o
-3 12 18 12.625 12.820 0.650 7.926 o
-3 12 19 4.262 4.405 0.266 52.561 o
-3 12 20 0.000 -0.059 0.207 114.818 o
-3 13 1 0.861 0.739 0.089 565.831 o
-3 13 2 18.848 19.314 0.394 8.224 o
-3 13 3 144.768 150.501 1.774 0.167 o
-3 13 4 0.277 0.374 0.099 500.289 o
-3 13 5 4.549 4.730 0.148 102.685 o
-3 13 6 1.718 1.961 0.108 312.855 o
-3 13 7 103.658 107.862 1.104 0.334 o
-3 13 8 143.543 151.733 1.646 0.170 o
-3 13 9 0.368 0.384 0.118 347.379 o
-3 13 10 55.440 57.715 0.985 1.016 o
-3 13 11 72.777 75.541 1.301 0.589 o
-3 13 12 70.569 74.438 1.518 0.570 o
-3 13 13 100.672 98.077 1.518 0.339 o
-3 13 14 8.823 9.056 0.325 24.242 o
-3 13 15 9.495 10.110 0.345 20.989 o
-3 13 16 13.306 12.702 1.005 4.028 o
-3 13 17 8.610 8.277 1.114 3.701 o
-3 13 18 0.045 0.118 0.158 197.746 o
-3 13 19 6.643 6.632 0.493 16.567 o
-3 14 1 0.242 0.256 0.089 619.246 o
-3 14 2 32.016 32.154 0.434 3.397 o
-3 14 3 2.889 2.858 0.158 140.427 o
-3 14 4 2.888 3.262 0.158 136.659 o
-3 14 5 3.585 3.439 0.148 132.269 o
-3 14 6 69.248 71.678 0.778 0.743 o
-3 14 7 0.112 0.158 0.079 788.656 o
-3 14 8 54.437 55.143 0.670 1.196 o
-3 14 9 182.151 190.765 2.868 0.098 o
-3 14 10 17.244 17.787 0.572 7.037 o
-3 14 11 59.692 61.499 1.182 0.840 o
-3 14 12 4.941 5.104 0.345 32.882 o
-3 14 13 1.258 1.251 0.187 132.931 o
-3 14 14 36.827 39.525 0.700 2.201 o
-3 14 15 7.904 8.199 0.315 27.639 o
-3 14 16 0.028 0.217 0.276 64.577 o
-3 14 17 16.297 16.683 1.192 2.806 o
-3 14 18 4.194 4.149 0.256 56.490 o
-3 15 1 19.542 19.009 0.276 9.180 o
-3 15 2 0.383 0.286 0.089 613.371 o
-3 15 3 4.095 3.951 0.168 102.147 o
-3 15 4 24.472 24.586 0.414 5.419 o
-3 15 5 13.868 13.707 0.256 16.418 o
-3 15 6 26.676 26.813 0.365 4.878 o
-3 15 7 0.051 0.059 0.079 790.722 o
-3 15 8 25.673 26.734 0.434 4.830 o
-3 15 9 33.047 33.681 0.916 2.240 o
-3 15 10 0.035 0.138 0.118 351.483 o
-3 15 11 27.482 28.350 0.749 3.265 o
-3 15 12 34.775 37.110 1.281 1.541 o
-3 15 13 8.777 9.007 0.325 24.366 o
-3 15 14 0.480 0.503 0.168 173.407 o
-3 15 15 12.787 13.589 0.374 14.087 o
-3 15 16 8.088 7.479 0.572 12.205 o
-3 15 17 0.537 0.473 0.158 195.233 o
-3 15 18 0.070 -0.039 0.207 114.811 o
-3 16 1 17.049 17.461 0.266 11.363 o
-3 16 2 12.507 12.278 0.217 20.804 o
-3 16 3 6.473 6.711 0.197 53.764 o
-3 16 4 1.739 1.754 0.128 244.152 o
-3 16 5 82.937 86.696 1.261 0.478 o
-3 16 6 0.028 0.108 0.099 506.155 o
-3 16 7 6.857 6.770 0.177 55.504 o
-3 16 8 1.425 1.271 0.138 230.362 o
-3 16 9 0.025 0.039 0.128 299.594 o
-3 16 10 1.125 1.143 0.168 165.943 o
-3 16 11 36.905 39.958 0.956 1.837 o
-3 16 12 3.935 4.415 0.266 53.834 o
-3 16 13 6.478 6.543 0.286 36.849 o
-3 16 14 2.044 1.843 0.276 60.762 o
-3 16 15 1.170 1.143 0.177 148.482 o
-3 16 16 7.134 7.085 0.296 32.895 o
-3 16 17 0.120 0.138 0.148 224.844 o
-3 17 1 52.647 53.409 0.798 1.209 o
-3 17 2 16.099 16.042 0.266 12.685 o
-3 17 3 4.465 4.247 0.207 73.981 o
-3 17 4 0.995 0.926 0.118 324.736 o
-3 17 5 8.876 8.642 0.217 34.663 o
-3 17 6 1.175 0.976 0.128 274.447 o
-3 17 7 0.062 0.069 0.108 418.287 o
-3 17 8 5.298 5.351 0.266 46.646 o
-3 17 9 0.593 0.581 0.158 194.463 o
-3 17 10 5.816 5.607 0.276 42.173 o
-3 17 11 7.559 7.558 0.296 31.237 o
-3 17 12 30.807 32.065 1.242 1.797 o
-3 17 13 2.462 2.641 0.197 105.434 o
-3 17 14 4.456 4.641 0.256 54.241 o
-3 17 15 0.155 0.089 0.148 224.820 o
-3 17 16 0.043 0.217 0.177 156.218 o
-3 18 1 51.624 52.867 0.729 1.277 o
-3 18 2 3.602 2.877 0.266 58.100 o
-3 18 3 7.285 6.445 0.414 21.246 o
-3 18 4 3.737 3.587 0.217 77.245 o
-3 18 5 1.434 1.350 0.148 202.575 o
-3 18 6 0.730 0.631 0.168 171.566 o
-3 18 7 0.059 0.020 0.158 197.772 o
-3 18 8 35.154 35.751 1.192 1.665 o
-3 18 9 0.068 0.069 0.148 224.984 o
-3 18 10 7.749 7.775 0.345 25.517 o
-3 18 11 7.600 7.696 0.296 30.969 o
-3 18 12 0.000 -0.177 0.197 126.587 o
-3 18 13 1.426 1.409 0.177 144.893 o
-3 18 14 3.446 3.459 0.227 74.550 o
-3 18 15 0.296 0.325 0.217 104.363 o
-3 19 1 15.182 15.806 0.749 5.777 o
-3 19 2 41.747 43.782 1.074 1.464 o
-3 19 3 4.726 4.454 0.276 47.989 o
-3 19 4 3.903 3.774 0.217 75.349 o
-3 19 5 0.080 0.020 0.128 299.534 o
-3 19 6 61.354 62.839 2.572 0.435 o
-3 19 7 1.256 1.153 0.187 133.310 o
-3 19 8 4.282 4.296 0.266 52.697 o
-3 19 9 3.334 2.937 0.217 82.555 o
-3 19 10 6.439 6.760 0.305 33.719 o
-3 19 11 0.000 -0.099 0.187 140.263 o
-3 19 12 1.050 1.114 0.217 101.579 o
-3 19 13 4.666 5.144 0.246 55.108 o
-3 20 1 11.012 11.726 0.325 18.851 o
-3 20 2 9.409 9.549 0.355 20.887 o
-3 20 3 2.402 2.720 0.177 125.536 o
-3 20 4 0.058 0.049 0.128 299.546 o
-3 20 5 6.422 6.287 0.296 35.830 o
-3 20 6 7.171 7.302 0.315 30.124 o
-3 20 7 1.363 1.340 0.187 131.802 o
-3 20 8 18.596 18.496 0.985 3.529 o
-3 20 9 0.000 -0.059 0.187 140.263 o
-3 20 10 0.357 0.236 0.138 256.682 o
-3 20 11 0.010 0.000 0.128 299.613 o
-3 20 12 8.749 9.460 0.483 14.806 o
-3 21 1 43.031 43.693 0.936 1.552 o
-3 21 2 18.796 18.861 0.749 4.943 o
-3 21 3 2.012 1.872 0.197 112.834 o
-3 21 4 0.502 0.355 0.168 173.654 o
-3 21 5 2.361 2.217 0.207 99.578 o
-3 21 6 0.000 -0.069 0.217 104.617 o
-3 21 7 9.374 9.401 0.650 9.262 o
-3 21 8 1.144 1.015 0.177 149.236 o
-3 21 9 0.768 0.621 0.266 68.843 o
-3 21 10 0.001 -0.079 0.236 87.908 o
-3 22 1 0.217 0.197 0.128 298.626 o
-3 22 2 5.406 5.154 0.374 28.109 o
-3 22 3 0.871 0.828 0.138 246.686 o
-3 22 4 0.526 0.453 0.168 173.299 o
-3 22 5 9.735 10.159 0.325 21.826 o
-3 22 6 0.052 0.099 0.158 197.747 o
-3 22 7 8.788 8.346 0.296 27.487 o
-3 23 1 1.102 1.074 0.138 239.890 o
-3 23 2 4.116 3.922 0.355 33.686 o
-3 23 3 5.113 4.740 0.256 51.145 o
-2 0 2 9.900 11.421 0.256 24.790 o
-2 0 4 354.191 370.197 4.966 0.027 o
-2 0 6 549.990 512.450 5.705 0.013 o
-2 0 8 267.650 260.699 3.035 0.051 o
-2 0 10 70.847 61.893 0.916 0.758 o
-2 0 12 21.413 21.915 0.384 6.845 o
-2 0 14 29.781 27.897 0.434 3.999 o
-2 0 16 20.646 20.703 0.631 5.338 o
-2 0 18 300.982 327.253 5.114 0.034 o
-2 0 20 12.977 13.796 0.394 13.272 o
-2 0 22 37.602 41.121 0.739 2.059 o
-2 1 1 2275.230 2322.520 26.862 0.001 o
-2 1 2 315.701 332.505 3.814 0.035 o
-2 1 3 969.284 1004.760 9.834 0.004 o
-2 1 4 386.872 402.972 3.794 0.024 o
-2 1 5 260.006 264.276 2.828 0.054 o
-2 1 6 69.955 68.939 0.670 0.770 o
-2 1 7 302.613 293.188 2.700 0.042 o
-2 1 8 10.697 10.288 0.177 29.247 o
-2 1 9 47.048 44.964 0.463 1.727 o
-2 1 10 27.036 25.532 0.305 5.143 o
-2 1 11 14.581 11.933 0.197 18.294 o
-2 1 12 34.690 32.292 0.404 3.130 o
-2 1 13 27.348 27.365 0.315 4.838 o
-2 1 14 1.127 1.035 0.079 639.573 o
-2 1 15 57.538 56.296 0.818 1.053 o
-2 1 16 330.222 345.404 4.336 0.031 o
-2 1 17 10.561 10.780 0.217 26.497 o
-2 1 18 0.725 0.601 0.108 399.032 o
-2 1 19 0.107 0.108 0.089 624.001 o
-2 1 20 3.015 3.262 0.177 113.778 o
-2 1 21 25.245 26.350 0.443 4.914 o
-2 1 22 0.060 0.059 0.108 418.315 o
-2 1 23 2.663 2.779 0.177 121.695 o
-2 2 1 575.274 615.011 6.218 0.011 o
-2 2 2 1385.430 1474.230 15.924 0.002 o
-2 2 3 67.494 67.668 0.769 0.795 o
-2 2 4 232.778 249.761 2.424 0.065 o
-2 2 5 291.346 297.553 3.478 0.042 o
-2 2 6 85.637 86.174 0.995 0.491 o
-2 2 7 63.259 60.277 0.591 0.964 o
-2 2 8 61.061 62.425 0.641 0.974 o
-2 2 9 304.170 297.385 2.739 0.041 o
-2 2 10 143.959 144.273 1.468 0.178 o
-2 2 11 78.607 75.630 0.739 0.620 o
-2 2 12 2.745 2.385 0.108 243.486 o
-2 2 13 27.660 26.300 0.325 4.855 o
-2 2 14 0.183 0.158 0.069 1025.300 o
-2 2 15 0.007 0.030 0.069 1033.310 o
-2 2 16 44.449 44.156 0.749 1.655 o
-2 2 17 29.379 29.345 0.443 3.923 o
-2 2 18 42.431 43.141 0.729 1.780 o
-2 2 19 8.260 7.607 0.345 24.807 o
-2 2 20 8.846 9.076 0.246 31.071 o
-2 2 21 9.829 10.573 0.276 24.516 o
-2 2 22 0.309 0.424 0.128 296.937 o
-2 2 23 0.774 0.877 0.128 285.686 o
-2 3 1 8.690 8.080 0.207 37.512 o
-2 3 2 1640.900 1767.150 19.206 0.001 o
-2 3 3 36.510 38.155 0.463 2.591 o
-2 3 4 36.850 36.135 0.512 2.581 o
-2 3 5 16.270 13.608 0.197 14.954 o
-2 3 6 776.253 784.018 7.903 0.006 o
-2 3 7 227.698 230.181 2.355 0.071 o
-2 3 8 0.228 0.108 0.069 1024.050 o
-2 3 9 216.579 211.202 1.991 0.081 o
-2 3 10 16.250 14.308 0.217 14.240 o
-2 3 11 103.532 103.310 0.985 0.349 o
-2 3 12 0.498 0.434 0.079 757.307 o
-2 3 13 1.218 1.104 0.079 620.798 o
-2 3 14 0.244 0.345 0.069 1013.210 o
-2 3 15 13.864 14.032 0.256 16.223 o
-2 3 16 16.188 16.397 0.355 10.934 o
-2 3 17 20.602 20.960 0.463 6.639 o
-2 3 18 4.084 4.405 0.177 92.799 o
-2 3 19 0.252 0.148 0.118 350.179 o
-2 3 20 10.073 10.495 0.325 21.051 o
-2 3 21 11.180 11.509 0.335 18.317 o
-2 3 22 1.346 1.518 0.197 119.182 o
-2 3 23 1.243 1.370 0.187 132.603 o
-2 4 1 129.395 136.735 1.360 0.212 o
-2 4 2 46.258 50.128 0.581 1.582 o
-2 4 3 52.696 56.355 0.611 1.249 o
-2 4 4 28.606 28.764 0.365 4.316 o
-2 4 5 85.012 90.805 0.847 0.493 o
-2 4 6 8.783 9.194 0.168 39.159 o
-2 4 7 91.157 94.500 1.074 0.424 o
-2 4 8 792.494 791.734 8.780 0.006 o
-2 4 9 446.886 459.041 4.671 0.018 o
-2 4 10 171.073 168.268 1.626 0.129 o
-2 4 11 12.942 12.515 0.227 19.502 o
-2 4 12 19.730 19.077 0.394 7.906 o
-2 4 13 31.299 30.065 0.621 3.163 o
-2 4 14 1.438 1.330 0.099 405.690 o
-2 4 15 1.419 1.449 0.108 344.990 o
-2 4 16 84.586 87.129 1.163 0.478 o
-2 4 17 0.387 0.424 0.128 296.085 o
-2 4 18 30.888 30.892 0.503 3.458 o
-2 4 19 5.838 5.745 0.305 36.518 o
-2 4 20 0.022 -0.128 0.227 95.718 o
-2 4 21 0.240 -0.039 0.227 95.660 o
-2 4 22 3.233 3.341 0.276 55.107 o
-2 4 23 0.318 0.315 0.158 196.817 o
-2 5 1 60.508 62.544 0.690 0.971 o
-2 5 2 352.241 376.474 3.754 0.028 o
-2 5 3 164.715 172.574 1.695 0.132 o
-2 5 4 31.768 34.854 0.374 3.372 o
-2 5 5 16.853 18.319 0.246 11.456 o
-2 5 6 0.015 0.069 0.069 1033.070 o
-2 5 7 191.122 189.129 2.040 0.101 o
-2 5 8 587.291 589.460 6.612 0.011 o
-2 5 9 0.336 0.739 0.108 409.034 o
-2 5 10 71.029 67.924 0.749 0.749 o
-2 5 11 32.651 31.553 0.434 3.356 o
-2 5 12 146.450 142.618 1.675 0.172 o
-2 5 13 44.283 43.900 0.542 1.833 o
-2 5 14 46.351 45.742 0.542 1.694 o
-2 5 15 44.515 44.442 0.739 1.655 o
-2 5 16 2.128 2.306 0.128 220.764 o
-2 5 17 6.772 6.849 0.227 45.534 o
-2 5 18 9.749 9.460 0.276 25.838 o
-2 5 19 3.131 3.331 0.286 52.201 o
-2 5 20 6.971 6.622 0.305 32.585 o
-2 5 21 4.765 5.104 0.276 46.698 o
-2 5 22 30.019 31.395 0.601 3.279 o
-2 5 23 1.771 1.784 0.187 126.341 o
-2 6 1 145.607 155.477 1.537 0.167 o
-2 6 2 2.114 1.971 0.099 329.035 o
-2 6 3 129.569 136.892 1.242 0.215 o
-2 6 4 286.980 298.795 2.759 0.044 o
-2 6 5 47.541 46.895 0.503 1.641 o
-2 6 6 6.158 6.169 0.158 68.882 o
-2 6 7 30.685 29.030 0.453 3.730 o
-2 6 8 31.143 29.188 0.394 3.798 o
-2 6 9 5.021 4.691 0.168 85.341 o
-2 6 10 62.804 61.410 0.897 0.883 o
-2 6 11 1.849 2.601 0.286 56.471 o
-2 6 12 71.971 69.382 0.828 0.715 o
-2 6 13 7.888 7.696 0.207 41.727 o
-2 6 14 24.787 23.768 0.414 5.441 o
-2 6 15 1.351 1.389 0.108 350.493 o
-2 6 16 2.196 2.079 0.128 222.378 o
-2 6 17 0.204 0.177 0.099 503.928 o
-2 6 18 8.719 7.588 0.325 25.741 o
-2 6 19 25.889 26.222 0.552 4.340 o
-2 6 20 0.893 0.887 0.187 136.476 o
-2 6 21 17.384 17.422 0.424 8.933 o
-2 6 22 1.154 1.242 0.236 85.293 o
-2 6 23 5.665 5.903 0.276 42.184 o
-2 7 1 22.917 23.748 0.305 6.534 o
-2 7 2 5.156 4.888 0.138 97.392 o
-2 7 3 2.402 2.404 0.108 261.200 o
-2 7 4 332.643 347.099 3.203 0.033 o
-2 7 5 1296.680 1357.880 17.934 0.002 o
-2 7 6 232.100 240.055 2.266 0.068 o
-2 7 7 0.001 0.000 0.236 87.908 o
-2 7 8 13.861 12.830 0.246 17.277 o
-2 7 9 27.287 25.956 0.493 4.368 o
-2 7 10 24.338 23.492 0.414 5.585 o
-2 7 11 117.812 113.085 1.764 0.250 o
-2 7 12 71.213 69.639 0.887 0.712 o
-2 7 13 18.586 17.718 0.365 9.053 o
-2 7 14 10.338 9.736 0.217 28.433 o
-2 7 15 41.307 40.875 0.690 1.927 o
-2 7 16 0.001 -0.030 0.227 95.718 o
-2 7 17 8.232 8.159 0.207 39.218 o
-2 7 18 0.347 0.266 0.128 297.336 o
-2 7 19 17.058 16.988 0.434 9.046 o
-2 7 20 4.745 4.878 0.414 24.659 o
-2 7 21 0.204 0.108 0.227 95.650 o
-2 7 22 0.001 -0.020 0.207 114.818 o
-2 8 1 131.610 134.192 1.261 0.213 o
-2 8 2 35.279 35.612 0.404 2.896 o
-2 8 3 27.099 29.000 0.355 4.603 o
-2 8 4 10.293 10.061 0.197 29.493 o
-2 8 5 141.306 146.185 1.636 0.177 o
-2 8 6 744.738 775.918 9.007 0.006 o
-2 8 7 93.622 99.004 1.222 0.389 o
-2 8 8 103.207 103.773 1.202 0.338 o
-2 8 9 0.130 0.059 0.089 624.017 o
-2 8 10 23.274 21.699 0.414 6.105 o
-2 8 11 0.631 0.778 0.089 583.126 o
-2 8 12 13.839 13.086 0.266 16.554 o
-2 8 13 30.380 29.513 0.532 3.531 o
-2 8 14 0.230 0.207 0.079 783.555 o
-2 8 15 15.486 14.623 0.276 13.689 o
-2 8 16 0.296 0.266 0.099 501.180 o
-2 8 17 3.608 3.281 0.158 123.340 o
-2 8 18 0.182 0.207 0.128 298.805 o
-2 8 19 2.338 2.207 0.256 68.203 o
-2 8 20 1.500 1.350 0.187 130.661 o
-2 8 21 4.467 4.582 0.276 48.681 o
-2 8 22 1.593 1.705 0.187 128.338 o
-2 9 1 50.876 51.547 0.552 1.403 o
-2 9 2 24.304 23.128 0.305 6.193 o
-2 9 3 94.657 95.762 0.936 0.412 o
-2 9 4 193.179 208.049 2.069 0.094 o
-2 9 5 54.371 51.990 0.808 1.179 o
-2 9 6 14.601 13.677 0.256 15.561 o
-2 9 7 14.266 13.047 0.256 16.334 o
-2 9 8 2.362 2.050 0.148 175.015 o
-2 9 9 1.449 1.458 0.128 258.865 o
-2 9 10 0.032 0.384 0.158 197.575 o
-2 9 11 28.941 27.749 0.503 3.931 o
-2 9 12 111.149 108.966 1.380 0.292 o
-2 9 13 47.084 46.570 0.828 1.454 o
-2 9 14 80.865 80.458 1.094 0.535 o
-2 9 15 1.119 0.887 0.108 375.916 o
-2 9 16 0.108 0.030 0.099 505.921 o
-2 9 17 31.762 28.813 2.000 0.952 o
-2 9 18 3.032 3.035 0.177 115.054 o
-2 9 19 4.536 4.365 0.236 61.066 o
-2 9 20 5.880 5.449 0.276 42.224 o
-2 9 21 2.236 2.207 0.197 109.466 o
-2 9 22 9.951 10.307 0.315 21.980 o
-2 10 1 1.031 1.035 0.089 536.103 o
-2 10 2 45.028 45.437 0.503 1.787 o
-2 10 3 0.427 0.266 0.079 769.982 o
-2 10 4 15.414 15.225 0.286 13.274 o
-2 10 5 21.424 20.723 0.365 7.197 o
-2 10 6 10.147 10.790 0.236 26.227 o
-2 10 7 80.852 77.847 0.985 0.560 o
-2 10 8 5.943 5.006 0.276 42.765 o
-2 10 9 2.226 2.168 0.177 131.365 o
-2 10 10 0.027 0.059 0.099 506.258 o
-2 10 11 46.523 45.270 0.966 1.390 o
-2 10 12 69.650 71.787 1.399 0.613 o
-2 10 13 18.436 17.471 0.453 8.093 o
-2 10 14 2.183 2.197 0.197 109.984 o
-2 10 15 5.287 4.710 0.236 56.042 o
-2 10 16 0.073 -0.138 0.246 81.012 o
-2 10 17 0.003 -0.217 0.197 126.587 o
-2 10 18 0.017 0.138 0.128 299.541 o
-2 10 19 43.800 43.949 1.094 1.384 o
-2 10 20 68.941 68.900 1.114 0.696 o
-2 10 21 0.373 0.365 0.158 196.465 o
-2 11 1 9.879 10.199 0.217 29.062 o
-2 11 2 2.411 2.808 0.128 202.025 o
-2 11 3 8.508 8.169 0.187 40.496 o
-2 11 4 151.479 157.320 1.695 0.155 o
-2 11 5 55.145 57.193 0.769 1.115 o
-2 11 6 20.033 18.910 0.315 8.581 o
-2 11 7 17.647 17.392 0.286 10.698 o
-2 11 8 0.520 0.355 0.099 492.906 o
-2 11 9 2.983 2.858 0.227 79.345 o
-2 11 10 38.351 38.500 0.946 1.820 o
-2 11 11 0.072 0.099 0.128 299.469 o
-2 11 12 0.288 0.394 0.118 348.440 o
-2 11 13 25.171 24.556 0.769 3.630 o
-2 11 14 185.087 196.983 3.912 0.083 o
-2 11 15 54.974 54.769 1.843 0.694 o
-2 11 16 0.041 0.089 0.168 175.182 o
-2 11 17 0.151 0.296 0.345 41.318 o
-2 11 18 101.596 104.739 4.582 0.145 o
-2 11 19 3.617 3.636 0.424 25.133 o
-2 11 20 6.664 6.425 0.296 34.992 o
-2 11 21 0.008 0.118 0.315 49.447 o
-2 12 1 141.110 146.205 1.675 0.177 o
-2 12 2 1.529 1.596 0.108 334.487 o
-2 12 3 26.526 27.946 0.394 4.689 o
-2 12 4 0.538 0.572 0.089 597.035 o
-2 12 5 53.684 54.158 0.670 1.229 o
-2 12 6 0.790 0.867 0.099 467.144 o
-2 12 7 6.003 6.011 0.168 68.045 o
-2 12 8 63.625 65.973 1.104 0.780 o
-2 12 9 5.774 5.518 0.217 56.745 o
-2 12 10 4.317 4.080 0.217 71.255 o
-2 12 11 0.002 0.020 0.108 418.466 o
-2 12 12 43.822 44.195 1.054 1.414 o
-2 12 13 2.898 3.065 0.177 116.649 o
-2 12 14 18.767 18.762 0.680 5.501 o
-2 12 15 23.123 23.975 0.749 3.990 o
-2 12 16 29.473 28.892 1.922 1.037 o
-2 12 17 17.325 17.412 1.094 3.141 o
-2 12 18 4.254 4.326 0.266 52.747 o
-2 12 19 0.640 0.719 0.168 171.874 o
-2 12 20 23.388 23.866 1.340 1.986 o
-2 13 1 133.459 134.005 1.931 0.192 o
-2 13 2 93.894 94.569 1.281 0.393 o
-2 13 3 37.197 37.239 0.443 2.597 o
-2 13 4 246.930 263.133 2.917 0.057 o
-2 13 5 54.432 56.493 0.641 1.190 o
-2 13 6 33.961 34.361 0.394 3.112 o
-2 13 7 28.175 28.646 0.384 4.346 o
-2 13 8 1.035 1.094 0.118 320.421 o
-2 13 9 2.691 2.769 0.236 75.672 o
-2 13 10 10.534 10.179 0.365 18.493 o
-2 13 11 2.380 2.197 0.168 141.887 o
-2 13 12 0.034 0.049 0.118 351.583 o
-2 13 13 75.293 78.143 1.340 0.551 o
-2 13 14 9.127 9.204 0.335 22.879 o
-2 13 15 0.102 0.020 0.158 197.738 o
-2 13 16 2.298 1.971 0.217 93.000 o
-2 13 17 2.391 2.316 0.286 55.542 o
-2 13 18 0.006 -0.099 0.217 104.617 o
-2 13 19 3.822 3.784 0.246 62.661 o
-2 13 20 1.053 0.966 0.207 111.472 o
-2 14 1 5.711 5.824 0.158 75.240 o
-2 14 2 27.593 28.222 0.414 4.396 o
-2 14 3 159.208 163.627 1.872 0.140 o
-2 14 4 26.849 27.739 0.374 4.713 o
-2 14 5 0.014 0.020 0.079 791.130 o
-2 14 6 1.289 1.449 0.108 352.281 o
-2 14 7 36.465 37.160 0.463 2.637 o
-2 14 8 34.054 35.110 0.828 2.302 o
-2 14 9 54.367 55.390 1.409 0.870 o
-2 14 10 96.338 99.477 1.734 0.336 o
-2 14 11 76.209 79.512 2.030 0.430 o
-2 14 12 14.534 14.860 0.581 8.185 o
-2 14 13 6.752 6.583 0.305 33.166 o
-2 14 14 11.316 11.559 0.365 16.833 o
-2 14 15 0.001 -0.079 0.227 95.718 o
-2 14 16 2.324 2.119 0.207 100.225 o
-2 14 17 1.079 1.114 0.365 36.586 o
-2 14 18 0.863 0.808 0.177 152.055 o
-2 14 19 0.628 0.522 0.158 194.422 o
-2 15 1 0.002 -0.039 0.197 126.587 o
-2 15 2 0.135 0.177 0.079 787.716 o
-2 15 3 8.779 9.253 0.187 36.992 o
-2 15 4 25.476 26.093 0.374 5.184 o
-2 15 5 19.885 20.083 0.286 8.635 o
-2 15 6 10.514 10.435 0.217 27.047 o
-2 15 7 16.834 16.397 0.286 11.626 o
-2 15 8 53.531 54.345 0.719 1.210 o
-2 15 9 75.673 76.507 2.040 0.438 o
-2 15 10 12.927 12.761 0.473 11.522 o
-2 15 11 17.731 17.718 0.404 8.968 o
-2 15 12 93.440 101.181 3.015 0.241 o
-2 15 13 1.036 1.015 0.207 111.441 o
-2 15 14 28.081 30.755 0.591 3.568 o
-2 15 15 0.372 0.276 0.158 196.670 o
-2 15 16 9.207 8.573 0.778 6.972 o
-2 15 17 0.057 0.236 0.158 197.659 o
-2 15 18 1.487 1.449 0.345 40.430 o
-2 16 1 15.267 15.234 0.325 12.577 o
-2 16 2 0.767 0.857 0.099 468.764 o
-2 16 3 0.038 0.207 0.128 299.417 o
-2 16 4 7.826 7.795 0.217 40.354 o
-2 16 5 1.218 1.291 0.108 360.462 o
-2 16 6 4.121 3.981 0.158 108.785 o
-2 16 7 5.440 5.252 0.177 73.502 o
-2 16 8 4.691 4.582 0.168 90.038 o
-2 16 9 12.758 12.919 0.305 16.700 o
-2 16 10 14.869 12.978 0.394 12.177 o
-2 16 11 102.550 111.361 2.316 0.259 o
-2 16 12 8.215 8.317 0.325 25.997 o
-2 16 13 9.705 9.933 0.335 21.426 o
-2 16 14 3.103 3.291 0.325 41.659 o
-2 16 15 18.429 20.122 0.463 7.489 o
-2 16 16 0.038 -0.138 0.227 95.716 o
-2 16 17 0.023 0.059 0.158 197.780 o
-2 17 1 3.878 3.587 0.138 134.520 o
-2 17 2 33.098 34.056 0.473 3.088 o
-2 17 3 12.403 12.436 0.256 19.322 o
-2 17 4 36.603 36.972 0.631 2.398 o
-2 17 5 11.134 11.007 0.227 24.326 o
-2 17 6 0.615 0.542 0.099 484.974 o
-2 17 7 0.000 0.030 0.089 625.111 o
-2 17 8 38.371 37.357 0.572 2.342 o
-2 17 9 0.294 0.266 0.148 224.026 o
-2 17 10 38.857 40.678 0.946 1.754 o
-2 17 11 3.714 4.089 0.266 55.338 o
-2 17 12 0.028 0.118 0.158 197.759 o
-2 17 13 1.807 1.833 0.197 114.661 o
-2 17 14 15.498 16.752 0.414 10.208 o
-2 17 15 12.720 13.342 0.532 10.077 o
-2 17 16 9.126 9.194 0.542 12.407 o
-2 18 1 2.687 2.670 0.118 215.692 o
-2 18 2 113.622 121.175 1.261 0.271 o
-2 18 3 3.644 3.685 0.168 110.604 o
-2 18 4 8.195 7.499 0.256 34.302 o
-2 18 5 12.198 11.648 0.384 15.148 o
-2 18 6 7.145 5.715 0.325 30.686 o
-2 18 7 18.257 18.003 0.670 5.760 o
-2 18 8 9.971 9.834 0.365 19.384 o
-2 18 9 19.501 19.836 0.443 7.361 o
-2 18 10 6.409 6.642 0.286 36.909 o
-2 18 11 0.638 0.463 0.158 194.571 o
-2 18 12 2.198 2.128 0.197 110.152 o
-2 18 13 10.952 11.056 0.335 18.900 o
-2 18 14 2.689 2.720 0.197 102.928 o
-2 18 15 0.004 -0.069 0.207 114.818 o
-2 19 1 18.430 19.068 0.365 8.799 o
-2 19 3 1.520 1.606 0.177 142.931 o
-2 19 4 74.472 79.315 1.685 0.495 o
-2 19 5 0.005 -0.374 0.217 104.617 o
-2 19 6 10.135 9.992 0.266 25.154 o
-2 19 7 0.000 -0.049 0.207 114.818 o
-2 19 8 1.292 1.045 0.138 236.104 o
-2 19 9 11.485 11.923 0.345 17.270 o
-2 19 10 3.037 2.946 0.217 84.664 o
-2 19 11 1.685 1.646 0.177 140.940 o
-2 19 12 3.322 3.439 0.325 41.114 o
-2 19 13 0.795 0.867 0.158 191.466 o
-2 19 14 3.998 4.030 0.236 65.020 o
-2 20 1 35.490 37.899 0.847 2.108 o
-2 20 2 61.170 64.879 1.498 0.701 o
-2 20 3 75.808 78.290 3.814 0.226 o
-2 20 4 13.449 12.731 0.611 8.375 o
-2 20 5 2.520 2.365 0.207 97.771 o
-2 20 6 1.687 1.734 0.197 115.977 o
-2 20 7 0.167 0.069 0.118 351.077 o
-2 20 8 1.004 1.035 0.138 242.304 o
-2 20 9 28.399 30.410 0.572 3.610 o
-2 20 10 0.005 -0.030 0.197 126.587 o
-2 20 11 8.304 8.612 0.296 28.259 o
-2 20 12 0.420 0.256 0.138 256.138 o
-2 20 13 2.435 2.247 0.207 98.893 o
-2 21 1 10.425 10.337 0.374 18.034 o
-2 21 2 2.780 2.552 0.168 132.804 o
-2 21 3 9.011 8.859 0.483 14.831 o
-2 21 4 1.639 1.399 0.335 42.670 o
-2 21 5 2.837 2.601 0.355 36.375 o
-2 21 6 0.415 0.424 0.168 173.879 o
-2 21 7 0.770 0.788 0.168 170.717 o
-2 21 8 23.252 24.665 0.887 3.331 o
-2 21 9 3.271 3.547 0.227 75.377 o
-2 21 10 0.749 0.709 0.148 218.406 o
-2 21 11 8.482 8.691 0.286 28.706 o
-2 22 1 0.792 0.749 0.128 286.665 o
-2 22 2 3.601 3.409 0.246 64.676 o
-2 22 3 5.443 5.242 0.493 17.675 o
-2 22 4 0.196 0.128 0.158 197.499 o
-2 22 5 9.737 9.844 0.709 7.925 o
-2 22 6 2.025 2.099 0.227 86.999 o
-2 22 7 0.002 -0.128 0.197 126.587 o
-2 22 8 0.091 -0.158 0.197 126.572 o
-2 23 1 7.958 7.726 0.463 16.920 o
-2 23 2 3.282 2.700 0.305 46.826 o
-2 23 3 0.172 -0.049 0.207 114.775 o
-2 23 4 1.564 1.271 0.168 160.163 o
-2 23 5 1.580 1.330 0.177 143.743 o
-2 23 6 0.001 -0.177 0.236 87.908 o
-1 0 2 167.170 171.993 1.784 0.129 o
-1 0 4 1600.770 1590.700 27.345 0.001 o
-1 0 6 2142.870 2215.540 39.239 0.001 o
-1 0 8 31.500 31.937 0.434 3.475 o
-1 0 10 44.736 38.608 0.512 1.970 o
-1 0 12 518.027 520.728 7.243 0.013 o
-1 0 14 4.247 3.725 0.197 83.097 o
-1 0 16 29.340 29.138 0.463 3.888 o
-1 0 18 277.615 291.158 4.277 0.042 o
-1 0 20 38.584 40.697 0.739 2.017 o
-1 0 22 3.025 3.341 0.246 67.636 o
-1 0 24 0.003 -0.030 0.197 126.587 o
-1 1 1 1.669 3.005 0.108 285.413 o
-1 1 2 536.532 572.185 5.341 0.012 o
-1 1 3 749.570 781.081 7.036 0.006 o
-1 1 4 1629.010 1712.620 18.605 0.001 o
-1 1 5 0.338 0.503 0.079 767.790 o
-1 1 6 567.250 586.533 6.188 0.011 o
-1 1 7 0.378 0.207 0.059 1357.420 o
-1 1 8 54.713 47.073 0.483 1.378 o
-1 1 9 53.087 50.758 0.512 1.360 o
-1 1 10 0.441 0.404 0.069 986.642 o
-1 1 11 95.641 92.737 0.985 0.411 o
-1 1 12 171.135 172.505 1.971 0.123 o
-1 1 13 6.760 6.947 0.217 47.262 o
-1 1 14 5.076 4.109 0.148 99.253 o
-1 1 15 9.608 9.312 0.187 33.709 o
-1 1 16 10.746 10.563 0.207 26.907 o
-1 1 17 97.131 99.358 1.015 0.385 o
-1 1 18 13.315 13.421 0.286 16.386 o
-1 1 19 9.784 10.051 0.207 30.300 o
-1 1 20 41.994 42.855 0.581 1.945 o
-1 1 21 0.106 0.217 0.138 258.002 o
-1 1 22 0.853 0.729 0.128 285.571 o
-1 1 23 4.937 5.489 0.197 69.277 o
-1 1 24 0.906 1.094 0.128 280.000 o
-1 2 1 226.789 249.170 2.848 0.065 o
-1 2 2 3.227 2.858 0.118 190.666 o
-1 2 3 537.546 587.104 5.824 0.012 o
-1 2 4 335.956 367.270 3.646 0.031 o
-1 2 5 441.989 486.702 4.720 0.018 o
-1 2 6 5.371 5.134 0.168 78.821 o
-1 2 7 174.511 170.347 1.971 0.121 o
-1 2 8 18.637 17.442 0.227 10.713 o
-1 2 9 278.939 276.672 2.503 0.049 o
-1 2 10 44.408 45.013 0.552 1.793 o
-1 2 11 10.026 8.465 0.207 32.024 o
-1 2 12 1.180 1.222 0.108 364.329 o
-1 2 13 9.523 8.504 0.207 33.642 o
-1 2 14 11.386 10.662 0.197 25.738 o
-1 2 15 9.353 9.095 0.187 35.048 o
-1 2 16 5.799 5.518 0.158 75.941 o
-1 2 17 2.181 2.326 0.118 244.943 o
-1 2 18 0.508 0.700 0.099 486.270 o
-1 2 19 151.639 157.438 2.148 0.147 o
-1 2 20 9.725 10.061 0.256 26.691 o
-1 2 21 8.580 8.829 0.246 32.209 o
-1 2 22 0.088 0.099 0.118 351.373 o
-1 2 23 3.136 3.557 0.197 94.562 o
-1 2 24 13.148 14.101 0.365 13.846 o
-1 3 1 148.253 159.419 1.587 0.160 o
-1 3 2 408.893 440.102 4.346 0.021 o
-1 3 3 2678.680 2870.910 31.070 0.000 o
-1 3 4 1.935 2.128 0.118 260.402 o
-1 3 5 64.256 67.845 0.818 0.831 o
-1 3 6 34.921 36.588 0.443 2.828 o
-1 3 7 10.906 10.613 0.177 28.160 o
-1 3 8 33.471 32.479 0.414 3.241 o
-1 3 9 120.561 122.890 1.281 0.250 o
-1 3 10 6.712 7.056 0.158 59.990 o
-1 3 11 8.158 8.494 0.197 40.089 o
-1 3 12 25.797 24.310 0.335 5.484 o
-1 3 13 0.015 0.030 0.079 791.106 o
-1 3 14 42.556 42.136 0.611 1.907 o
-1 3 15 9.401 8.563 0.187 35.888 o
-1 3 16 2.626 2.276 0.118 226.593 o
-1 3 17 2.309 2.385 0.118 238.001 o
-1 3 18 38.618 38.411 0.463 2.416 o
-1 3 19 2.018 2.178 0.118 255.571 o
-1 3 20 2.404 2.582 0.177 126.407 o
-1 3 21 3.033 3.124 0.177 114.450 o
-1 3 22 16.765 18.122 0.374 9.767 o
-1 3 23 7.593 7.972 0.394 21.530 o
-1 3 24 2.223 2.513 0.197 108.215 o
-1 4 1 30.525 28.064 0.374 4.026 o
-1 4 2 2981.460 3021.760 65.884 0.000 o
-1 4 3 432.078 470.689 4.395 0.019 o
-1 4 4 288.732 310.866 3.439 0.041 o
-1 4 5 276.464 291.838 3.153 0.046 o
-1 4 6 1.638 1.547 0.099 381.807 o
-1 4 7 7.604 7.243 0.158 52.599 o
-1 4 8 3.702 3.725 0.128 147.774 o
-1 4 9 303.384 305.101 3.065 0.040 o
-1 4 10 350.692 353.179 3.833 0.030 o
-1 4 11 0.563 0.690 0.089 591.357 o
-1 4 12 15.778 15.353 0.256 13.463 o
-1 4 13 81.627 79.572 1.143 0.527 o
-1 4 14 0.914 0.847 0.089 556.239 o
-1 4 15 0.848 0.700 0.099 468.651 o
-1 4 16 10.662 10.012 0.217 27.212 o
-1 4 17 1.692 1.567 0.128 248.978 o
-1 4 18 0.556 0.581 0.118 342.072 o
-1 4 19 2.574 2.148 0.256 67.455 o
-1 4 20 7.721 7.824 0.276 32.818 o
-1 4 21 4.664 4.474 0.236 60.061 o
-1 4 22 15.315 16.397 0.355 11.516 o
-1 4 23 2.680 2.976 0.227 80.832 o
-1 5 1 31.887 38.086 0.473 3.005 o
-1 5 2 95.099 102.817 1.005 0.387 o
-1 5 3 88.739 93.978 0.976 0.448 o
-1 5 4 491.256 544.840 5.843 0.014 o
-1 5 5 133.001 135.878 1.675 0.198 o
-1 5 6 692.626 715.720 7.489 0.007 o
-1 5 7 1090.160 1129.840 12.662 0.003 o
-1 5 8 95.631 94.678 0.966 0.408 o
-1 5 9 48.136 45.821 0.522 1.627 o
-1 5 10 83.069 82.774 1.104 0.509 o
-1 5 11 49.481 48.935 0.611 1.467 o
-1 5 12 42.422 41.210 0.572 1.975 o
-1 5 13 148.188 150.353 1.774 0.162 o
-1 5 14 37.123 36.253 0.601 2.430 o
-1 5 15 53.209 52.532 0.709 1.247 o
-1 5 16 5.798 5.715 0.187 64.816 o
-1 5 17 3.408 3.370 0.158 126.130 o
-1 5 18 0.092 0.010 0.108 418.287 o
-1 5 19 5.032 4.937 0.325 36.051 o
-1 5 20 4.183 3.971 0.256 56.933 o
-1 5 21 15.240 16.476 0.493 9.056 o
-1 5 22 0.239 0.217 0.138 257.450 o
-1 5 23 4.115 4.168 0.227 68.010 o
-1 6 1 509.415 565.435 5.676 0.013 o
-1 6 2 4.689 6.060 0.177 76.936 o
-1 6 3 0.682 1.340 0.089 554.863 o
-1 6 4 0.105 0.089 0.059 1401.640 o
-1 6 5 33.949 33.898 0.463 3.025 o
-1 6 6 27.627 28.094 0.335 4.647 o
-1 6 7 574.573 584.089 6.050 0.011 o
-1 6 8 742.979 766.409 8.770 0.006 o
-1 6 9 762.815 792.975 9.923 0.006 o
-1 6 10 360.587 371.301 4.158 0.027 o
-1 6 11 403.979 412.629 4.888 0.022 o
-1 6 12 1.849 1.931 0.128 237.253 o
-1 6 13 0.355 0.414 0.079 769.857 o
-1 6 14 108.227 107.005 1.182 0.314 o
-1 6 15 0.821 0.798 0.089 566.696 o
-1 6 16 0.159 0.217 0.099 504.330 o
-1 6 17 60.538 58.967 0.798 0.974 o
-1 6 18 9.188 8.810 0.217 33.306 o
-1 6 19 2.279 2.296 0.227 85.120 o
-1 6 20 9.574 9.608 0.286 25.312 o
-1 6 21 0.015 -0.099 0.227 95.718 o
-1 6 22 4.425 4.878 0.276 48.304 o
-1 6 23 1.059 1.133 0.177 149.440 o
-1 7 1 203.665 226.535 2.059 0.083 o
-1 7 2 121.034 136.971 1.380 0.229 o
-1 7 3 36.978 36.302 0.404 2.704 o
-1 7 4 4.107 4.681 0.148 110.523 o
-1 7 5 89.168 91.347 0.956 0.455 o
-1 7 6 319.660 343.384 3.360 0.034 o
-1 7 7 15.782 15.067 0.256 13.594 o
-1 7 8 100.521 100.974 1.271 0.350 o
-1 7 9 17.751 16.890 0.315 10.392 o
-1 7 10 35.570 34.026 0.532 2.748 o
-1 7 11 9.092 8.652 0.217 33.899 o
-1 7 12 7.481 7.056 0.168 52.272 o
-1 7 13 59.307 57.479 0.601 1.073 o
-1 7 14 1.912 1.833 0.099 349.532 o
-1 7 15 0.129 0.236 0.079 786.952 o
-1 7 16 66.611 64.869 0.867 0.807 o
-1 7 17 6.414 6.070 0.207 53.769 o
-1 7 18 0.096 -0.118 0.246 81.009 o
-1 7 19 13.852 14.269 0.493 10.188 o
-1 7 20 2.004 2.128 0.207 102.544 o
-1 7 21 0.553 0.374 0.168 173.366 o
-1 7 22 0.058 -0.059 0.207 114.813 o
-1 7 23 12.551 13.510 0.365 14.637 o
-1 8 1 0.130 -0.020 0.207 114.793 o
-1 8 2 9.824 9.795 0.177 32.890 o
-1 8 3 24.248 25.581 0.335 5.722 o
-1 8 4 105.529 110.277 1.045 0.325 o
-1 8 5 54.305 55.873 0.591 1.219 o
-1 8 6 1.222 1.478 0.089 493.677 o
-1 8 7 96.417 100.235 1.419 0.359 o
-1 8 8 11.593 10.504 0.236 23.362 o
-1 8 9 0.294 0.256 0.089 617.511 o
-1 8 10 1.365 1.242 0.108 353.810 o
-1 8 11 0.052 0.059 0.069 1032.570 o
-1 8 12 41.596 40.530 0.581 2.030 o
-1 8 13 9.346 9.135 0.207 33.168 o
-1 8 14 13.423 12.534 0.246 18.088 o
-1 8 15 7.298 6.898 0.187 50.194 o
-1 8 16 0.047 -0.010 0.227 95.716 o
-1 8 17 1.227 1.133 0.148 208.342 o
-1 8 18 7.618 6.937 0.315 29.554 o
-1 8 19 4.621 3.991 0.266 51.958 o
-1 8 20 13.632 13.244 0.384 13.249 o
-1 8 21 0.942 1.025 0.177 150.762 o
-1 8 22 0.606 0.483 0.177 154.361 o
-1 9 1 118.510 126.418 1.212 0.253 o
-1 9 2 332.406 362.373 3.331 0.032 o
-1 9 3 188.572 207.191 1.872 0.098 o
-1 9 4 0.926 1.114 0.079 663.375 o
-1 9 5 93.953 99.230 1.133 0.393 o
-1 9 6 64.997 70.052 0.936 0.777 o
-1 9 7 4.653 4.572 0.168 90.569 o
-1 9 8 0.018 -0.020 0.227 95.718 o
-1 9 9 0.592 0.621 0.128 291.736 o
-1 9 10 3.337 3.104 0.168 119.686 o
-1 9 11 19.034 18.427 0.424 8.007 o
-1 9 12 17.496 17.077 0.365 9.793 o
-1 9 13 2.517 2.434 0.148 166.994 o
-1 9 14 7.275 6.740 0.197 48.899 o
-1 9 15 53.931 52.492 1.005 1.090 o
-1 9 16 79.168 79.572 1.508 0.493 o
-1 9 17 5.617 5.301 0.325 34.390 o
-1 9 18 0.660 0.611 0.177 153.799 o
-1 9 19 5.927 5.449 0.286 40.161 o
-1 9 20 13.895 13.559 0.374 13.182 o
-1 9 21 0.000 -0.108 0.207 114.818 o
-1 9 22 3.415 3.173 0.404 27.802 o
-1 10 1 873.201 977.709 11.519 0.004 o
-1 10 2 701.936 772.597 8.553 0.007 o
-1 10 3 27.269 28.646 0.355 4.604 o
-1 10 4 13.148 14.160 0.227 17.932 o
-1 10 5 0.000 -0.020 0.236 87.908 o
-1 10 6 82.447 82.341 0.946 0.533 o
-1 10 7 162.256 165.972 2.670 0.123 o
-1 10 8 15.355 13.204 0.296 14.050 o
-1 10 9 78.379 74.881 1.685 0.485 o
-1 10 10 0.000 0.345 0.207 114.775 o
-1 10 11 10.272 9.450 0.286 24.084 o
-1 10 12 4.189 3.991 0.197 82.399 o
-1 10 13 1.324 1.350 0.128 264.520 o
-1 10 14 18.272 18.141 0.641 6.015 o
-1 10 15 9.300 8.800 0.374 20.281 o
-1 10 16 123.658 117.391 3.912 0.147 o
-1 10 17 42.779 40.372 1.035 1.522 o
-1 10 18 17.145 16.801 0.424 9.192 o
-1 10 19 4.131 4.060 0.236 64.187 o
-1 10 20 8.288 7.844 0.315 27.221 o
-1 10 21 9.677 9.489 0.315 23.116 o
-1 10 22 0.572 0.434 0.315 49.280 o
-1 11 1 18.353 18.772 0.276 9.930 o
-1 11 2 239.831 259.822 2.552 0.061 o
-1 11 3 78.021 81.158 0.828 0.589 o
-1 11 4 10.585 10.771 0.207 27.058 o
-1 11 5 36.965 37.386 0.552 2.469 o
-1 11 6 71.371 73.551 0.995 0.668 o
-1 11 7 104.161 104.276 1.853 0.294 o
-1 11 8 3.974 4.434 0.168 100.474 o
-1 11 9 4.652 4.523 0.197 75.796 o
-1 11 10 1.718 1.774 0.138 216.334 o
-1 11 11 11.399 11.549 0.276 20.769 o
-1 11 12 12.322 12.170 0.335 16.568 o
-1 11 13 3.650 3.814 0.197 88.346 o
-1 11 14 149.856 157.409 3.311 0.125 o
-1 11 15 0.129 0.296 0.128 298.852 o
-1 11 16 40.402 36.785 1.005 1.700 o
-1 11 17 2.410 1.833 0.355 37.285 o
-1 11 18 0.025 0.128 0.177 156.259 o
-1 11 19 6.459 6.247 0.522 15.233 o
-1 11 20 0.153 -0.049 0.315 49.442 o
-1 11 21 2.282 2.257 0.384 31.922 o
-1 12 1 108.206 114.356 1.143 0.303 o
-1 12 2 8.387 7.775 0.187 41.987 o
-1 12 3 0.970 1.005 0.099 451.436 o
-1 12 4 107.919 112.799 1.133 0.308 o
-1 12 5 9.743 9.470 0.246 28.123 o
-1 12 6 2.998 2.917 0.148 150.526 o
-1 12 7 1.602 1.429 0.099 389.204 o
-1 12 8 0.752 0.887 0.099 468.779 o
-1 12 9 210.575 222.041 3.045 0.075 o
-1 12 10 18.236 18.821 0.404 8.485 o
-1 12 11 0.149 0.148 0.108 417.505 o
-1 12 12 3.592 3.321 0.187 98.182 o
-1 12 13 2.468 2.592 0.158 150.953 o
-1 12 14 18.018 18.141 0.542 7.091 o
-1 12 15 40.895 38.815 1.823 0.927 o
-1 12 16 21.876 21.965 1.537 1.666 o
-1 12 17 1.724 1.587 0.197 116.256 o
-1 12 18 1.966 1.902 0.197 113.091 o
-1 12 19 0.185 0.256 0.315 49.422 o
-1 12 20 13.732 14.200 0.631 7.755 o
-1 12 21 36.266 35.268 0.907 2.045 o
-1 13 1 21.751 22.487 0.325 7.038 o
-1 13 2 19.854 20.201 0.296 8.536 o
-1 13 3 17.355 17.047 0.365 9.880 o
-1 13 4 2.285 2.138 0.148 175.750 o
-1 13 5 26.145 26.911 0.394 4.871 o
-1 13 6 0.042 0.069 0.079 790.766 o
-1 13 7 1.679 1.596 0.108 325.797 o
-1 13 8 21.751 22.191 0.325 7.092 o
-1 13 9 20.948 21.856 0.621 5.238 o
-1 13 10 17.055 16.831 0.374 9.963 o
-1 13 11 2.177 2.040 0.148 179.358 o
-1 13 12 6.386 6.129 0.276 39.408 o
-1 13 13 1.597 1.429 0.138 224.093 o
-1 13 14 5.496 5.154 0.227 56.608 o
-1 13 15 36.819 36.312 3.203 0.413 o
-1 13 16 5.337 5.587 0.512 16.468 o
-1 13 17 0.151 0.148 0.168 175.035 o
-1 13 18 3.282 3.429 0.394 29.100 o
-1 13 19 4.791 4.966 0.266 49.364 o
-1 13 20 25.849 24.044 0.739 3.704 o
-1 14 1 6.313 6.326 0.148 69.498 o
-1 14 2 52.201 54.424 0.562 1.311 o
-1 14 3 0.299 0.305 0.069 1009.780 o
-1 14 4 0.269 0.335 0.079 778.175 o
-1 14 5 7.504 7.460 0.187 47.378 o
-1 14 6 35.302 36.470 0.453 2.784 o
-1 14 7 29.441 30.035 0.404 3.966 o
-1 14 8 3.298 3.134 0.148 141.553 o
-1 14 9 14.210 14.111 0.325 13.968 o
-1 14 10 1.964 1.941 0.138 207.272 o
-1 14 11 0.751 0.788 0.128 287.119 o
-1 14 12 11.415 11.253 0.424 14.559 o
-1 14 13 0.006 -0.079 0.236 87.908 o
-1 14 14 6.466 6.701 0.305 33.723 o
-1 14 15 9.726 9.381 0.985 4.535 o
-1 14 16 10.418 10.485 0.729 7.390 o
-1 14 17 11.707 12.180 0.680 7.746 o
-1 14 18 2.398 2.365 0.207 98.723 o
-1 14 19 0.263 0.217 0.148 224.273 o
-1 15 1 9.678 9.667 0.187 32.836 o
-1 15 2 27.766 28.675 0.355 4.506 o
-1 15 3 12.673 12.475 0.197 21.048 o
-1 15 4 0.040 0.010 0.079 791.029 o
-1 15 5 215.629 232.171 2.779 0.073 o
-1 15 6 103.697 110.592 1.212 0.323 o
-1 15 7 0.435 0.394 0.099 495.264 o
-1 15 8 0.153 0.158 0.089 622.802 o
-1 15 9 12.673 12.436 0.256 18.912 o
-1 15 10 0.004 -0.020 0.217 104.617 o
-1 15 11 8.403 8.149 0.256 32.684 o
-1 15 12 0.526 0.414 0.168 173.398 o
-1 15 13 49.791 52.591 0.867 1.259 o
-1 15 14 7.425 7.933 0.325 27.871 o
-1 15 15 12.279 12.022 1.271 2.734 o
-1 15 16 0.012 -0.010 0.227 95.718 o
-1 15 17 0.116 -0.069 0.227 95.704 o
-1 15 18 4.504 4.710 0.266 51.001 o
-1 16 1 5.133 5.026 0.148 91.585 o
-1 16 2 0.011 0.049 0.069 1033.210 o
-1 16 3 43.762 45.831 0.719 1.673 o
-1 16 4 12.740 12.978 0.246 18.763 o
-1 16 5 7.830 7.844 0.207 41.657 o
-1 16 6 58.507 62.534 0.877 0.953 o
-1 16 7 15.637 16.141 0.286 12.681 o
-1 16 8 8.619 8.484 0.207 36.995 o
-1 16 9 3.757 3.419 0.168 110.891 o
-1 16 10 19.700 19.521 0.700 5.110 o
-1 16 12 77.235 82.193 1.291 0.529 o
-1 16 13 12.258 12.771 0.374 14.921 o
-1 16 14 0.036 -0.118 0.217 104.616 o
-1 16 15 3.565 3.252 0.246 65.239 o
-1 16 16 0.732 0.650 0.177 153.315 o
-1 16 17 3.118 2.769 0.207 91.283 o
-1 16 18 7.329 6.996 1.015 4.494 o
-1 17 1 0.484 0.512 0.089 602.287 o
-1 17 2 0.307 0.286 0.099 500.674 o
-1 17 3 115.211 122.427 1.616 0.251 o
-1 17 4 176.992 190.035 2.414 0.107 o
-1 17 5 98.046 106.266 1.301 0.348 o
-1 17 6 0.005 -0.158 0.227 95.718 o
-1 17 7 9.826 9.627 0.227 29.253 o
-1 17 8 6.439 6.287 0.187 57.803 o
-1 17 9 0.365 0.374 0.108 412.636 o
-1 17 11 0.045 0.089 0.148 224.999 o
-1 17 12 4.877 4.927 0.276 46.617 o
-1 17 13 63.749 69.471 1.123 0.751 o
-1 17 14 12.906 14.042 0.394 13.231 o
-1 17 15 5.135 5.085 0.453 20.696 o
-1 17 16 2.276 1.981 0.197 110.111 o
-1 17 17 2.391 2.178 0.197 108.212 o
-1 18 1 3.597 3.528 0.138 141.758 o
-1 18 2 6.305 6.247 0.187 58.907 o
-1 18 3 4.081 4.237 0.168 100.353 o
-1 18 4 18.726 19.472 0.355 8.671 o
-1 18 5 71.642 77.295 1.311 0.589 o
-1 18 6 38.868 41.032 0.700 2.040 o
-1 18 7 3.928 3.203 0.286 50.012 o
-1 18 8 0.402 0.345 0.128 296.372 o
-1 18 9 0.064 0.158 0.118 351.353 o
-1 18 10 0.005 0.089 0.148 225.030 o
-1 18 11 1.687 1.685 0.187 127.584 o
-1 18 12 46.539 50.147 0.847 1.400 o
-1 18 13 9.137 9.647 0.325 23.205 o
-1 18 14 2.964 2.986 0.227 79.069 o
-1 18 15 0.144 -0.049 0.217 104.592 o
-1 18 16 0.011 -0.099 0.227 95.718 o
-1 19 1 0.000 -0.187 0.227 95.718 o
-1 19 2 0.158 0.079 0.099 505.241 o
-1 19 3 0.638 0.552 0.118 340.557 o
-1 19 4 16.393 16.210 0.473 8.930 o
-1 19 5 26.820 27.710 0.769 3.296 o
-1 19 6 1.276 1.320 0.148 205.816 o
-1 19 7 3.755 3.478 0.207 82.964 o
-1 19 8 9.222 9.351 0.483 14.533 o
-1 19 9 0.883 1.084 0.138 244.148 o
-1 19 10 23.749 25.256 0.670 4.204 o
-1 19 11 8.910 9.233 0.315 24.697 o
-1 19 12 2.675 2.927 0.217 87.294 o
-1 19 13 6.155 6.149 0.276 40.132 o
-1 19 14 5.949 6.425 0.276 40.354 o
-1 19 15 3.193 3.025 0.355 35.654 o
-1 20 1 4.971 4.750 0.227 60.883 o
-1 20 2 34.736 35.140 1.192 1.689 o
-1 20 3 55.213 57.291 1.793 0.698 o
-1 20 4 7.068 7.253 0.305 31.599 o
-1 20 5 9.077 9.499 0.355 21.382 o
-1 20 6 1.391 1.350 0.148 203.407 o
-1 20 7 1.232 1.261 0.148 207.134 o
-1 20 8 4.141 3.932 0.236 64.488 o
-1 20 9 0.037 0.000 0.118 351.612 o
-1 20 10 0.008 -0.049 0.197 126.587 o
-1 20 11 0.321 0.266 0.148 223.891 o
-1 20 12 0.001 0.069 0.158 197.787 o
-1 20 13 4.081 4.178 0.246 60.386 o
-1 21 1 4.374 3.942 0.256 56.152 o
-1 21 2 13.368 13.224 0.384 13.467 o
-1 21 3 40.471 38.253 0.966 1.715 o
-1 21 4 28.511 27.621 0.778 3.109 o
-1 21 5 56.768 58.385 4.760 0.184 o
-1 21 6 4.184 4.011 0.207 77.204 o
-1 21 7 0.837 0.818 0.138 247.354 o
-1 21 8 5.244 5.449 0.256 49.059 o
-1 21 9 0.191 0.049 0.118 350.998 o
-1 21 10 0.067 0.030 0.177 156.262 o
-1 21 11 0.485 0.365 0.148 222.570 o
-1 22 1 5.670 5.331 0.276 43.142 o
-1 22 2 9.989 9.312 0.325 22.094 o
-1 22 3 20.644 19.274 0.660 5.257 o
-1 22 4 34.751 32.380 0.847 2.307 o
-1 22 5 0.497 0.453 0.266 69.179 o
-1 22 6 0.031 0.030 0.138 258.325 o
-1 22 7 1.192 1.094 0.227 92.743 o
-1 22 8 4.427 4.375 0.236 61.646 o
-1 22 9 0.254 0.099 0.128 298.705 o
-1 23 1 4.943 4.553 0.246 55.198 o
-1 23 2 3.014 2.789 0.207 92.064 o
-1 23 3 8.572 7.775 0.463 16.442 o
-1 23 4 0.305 0.562 0.276 64.427 o
-1 23 5 3.917 3.055 0.374 31.446 o
-1 23 6 11.644 11.145 0.512 11.597 o
-1 23 7 1.038 0.719 0.266 68.430 o
-1 24 1 0.593 0.394 0.148 221.594 o
-1 24 2 3.943 3.163 0.365 32.876 o
0 0 2 706.297 738.295 9.598 0.007 o
0 0 4 903.936 953.183 12.130 0.004 o
0 0 6 1117.310 1164.370 14.899 0.003 o
0 0 8 280.663 291.995 3.212 0.045 o
0 0 10 200.581 201.910 3.074 0.083 o
0 0 12 12.976 12.603 0.365 14.663 o
0 0 14 71.002 69.106 1.419 0.608 o
0 0 16 2.378 2.316 0.158 155.263 o
0 0 18 1.285 1.281 0.148 205.997 o
0 0 20 31.398 31.996 0.887 2.446 o
0 0 22 10.596 11.125 0.365 17.872 o
0 0 24 0.177 0.128 0.148 224.718 o
0 1 1 1546.480 1291.400 19.994 0.002 o
0 1 3 0.118 0.404 0.069 1021.420 o
0 1 4 149.470 161.951 1.793 0.153 o
0 1 5 568.063 606.064 6.445 0.011 o
0 1 6 298.552 308.934 2.897 0.041 o
0 1 7 436.834 449.769 5.400 0.018 o
0 1 8 0.025 0.128 0.079 790.621 o
0 1 9 3.564 3.577 0.138 141.960 o
0 1 10 0.067 0.049 0.069 1032.380 o
0 1 11 17.571 17.727 0.305 10.376 o
0 1 12 12.208 12.052 0.256 19.930 o
0 1 13 59.740 57.528 0.690 1.037 o
0 1 14 87.073 84.981 1.064 0.479 o
0 1 15 21.083 19.422 0.296 8.143 o
0 1 16 9.926 9.509 0.197 31.476 o
0 1 17 0.039 -0.049 0.236 87.906 o
0 1 18 1.469 1.350 0.108 344.988 o
0 1 19 0.547 0.512 0.099 488.674 o
0 1 20 1.672 1.695 0.138 218.633 o
0 1 21 27.517 27.601 0.424 4.433 o
0 1 22 3.974 4.602 0.197 81.562 o
0 1 23 7.488 8.277 0.227 39.341 o
0 1 24 0.769 0.877 0.118 332.726 o
0 2 0 364.609 406.470 4.631 0.025 o
0 2 1 322.254 363.408 3.942 0.032 o
0 2 2 24.170 23.354 0.414 5.644 o
0 2 3 1475.500 1604.640 18.703 0.002 o
0 2 4 185.256 206.009 2.030 0.100 o
0 2 5 9.399 9.756 0.177 34.513 o
0 2 6 547.544 589.065 5.705 0.012 o
0 2 7 607.453 622.599 6.238 0.010 o
0 2 8 229.060 229.895 2.286 0.071 o
0 2 9 44.507 45.063 0.503 1.821 o
0 2 10 7.573 7.134 0.177 49.640 o
0 2 11 6.932 6.533 0.187 53.620 o
0 2 12 12.436 12.978 0.266 18.496 o
0 2 13 134.747 132.527 1.705 0.197 o
0 2 14 101.752 99.684 1.222 0.351 o
0 2 15 22.776 22.349 0.296 6.876 o
0 2 16 8.405 7.785 0.187 41.879 o
0 2 17 28.909 29.227 0.434 4.032 o
0 2 18 0.319 0.266 0.089 616.405 o
0 2 19 37.863 37.948 0.453 2.503 o
0 2 20 62.587 66.406 1.488 0.682 o
0 2 21 34.417 37.002 0.522 2.735 o
0 2 22 1.655 1.941 0.148 192.038 o
0 2 23 4.290 4.779 0.197 77.875 o
0 2 24 0.481 0.473 0.148 222.195 o
0 3 1 33.788 45.752 0.591 2.343 o
0 3 2 52.929 57.557 0.641 1.215 o
0 3 3 61.645 72.033 0.749 0.854 o
0 3 4 40.492 41.761 0.552 2.087 o
0 3 5 87.042 94.087 0.966 0.459 o
0 3 6 57.026 56.237 0.611 1.138 o
0 3 7 280.335 280.358 2.631 0.048 o
0 3 8 103.634 99.664 0.926 0.359 o
0 3 9 221.789 224.968 2.109 0.075 o
0 3 10 22.337 21.147 0.296 7.260 o
0 3 11 4.231 3.991 0.158 106.950 o
0 3 12 0.252 0.197 0.108 416.096 o
0 3 13 31.097 28.951 0.483 3.604 o
0 3 14 40.663 39.298 0.473 2.230 o
0 3 15 33.340 33.514 0.443 3.145 o
0 3 16 34.156 32.637 0.424 3.138 o
0 3 17 17.241 17.323 0.266 11.273 o
0 3 18 20.231 20.802 0.296 8.217 o
0 3 19 25.882 25.837 0.443 4.837 o
0 3 20 3.281 3.272 0.236 71.157 o
0 3 21 7.131 7.331 0.227 42.811 o
0 3 22 4.008 4.316 0.197 82.572 o
0 3 23 19.773 20.822 0.434 7.187 o
0 3 24 1.194 1.232 0.148 208.060 o
0 4 0 793.167 912.722 11.736 0.005 o
0 4 1 267.216 331.786 4.385 0.041 o
0 4 2 890.348 961.371 9.440 0.004 o
0 4 3 132.021 144.884 1.646 0.193 o
0 4 4 34.319 41.712 0.522 2.547 o
0 4 5 509.347 538.967 5.183 0.014 o
0 4 6 131.625 136.735 1.508 0.204 o
0 4 7 50.324 50.739 0.572 1.426 o
0 4 8 559.145 588.898 5.883 0.011 o
0 4 9 647.413 667.602 7.075 0.009 o
0 4 10 882.172 919.698 11.204 0.004 o
0 4 11 0.922 1.114 0.099 451.027 o
0 4 12 40.243 39.988 0.503 2.206 o
0 4 13 23.195 22.014 0.355 6.445 o
0 4 14 17.453 16.220 0.246 11.804 o
0 4 15 7.040 6.622 0.168 56.899 o
0 4 16 79.518 79.621 0.936 0.570 o
0 4 17 7.056 6.720 0.207 48.248 o
0 4 18 6.832 6.661 0.207 49.628 o
0 4 19 3.815 3.203 0.246 64.135 o
0 4 20 30.426 31.336 0.522 3.439 o
0 4 21 50.857 52.108 0.759 1.295 o
0 4 22 1.418 1.389 0.168 161.237 o
0 4 23 1.088 1.212 0.158 186.091 o
0 5 1 47.196 55.350 0.690 1.393 o
0 5 2 12.747 13.017 0.236 19.069 o
0 5 3 960.027 1063.350 11.086 0.004 o
0 5 4 306.464 321.528 3.035 0.038 o
0 5 5 592.078 664.557 6.770 0.010 o
0 5 6 68.069 67.076 0.729 0.799 o
0 5 7 161.958 163.479 1.784 0.138 o
0 5 8 178.995 181.315 2.197 0.111 o
0 5 9 19.752 19.206 0.335 8.455 o
0 5 10 131.562 131.611 1.587 0.207 o
0 5 11 178.470 187.907 1.951 0.111 o
0 5 12 13.231 13.126 0.286 16.665 o
0 5 13 31.771 30.774 0.424 3.536 o
0 5 14 0.241 0.256 0.099 502.504 o
0 5 15 0.267 0.443 0.108 413.892 o
0 5 16 4.761 4.070 0.177 86.853 o
0 5 17 0.461 0.374 0.108 410.485 o
0 5 18 4.945 4.237 0.177 83.856 o
0 5 19 2.871 2.257 0.266 61.848 o
0 5 20 6.417 6.553 0.256 42.093 o
0 5 21 3.415 3.646 0.207 85.118 o
0 5 22 0.012 -0.030 0.266 69.458 o
0 5 23 0.070 0.030 0.138 258.288 o
0 6 0 310.283 347.345 4.316 0.034 o
0 6 1 1180.980 1328.660 15.688 0.002 o
0 6 2 645.016 744.838 7.676 0.008 o
0 6 3 311.071 345.385 4.493 0.033 o
0 6 4 1090.050 1154.840 13.392 0.003 o
0 6 5 181.849 184.675 1.961 0.110 o
0 6 6 116.219 120.535 1.163 0.268 o
0 6 7 108.813 109.814 1.182 0.307 o
0 6 8 164.026 164.405 2.030 0.132 o
0 6 9 48.663 49.152 0.749 1.412 o
0 6 10 128.065 128.014 1.695 0.214 o
0 6 11 269.083 277.786 2.956 0.049 o
0 6 12 42.475 42.530 0.581 1.928 o
0 6 13 4.468 4.070 0.158 102.681 o
0 6 14 8.937 8.307 0.207 36.114 o
0 6 15 11.479 10.800 0.236 23.292 o
0 6 16 2.329 2.178 0.138 193.626 o
0 6 17 2.752 2.592 0.187 111.803 o
0 6 18 1.767 1.449 0.128 248.444 o
0 6 19 4.822 4.612 0.246 55.644 o
0 6 20 0.042 -0.296 0.236 87.906 o
0 6 21 6.334 6.297 0.256 42.901 o
0 6 22 3.928 3.833 0.217 74.951 o
0 6 23 0.380 0.266 0.138 256.411 o
0 7 1 366.857 406.095 4.454 0.025 o
0 7 2 146.464 159.793 1.587 0.162 o
0 7 3 148.985 155.438 1.577 0.161 o
0 7 4 10.813 10.209 0.187 28.414 o
0 7 5 10.672 11.776 0.197 26.129 o
0 7 6 148.922 157.340 1.646 0.159 o
0 7 7 21.716 21.846 0.296 7.365 o
0 7 8 29.592 29.070 0.404 4.018 o
0 7 9 26.762 26.389 0.394 4.798 o
0 7 10 104.507 106.483 1.478 0.312 o
0 7 11 4.171 3.774 0.168 102.329 o
0 7 12 183.238 185.798 2.434 0.104 o
0 7 13 92.051 88.824 0.976 0.443 o
0 7 14 58.131 56.513 0.926 0.999 o
0 7 15 3.188 3.104 0.158 132.544 o
0 7 16 26.859 26.507 0.374 4.837 o
0 7 17 4.957 4.966 0.197 71.269 o
0 7 18 24.497 24.093 0.660 4.227 o
0 7 19 0.831 0.749 0.158 191.692 o
0 7 20 5.006 4.937 0.236 56.935 o
0 7 21 8.049 7.992 0.266 32.824 o
0 7 22 2.503 2.523 0.177 125.504 o
0 7 23 0.022 0.128 0.128 299.541 o
0 8 0 120.149 143.022 1.577 0.219 o
0 8 1 1.292 1.173 0.079 604.291 o
0 8 2 229.426 250.776 2.306 0.067 o
0 8 3 0.933 1.054 0.079 666.675 o
0 8 4 94.191 93.564 1.015 0.415 o
0 8 5 72.679 73.068 1.025 0.652 o
0 8 6 14.789 15.451 0.256 14.389 o
0 8 7 22.010 21.797 0.374 6.736 o
0 8 8 156.103 157.576 1.764 0.148 o
0 8 9 86.246 87.051 1.114 0.472 o
0 8 10 41.714 41.495 0.631 1.949 o
0 8 11 118.032 119.165 1.724 0.244 o
0 8 12 259.020 258.718 2.956 0.054 o
0 8 13 53.256 51.714 0.631 1.292 o
0 8 14 13.686 13.057 0.217 18.242 o
0 8 15 1.215 1.222 0.118 311.233 o
0 8 16 35.335 34.371 0.581 2.672 o
0 8 17 23.109 22.113 0.424 6.031 o
0 8 18 150.749 152.767 3.163 0.129 o
0 8 19 5.605 5.912 0.246 48.875 o
0 8 20 23.339 23.492 0.542 5.100 o
0 8 21 0.039 0.059 0.148 225.017 o
0 8 22 14.016 14.476 0.335 13.724 o
0 9 1 8.436 9.824 0.177 38.265 o
0 9 2 12.794 13.865 0.207 19.302 o
0 9 3 9.132 9.322 0.177 36.403 o
0 9 4 247.390 259.270 2.680 0.058 o
0 9 5 80.281 80.143 0.946 0.560 o
0 9 6 73.934 78.143 0.976 0.622 o
0 9 7 2.060 1.991 0.118 257.864 o
0 9 8 60.506 60.179 0.818 0.957 o
0 9 9 9.977 9.696 0.256 26.529 o
0 9 10 14.429 13.727 0.434 11.306 o
0 9 11 12.300 11.904 0.227 21.122 o
0 9 12 14.103 13.993 0.286 15.171 o
0 9 13 0.469 0.443 0.089 605.146 o
0 9 14 6.838 6.523 0.158 61.144 o
0 9 15 31.307 30.084 0.483 3.504 o
0 9 16 16.704 16.397 0.286 11.724 o
0 9 17 12.440 11.874 0.325 16.974 o
0 9 18 17.713 17.422 0.483 8.016 o
0 9 19 16.783 16.397 0.562 7.502 o
0 9 20 4.348 4.198 0.266 52.628 o
0 9 21 0.738 0.877 0.138 248.495 o
0 9 22 0.771 0.641 0.138 249.828 o
0 10 0 0.287 0.207 0.099 502.055 o
0 10 1 161.868 175.698 1.596 0.135 o
0 10 2 507.298 555.601 5.518 0.013 o
0 10 3 13.928 13.638 0.207 17.736 o
0 10 4 19.446 19.915 0.276 8.989 o
0 10 5 88.339 90.569 1.222 0.438 o
0 10 6 19.612 18.733 0.335 8.632 o
0 10 7 38.381 38.914 0.631 2.215 o
0 10 8 0.020 0.049 0.108 418.430 o
0 10 9 2.141 2.079 0.138 200.345 o
0 10 10 77.054 77.305 1.409 0.530 o
0 10 11 114.681 114.977 1.222 0.279 o
0 10 12 2.482 2.720 0.138 181.645 o
0 10 13 1.582 1.606 0.108 331.174 o
0 10 14 3.702 3.804 0.158 117.174 o
0 10 15 30.188 29.119 0.463 3.768 o
0 10 16 7.302 6.376 0.286 34.725 o
0 10 17 40.291 38.184 0.808 1.911 o
0 10 18 21.137 20.930 0.493 6.250 o
0 10 19 0.006 -0.049 0.256 74.903 o
0 10 20 1.288 1.271 0.197 120.344 o
0 10 21 1.945 1.971 0.207 103.512 o
0 10 22 0.649 0.246 0.305 52.507 o
0 11 1 39.856 41.880 0.453 2.216 o
0 11 2 85.634 94.481 0.936 0.469 o
0 11 3 108.554 118.268 1.133 0.296 o
0 11 4 763.822 838.028 10.445 0.006 o
0 11 5 26.148 27.444 0.365 4.924 o
0 11 6 15.663 16.308 0.286 12.588 o
0 11 7 0.253 0.305 0.099 501.718 o
0 11 8 5.739 5.311 0.158 77.751 o
0 11 9 0.966 0.641 0.079 690.953 o
0 11 10 4.358 4.306 0.158 102.546 o
0 11 11 59.096 59.420 1.015 0.923 o
0 11 12 12.021 11.874 0.227 21.660 o
0 11 13 5.676 5.548 0.276 42.750 o
0 11 14 0.000 0.010 0.089 625.120 o
0 11 15 3.048 2.710 0.138 166.179 o
0 11 16 0.255 0.128 0.108 416.504 o
0 11 17 12.868 12.288 0.690 7.310 o
0 11 18 10.264 9.627 0.631 9.428 o
0 11 19 0.993 0.670 0.187 136.524 o
0 11 20 1.052 1.114 0.335 43.259 o
0 11 21 0.242 0.118 0.305 52.662 o
0 12 0 0.562 0.907 0.128 289.710 o
0 12 1 39.196 42.579 0.463 2.228 o
0 12 2 435.884 491.845 5.124 0.018 o
0 12 3 496.512 554.754 6.504 0.013 o
0 12 4 4.745 4.651 0.158 94.402 o
0 12 5 1.654 1.715 0.118 282.287 o
0 12 6 0.003 0.000 0.227 95.718 o
0 12 7 30.719 30.301 0.503 3.516 o
0 12 8 7.672 7.844 0.236 38.074 o
0 12 9 54.234 53.222 0.641 1.239 o
0 12 10 57.554 56.681 0.916 1.012 o
0 12 11 1.197 1.114 0.099 431.822 o
0 12 12 10.328 10.100 0.384 17.783 o
0 12 13 5.836 5.341 0.177 69.383 o
0 12 14 8.765 8.760 0.286 27.973 o
0 12 15 1.688 1.478 0.128 250.612 o
0 12 16 0.922 0.739 0.168 169.713 o
0 12 17 66.996 65.658 3.409 0.288 o
0 12 18 0.520 0.670 0.325 46.322 o
0 12 19 7.728 7.085 0.512 14.821 o
0 12 20 1.579 1.192 0.345 40.458 o
0 13 1 4.715 4.464 0.138 108.497 o
0 13 2 91.019 97.604 0.995 0.423 o
0 13 3 26.015 27.473 0.384 4.876 o
0 13 4 2.039 2.000 0.108 293.032 o
0 13 5 12.233 11.894 0.236 20.840 o
0 13 6 43.839 45.841 0.532 1.814 o
0 13 7 0.001 0.010 0.069 1033.360 o
0 13 8 52.754 53.192 0.739 1.237 o
0 13 9 3.805 3.538 0.138 136.767 o
0 13 10 1.046 1.133 0.108 373.460 o
0 13 11 0.014 0.010 0.089 625.105 o
0 13 12 3.902 3.715 0.168 106.595 o
0 13 13 16.433 16.111 0.355 10.867 o
0 13 14 13.556 12.928 0.443 11.850 o
0 13 15 1.987 1.488 0.187 125.701 o
0 13 16 36.080 35.997 2.562 0.603 o
0 13 17 8.682 8.238 0.778 7.072 o
0 13 18 6.069 5.282 0.493 17.308 o
0 13 19 0.029 -0.128 0.286 60.208 o
0 13 20 2.216 2.217 0.365 35.384 o
0 14 0 4.982 4.622 0.187 76.799 o
0 14 1 15.408 15.431 0.246 13.973 o
0 14 2 0.483 0.463 0.089 603.785 o
0 14 3 35.507 36.361 0.414 2.824 o
0 14 4 0.479 0.572 0.079 752.627 o
0 14 5 5.209 5.361 0.158 83.690 o
0 14 6 0.381 0.394 0.089 610.964 o
0 14 7 27.015 27.394 0.394 4.647 o
0 14 8 46.657 48.640 0.670 1.540 o
0 14 9 0.005 0.030 0.089 625.104 o
0 14 10 28.061 29.267 0.443 4.134 o
0 14 11 32.339 31.631 0.532 3.180 o
0 14 12 39.663 41.042 0.581 2.128 o
0 14 13 1.324 1.429 0.187 131.760 o
0 14 14 1.497 1.350 0.187 130.686 o
0 14 15 9.619 9.657 0.946 4.875 o
0 14 16 2.963 2.828 0.473 20.998 o
0 14 17 0.967 0.887 0.177 151.075 o
0 14 18 2.117 1.892 0.345 39.632 o
0 14 19 2.255 1.744 0.345 39.564 o
0 15 1 8.602 8.849 0.177 39.694 o
0 15 2 2.449 2.532 0.108 255.177 o
0 15 3 0.498 0.562 0.079 751.244 o
0 15 4 46.789 47.802 0.641 1.570 o
0 15 5 96.754 102.610 1.518 0.345 o
0 15 6 186.214 203.368 2.424 0.096 o
0 15 7 34.207 34.647 0.847 2.272 o
0 15 8 0.232 0.099 0.089 621.714 o
0 15 9 0.337 0.443 0.099 497.641 o
0 15 10 3.560 3.281 0.197 91.780 o
0 15 11 0.198 0.217 0.118 350.352 o
0 15 12 39.662 39.791 0.936 1.751 o
0 15 13 12.944 13.224 0.562 9.388 o
0 15 14 21.717 21.531 1.527 1.691 o
0 15 15 2.316 2.385 0.296 52.254 o
0 15 16 3.449 3.557 0.266 57.394 o
0 15 17 0.709 0.759 0.168 171.270 o
0 15 18 0.777 0.572 0.168 171.451 o
0 16 0 125.484 135.621 1.902 0.205 o
0 16 1 5.226 5.942 0.266 45.789 o
0 16 2 1.215 1.114 0.108 365.325 o
0 16 3 0.832 1.015 0.099 460.063 o
0 16 4 30.233 30.755 0.483 3.599 o
0 16 5 1.017 1.123 0.108 375.157 o
0 16 6 118.099 127.758 1.991 0.224 o
0 16 7 257.118 279.362 3.685 0.050 o
0 16 8 0.038 0.099 0.099 506.130 o
0 16 9 41.294 43.052 0.719 1.844 o
0 16 10 5.273 4.927 0.256 50.051 o
0 16 11 0.580 0.621 0.138 252.614 o
0 16 12 2.236 2.119 0.197 109.863 o
0 16 13 8.052 8.829 0.325 25.825 o
0 16 14 3.532 3.745 0.266 56.715 o
0 16 15 5.971 5.587 0.296 38.046 o
0 16 16 0.029 0.079 0.197 126.579 o
0 16 17 0.881 0.729 0.168 170.082 o
0 16 18 0.905 0.670 0.246 79.913 o
0 17 1 2.282 2.976 0.148 166.178 o
0 17 2 15.762 16.437 0.325 11.737 o
0 17 3 10.978 11.214 0.315 19.728 o
0 17 4 7.151 7.065 0.227 43.311 o
0 17 5 32.438 32.814 0.709 2.727 o
0 17 6 20.151 20.575 0.384 7.538 o
0 17 7 31.641 32.844 0.512 3.233 o
0 17 8 76.712 82.537 1.133 0.555 o
0 17 9 1.380 1.468 0.128 260.906 o
0 17 10 2.925 2.483 0.414 27.203 o
0 17 11 5.660 5.607 0.305 37.156 o
0 17 12 1.701 1.557 0.187 128.033 o
0 17 13 1.664 1.675 0.187 127.837 o
0 17 14 54.008 54.887 3.597 0.297 o
0 17 15 7.651 7.716 0.365 23.977 o
0 17 16 15.736 16.752 1.104 3.204 o
0 17 17 1.507 1.557 0.276 62.259 o
0 18 0 25.575 24.881 0.591 4.326 o
0 18 1 41.009 41.554 0.916 1.685 o
0 18 2 5.154 5.252 0.177 76.319 o
0 18 3 0.827 0.847 0.108 390.191 o
0 18 4 0.559 0.512 0.108 405.955 o
0 18 5 0.139 0.069 0.118 351.217 o
0 18 6 7.691 7.282 0.236 39.064 o
0 18 7 24.212 21.748 1.498 1.687 o
0 18 8 5.745 5.666 0.276 42.312 o
0 18 9 3.211 2.818 0.365 34.013 o
0 18 10 1.300 1.153 0.168 164.002 o
0 18 11 0.000 0.020 0.217 104.617 o
0 18 12 2.765 3.005 0.374 32.749 o
0 18 13 55.659 60.474 1.311 0.857 o
0 18 14 23.970 24.901 0.700 4.057 o
0 18 15 1.765 2.010 0.305 50.431 o
0 18 16 12.870 13.599 0.532 9.956 o
0 19 1 1.204 1.143 0.148 208.647 o
0 19 2 7.580 7.272 0.266 35.297 o
0 19 3 0.026 -0.049 0.236 87.907 o
0 19 4 21.256 17.383 0.916 3.702 o
0 19 5 5.183 4.769 0.256 50.777 o
0 19 6 4.877 4.760 0.256 52.130 o
0 19 7 0.006 -0.010 0.207 114.818 o
0 19 8 0.141 0.039 0.148 224.898 o
0 19 9 2.444 2.207 0.197 107.597 o
0 19 10 7.639 7.676 0.325 27.704 o
0 19 11 5.088 5.439 0.394 26.075 o
0 19 12 3.049 2.858 0.355 35.950 o
0 19 13 6.349 6.385 0.414 22.261 o
0 19 14 36.933 39.002 0.916 1.910 o
0 19 15 0.049 0.227 0.236 87.885 o
0 20 0 12.279 11.835 0.532 10.609 o
0 20 1 31.858 31.356 0.621 3.043 o
0 20 2 7.358 7.597 0.246 38.269 o
0 20 3 1.963 2.000 0.158 165.876 o
0 20 4 2.158 1.961 0.236 80.213 o
0 20 5 5.178 4.750 0.266 48.274 o
0 20 6 5.672 5.607 0.404 24.298 o
0 20 7 3.364 3.163 0.236 70.997 o
0 20 8 0.241 0.187 0.148 224.417 o
0 20 9 4.685 4.434 0.522 16.460 o
0 20 10 0.128 0.000 0.138 258.219 o
0 20 11 0.006 0.020 0.227 95.718 o
0 20 12 0.219 0.177 0.217 104.502 o
0 20 13 1.115 1.389 0.266 67.752 o
0 21 1 4.411 4.612 0.266 51.561 o
0 21 2 35.367 34.637 0.660 2.525 o
0 21 3 24.645 24.320 0.709 3.962 o
0 21 4 17.202 17.629 0.838 4.594 o
0 21 5 11.039 11.460 1.232 2.944 o
0 21 6 15.829 15.835 0.512 8.631 o
0 21 7 22.767 22.654 1.793 1.277 o
0 21 8 0.253 0.443 0.158 196.821 o
0 21 9 2.095 2.099 0.236 80.189 o
0 21 10 4.369 4.355 0.236 62.024 o
0 21 11 5.675 5.637 0.384 26.296 o
0 21 12 0.344 0.305 0.217 104.319 o
0 22 0 47.340 44.856 1.084 1.285 o
0 22 1 0.067 0.069 0.158 197.747 o
0 22 2 0.529 0.542 0.168 173.056 o
0 22 3 26.364 25.896 0.660 3.849 o
0 22 4 15.570 15.796 1.173 2.935 o
0 22 5 22.112 22.842 1.291 2.158 o
0 22 6 1.727 2.000 0.266 65.697 o
0 22 7 19.974 20.753 1.665 1.501 o
0 22 8 3.087 3.084 0.217 83.804 o
0 22 9 5.816 5.863 0.286 39.866 o
0 22 10 0.253 0.246 0.217 104.446 o
0 23 1 3.317 2.937 0.207 88.926 o
0 23 2 0.091 0.148 0.148 224.891 o
0 23 3 1.678 1.744 0.187 127.392 o
0 23 4 0.404 0.345 0.256 74.698 o
0 23 5 14.918 15.018 1.202 2.860 o
0 23 6 36.703 37.810 3.390 0.373 o
0 23 7 8.249 8.376 0.581 11.644 o
0 24 0 6.089 5.735 0.424 22.026 o
0 24 1 0.660 0.591 0.158 193.911 o
0 24 2 2.801 2.473 0.197 103.034 o
0 24 3 0.180 0.128 0.246 80.972 o
1 0 0 1017.970 1065.000 15.619 0.003 o
1 0 2 654.219 703.382 9.815 0.008 o
1 0 4 73.245 76.990 1.064 0.620 o
1 0 6 369.919 420.620 5.981 0.022 o
1 0 8 448.072 467.486 5.420 0.017 o
1 0 10 1.456 1.419 0.177 144.546 o
1 0 12 1.214 1.222 0.187 133.359 o
1 0 14 109.250 111.873 1.695 0.277 o
1 0 16 29.171 29.178 0.532 3.708 o
1 0 18 19.572 19.698 0.384 7.942 o
1 0 20 1.360 1.104 0.187 132.728 o
1 0 22 0.105 0.108 0.168 175.121 o
1 0 24 6.130 7.292 0.532 14.668 o
1 1 0 1110.730 1183.150 20.871 0.002 o
1 1 1 39.395 46.117 0.483 2.086 o
1 1 3 4812.040 4327.420 48.117 0.000 o
1 1 4 461.318 514.441 4.848 0.016 o
1 1 5 51.229 52.286 0.601 1.358 o
1 1 6 47.288 51.734 0.581 1.512 o
1 1 7 4.817 4.602 0.128 111.739 o
1 1 8 1.562 1.518 0.099 388.901 o
1 1 9 5.614 5.824 0.207 59.662 o
1 1 10 74.630 74.014 0.808 0.661 o
1 1 11 5.962 5.607 0.197 60.942 o
1 1 12 5.526 5.203 0.197 65.719 o
1 1 13 3.913 3.390 0.138 135.977 o
1 1 14 6.006 5.577 0.168 70.051 o
1 1 15 14.548 13.865 0.227 16.246 o
1 1 16 12.077 12.308 0.227 21.160 o
1 1 17 43.639 43.663 0.493 1.908 o
1 1 18 17.955 17.885 0.305 10.089 o
1 1 19 0.097 0.108 0.099 505.697 o
1 1 20 0.019 -0.010 0.227 95.718 o
1 1 21 0.046 0.000 0.227 95.716 o
1 1 22 1.972 1.912 0.148 185.430 o
1 1 23 0.715 0.522 0.118 339.050 o
1 1 24 8.162 9.283 0.552 12.486 o
1 2 0 32.868 36.273 0.522 2.910 o
1 2 2 6477.770 4522.360 99.664 0.000 o
1 2 3 1297.330 1387.290 13.007 0.002 o
1 2 4 103.807 109.607 1.153 0.327 o
1 2 5 18.744 19.028 0.286 9.519 o
1 2 6 180.737 185.660 1.971 0.110 o
1 2 7 61.977 59.706 0.611 0.990 o
1 2 8 309.174 318.749 3.025 0.038 o
1 2 9 314.037 320.602 3.409 0.037 o
1 2 10 156.322 153.575 1.695 0.151 o
1 2 11 826.142 856.406 11.480 0.005 o
1 2 12 60.057 57.942 0.690 1.026 o
1 2 13 0.462 0.345 0.089 608.151 o
1 2 14 18.481 17.373 0.256 10.515 o
1 2 15 38.535 38.184 0.434 2.463 o
1 2 16 14.259 14.229 0.246 15.887 o
1 2 17 1.391 1.587 0.108 342.677 o
1 2 18 41.696 41.978 0.562 2.002 o
1 2 19 16.167 14.505 0.611 7.317 o
1 2 20 7.774 8.061 0.236 37.302 o
1 2 21 5.664 5.863 0.207 59.194 o
1 2 22 2.644 2.601 0.158 147.504 o
1 2 23 0.134 0.039 0.108 418.009 o
1 3 0 257.110 285.482 2.759 0.052 o
1 3 1 173.254 201.377 2.119 0.108 o
1 3 2 71.897 77.837 0.847 0.664 o
1 3 3 248.021 267.892 2.868 0.056 o
1 3 4 1.948 1.685 0.118 269.804 o
1 3 5 104.815 110.346 1.153 0.322 o
1 3 6 57.309 62.593 0.680 1.038 o
1 3 7 85.671 89.100 1.094 0.471 o
1 3 8 117.653 119.875 1.153 0.266 o
1 3 9 321.108 328.465 3.153 0.036 o
1 3 10 60.628 59.785 0.700 0.993 o
1 3 11 227.061 232.812 2.789 0.068 o
1 3 12 216.905 219.627 2.611 0.076 o
1 3 13 70.561 68.939 0.749 0.749 o
1 3 14 22.766 21.984 0.305 6.887 o
1 3 15 21.877 21.511 0.296 7.368 o
1 3 16 112.628 114.544 1.350 0.280 o
1 3 17 7.660 7.597 0.187 46.140 o
1 3 18 4.443 4.355 0.158 100.898 o
1 3 19 8.040 7.627 0.473 16.376 o
1 3 20 0.338 0.374 0.118 347.891 o
1 3 21 0.052 0.010 0.108 418.407 o
1 3 22 12.062 12.209 0.266 19.627 o
1 3 23 25.963 28.508 0.483 4.414 o
1 4 0 67.140 65.411 0.700 0.831 o
1 4 1 63.823 67.638 0.690 0.867 o
1 4 2 384.825 414.649 4.060 0.024 o
1 4 3 1144.850 1251.980 16.013 0.003 o
1 4 4 765.422 843.270 9.962 0.006 o
1 4 5 187.046 195.288 2.296 0.100 o
1 4 6 114.545 118.958 1.311 0.270 o
1 4 7 120.658 121.057 1.114 0.257 o
1 4 8 8.888 8.090 0.158 42.404 o
1 4 9 358.505 369.350 3.902 0.028 o
1 4 10 36.166 34.302 0.483 2.760 o
1 4 11 61.813 61.815 0.778 0.930 o
1 4 12 0.580 0.581 0.118 341.544 o
1 4 13 0.773 0.581 0.089 579.742 o
1 4 14 15.152 14.525 0.227 15.130 o
1 4 15 9.917 9.391 0.197 31.696 o
1 4 16 4.378 4.316 0.158 102.172 o
1 4 17 15.636 15.392 0.246 13.767 o
1 4 18 0.996 0.946 0.108 380.400 o
1 4 19 0.430 0.305 0.148 223.152 o
1 4 20 0.014 0.108 0.197 126.579 o
1 4 21 39.162 41.101 0.641 2.090 o
1 4 22 42.462 46.610 0.700 1.728 o
1 4 23 0.013 0.030 0.138 258.335 o
1 5 0 89.993 93.249 0.926 0.446 o
1 5 1 46.837 56.641 0.749 1.352 o
1 5 2 16.318 16.831 0.365 10.549 o
1 5 3 189.428 201.722 2.454 0.095 o
1 5 4 1282.070 1354.760 15.008 0.002 o
1 5 5 72.618 78.517 0.847 0.653 o
1 5 6 1.390 1.370 0.099 407.896 o
1 5 7 51.442 50.019 0.552 1.410 o
1 5 8 1.114 1.192 0.079 629.826 o
1 5 9 2.131 2.365 0.108 277.346 o
1 5 10 63.159 62.632 0.788 0.897 o
1 5 11 0.936 0.995 0.108 382.063 o
1 5 12 19.540 19.304 0.384 8.037 o
1 5 13 30.547 28.587 0.493 3.675 o
1 5 14 3.514 3.222 0.158 125.544 o
1 5 15 8.793 8.139 0.217 35.862 o
1 5 16 2.892 2.828 0.148 153.907 o
1 5 17 1.100 1.054 0.128 275.423 o
1 5 18 7.063 7.085 0.227 43.656 o
1 5 19 2.733 2.601 0.197 103.075 o
1 5 20 1.541 1.596 0.177 142.758 o
1 5 21 2.661 2.749 0.197 103.059 o
1 5 22 0.001 0.000 0.148 225.044 o
1 5 23 3.913 4.158 0.227 69.328 o
1 6 0 1.664 2.316 0.128 236.973 o
1 6 1 294.792 331.648 3.577 0.038 o
1 6 2 15.611 15.865 0.246 13.561 o
1 6 3 336.287 366.778 3.567 0.031 o
1 6 4 46.132 46.235 0.572 1.673 o
1 6 5 3.001 3.262 0.128 175.021 o
1 6 6 202.225 206.787 1.981 0.090 o
1 6 7 41.381 41.456 0.503 2.089 o
1 6 8 129.578 133.315 1.557 0.210 o
1 6 9 110.650 111.026 1.242 0.297 o
1 6 10 37.043 35.603 0.473 2.641 o
1 6 11 67.771 66.288 0.985 0.754 o
1 6 12 2.626 2.424 0.118 223.434 o
1 6 13 14.426 13.924 0.276 15.117 o
1 6 14 6.275 5.814 0.187 60.725 o
1 6 15 4.315 4.109 0.177 91.801 o
1 6 16 10.944 10.376 0.246 24.290 o
1 6 17 0.971 0.956 0.118 325.054 o
1 6 18 0.932 0.798 0.118 328.934 o
1 6 19 35.642 35.889 0.916 2.046 o
1 6 20 52.217 54.050 1.054 1.085 o
1 6 21 25.729 27.266 0.473 4.606 o
1 6 22 7.369 7.676 0.266 35.325 o
1 6 23 12.967 14.101 0.355 14.290 o
1 7 0 2.719 2.572 0.138 177.069 o
1 7 1 241.857 255.673 2.779 0.060 o
1 7 2 29.628 27.483 0.335 4.326 o
1 7 3 9.299 10.337 0.177 33.805 o
1 7 4 91.163 96.915 1.054 0.419 o
1 7 5 134.297 143.524 1.311 0.198 o
1 7 6 58.282 64.633 0.778 0.969 o
1 7 7 708.707 716.872 7.913 0.007 o
1 7 8 0.897 0.808 0.089 559.586 o
1 7 9 0.395 0.355 0.079 769.063 o
1 7 10 23.570 21.748 0.335 6.484 o
1 7 11 26.082 24.123 0.365 5.314 o
1 7 12 6.948 6.188 0.217 48.241 o
1 7 13 25.202 22.901 0.404 5.495 o
1 7 14 117.892 115.243 1.724 0.249 o
1 7 15 11.368 10.958 0.296 20.322 o
1 7 16 0.033 -0.010 0.246 81.015 o
1 7 17 1.527 1.567 0.128 254.521 o
1 7 18 39.901 38.953 0.995 1.689 o
1 7 19 4.859 4.878 0.236 57.889 o
1 7 20 3.046 2.996 0.197 98.169 o
1 7 21 11.314 11.519 0.335 18.143 o
1 7 22 5.601 5.942 0.286 40.407 o
1 8 0 1185.510 1282.350 15.481 0.002 o
1 8 1 115.427 123.471 1.399 0.258 o
1 8 2 6.714 6.504 0.158 62.282 o
1 8 3 0.534 0.769 0.079 736.730 o
1 8 4 47.107 47.654 0.512 1.637 o
1 8 5 183.322 190.499 1.951 0.107 o
1 8 6 281.275 288.684 2.808 0.046 o
1 8 7 125.958 124.782 1.636 0.224 o
1 8 8 0.286 0.532 0.089 612.221 o
1 8 9 30.997 30.183 0.414 3.702 o
1 8 10 6.136 5.686 0.197 59.423 o
1 8 11 2.196 1.892 0.148 180.599 o
1 8 12 404.851 386.279 5.489 0.022 o
1 8 13 26.306 24.241 0.384 5.166 o
1 8 14 10.347 9.736 0.217 28.409 o
1 8 15 3.372 2.996 0.148 141.439 o
1 8 16 0.221 0.138 0.099 503.978 o
1 8 17 2.149 2.128 0.148 178.981 o
1 8 18 14.952 14.761 0.345 12.589 o
1 8 19 28.382 29.060 0.512 3.886 o
1 8 20 19.887 20.161 0.483 6.808 o
1 8 21 0.452 0.394 0.138 255.264 o
1 8 22 0.237 0.217 0.168 174.802 o
1 9 0 58.681 64.997 0.700 0.980 o
1 9 1 362.985 386.417 3.715 0.027 o
1 9 2 0.314 0.276 0.069 1009.720 o
1 9 3 20.788 21.630 0.296 7.789 o
1 9 4 0.008 0.089 0.069 1033.030 o
1 9 5 250.083 257.358 2.956 0.057 o
1 9 6 38.225 35.760 0.443 2.573 o
1 9 7 22.679 22.181 0.355 6.583 o
1 9 8 12.287 10.987 0.266 20.237 o
1 9 9 0.474 0.414 0.099 493.507 o
1 9 10 1.822 1.488 0.128 245.877 o
1 9 11 17.466 17.057 0.404 9.256 o
1 9 12 0.044 0.059 0.089 624.887 o
1 9 13 8.828 8.179 0.276 29.443 o
1 9 14 255.814 256.048 7.154 0.037 o
1 9 15 66.043 63.529 1.409 0.683 o
1 9 16 7.161 6.395 0.256 39.626 o
1 9 17 0.151 0.059 0.118 351.183 o
1 9 18 3.331 3.183 0.187 101.908 o
1 9 19 27.784 27.483 0.818 3.058 o
1 9 20 7.967 7.548 0.335 26.248 o
1 9 21 0.001 -0.138 0.207 114.818 o
1 9 22 3.530 3.557 0.187 97.554 o
1 10 0 314.666 342.054 3.321 0.035 o
1 10 1 118.924 132.931 1.518 0.234 o
1 10 2 16.828 16.910 0.256 11.884 o
1 10 3 30.688 33.001 0.483 3.401 o
1 10 4 2.527 2.680 0.128 200.248 o
1 10 5 38.399 37.495 0.572 2.336 o
1 10 6 34.414 33.415 0.522 2.899 o
1 10 7 5.520 4.819 0.168 78.913 o
1 10 8 3.809 3.784 0.227 71.191 o
1 10 9 28.284 26.163 0.542 4.012 o
1 10 10 3.325 3.518 0.207 86.415 o
1 10 11 1.869 2.197 0.118 261.820 o
1 10 12 10.701 9.785 0.305 21.781 o
1 10 13 125.092 124.043 1.409 0.234 o
1 10 14 19.080 16.910 0.650 5.882 o
1 10 15 0.087 0.158 0.138 258.139 o
1 10 16 0.041 -0.049 0.325 46.496 o
1 10 17 1.681 1.301 0.207 107.397 o
1 10 18 24.914 23.985 1.311 1.999 o
1 10 19 17.387 17.590 0.985 3.657 o
1 10 20 0.065 -0.020 0.256 74.901 o
1 10 21 17.193 17.678 0.759 5.204 o
1 11 0 321.368 353.159 3.557 0.033 o
1 11 1 15.675 17.353 0.286 12.152 o
1 11 2 31.579 30.755 0.404 3.605 o
1 11 3 25.219 25.404 0.394 5.239 o
1 11 4 20.673 20.477 0.404 7.193 o
1 11 5 142.899 147.328 1.853 0.170 o
1 11 6 0.125 0.148 0.089 623.410 o
1 11 7 20.209 20.161 0.355 7.861 o
1 11 8 9.412 9.085 0.207 33.026 o
1 11 9 8.547 8.159 0.217 36.742 o
1 11 10 30.032 28.813 0.581 3.479 o
1 11 11 0.189 0.108 0.099 504.668 o
1 11 12 0.013 -0.118 0.217 104.617 o
1 11 13 0.414 0.374 0.138 255.698 o
1 11 14 0.322 0.197 0.108 415.062 o
1 11 15 7.344 6.671 0.355 26.159 o
1 11 16 0.163 0.187 0.177 156.103 o
1 11 17 12.519 11.805 0.926 4.715 o
1 11 18 0.149 0.069 0.177 156.189 o
1 11 19 0.029 0.187 0.177 156.240 o
1 11 20 10.297 9.933 0.847 5.818 o
1 11 21 0.525 0.325 0.177 155.011 o
1 12 0 9.663 9.608 0.197 32.175 o
1 12 1 0.072 0.039 0.089 624.760 o
1 12 2 66.929 68.811 0.907 0.767 o
1 12 3 58.543 59.972 0.976 0.942 o
1 12 4 240.692 252.569 2.808 0.061 o
1 12 5 35.345 35.218 0.552 2.684 o
1 12 6 4.719 4.326 0.187 80.810 o
1 12 7 30.015 29.917 0.473 3.710 o
1 12 8 14.975 14.535 0.266 14.453 o
1 12 9 21.543 21.630 0.473 6.193 o
1 12 10 2.258 2.395 0.118 240.037 o
1 12 11 8.488 8.139 0.227 35.824 o
1 12 12 5.354 4.966 0.187 71.776 o
1 12 13 25.661 24.872 0.483 4.804 o
1 12 14 7.238 6.809 0.296 32.983 o
1 12 15 0.583 0.404 0.168 173.136 o
1 12 16 17.290 16.387 1.143 2.961 o
1 12 17 0.246 0.030 0.177 156.097 o
1 12 18 0.498 0.256 0.187 139.413 o
1 12 19 0.158 0.197 0.177 156.102 o
1 12 20 0.229 0.177 0.177 156.008 o
1 13 0 13.647 13.677 0.276 16.138 o
1 13 1 10.507 10.928 0.276 22.864 o
1 13 2 23.518 24.172 0.453 5.489 o
1 13 3 1.593 1.695 0.099 379.547 o
1 13 4 89.425 92.037 1.035 0.445 o
1 13 5 384.517 398.429 4.769 0.024 o
1 13 6 69.543 70.496 0.818 0.739 o
1 13 7 203.515 213.054 2.631 0.083 o
1 13 8 69.984 72.821 1.202 0.646 o
1 13 9 16.247 16.496 0.276 12.205 o
1 13 10 27.337 26.980 0.503 4.237 o
1 13 11 1.412 1.537 0.138 227.391 o
1 13 12 18.714 18.723 0.345 8.969 o
1 13 13 18.369 17.402 0.404 8.744 o
1 13 14 19.600 19.068 0.542 6.504 o
1 13 15 43.316 43.407 1.074 1.423 o
1 13 16 7.328 7.460 0.591 11.815 o
1 13 17 0.403 0.493 0.187 139.351 o
1 13 18 3.757 3.823 0.345 36.034 o
1 13 19 0.017 0.128 0.177 156.262 o
1 13 20 2.596 2.454 0.335 40.901 o
1 14 0 7.445 7.272 0.207 44.825 o
1 14 1 18.368 18.713 0.414 8.335 o
1 14 2 12.472 11.992 0.207 21.511 o
1 14 3 45.921 46.265 0.503 1.726 o
1 14 4 200.203 209.911 2.552 0.086 o
1 14 5 92.792 95.072 1.074 0.414 o
1 14 6 3.170 3.183 0.168 121.681 o
1 14 7 94.681 99.960 1.468 0.363 o
1 14 8 277.525 298.144 4.316 0.042 o
1 14 9 119.285 126.290 1.961 0.224 o
1 14 10 5.253 5.420 0.177 74.505 o
1 14 11 66.164 67.628 1.064 0.748 o
1 14 12 1.563 1.301 0.148 200.547 o
1 14 13 9.091 9.036 0.276 27.780 o
1 14 14 8.268 7.952 0.305 28.103 o
1 14 15 17.708 18.535 0.424 8.539 o
1 14 16 1.456 1.370 0.305 51.317 o
1 14 17 5.884 6.829 0.493 16.964 o
1 14 18 14.456 16.111 0.611 7.573 o
1 14 19 8.394 9.273 0.512 13.849 o
1 15 0 60.270 60.918 0.877 0.936 o
1 15 1 15.907 15.964 0.246 13.236 o
1 15 2 10.186 10.514 0.197 29.142 o
1 15 3 9.248 9.381 0.217 32.178 o
1 15 4 2.467 2.532 0.118 227.910 o
1 15 5 0.043 0.010 0.079 791.007 o
1 15 6 24.308 24.704 0.562 4.694 o
1 15 7 11.830 11.283 0.315 18.507 o
1 15 8 4.578 4.158 0.168 94.192 o
1 15 9 30.551 31.425 0.434 3.632 o
1 15 10 51.407 51.724 0.956 1.180 o
1 15 11 2.995 2.730 0.168 127.998 o
1 15 12 1.319 1.163 0.158 183.289 o
1 15 13 2.996 2.976 0.217 84.853 o
1 15 14 5.790 5.725 0.266 44.073 o
1 15 15 8.776 9.026 0.315 25.135 o
1 15 16 1.379 1.508 0.177 144.877 o
1 15 17 12.987 12.781 0.532 10.083 o
1 15 18 6.390 6.563 0.424 21.333 o
1 16 0 29.410 30.291 0.473 3.768 o
1 16 1 48.041 49.063 0.631 1.505 o
1 16 2 7.898 7.864 0.168 47.152 o
1 16 3 22.939 23.019 0.414 6.014 o
1 16 4 7.841 7.440 0.168 48.756 o
1 16 5 0.079 0.069 0.079 790.277 o
1 16 6 1.188 1.163 0.108 365.422 o
1 16 7 13.072 12.919 0.335 15.365 o
1 16 8 0.037 0.020 0.089 625.025 o
1 16 9 3.575 3.695 0.177 103.568 o
1 16 10 0.314 0.286 0.099 500.481 o
1 16 11 1.534 1.330 0.207 108.164 o
1 16 12 1.123 0.985 0.168 166.754 o
1 16 13 1.859 1.705 0.177 138.636 o
1 16 14 5.927 6.001 0.266 43.056 o
1 16 15 3.493 3.814 0.236 68.468 o
1 16 16 1.471 1.468 0.168 160.094 o
1 17 0 0.026 -0.010 0.217 104.616 o
1 17 1 26.639 27.798 0.404 4.646 o
1 17 2 11.208 11.194 0.227 23.966 o
1 17 3 6.015 6.119 0.158 70.535 o
1 17 4 0.292 0.217 0.079 780.190 o
1 17 5 15.115 14.722 0.394 11.422 o
1 17 6 0.029 0.069 0.138 258.311 o
1 17 7 13.607 13.944 0.621 7.982 o
1 17 8 4.846 4.582 0.168 88.116 o
1 17 9 1.173 1.045 0.118 316.238 o
1 17 10 11.538 11.549 0.394 15.433 o
1 17 11 0.099 0.049 0.118 351.420 o
1 17 12 6.252 6.316 0.276 39.538 o
1 17 13 5.706 6.001 0.266 43.872 o
1 17 14 0.000 0.069 0.138 258.332 o
1 17 15 4.773 4.523 0.384 28.154 o
1 17 16 7.858 8.396 0.453 17.275 o
1 18 0 4.334 4.415 0.148 108.899 o
1 18 1 18.301 18.328 0.335 9.400 o
1 18 2 43.837 44.235 0.818 1.619 o
1 18 3 1.673 1.724 0.108 322.397 o
1 18 4 12.667 12.919 0.246 18.917 o
1 18 5 1.227 1.251 0.108 361.050 o
1 18 6 4.843 4.444 0.168 89.003 o
1 18 7 26.062 25.896 1.468 1.647 o
1 18 8 20.413 20.319 0.562 5.963 o
1 18 9 8.334 7.804 0.246 34.570 o
1 18 10 45.111 44.905 1.114 1.320 o
1 18 11 1.944 2.138 0.197 112.291 o
1 18 12 0.518 0.769 0.256 74.401 o
1 18 13 1.891 2.257 0.296 53.236 o
1 18 14 1.333 1.330 0.266 67.388 o
1 18 15 0.143 0.335 0.227 95.620 o
1 19 0 0.179 0.039 0.089 623.416 o
1 19 1 0.484 0.424 0.089 604.854 o
1 19 2 0.126 0.069 0.099 505.620 o
1 19 3 8.965 7.992 0.335 24.134 o
1 19 4 105.553 101.526 4.907 0.132 o
1 19 5 8.313 7.834 0.483 15.629 o
1 19 6 0.405 0.315 0.138 256.024 o
1 19 7 9.561 9.174 0.650 9.242 o
1 19 8 17.980 17.629 0.759 5.086 o
1 19 9 14.559 14.771 0.690 6.662 o
1 19 10 14.615 15.234 0.769 5.718 o
1 19 11 0.276 0.266 0.335 43.766 o
1 19 12 1.573 2.040 0.286 57.624 o
1 19 13 0.012 -0.128 0.207 114.818 o
1 19 14 0.004 0.118 0.217 104.613 o
1 20 0 0.143 0.000 0.217 104.592 o
1 20 1 9.996 9.854 0.256 26.304 o
1 20 2 35.777 35.396 1.281 1.537 o
1 20 3 7.276 7.105 0.345 26.897 o
1 20 4 5.239 5.154 0.227 58.095 o
1 20 5 12.351 12.258 0.778 6.208 o
1 20 6 4.833 4.533 0.256 52.818 o
1 20 7 1.544 1.478 0.177 143.346 o
1 20 8 1.766 1.587 0.187 127.304 o
1 20 9 12.490 11.894 0.631 8.436 o
1 20 10 24.489 24.862 0.808 3.524 o
1 20 11 0.473 0.581 0.266 69.147 o
1 20 12 0.129 0.079 0.217 104.583 o
1 20 13 0.207 0.227 0.217 104.493 o
1 21 0 1.770 1.626 0.256 70.975 o
1 21 1 0.289 0.493 0.128 296.793 o
1 21 2 11.758 12.052 0.365 16.112 o
1 21 3 17.623 17.126 0.709 5.608 o
1 21 4 0.120 0.128 0.148 224.854 o
1 21 5 1.565 1.616 0.276 62.083 o
1 21 6 0.130 0.286 0.177 156.079 o
1 21 7 0.193 0.236 0.148 224.501 o
1 21 8 0.024 0.010 0.138 258.335 o
1 21 9 0.643 0.483 0.148 220.739 o
1 21 10 4.419 4.385 0.453 21.445 o
1 21 11 2.613 2.385 0.177 124.964 o
1 22 0 14.894 14.614 0.562 8.421 o
1 22 1 17.636 16.988 0.463 8.386 o
1 22 2 0.008 0.039 0.118 351.620 o
1 22 3 0.559 0.463 0.128 293.530 o
1 22 4 0.693 0.552 0.128 290.555 o
1 22 5 0.213 0.138 0.148 224.598 o
1 22 6 0.475 0.591 0.158 195.249 o
1 22 7 0.567 0.719 0.158 194.137 o
1 22 8 0.518 0.562 0.148 221.524 o
1 22 9 1.185 1.311 0.256 72.856 o
1 23 0 40.292 38.520 0.700 2.031 o
1 23 1 0.567 0.916 0.168 171.707 o
1 23 2 1.800 1.912 0.148 189.212 o
1 23 3 18.127 18.151 0.522 7.276 o
1 23 4 5.994 5.893 0.256 45.036 o
1 23 5 6.936 6.651 0.522 14.894 o
1 23 6 3.737 4.001 0.227 70.959 o
1 23 7 18.304 17.875 1.232 2.559 o
1 24 0 0.080 0.128 0.138 258.187 o
1 24 1 0.821 0.641 0.168 170.890 o
1 24 2 8.543 7.302 0.434 18.280 o
2 0 0 718.838 792.729 8.711 0.007 o
2 0 2 925.474 967.382 15.964 0.004 o
2 0 4 8.879 8.662 0.325 24.489 o
2 0 6 1.715 2.247 0.158 168.128 o
2 0 8 55.843 56.887 0.759 1.106 o
2 0 10 1.422 1.498 0.187 130.690 o
2 0 12 867.599 934.489 26.103 0.003 o
2 0 14 41.601 40.264 0.581 2.037 o
2 0 16 12.598 12.613 0.315 16.720 o
2 0 18 2.431 2.562 0.246 72.100 o
2 0 20 80.257 85.642 2.365 0.355 o
2 0 22 9.539 10.721 0.355 19.927 o
2 1 0 184.688 198.737 1.892 0.103 o
2 1 1 29.658 31.297 0.384 3.885 o
2 1 2 140.460 147.978 1.685 0.176 o
2 1 3 508.358 556.192 5.252 0.013 o
2 1 4 6.444 7.696 0.227 45.089 o
2 1 5 5.967 5.893 0.158 72.173 o
2 1 6 22.319 22.733 0.276 7.084 o
2 1 7 194.298 206.186 2.197 0.093 o
2 1 8 20.915 21.965 0.286 7.734 o
2 1 9 2.202 2.326 0.158 158.487 o
2 1 10 5.039 4.779 0.187 75.520 o
2 1 11 52.926 51.882 0.680 1.277 o
2 1 12 5.817 5.922 0.217 55.270 o
2 1 13 202.069 207.635 2.217 0.088 o
2 1 14 244.831 253.604 2.661 0.060 o
2 1 15 29.704 29.355 0.374 4.054 o
2 1 16 3.736 3.725 0.148 126.341 o
2 1 17 22.269 22.162 0.315 6.973 o
2 1 18 35.011 35.839 0.434 2.869 o
2 1 19 18.325 18.930 0.384 8.652 o
2 1 20 1.216 1.232 0.138 235.710 o
2 1 21 1.711 1.833 0.148 191.995 o
2 1 22 1.523 1.537 0.138 224.586 o
2 1 23 2.561 2.365 0.138 184.398 o
2 2 0 1085.040 1127.090 12.594 0.003 o
2 2 1 217.797 225.687 2.257 0.076 o
2 2 2 576.423 627.565 6.760 0.010 o
2 2 3 619.583 684.088 6.799 0.009 o
2 2 4 156.426 162.710 1.813 0.144 o
2 2 5 73.553 71.698 0.798 0.687 o
2 2 6 74.074 72.033 0.769 0.684 o
2 2 7 16.428 15.599 0.227 13.252 o
2 2 8 92.643 96.274 0.897 0.424 o
2 2 9 31.593 31.907 0.414 3.506 o
2 2 10 26.256 26.468 0.394 4.894 o
2 2 11 101.005 101.822 1.173 0.353 o
2 2 12 153.308 154.147 1.655 0.155 o
2 2 13 23.951 23.088 0.325 6.209 o
2 2 14 17.832 16.653 0.286 10.823 o
2 2 15 0.405 0.650 0.128 294.399 o
2 2 16 6.625 6.415 0.177 58.454 o
2 2 17 0.224 0.207 0.089 620.506 o
2 2 18 0.503 0.670 0.099 487.156 o
2 2 19 0.407 0.315 0.128 296.479 o
2 2 20 0.584 0.463 0.128 293.148 o
2 2 21 1.014 0.936 0.138 243.062 o
2 2 22 1.632 1.675 0.138 219.963 o
2 2 23 0.089 0.089 0.108 418.122 o
2 3 0 767.046 843.645 8.337 0.006 o
2 3 1 135.154 147.850 1.409 0.191 o
2 3 2 88.290 93.702 1.054 0.445 o
2 3 3 647.933 717.543 7.923 0.008 o
2 3 4 1791.210 1919.700 24.300 0.001 o
2 3 5 3437.010 3475.090 66.633 0.000 o
2 3 6 205.362 211.438 2.050 0.086 o
2 3 7 42.882 43.387 0.443 1.993 o
2 3 8 79.878 82.153 0.778 0.573 o
2 3 9 1.382 1.498 0.099 403.540 o
2 3 10 25.133 25.581 0.384 5.282 o
2 3 11 40.855 40.668 0.522 2.127 o
2 3 12 10.644 10.426 0.207 27.353 o
2 3 13 50.792 50.995 0.641 1.373 o
2 3 14 0.573 0.512 0.089 596.741 o
2 3 15 0.295 0.384 0.089 615.031 o
2 3 16 3.141 3.084 0.138 158.734 o
2 3 17 1.207 1.104 0.108 365.969 o
2 3 18 0.128 0.108 0.089 623.691 o
2 3 19 1.026 0.769 0.128 281.051 o
2 3 20 0.236 0.276 0.118 349.722 o
2 3 21 0.579 0.631 0.128 291.860 o
2 3 22 0.074 0.148 0.128 299.398 o
2 3 23 0.288 0.266 0.138 257.037 o
2 4 0 92.177 92.904 0.916 0.435 o
2 4 1 6.731 5.932 0.158 64.637 o
2 4 2 1265.270 1394.170 15.451 0.002 o
2 4 3 1093.290 1196.710 13.165 0.003 o
2 4 4 1154.140 1266.330 14.141 0.003 o
2 4 5 3.635 4.040 0.138 134.895 o
2 4 6 18.539 17.373 0.217 10.910 o
2 4 7 11.340 11.490 0.177 25.820 o
2 4 8 0.011 0.118 0.069 1032.790 o
2 4 9 0.314 0.256 0.079 777.853 o
2 4 10 293.547 308.619 3.449 0.041 o
2 4 11 12.852 12.524 0.266 18.227 o
2 4 12 101.929 101.004 1.518 0.329 o
2 4 13 0.519 0.414 0.089 603.128 o
2 4 14 1.787 1.862 0.108 311.719 o
2 4 15 1.207 1.320 0.099 423.527 o
2 4 16 8.387 8.494 0.187 40.309 o
2 4 17 28.017 28.843 0.365 4.415 o
2 4 18 6.841 6.395 0.187 54.672 o
2 4 19 10.805 10.514 0.256 23.851 o
2 4 20 2.765 2.917 0.197 101.267 o
2 4 21 19.977 21.965 0.463 6.676 o
2 4 22 11.177 12.239 0.483 12.414 o
2 4 23 1.922 1.922 0.168 150.869 o
2 5 0 28.403 30.153 0.374 4.203 o
2 5 1 75.345 80.025 0.966 0.601 o
2 5 2 5.372 4.819 0.138 94.539 o
2 5 3 124.930 135.001 1.498 0.219 o
2 5 4 5.301 6.178 0.158 77.798 o
2 5 5 5.257 4.612 0.138 97.978 o
2 5 6 23.862 23.049 0.296 6.391 o
2 5 7 10.374 11.155 0.177 28.916 o
2 5 8 75.825 74.980 0.759 0.650 o
2 5 9 216.024 223.322 2.414 0.076 o
2 5 10 30.985 29.996 0.424 3.694 o
2 5 11 9.391 9.214 0.236 30.233 o
2 5 12 105.860 102.413 1.261 0.327 o
2 5 13 4.628 4.030 0.158 100.558 o
2 5 14 3.469 3.291 0.158 125.742 o
2 5 15 9.497 9.154 0.217 31.747 o
2 5 16 1.316 1.389 0.128 264.173 o
2 5 17 25.256 24.803 0.562 4.520 o
2 5 18 30.047 28.527 0.572 3.522 o
2 5 19 5.217 5.321 0.443 21.337 o
2 5 20 12.762 13.155 0.335 15.562 o
2 5 21 1.622 1.941 0.177 139.993 o
2 5 22 20.897 22.605 0.562 5.586 o
2 5 23 25.033 27.237 0.976 2.785 o
2 6 0 6.528 7.322 0.148 62.732 o
2 6 1 91.572 91.347 1.045 0.433 o
2 6 2 51.126 51.635 0.621 1.362 o
2 6 3 36.794 39.741 0.434 2.539 o
2 6 4 1.336 1.271 0.089 492.507 o
2 6 5 2.057 1.981 0.099 332.921 o
2 6 6 117.222 119.461 1.163 0.267 o
2 6 7 0.101 0.177 0.089 623.570 o
2 6 8 128.414 126.083 1.360 0.225 o
2 6 9 50.321 47.201 0.700 1.419 o
2 6 10 2.901 2.621 0.168 130.341 o
2 6 11 33.770 32.765 0.522 2.993 o
2 6 12 5.905 5.548 0.207 58.641 o
2 6 13 8.138 8.011 0.207 39.929 o
2 6 14 20.946 20.142 0.384 7.321 o
2 6 15 4.584 4.050 0.177 88.996 o
2 6 16 5.387 5.420 0.207 62.615 o
2 6 17 0.022 -0.089 0.256 74.903 o
2 6 18 5.854 5.903 0.650 10.569 o
2 6 19 4.066 3.951 0.217 73.521 o
2 6 20 20.755 22.339 0.572 5.577 o
2 6 21 20.616 22.576 0.434 6.624 o
2 6 22 0.386 0.227 0.138 256.508 o
2 7 0 309.849 315.960 3.074 0.038 o
2 7 1 124.933 128.743 1.242 0.233 o
2 7 2 201.970 200.727 2.473 0.088 o
2 7 3 110.242 111.775 1.202 0.298 o
2 7 4 16.903 16.850 0.276 11.555 o
2 7 5 72.109 73.147 0.867 0.684 o
2 7 6 166.649 170.810 1.616 0.132 o
2 7 7 158.689 157.241 1.508 0.149 o
2 7 8 29.130 27.118 0.365 4.369 o
2 7 9 27.513 26.872 0.365 4.700 o
2 7 10 1.586 1.222 0.158 178.876 o
2 7 11 0.051 0.079 0.108 418.311 o
2 7 12 12.419 11.263 0.227 21.489 o
2 7 13 6.753 6.208 0.187 55.897 o
2 7 14 6.202 5.893 0.187 60.978 o
2 7 15 101.386 99.319 1.389 0.343 o
2 7 16 1.879 1.793 0.128 238.623 o
2 7 17 0.926 0.709 0.118 330.529 o
2 7 18 0.146 0.020 0.138 258.161 o
2 7 19 1.339 1.143 0.158 183.147 o
2 7 20 0.149 0.108 0.187 140.172 o
2 7 21 11.728 11.805 0.305 18.724 o
2 7 22 16.065 17.373 0.355 10.701 o
2 8 0 1211.250 1284.210 18.269 0.002 o
2 8 1 438.996 454.853 4.897 0.018 o
2 8 2 777.293 837.821 10.337 0.006 o
2 8 3 7.687 7.716 0.197 44.126 o
2 8 4 0.408 0.916 0.099 485.923 o
2 8 5 0.362 0.473 0.089 609.986 o
2 8 6 5.036 5.006 0.168 83.313 o
2 8 7 93.608 92.934 1.064 0.416 o
2 8 8 1.096 0.729 0.118 324.670 o
2 8 9 209.467 212.798 3.025 0.077 o
2 8 10 1.512 1.330 0.118 296.853 o
2 8 11 4.491 3.528 0.473 20.066 o
2 8 12 6.692 6.218 0.266 39.941 o
2 8 13 2.481 2.296 0.148 169.427 o
2 8 14 0.901 0.867 0.108 386.553 o
2 8 15 2.448 2.375 0.148 169.280 o
2 8 16 19.797 18.782 0.414 7.740 o
2 8 17 2.822 2.335 0.148 161.128 o
2 8 18 0.001 -0.049 0.227 95.718 o
2 8 19 0.011 -0.286 0.227 95.718 o
2 8 20 4.645 4.691 0.227 63.053 o
2 8 21 5.785 6.021 0.246 47.819 o
2 8 22 3.927 4.277 0.266 54.135 o
2 9 0 82.151 86.430 0.985 0.516 o
2 9 1 440.398 455.533 4.868 0.018 o
2 9 2 693.629 732.412 9.194 0.007 o
2 9 3 11.859 11.105 0.236 22.245 o
2 9 4 3.640 4.011 0.158 116.466 o
2 9 5 0.606 0.867 0.108 398.491 o
2 9 6 13.673 13.874 0.266 16.274 o
2 9 7 21.855 21.561 0.365 6.896 o
2 9 8 263.711 267.262 3.400 0.050 o
2 9 9 52.065 51.005 0.966 1.168 o
2 9 10 0.786 0.739 0.118 334.253 o
2 9 11 7.043 6.839 0.434 19.857 o
2 9 12 0.069 0.158 0.177 156.221 o
2 9 13 6.271 5.981 0.325 32.250 o
2 9 14 22.502 22.211 0.552 5.347 o
2 9 15 79.065 80.478 1.291 0.522 o
2 9 16 42.300 42.185 0.946 1.595 o
2 9 17 0.113 0.148 0.138 258.084 o
2 9 18 2.821 2.710 0.187 110.360 o
2 9 19 0.151 0.207 0.138 257.864 o
2 9 20 2.032 1.872 0.168 149.620 o
2 9 21 2.532 2.572 0.276 58.487 o
2 10 0 12.932 12.357 0.246 18.942 o
2 10 1 21.082 21.896 0.335 7.328 o
2 10 2 81.333 83.218 0.985 0.534 o
2 10 3 32.424 32.587 0.473 3.243 o
2 10 4 32.060 30.370 0.453 3.460 o
2 10 5 44.262 43.062 0.581 1.824 o
2 10 6 27.597 26.724 0.414 4.532 o
2 10 7 76.341 76.960 1.251 0.562 o
2 10 8 7.711 7.272 0.217 41.983 o
2 10 9 0.000 0.000 0.187 140.263 o
2 10 10 57.851 58.040 0.867 1.011 o
2 10 11 0.727 0.749 0.118 335.756 o
2 10 12 1.269 1.242 0.207 109.828 o
2 10 13 74.602 77.591 1.301 0.565 o
2 10 14 66.537 65.539 1.143 0.736 o
2 10 15 7.136 7.253 0.384 23.328 o
2 10 16 0.063 0.483 0.286 60.170 o
2 10 17 5.810 5.932 0.483 17.874 o
2 10 18 17.769 18.802 0.660 5.868 o
2 10 19 0.002 -0.089 0.296 56.261 o
2 10 20 0.290 0.187 0.296 56.209 o
2 10 21 0.958 0.611 0.305 52.203 o
2 11 0 4.351 4.346 0.168 95.955 o
2 11 1 0.555 0.473 0.099 489.171 o
2 11 2 88.651 88.598 1.074 0.456 o
2 11 3 2.307 2.473 0.138 190.041 o
2 11 4 16.645 16.486 0.355 10.616 o
2 11 5 16.258 15.619 0.365 10.965 o
2 11 6 15.196 14.357 0.266 14.317 o
2 11 7 1.712 1.675 0.108 321.600 o
2 11 8 16.762 16.584 0.394 9.889 o
2 11 9 25.262 24.951 0.532 4.644 o
2 11 10 13.540 13.195 0.286 16.254 o
2 11 11 1.388 1.261 0.128 263.911 o
2 11 12 11.199 10.800 0.394 16.099 o
2 11 13 2.890 2.562 0.246 70.076 o
2 11 14 2.002 1.853 0.236 81.134 o
2 11 15 7.938 6.681 0.365 24.315 o
2 11 17 0.057 -0.069 0.296 56.260 o
2 11 18 1.588 1.449 0.335 42.694 o
2 11 19 0.197 0.207 0.296 56.229 o
2 11 20 6.158 6.297 0.493 16.959 o
2 12 0 3.791 3.212 0.177 103.897 o
2 12 1 39.343 38.766 0.512 2.297 o
2 12 2 32.792 33.435 0.463 3.173 o
2 12 3 2.033 1.803 0.128 233.004 o
2 12 4 2.102 2.059 0.118 254.419 o
2 12 5 3.419 3.636 0.138 144.753 o
2 12 6 3.544 3.360 0.158 123.786 o
2 12 7 1.275 1.320 0.099 418.487 o
2 12 8 1.503 1.409 0.108 341.369 o
2 12 9 148.336 153.832 1.931 0.157 o
2 12 10 248.674 264.867 3.301 0.055 o
2 12 11 99.356 103.546 1.508 0.334 o
2 12 12 2.206 2.109 0.148 177.909 o
2 12 13 2.588 2.503 0.286 54.820 o
2 12 14 27.069 27.217 0.631 3.786 o
2 12 15 10.557 9.460 0.552 11.387 o
2 12 16 3.439 3.350 0.374 31.832 o
2 12 17 11.943 12.731 0.601 9.040 o
2 12 18 8.576 9.095 0.552 12.344 o
2 12 19 14.085 16.111 0.641 7.260 o
2 12 20 0.024 -0.089 0.276 64.585 o
2 13 0 35.169 34.253 0.562 2.724 o
2 13 1 13.332 12.899 0.266 17.320 o
2 13 2 33.365 32.144 0.463 3.181 o
2 13 3 7.592 7.686 0.236 38.670 o
2 13 4 52.243 53.301 0.808 1.216 o
2 13 5 74.003 75.472 1.054 0.621 o
2 13 6 109.400 109.508 1.419 0.295 o
2 13 7 77.262 77.364 0.897 0.605 o
2 13 8 18.593 18.003 0.483 7.589 o
2 13 9 21.755 21.984 0.512 5.808 o
2 13 10 50.899 53.803 0.966 1.163 o
2 13 11 37.828 39.377 0.660 2.197 o
2 13 12 39.985 40.057 0.877 1.801 o
2 13 13 0.102 0.177 0.128 299.254 o
2 13 14 0.877 0.345 0.286 59.769 o
2 13 15 2.484 2.128 0.345 39.082 o
2 13 16 2.549 2.828 0.365 34.751 o
2 13 17 2.276 2.178 0.355 37.245 o
2 13 18 10.350 11.509 0.572 10.508 o
2 13 19 0.442 0.739 0.305 52.488 o
2 14 0 27.023 25.995 0.365 4.892 o
2 14 1 114.172 114.819 1.458 0.271 o
2 14 2 26.277 26.350 0.414 4.826 o
2 14 3 61.968 62.169 0.877 0.896 o
2 14 4 34.528 34.686 0.641 2.622 o
2 14 5 37.000 35.218 0.463 2.674 o
2 14 6 10.745 10.623 0.227 25.640 o
2 14 7 9.958 9.361 0.217 30.035 o
2 14 8 29.968 29.661 0.542 3.546 o
2 14 9 71.450 74.851 1.192 0.624 o
2 14 10 3.260 3.272 0.158 129.700 o
2 14 11 0.023 -0.020 0.227 95.717 o
2 14 12 4.531 4.355 0.217 68.761 o
2 14 13 2.758 2.513 0.325 42.934 o
2 14 14 0.073 -0.069 0.266 69.455 o
2 14 15 2.978 2.690 0.355 36.146 o
2 14 16 2.640 3.350 0.374 32.701 o
2 14 17 4.669 5.331 0.483 18.735 o
2 14 18 0.841 0.936 0.305 52.168 o
2 15 0 15.029 14.111 0.227 15.512 o
2 15 1 3.170 3.321 0.138 154.921 o
2 15 2 7.460 7.243 0.197 46.510 o
2 15 3 48.036 48.886 0.660 1.491 o
2 15 4 19.256 19.235 0.315 8.884 o
2 15 5 2.632 2.730 0.138 177.297 o
2 15 6 172.146 179.699 2.020 0.119 o
2 15 7 137.258 145.337 1.705 0.183 o
2 15 8 59.548 61.588 0.966 0.914 o
2 15 9 3.687 3.715 0.177 102.000 o
2 15 10 1.509 1.458 0.118 294.240 o
2 15 11 13.829 14.081 0.374 13.028 o
2 15 12 1.682 1.468 0.177 141.942 o
2 15 13 0.304 0.276 0.148 223.951 o
2 15 14 19.092 18.634 0.424 7.942 o
2 15 15 0.501 0.453 0.276 64.342 o
2 15 16 3.375 3.439 0.404 27.721 o
2 15 17 0.212 0.010 0.256 74.874 o
2 15 18 0.875 0.670 0.266 68.684 o
2 16 0 0.442 0.325 0.079 766.604 o
2 16 1 14.724 14.367 0.286 14.334 o
2 16 2 0.377 0.355 0.089 612.119 o
2 16 3 7.207 7.312 0.168 53.257 o
2 16 4 0.149 0.108 0.079 788.308 o
2 16 5 49.380 48.600 0.788 1.374 o
2 16 6 8.810 8.337 0.197 37.655 o
2 16 7 19.647 20.102 0.414 7.546 o
2 16 8 27.351 27.818 0.404 4.509 o
2 16 9 17.895 18.673 0.345 9.405 o
2 16 10 3.341 2.937 0.187 103.191 o
2 16 11 3.753 3.577 0.246 63.515 o
2 16 12 10.021 9.716 0.315 22.349 o
2 16 13 16.694 16.525 0.512 8.171 o
2 16 14 0.073 -0.020 0.197 126.577 o
2 16 15 3.550 3.449 0.384 30.193 o
2 16 16 0.457 0.335 0.256 74.662 o
2 16 17 0.020 0.138 0.246 81.010 o
2 17 0 3.904 3.774 0.148 122.573 o
2 17 1 20.619 20.822 0.365 7.480 o
2 17 2 13.790 13.431 0.286 15.827 o
2 17 3 0.488 0.384 0.089 605.727 o
2 17 4 2.305 2.020 0.108 277.230 o
2 17 5 30.950 31.553 0.532 3.340 o
2 17 6 66.676 68.821 1.114 0.723 o
2 17 7 1.504 1.311 0.118 297.603 o
2 17 8 4.583 3.882 0.325 38.137 o
2 17 9 0.093 -0.148 0.187 140.244 o
2 17 10 8.371 8.790 0.315 26.128 o
2 17 11 0.052 0.030 0.118 351.570 o
2 17 12 1.971 1.951 0.187 123.591 o
2 17 13 3.362 3.478 0.236 70.139 o
2 17 14 2.852 2.917 0.207 92.875 o
2 17 15 2.811 2.858 0.335 40.288 o
2 17 16 0.215 0.335 0.266 69.380 o
2 18 0 49.785 50.729 0.847 1.296 o
2 18 1 0.068 -0.049 0.236 87.904 o
2 18 2 0.487 0.384 0.089 605.802 o
2 18 3 4.593 4.119 0.148 107.013 o
2 18 4 20.428 19.738 0.325 8.118 o
2 18 5 15.757 14.870 0.325 12.333 o
2 18 6 17.107 17.678 0.434 8.865 o
2 18 7 25.997 26.704 0.552 4.284 o
2 18 8 4.621 4.533 0.276 48.223 o
2 18 9 1.718 1.636 0.148 193.949 o
2 18 10 1.176 1.054 0.138 238.532 o
2 18 11 9.916 10.140 0.374 18.730 o
2 18 12 13.375 13.884 0.365 13.744 o
2 18 13 0.809 1.192 0.168 168.744 o
2 18 14 0.127 0.089 0.138 258.124 o
2 18 15 0.909 0.936 0.148 214.882 o
2 19 0 32.558 33.740 0.641 2.825 o
2 19 1 8.399 8.672 0.266 30.902 o
2 19 2 0.405 0.148 0.108 414.074 o
2 19 3 4.359 4.287 0.187 84.657 o
2 19 4 55.801 56.316 1.567 0.781 o
2 19 5 2.423 2.197 0.138 190.666 o
2 19 6 5.183 4.917 0.217 62.396 o
2 19 7 4.157 3.833 0.227 68.808 o
2 19 8 1.079 0.877 0.138 242.379 o
2 19 9 0.020 0.059 0.118 351.597 o
2 19 10 2.511 2.572 0.168 136.904 o
2 19 11 0.738 0.729 0.128 287.995 o
2 19 12 25.744 27.522 0.532 4.339 o
2 19 13 0.365 0.512 0.148 222.898 o
2 20 0 19.782 20.378 0.552 6.195 o
2 20 1 0.156 0.236 0.108 417.017 o
2 20 2 0.151 0.118 0.108 417.615 o
2 20 3 7.004 6.661 0.207 48.687 o
2 20 4 1.899 1.793 0.138 211.132 o
2 20 5 10.017 9.953 0.394 17.700 o
2 20 6 2.431 2.473 0.168 138.943 o
2 20 7 0.305 0.296 0.128 297.592 o
2 20 8 0.938 0.976 0.138 244.133 o
2 20 9 0.090 0.079 0.118 351.402 o
2 20 10 4.635 4.622 0.207 71.157 o
2 20 11 17.103 17.333 0.335 10.375 o
2 20 12 5.662 5.755 0.512 16.266 o
2 21 0 2.372 2.207 0.148 172.965 o
2 21 1 6.824 6.711 0.286 35.606 o
2 21 2 8.105 8.001 0.355 23.908 o
2 21 3 0.847 0.798 0.118 331.580 o
2 21 4 5.019 5.223 0.276 45.597 o
2 21 5 28.703 28.991 0.670 3.356 o
2 21 6 0.049 0.128 0.118 351.455 o
2 21 7 0.708 0.798 0.138 249.581 o
2 21 8 1.085 1.035 0.138 240.653 o
2 21 9 5.834 5.430 0.207 59.507 o
2 21 10 1.394 1.271 0.138 231.110 o
2 21 11 9.111 9.351 0.453 15.913 o
2 22 0 3.005 2.779 0.148 151.912 o
2 22 1 1.018 0.936 0.118 323.787 o
2 22 2 1.898 1.823 0.138 210.735 o
2 22 3 3.028 3.084 0.168 124.668 o
2 22 4 8.494 8.208 0.276 30.245 o
2 22 5 0.079 0.138 0.148 224.921 o
2 22 6 3.605 3.764 0.246 63.783 o
2 22 7 2.902 2.582 0.158 142.790 o
2 22 8 10.001 10.169 0.434 15.762 o
2 23 0 0.405 0.335 0.108 412.214 o
2 23 1 0.863 0.660 0.108 392.576 o
2 23 2 0.150 0.069 0.099 505.386 o
2 23 3 6.355 6.454 0.256 42.515 o
2 23 4 0.000 -0.079 0.197 126.587 o
2 23 5 1.556 1.389 0.158 178.035 o
3 0 0 701.215 748.317 10.209 0.007 o
3 0 2 1639.270 1681.820 23.591 0.001 o
3 0 4 1.960 2.040 0.148 184.255 o
3 0 6 107.831 107.882 1.261 0.310 o
3 0 8 14.857 15.481 0.305 13.238 o
3 0 10 34.403 32.282 0.591 2.824 o
3 0 12 82.197 81.838 1.251 0.501 o
3 0 14 257.733 266.690 3.626 0.051 o
3 0 16 92.623 94.658 1.212 0.405 o
3 0 18 0.989 0.818 0.187 136.130 o
3 0 20 5.369 5.646 0.296 39.670 o
3 0 22 0.269 0.148 0.158 197.283 o
3 1 0 379.996 403.336 4.316 0.024 o
3 1 1 713.124 745.745 7.538 0.007 o
3 1 2 84.205 81.641 0.749 0.542 o
3 1 3 164.765 172.397 1.547 0.134 o
3 1 4 102.321 102.679 0.995 0.355 o
3 1 5 87.289 87.445 0.916 0.483 o
3 1 6 182.866 192.341 1.793 0.108 o
3 1 7 236.961 243.829 2.276 0.065 o
3 1 8 269.836 279.017 2.838 0.050 o
3 1 9 1.647 1.734 0.099 373.817 o
3 1 10 37.328 36.992 0.532 2.483 o
3 1 11 2.259 2.178 0.128 218.399 o
3 1 12 24.258 23.236 0.305 6.191 o
3 1 13 18.566 18.279 0.266 10.059 o
3 1 14 244.563 255.259 2.730 0.059 o
3 1 15 49.408 50.620 0.562 1.465 o
3 1 16 92.373 94.766 0.976 0.424 o
3 1 17 2.861 2.631 0.128 189.756 o
3 1 18 2.853 2.365 0.148 160.075 o
3 1 19 5.555 5.518 0.207 61.104 o
3 1 20 3.212 3.321 0.177 110.763 o
3 1 21 1.564 1.606 0.138 222.635 o
3 1 22 4.874 4.769 0.187 77.128 o
3 2 0 411.788 431.933 4.030 0.021 o
3 2 1 561.834 603.521 5.843 0.011 o
3 2 2 42.893 41.505 0.443 2.046 o
3 2 3 91.861 92.786 0.897 0.438 o
3 2 4 15.184 15.047 0.217 14.999 o
3 2 5 33.698 33.583 0.374 3.217 o
3 2 6 0.185 0.227 0.079 785.064 o
3 2 7 22.941 23.137 0.296 6.681 o
3 2 8 136.367 143.229 1.439 0.192 o
3 2 9 10.029 9.706 0.187 31.586 o
3 2 10 0.495 0.572 0.118 343.479 o
3 2 11 20.664 20.211 0.365 7.582 o
3 2 12 1.136 1.084 0.089 523.127 o
3 2 13 60.245 60.159 0.631 1.016 o
3 2 14 24.979 24.911 0.325 5.659 o
3 2 15 44.187 43.663 0.503 1.872 o
3 2 16 1.152 1.114 0.108 368.585 o
3 2 17 2.847 2.532 0.128 191.883 o
3 2 18 9.736 9.884 0.246 27.620 o
3 2 19 0.009 0.000 0.227 95.718 o
3 2 20 0.261 0.227 0.118 349.722 o
3 2 21 18.644 19.610 0.493 7.194 o
3 2 22 0.967 1.054 0.128 278.949 o
3 3 0 84.885 89.435 0.877 0.496 o
3 3 1 55.074 57.636 0.591 1.176 o
3 3 2 1.184 1.311 0.089 506.498 o
3 3 3 38.783 40.392 0.443 2.351 o
3 3 4 99.382 102.344 0.976 0.370 o
3 3 5 37.970 37.505 0.414 2.556 o
3 3 6 75.387 77.660 0.985 0.609 o
3 3 7 0.033 0.138 0.079 790.450 o
3 3 8 19.173 19.688 0.286 9.102 o
3 3 9 24.973 25.601 0.365 5.403 o
3 3 10 0.707 0.650 0.108 398.785 o
3 3 11 38.324 38.342 0.966 1.799 o
3 3 12 0.150 0.443 0.108 415.809 o
3 3 13 23.573 23.147 0.374 6.048 o
3 3 14 27.720 27.394 0.463 4.280 o
3 3 15 16.438 16.151 0.266 12.353 o
3 3 16 1.531 1.527 0.108 336.401 o
3 3 17 0.100 0.089 0.089 624.220 o
3 3 18 8.427 8.070 0.335 24.979 o
3 3 19 2.770 2.523 0.158 145.856 o
3 3 20 8.565 8.947 0.236 33.105 o
3 3 21 6.541 6.858 0.217 48.620 o
3 3 22 1.153 1.251 0.128 271.147 o
3 4 0 99.272 101.270 1.025 0.370 o
3 4 1 151.335 154.521 1.577 0.159 o
3 4 2 9.446 9.834 0.187 33.356 o
3 4 3 29.149 27.483 0.335 4.413 o
3 4 4 273.207 286.132 2.572 0.049 o
3 4 5 49.587 50.502 0.562 1.461 o
3 4 6 21.571 21.955 0.296 7.401 o
3 4 7 108.895 110.208 1.104 0.310 o
3 4 8 95.111 96.639 0.966 0.405 o
3 4 9 0.609 0.532 0.108 404.124 o
3 4 10 65.611 64.918 0.936 0.804 o
3 4 11 46.797 45.151 0.552 1.681 o
3 4 12 1.604 1.636 0.118 286.260 o
3 4 13 0.124 0.039 0.089 624.230 o
3 4 14 0.000 -0.039 0.236 87.908 o
3 4 15 0.019 -0.010 0.236 87.907 o
3 4 16 5.368 5.577 0.177 72.631 o
3 4 17 1.870 1.754 0.118 271.783 o
3 4 18 0.296 0.266 0.118 349.127 o
3 4 19 0.852 0.709 0.128 285.802 o
3 4 20 0.656 0.670 0.158 193.627 o
3 4 21 2.788 3.084 0.365 34.349 o
3 4 22 11.738 13.451 0.522 10.726 o
3 5 0 90.365 88.509 1.005 0.452 o
3 5 1 0.140 0.049 0.069 1030.160 o
3 5 2 123.463 128.517 1.340 0.234 o
3 5 3 0.037 0.089 0.069 1032.580 o
3 5 4 28.648 26.961 0.315 4.612 o
3 5 5 860.703 917.954 10.159 0.005 o
3 5 6 1048.080 1135.350 14.397 0.003 o
3 5 7 272.743 284.437 2.877 0.048 o
3 5 8 45.041 44.609 0.503 1.806 o
3 5 9 91.867 92.392 1.114 0.423 o
3 5 10 9.333 9.913 0.236 29.420 o
3 5 11 11.103 10.209 0.296 21.336 o
3 5 12 0.893 0.995 0.118 327.017 o
3 5 13 33.843 32.962 0.552 2.920 o
3 5 14 7.519 7.597 0.227 40.592 o
3 5 15 0.449 0.286 0.128 296.170 o
3 5 16 48.977 49.152 0.877 1.323 o
3 5 17 27.960 25.788 1.340 1.818 o
3 5 18 0.289 0.276 0.168 174.589 o
3 5 19 0.059 0.108 0.168 175.163 o
3 5 20 3.692 3.656 0.246 63.621 o
3 5 21 0.008 -0.039 0.217 104.617 o
3 5 22 1.415 1.547 0.227 91.093 o
3 6 0 88.881 88.982 1.094 0.452 o
3 6 1 188.336 191.612 2.109 0.102 o
3 6 2 752.567 785.585 8.494 0.006 o
3 6 3 910.925 984.173 11.214 0.004 o
3 6 4 16.529 16.821 0.246 12.310 o
3 6 5 134.557 143.859 1.468 0.194 o
3 6 6 126.090 126.230 1.389 0.229 o
3 6 7 1.934 2.010 0.118 263.093 o
3 6 8 0.015 0.099 0.089 624.944 o
3 6 9 84.668 83.572 1.182 0.486 o
3 6 10 101.134 100.028 1.439 0.339 o
3 6 11 93.981 92.618 1.991 0.335 o
3 6 12 43.361 41.288 0.572 1.922 o
3 6 13 50.839 50.571 0.749 1.323 o
3 6 14 3.688 3.735 0.207 82.456 o
3 6 15 1.566 1.606 0.148 197.430 o
3 6 16 2.806 2.966 0.207 93.048 o
3 6 17 6.072 5.666 0.493 17.195 o
3 6 18 3.822 3.488 0.246 63.392 o
3 6 19 7.977 8.337 0.512 14.339 o
3 6 20 13.958 13.993 1.064 3.584 o
3 6 21 2.034 1.892 0.197 112.571 o
3 6 22 0.395 0.424 0.246 80.749 o
3 7 0 87.137 90.234 0.936 0.473 o
3 7 1 5.898 5.942 0.187 63.122 o
3 7 2 14.621 13.214 0.256 15.807 o
3 7 3 815.072 849.735 11.716 0.005 o
3 7 4 475.177 496.871 5.676 0.015 o
3 7 5 16.978 17.639 0.266 11.350 o
3 7 6 0.437 0.434 0.089 607.155 o
3 7 7 5.601 5.607 0.168 73.900 o
3 7 8 11.587 11.559 0.246 21.859 o
3 7 9 43.815 43.919 0.631 1.785 o
3 7 10 25.737 24.674 0.414 5.118 o
3 7 11 13.413 13.106 0.305 15.840 o
3 7 12 11.477 11.322 0.355 17.204 o
3 7 13 12.943 12.889 0.335 15.512 o
3 7 14 6.693 6.474 0.256 41.199 o
3 7 15 0.593 0.650 0.128 291.451 o
3 7 16 0.040 0.089 0.118 351.533 o
3 7 17 0.410 0.483 0.168 173.777 o
3 7 18 6.182 6.169 0.296 36.652 o
3 7 19 16.020 16.525 0.473 9.024 o
3 7 20 0.732 0.611 0.168 171.620 o
3 7 21 0.064 -0.030 0.207 114.812 o
3 8 0 74.856 74.516 0.887 0.644 o
3 8 1 40.121 40.047 0.591 2.120 o
3 8 2 94.212 93.820 1.360 0.387 o
3 8 3 0.793 0.798 0.099 468.952 o
3 8 4 9.443 8.770 0.217 32.534 o
3 8 5 13.777 14.131 0.266 15.997 o
3 8 6 47.633 46.718 0.828 1.434 o
3 8 7 17.730 17.067 0.365 9.668 o
3 8 8 17.491 16.259 0.355 10.173 o
3 8 9 19.006 18.151 0.365 8.743 o
3 8 10 7.940 7.824 0.335 26.048 o
3 8 11 6.211 6.110 0.296 36.653 o
3 8 12 4.999 4.572 0.207 68.553 o
3 8 13 5.092 4.858 0.207 66.779 o
3 8 14 1.865 1.833 0.148 188.668 o
3 8 15 5.609 5.637 0.296 39.000 o
3 8 16 0.000 -0.030 0.217 104.617 o
3 8 17 0.480 0.335 0.158 195.992 o
3 8 18 0.200 0.197 0.158 197.406 o
3 8 19 3.627 3.646 0.236 68.190 o
3 8 20 0.068 -0.089 0.217 104.612 o
3 8 21 0.450 0.305 0.158 196.233 o
3 9 0 1.882 1.764 0.128 239.014 o
3 9 1 0.011 0.108 0.099 506.227 o
3 9 2 0.004 -0.030 0.246 81.016 o
3 9 3 39.870 39.367 0.729 1.996 o
3 9 4 5.301 5.538 0.187 69.725 o
3 9 5 21.088 19.895 0.453 6.735 o
3 9 6 28.680 28.094 0.434 4.159 o
3 9 7 6.927 6.878 0.187 52.548 o
3 9 8 6.910 6.720 0.187 53.156 o
3 9 9 6.449 6.366 0.296 35.650 o
3 9 10 0.020 -0.030 0.217 104.617 o
3 9 11 23.984 24.694 0.956 3.012 o
3 9 12 7.305 7.075 0.335 27.892 o
3 9 13 15.314 14.692 0.739 5.954 o
3 9 14 0.061 0.286 0.197 126.513 o
3 9 15 0.066 0.266 0.197 126.517 o
3 9 17 17.602 17.225 0.887 4.236 o
3 9 18 11.300 10.928 0.345 18.076 o
3 9 19 5.481 6.129 0.276 42.422 o
3 9 20 0.301 0.187 0.158 197.120 o
3 9 21 0.145 -0.217 0.276 64.576 o
3 10 0 6.099 6.395 0.197 57.235 o
3 10 1 25.180 24.576 0.374 5.435 o
3 10 2 2.266 2.207 0.138 195.001 o
3 10 3 148.413 153.979 2.020 0.155 o
3 10 4 29.798 29.109 0.503 3.714 o
3 10 5 3.088 2.661 0.148 151.394 o
3 10 6 1.082 1.251 0.108 368.633 o
3 10 7 9.946 9.637 0.236 28.152 o
3 10 8 5.477 5.203 0.187 69.647 o
3 10 9 0.884 0.808 0.148 216.105 o
3 10 10 151.669 167.460 3.084 0.124 o
3 10 11 17.674 18.585 0.532 7.239 o
3 10 12 202.275 215.686 3.804 0.074 o
3 10 13 37.626 37.997 0.769 2.104 o
3 10 14 0.303 0.069 0.236 87.810 o
3 10 15 0.154 0.158 0.276 64.560 o
3 10 16 4.230 4.257 0.453 21.613 o
3 10 17 2.019 2.207 0.365 35.566 o
3 10 18 44.119 48.413 1.153 1.270 o
3 10 19 5.295 5.568 0.483 18.299 o
3 10 20 8.039 8.366 0.522 13.885 o
3 11 0 2.589 2.365 0.138 183.616 o
3 11 1 0.689 0.552 0.108 401.141 o
3 11 2 70.069 68.456 1.242 0.659 o
3 11 3 6.920 6.504 0.158 60.551 o
3 11 4 24.680 23.689 0.384 5.624 o
3 11 5 104.882 105.271 1.182 0.330 o
3 11 6 17.692 17.146 0.335 10.077 o
3 11 7 0.361 0.374 0.079 770.865 o
3 11 8 4.557 4.030 0.148 108.363 o
3 11 9 9.418 8.721 0.217 32.694 o
3 11 10 137.572 142.155 1.784 0.183 o
3 11 11 11.748 12.091 0.542 10.547 o
3 11 12 122.542 131.226 2.197 0.204 o
3 11 13 60.245 64.485 1.153 0.821 o
3 11 14 10.879 9.618 2.227 0.965 o
3 11 15 0.147 -0.148 0.276 64.575 o
3 11 16 51.684 57.370 1.320 0.935 o
3 11 17 25.668 27.069 0.798 3.336 o
3 11 18 5.809 6.178 0.512 16.084 o
3 11 19 6.061 6.178 0.503 16.491 o
3 11 20 2.848 3.212 0.374 32.557 o
3 12 0 28.062 27.621 0.345 4.579 o
3 12 1 2.300 2.079 0.118 245.149 o
3 12 2 1.642 1.596 0.108 327.948 o
3 12 3 72.681 71.619 1.035 0.657 o
3 12 4 6.663 6.297 0.168 61.092 o
3 12 5 46.597 45.516 0.641 1.623 o
3 12 6 8.728 8.760 0.207 36.047 o
3 12 7 6.596 6.228 0.187 56.905 o
3 12 8 0.017 0.010 0.079 791.135 o
3 12 9 0.190 0.187 0.089 621.667 o
3 12 10 28.805 28.951 0.552 3.712 o
3 12 11 16.411 16.289 0.581 7.378 o
3 12 12 19.425 18.841 0.700 5.216 o
3 12 13 3.241 2.700 0.591 13.618 o
3 12 14 0.155 -0.512 0.266 69.445 o
3 12 15 12.461 12.820 0.621 8.487 o
3 12 16 27.842 30.114 0.857 2.830 o
3 12 17 0.097 -0.227 0.296 56.258 o
3 12 18 3.080 3.045 0.384 30.878 o
3 12 19 21.255 24.103 0.729 4.329 o
3 13 0 12.388 12.899 0.256 18.992 o
3 13 1 2.998 2.789 0.128 182.659 o
3 13 2 10.296 10.179 0.187 29.985 o
3 13 3 1.383 1.380 0.099 408.068 o
3 13 4 79.213 80.547 1.084 0.549 o
3 13 5 25.053 24.911 0.483 4.920 o
3 13 6 30.010 29.434 0.473 3.744 o
3 13 7 16.941 16.653 0.463 8.746 o
3 13 8 0.130 0.148 0.089 623.332 o
3 13 9 0.089 0.049 0.089 624.559 o
3 13 10 0.264 0.158 0.089 620.077 o
3 13 11 6.676 6.681 0.236 44.467 o
3 13 12 3.075 2.789 0.246 68.702 o
3 13 13 3.792 3.074 0.355 34.794 o
3 13 14 2.137 1.685 0.325 44.464 o
3 13 15 0.001 -0.138 0.286 60.208 o
3 13 16 0.611 0.463 0.315 49.257 o
3 13 17 21.404 23.778 0.739 4.276 o
3 13 18 13.452 14.574 0.611 8.093 o
3 14 0 27.385 26.468 0.335 4.864 o
3 14 1 14.802 14.160 0.286 14.359 o
3 14 2 108.354 108.188 1.311 0.306 o
3 14 3 0.244 0.148 0.079 784.241 o
3 14 4 2.673 2.395 0.108 246.991 o
3 14 5 14.047 13.894 0.345 13.696 o
3 14 6 4.402 4.198 0.138 116.943 o
3 14 7 6.284 5.972 0.207 54.867 o
3 14 8 25.543 25.226 0.532 4.570 o
3 14 9 0.067 0.059 0.099 506.081 o
3 14 10 34.313 34.588 0.591 2.732 o
3 14 11 11.154 11.234 0.384 16.343 o
3 14 13 0.320 0.039 0.266 69.396 o
3 14 14 0.060 -0.266 0.266 69.456 o
3 14 15 2.150 2.257 0.345 39.397 o
3 14 16 9.648 9.972 0.532 12.299 o
3 14 17 0.262 0.305 0.286 60.139 o
3 14 18 1.090 1.114 0.305 51.869 o
3 15 0 45.184 44.255 0.542 1.781 o
3 15 1 33.508 33.100 0.414 3.201 o
3 15 2 0.520 0.581 0.089 597.907 o
3 15 3 18.470 17.806 0.286 10.040 o
3 15 4 18.964 19.097 0.374 8.434 o
3 15 5 0.612 0.700 0.089 587.485 o
3 15 6 0.650 0.690 0.089 585.056 o
3 15 7 164.079 164.336 2.424 0.126 o
3 15 8 12.101 11.500 0.296 18.843 o
3 15 9 28.931 29.335 0.611 3.491 o
3 15 10 2.417 2.326 0.158 154.439 o
3 15 11 6.807 6.789 0.778 7.419 o
3 15 12 2.225 2.355 0.158 157.767 o
3 15 13 3.248 2.966 0.345 37.493 o
3 15 14 0.321 0.168 0.276 64.510 o
3 15 15 1.036 1.114 0.305 51.920 o
3 15 16 0.250 0.069 0.266 69.415 o
3 15 17 2.242 2.247 0.335 41.520 o
3 16 0 30.301 29.720 0.394 3.884 o
3 16 1 47.023 46.974 0.680 1.551 o
3 16 2 4.850 4.730 0.158 92.409 o
3 16 3 6.586 6.336 0.168 61.556 o
3 16 4 1.260 1.271 0.099 421.448 o
3 16 5 19.651 18.752 0.335 8.609 o
3 16 6 10.453 9.884 0.276 23.962 o
3 16 7 0.040 0.177 0.089 624.410 o
3 16 8 27.473 25.542 0.641 3.805 o
3 16 9 107.172 115.785 4.099 0.155 o
3 16 10 21.709 23.325 0.670 4.658 o
3 16 11 6.994 7.617 0.256 38.059 o
3 16 12 2.025 2.188 0.158 163.054 o
3 16 13 2.955 2.749 0.345 38.067 o
3 16 14 13.856 14.949 0.591 8.231 o
3 16 15 0.134 0.177 0.266 69.431 o
3 16 16 0.046 0.148 0.256 74.895 o
3 17 0 8.268 7.962 0.187 42.110 o
3 17 1 14.682 15.146 0.266 14.439 o
3 17 2 64.603 66.377 0.877 0.823 o
3 17 3 5.797 5.577 0.168 72.082 o
3 17 4 0.053 -0.118 0.246 81.014 o
3 17 5 15.733 14.929 0.335 12.131 o
3 17 6 35.694 33.376 0.680 2.513 o
3 17 7 48.706 48.531 0.985 1.270 o
3 17 8 68.099 71.324 1.951 0.508 o
3 17 9 22.647 24.103 0.749 4.042 o
3 17 10 5.749 6.139 0.246 47.715 o
3 17 11 2.430 2.730 0.168 136.943 o
3 17 12 0.882 0.897 0.128 282.991 o
3 17 13 11.637 12.515 0.562 10.037 o
3 17 14 14.820 16.565 0.611 7.406 o
3 17 15 0.048 -0.158 0.266 69.457 o
3 18 0 228.118 232.024 3.429 0.064 o
3 18 1 36.161 32.479 1.173 1.713 o
3 18 2 9.183 7.312 0.374 21.378 o
3 18 3 11.062 11.076 0.493 12.517 o
3 18 4 4.259 3.853 0.266 53.664 o
3 18 5 2.677 2.385 0.148 163.875 o
3 18 6 9.683 9.657 0.315 22.963 o
3 18 7 2.744 2.848 0.325 42.678 o
3 18 8 14.348 14.387 0.522 9.357 o
3 18 9 0.051 0.000 0.118 351.595 o
3 18 10 0.246 0.246 0.168 174.744 o
3 18 11 0.001 -0.010 0.197 126.587 o
3 18 12 0.747 0.660 0.128 288.503 o
3 18 13 0.059 0.128 0.138 258.230 o
3 18 14 0.403 0.266 0.266 69.305 o
3 19 0 2.113 2.030 0.138 201.827 o
3 19 1 33.297 33.129 0.966 2.150 o
3 19 2 1.445 1.419 0.128 259.626 o
3 19 3 0.064 0.039 0.108 418.334 o
3 19 4 8.292 7.893 0.325 26.249 o
3 19 5 0.542 0.611 0.118 342.054 o
3 19 6 3.858 3.311 0.168 110.203 o
3 19 7 15.860 15.875 0.828 4.949 o
3 19 8 0.406 0.443 0.128 295.745 o
3 19 9 1.596 1.468 0.148 198.208 o
3 19 10 1.935 2.089 0.148 184.276 o
3 19 11 0.079 0.030 0.118 351.510 o
3 19 12 3.345 3.222 0.276 54.933 o
3 20 0 31.512 32.282 0.897 2.409 o
3 20 1 45.313 46.590 1.173 1.248 o
3 20 2 1.415 1.557 0.138 227.072 o
3 20 3 3.353 3.518 0.177 107.602 o
3 20 4 13.443 13.628 0.453 11.463 o
3 20 5 2.038 2.069 0.138 203.383 o
3 20 6 12.849 12.544 0.424 12.985 o
3 20 7 5.768 6.474 0.414 22.821 o
3 20 8 6.418 6.395 0.512 15.713 o
3 20 9 6.737 6.504 0.296 34.692 o
3 20 10 2.423 2.434 0.158 153.288 o
3 20 11 0.148 0.039 0.108 417.928 o
3 21 0 40.441 42.441 1.242 1.361 o
3 21 1 1.842 1.971 0.138 210.237 o
3 21 2 0.409 0.463 0.118 346.093 o
3 21 3 1.350 1.409 0.128 262.790 o
3 21 4 0.980 0.956 0.118 324.751 o
3 21 5 2.492 2.276 0.138 187.606 o
3 21 6 3.267 3.153 0.236 71.561 o
3 21 7 13.183 12.603 0.493 10.938 o
3 21 8 4.812 4.888 0.315 38.381 o
3 21 9 8.353 8.218 0.424 18.616 o
3 22 0 3.720 3.951 0.207 81.283 o
3 22 1 3.986 3.754 0.177 97.978 o
3 22 2 0.106 0.089 0.108 418.030 o
3 22 3 0.089 0.000 0.207 114.807 o
3 22 4 0.495 0.335 0.108 410.115 o
3 22 5 1.344 1.035 0.118 309.812 o
3 22 6 2.006 1.774 0.148 186.203 o
3 22 7 0.667 0.591 0.148 219.959 o
3 23 0 1.959 1.675 0.128 237.868 o
3 23 1 0.707 0.581 0.108 400.031 o
3 23 2 0.018 -0.118 0.197 126.586 o
4 0 0 0.246 0.345 0.099 501.420 o
4 0 2 970.088 1022.440 19.432 0.003 o
4 0 4 0.056 0.020 0.108 418.384 o
4 0 6 16.616 16.860 0.562 7.483 o
4 0 8 4.942 5.124 0.256 51.051 o
4 0 10 306.243 334.102 5.991 0.031 o
4 0 12 19.793 18.713 0.522 6.685 o
4 0 14 0.001 -0.108 0.217 104.617 o
4 0 16 21.362 21.324 0.542 5.769 o
4 0 18 2.835 2.730 0.315 45.091 o
4 0 20 1.658 2.059 0.296 53.837 o
4 1 0 9.496 9.292 0.187 34.151 o
4 1 1 47.361 47.516 0.621 1.566 o
4 1 2 18.085 17.215 0.286 10.468 o
4 1 3 29.873 29.582 0.394 3.960 o
4 1 4 231.761 236.379 2.572 0.067 o
4 1 5 0.835 0.483 0.099 475.428 o
4 1 6 22.841 22.477 0.335 6.602 o
4 1 7 37.630 36.578 0.650 2.313 o
4 1 8 57.518 57.508 0.936 0.997 o
4 1 9 121.882 123.314 1.803 0.228 o
4 1 10 9.588 8.780 0.256 28.579 o
4 1 11 2.818 2.631 0.168 131.585 o
4 1 12 0.644 0.532 0.118 340.639 o
4 1 13 2.615 2.661 0.177 123.105 o
4 1 14 5.775 5.508 0.207 59.639 o
4 1 15 71.894 71.905 0.907 0.687 o
4 1 16 17.889 17.767 0.473 8.007 o
4 1 17 38.508 37.721 0.936 1.842 o
4 1 18 0.111 0.089 0.128 299.376 o
4 1 19 0.015 -0.020 0.217 104.617 o
4 1 20 0.614 0.680 0.138 251.788 o
4 1 21 0.961 1.143 0.138 242.064 o
4 2 0 64.804 65.401 0.818 0.841 o
4 2 1 5.842 5.755 0.158 74.207 o
4 2 2 40.063 39.288 0.581 2.157 o
4 2 3 257.465 268.011 2.838 0.054 o
4 2 4 88.630 90.529 1.084 0.450 o
4 2 5 1.489 1.399 0.108 342.465 o
4 2 6 2.129 1.813 0.128 229.438 o
4 2 7 0.092 0.168 0.099 505.475 o
4 2 8 0.061 0.099 0.089 624.598 o
4 2 9 3.564 3.222 0.148 134.963 o
4 2 10 4.351 3.922 0.148 112.907 o
4 2 11 4.507 3.961 0.177 90.406 o
4 2 12 33.395 31.178 0.463 3.232 o
4 2 13 6.052 5.361 0.187 64.206 o
4 2 14 26.048 25.542 0.374 5.117 o
4 2 15 45.974 46.265 0.572 1.680 o
4 2 16 13.206 12.564 0.276 17.377 o
4 2 17 18.405 18.062 0.374 8.937 o
4 2 18 20.579 20.339 0.424 7.080 o
4 2 19 10.034 10.357 0.276 24.321 o
4 2 20 0.407 0.473 0.128 295.547 o
4 2 21 1.200 1.182 0.138 236.625 o
4 3 0 23.980 23.354 0.325 6.160 o
4 3 1 48.303 47.437 0.552 1.571 o
4 3 2 48.634 48.245 0.611 1.510 o
4 3 3 45.610 45.555 0.542 1.731 o
4 3 4 35.702 35.918 0.463 2.758 o
4 3 5 2.951 3.035 0.138 164.415 o
4 3 6 137.808 138.509 1.389 0.194 o
4 3 7 20.190 20.950 0.305 8.121 o
4 3 8 0.651 0.709 0.099 479.162 o
4 3 9 0.678 0.601 0.089 586.220 o
4 3 10 52.256 49.881 0.591 1.368 o
4 3 11 28.941 27.601 0.483 4.004 o
4 3 12 19.339 18.457 0.335 8.832 o
4 3 13 12.457 11.628 0.276 19.063 o
4 3 14 1.122 0.985 0.118 319.233 o
4 3 15 6.002 5.784 0.207 57.240 o
4 3 16 48.110 48.403 0.601 1.532 o
4 3 17 96.119 100.679 2.641 0.264 o
4 3 18 0.144 0.246 0.128 298.904 o
4 3 19 6.433 6.395 0.296 35.654 o
4 3 20 1.020 1.242 0.148 210.893 o
4 3 21 2.263 2.257 0.158 157.979 o
4 4 0 86.259 89.189 1.143 0.462 o
4 4 1 232.777 240.508 2.552 0.066 o
4 4 2 21.018 21.265 0.345 7.399 o
4 4 3 34.502 33.652 0.424 3.046 o
4 4 4 595.280 621.190 7.272 0.010 o
4 4 5 175.725 181.797 1.862 0.117 o
4 4 6 2.912 2.808 0.138 168.519 o
4 4 7 69.960 69.363 0.818 0.741 o
4 4 8 0.184 0.197 0.089 621.679 o
4 4 9 0.104 0.187 0.079 788.467 o
4 4 10 37.052 36.539 0.690 2.295 o
4 4 11 92.276 93.742 1.370 0.396 o
4 4 12 47.332 45.989 0.660 1.571 o
4 4 13 4.699 4.415 0.177 85.601 o
4 4 14 1.926 1.872 0.138 209.297 o
4 4 15 6.718 6.642 0.227 46.278 o
4 4 16 4.414 4.139 0.177 90.465 o
4 4 17 1.839 1.833 0.158 169.587 o
4 4 18 0.863 0.916 0.148 215.662 o
4 4 19 10.988 10.504 0.365 17.778 o
4 4 20 8.750 8.810 0.325 24.585 o
4 4 21 0.650 0.424 0.158 194.626 o
4 5 0 203.686 214.050 2.138 0.086 o
4 5 1 0.014 -0.020 0.227 95.718 o
4 5 2 56.302 58.346 0.769 1.076 o
4 5 3 79.203 81.306 0.897 0.570 o
4 5 4 315.737 328.317 3.252 0.036 o
4 5 5 634.820 667.149 7.735 0.009 o
4 5 6 77.984 79.246 0.976 0.580 o
4 5 7 211.102 222.918 2.276 0.080 o
4 5 8 36.718 37.022 0.453 2.634 o
4 5 9 5.517 5.311 0.148 84.444 o
4 5 10 0.396 0.365 0.079 768.633 o
4 5 11 3.336 3.380 0.148 138.086 o
4 5 12 43.695 42.993 0.581 1.854 o
4 5 13 1.897 1.941 0.128 235.363 o
4 5 14 6.379 6.198 0.187 58.551 o
4 5 15 2.628 2.680 0.148 161.611 o
4 5 16 0.011 -0.030 0.246 81.016 o
4 5 17 1.248 1.163 0.187 133.329 o
4 5 18 1.247 1.320 0.187 132.762 o
4 5 19 3.923 3.843 0.256 58.362 o
4 5 20 0.681 0.641 0.168 171.861 o
4 5 21 0.088 0.030 0.148 224.984 o
4 6 0 10.371 10.130 0.187 29.832 o
4 6 1 21.555 21.935 0.276 7.539 o
4 6 2 103.446 104.128 1.182 0.338 o
4 6 3 144.565 148.175 1.744 0.169 o
4 6 4 67.920 69.373 0.828 0.766 o
4 6 5 8.970 8.603 0.197 36.486 o
4 6 6 306.596 319.656 3.301 0.038 o
4 6 7 7.455 7.075 0.197 46.985 o
4 6 8 183.697 191.218 2.592 0.100 o
4 6 9 84.676 86.026 1.567 0.434 o
4 6 10 30.367 30.735 0.532 3.457 o
4 6 11 3.051 3.203 0.148 146.181 o
4 6 12 12.391 12.229 0.286 18.336 o
4 6 13 1.398 1.419 0.148 202.616 o
4 6 14 0.091 0.207 0.118 351.115 o
4 6 15 0.057 0.030 0.128 299.562 o
4 6 16 2.605 1.813 0.315 46.319 o
4 6 17 1.530 1.636 0.187 129.197 o
4 6 18 0.324 0.197 0.158 197.021 o
4 6 19 0.007 -0.079 0.276 64.585 o
4 6 20 0.385 0.453 0.236 87.588 o
4 6 21 2.904 2.868 0.207 92.645 o
4 7 0 74.010 73.511 1.005 0.639 o
4 7 1 5.680 5.400 0.158 77.923 o
4 7 2 16.818 15.579 0.256 12.435 o
4 7 3 2.227 2.395 0.128 215.683 o
4 7 4 1.561 1.320 0.118 294.936 o
4 7 5 10.094 9.765 0.236 27.611 o
4 7 6 81.197 83.158 1.163 0.514 o
4 7 7 297.914 328.416 3.971 0.037 o
4 7 8 189.176 190.912 2.345 0.099 o
4 7 9 75.311 81.424 1.488 0.515 o
4 7 10 10.749 11.027 0.227 25.163 o
4 7 11 5.842 6.060 0.227 52.176 o
4 7 12 1.652 1.587 0.148 195.844 o
4 7 13 0.000 0.138 0.118 351.565 o
4 7 14 34.776 34.460 0.522 2.817 o
4 7 15 5.030 4.907 0.217 63.444 o
4 7 16 6.222 6.346 0.443 20.093 o
4 7 17 11.120 10.534 0.335 19.021 o
4 7 18 0.053 0.266 0.217 104.576 o
4 7 19 9.930 10.662 0.345 20.004 o
4 7 20 1.122 1.133 0.177 148.927 o
4 8 0 15.321 14.840 0.296 13.323 o
4 8 1 68.780 67.205 1.035 0.725 o
4 8 2 0.140 0.315 0.099 503.843 o
4 8 3 19.945 20.073 0.414 7.441 o
4 8 4 4.423 4.395 0.177 88.867 o
4 8 5 3.512 3.114 0.138 148.882 o
4 8 6 7.908 7.617 0.266 33.782 o
4 8 7 78.674 81.276 2.040 0.413 o
4 8 8 1.447 1.320 0.108 347.018 o
4 8 9 0.167 0.217 0.197 126.452 o
4 8 10 12.259 12.830 0.483 11.622 o
4 8 11 14.447 16.131 0.483 9.657 o
4 8 12 28.443 29.060 0.739 3.168 o
4 8 13 13.272 13.283 0.305 15.898 o
4 8 14 128.364 132.320 1.724 0.209 o
4 8 15 1.676 1.370 0.315 47.983 o
4 8 16 2.400 2.069 0.325 43.833 o
4 8 17 1.202 1.015 0.177 148.755 o
4 8 18 0.803 0.680 0.177 152.827 o
4 8 19 1.789 1.981 0.197 114.213 o
4 8 20 6.578 7.036 0.286 35.843 o
4 9 0 109.459 108.050 1.695 0.282 o
4 9 1 7.549 7.253 0.207 44.360 o
4 9 2 40.450 40.658 0.769 1.889 o
4 9 3 0.291 0.355 0.079 776.226 o
4 9 4 62.933 61.026 0.926 0.876 o
4 9 5 9.913 9.420 0.187 32.452 o
4 9 6 1.583 1.774 0.099 377.274 o
4 9 7 20.726 20.753 0.512 6.229 o
4 9 8 1.396 1.330 0.148 203.499 o
4 9 9 0.177 0.128 0.118 350.837 o
4 9 10 10.672 11.648 0.305 20.358 o
4 9 11 11.625 12.594 0.394 14.887 o
4 9 12 7.381 7.371 0.374 23.763 o
4 9 13 55.837 59.863 1.094 0.945 o
4 9 14 95.243 93.416 17.047 0.016 o
4 9 15 32.654 35.603 0.916 2.209 o
4 9 16 13.240 13.697 0.591 8.636 o
4 9 17 2.212 2.059 0.345 39.438 o
4 9 18 1.306 1.518 0.335 42.914 o
4 9 19 3.091 3.439 0.384 30.673 o
4 9 20 6.274 6.632 0.493 16.790 o
4 10 0 656.215 648.958 9.105 0.008 o
4 10 1 94.040 90.854 0.936 0.429 o
4 10 2 6.064 5.538 0.197 60.456 o
4 10 3 5.465 5.045 0.148 86.878 o
4 10 4 0.331 0.384 0.079 772.646 o
4 10 5 19.909 19.245 0.365 8.088 o
4 10 6 16.939 16.289 0.384 10.027 o
4 10 7 2.027 1.823 0.118 263.131 o
4 10 8 16.306 16.998 0.473 8.799 o
4 10 9 12.500 13.086 0.394 13.934 o
4 10 10 1.811 2.148 0.158 167.295 o
4 10 11 1.801 1.754 0.158 170.936 o
4 10 12 43.834 46.777 1.143 1.305 o
4 10 13 33.389 35.218 0.759 2.468 o
4 10 14 0.187 0.246 0.296 56.227 o
4 10 15 12.041 13.145 0.611 8.750 o
4 10 16 1.976 1.991 0.355 37.632 o
4 10 17 0.080 0.010 0.296 56.258 o
4 10 18 0.196 0.443 0.315 49.401 o
4 10 19 0.603 0.650 0.315 49.216 o
4 11 0 3.316 3.173 0.138 153.081 o
4 11 1 18.347 17.826 0.305 9.873 o
4 11 2 39.490 39.268 0.641 2.125 o
4 11 3 5.254 5.410 0.148 87.260 o
4 11 4 3.981 3.557 0.138 132.536 o
4 11 5 72.408 71.195 1.242 0.623 o
4 11 6 7.669 7.420 0.207 43.380 o
4 11 7 115.374 115.716 1.567 0.262 o
4 11 8 0.951 0.936 0.108 382.734 o
4 11 9 0.722 0.729 0.128 288.310 o
4 11 10 0.127 0.069 0.128 299.355 o
4 11 11 0.060 -0.138 0.236 87.904 o
4 11 12 6.641 6.583 0.325 30.832 o
4 11 13 0.069 0.030 0.286 60.205 o
4 11 14 14.981 16.269 0.641 7.011 o
4 11 15 0.049 -0.099 0.286 60.207 o
4 11 16 2.105 1.833 0.355 37.586 o
4 11 17 0.053 0.030 0.296 56.259 o
4 11 18 0.006 0.099 0.296 56.260 o
4 11 19 0.095 0.365 0.296 56.234 o
4 12 0 118.406 117.115 1.468 0.256 o
4 12 1 4.502 4.710 0.158 97.423 o
4 12 2 2.148 1.951 0.099 327.248 o
4 12 3 7.044 6.750 0.197 50.191 o
4 12 4 61.627 60.070 0.936 0.902 o
4 12 5 31.481 30.892 0.522 3.340 o
4 12 6 6.903 6.760 0.177 55.219 o
4 12 7 35.734 34.726 0.739 2.362 o
4 12 8 0.341 0.286 0.089 615.149 o
4 12 9 3.048 3.124 0.187 105.450 o
4 12 10 4.278 4.188 0.207 75.719 o
4 12 11 29.873 30.794 0.828 2.730 o
4 12 12 8.776 8.287 0.384 20.608 o
4 12 13 49.599 54.710 1.261 1.021 o
4 12 14 0.658 0.305 0.296 56.032 o
4 12 15 1.604 1.793 0.345 40.184 o
4 12 16 2.730 3.311 0.384 31.086 o
4 12 17 0.279 -0.020 0.296 56.233 o
4 12 18 0.877 1.064 0.315 48.916 o
4 13 0 1.157 1.163 0.099 432.982 o
4 13 1 0.743 0.650 0.089 579.322 o
4 13 2 0.014 -0.049 0.217 104.617 o
4 13 3 6.515 6.011 0.158 66.250 o
4 13 4 0.123 0.148 0.079 788.482 o
4 13 5 0.573 0.315 0.079 755.809 o
4 13 6 26.645 25.601 0.591 4.108 o
4 13 7 5.882 5.607 0.217 55.825 o
4 13 8 5.845 5.400 0.158 76.089 o
4 13 9 6.079 6.100 0.227 50.820 o
4 13 10 25.965 26.369 0.759 3.486 o
4 13 11 2.118 1.380 0.187 124.953 o
4 13 12 23.742 24.921 0.749 3.857 o
4 13 13 13.955 14.367 0.601 8.131 o
4 13 14 0.695 0.818 0.305 52.317 o
4 13 15 2.969 3.134 0.374 32.471 o
4 13 16 0.702 1.104 0.315 49.026 o
4 13 17 5.287 5.656 0.463 19.639 o
4 14 0 50.305 50.660 0.788 1.316 o
4 14 1 1.962 1.803 0.108 303.196 o
4 14 2 14.270 13.973 0.256 15.773 o
4 14 3 3.072 2.848 0.118 196.747 o
4 14 4 0.735 0.621 0.089 581.113 o
4 14 5 0.016 -0.020 0.227 95.718 o
4 14 6 3.160 2.996 0.128 174.193 o
4 14 7 13.582 12.515 0.345 14.752 o
4 14 8 3.053 2.917 0.148 149.304 o
4 14 9 18.249 16.860 0.581 6.776 o
4 14 10 41.461 45.319 1.064 1.458 o
4 14 11 3.788 3.764 0.266 55.686 o
4 14 12 1.199 1.153 0.187 133.714 o
4 14 13 0.679 0.641 0.296 55.913 o
4 14 14 0.003 -0.128 0.276 64.585 o
4 14 15 1.930 1.872 0.335 42.123 o
4 14 16 0.004 0.059 0.276 64.585 o
4 14 17 3.000 2.799 0.345 37.970 o
4 15 0 33.467 32.469 0.650 2.781 o
4 15 1 3.919 3.459 0.138 135.057 o
4 15 2 1.807 1.724 0.108 314.602 o
4 15 3 83.148 83.897 1.340 0.477 o
4 15 4 6.823 6.464 0.168 59.151 o
4 15 5 4.143 4.198 0.148 114.166 o
4 15 6 5.875 5.173 0.168 73.325 o
4 15 7 6.568 5.932 0.217 50.953 o
4 15 8 39.299 35.908 1.251 1.467 o
4 15 9 1.348 1.114 0.187 132.776 o
4 15 10 5.919 6.494 0.296 36.929 o
4 15 11 5.999 6.159 0.296 37.170 o
4 15 12 0.534 0.729 0.177 154.128 o
4 15 13 0.794 0.936 0.305 52.204 o
4 15 14 0.002 -0.158 0.266 69.458 o
4 15 15 8.360 8.642 0.503 14.456 o
4 15 16 10.768 11.273 0.532 11.442 o
4 16 0 17.417 17.373 0.325 10.312 o
4 16 1 194.307 200.412 3.025 0.087 o
4 16 2 68.491 69.550 0.907 0.742 o
4 16 3 133.718 135.483 1.616 0.199 o
4 16 4 35.651 36.214 0.778 2.256 o
4 16 5 6.721 5.883 0.168 62.308 o
4 16 6 5.159 4.681 0.286 43.788 o
4 16 7 2.406 2.119 0.207 99.604 o
4 16 8 33.154 34.716 1.281 1.622 o
4 16 9 32.301 33.652 0.828 2.459 o
4 16 10 2.451 2.444 0.168 138.855 o
4 16 11 16.991 18.605 0.453 8.448 o
4 16 12 0.602 0.808 0.187 138.090 o
4 16 13 0.400 0.365 0.286 60.072 o
4 16 14 1.653 1.715 0.325 45.035 o
4 16 15 1.209 1.025 0.305 51.794 o
4 17 0 0.011 -0.118 0.246 81.016 o
4 17 1 1.373 0.887 0.158 184.458 o
4 17 2 124.532 125.541 8.642 0.052 o
4 17 3 35.710 37.416 3.252 0.403 o
4 17 4 1.464 1.340 0.148 202.093 o
4 17 5 6.538 6.247 0.207 52.499 o
4 17 6 5.157 4.937 0.197 69.736 o
4 17 7 0.108 0.108 0.108 417.958 o
4 17 8 25.732 27.020 0.916 2.929 o
4 17 9 11.950 12.327 0.650 8.172 o
4 17 10 27.739 29.316 0.670 3.443 o
4 17 11 0.564 0.562 0.177 154.372 o
4 17 12 2.156 2.454 0.217 92.371 o
4 17 13 0.228 0.296 0.276 64.520 o
4 17 14 0.468 0.453 0.276 64.363 o
4 18 0 0.500 0.315 0.118 345.808 o
4 18 1 5.067 5.026 0.335 34.255 o
4 18 2 0.184 0.177 0.118 350.615 o
4 18 3 0.408 0.355 0.118 346.993 o
4 18 4 4.488 4.237 0.187 83.585 o
4 18 5 16.688 17.087 0.601 6.944 o
4 18 6 7.402 7.036 0.276 34.855 o
4 18 7 13.283 13.047 0.434 12.242 o
4 18 8 0.685 0.788 0.138 250.012 o
4 18 9 15.004 16.328 0.355 11.758 o
4 18 10 28.288 29.621 1.084 2.249 o
4 18 11 12.705 13.815 0.631 8.097 o
4 18 12 15.182 15.688 1.163 2.997 o
4 19 0 2.910 2.986 0.158 138.836 o
4 19 1 0.445 0.345 0.108 411.214 o
4 19 2 2.648 2.414 0.227 82.689 o
4 19 3 9.698 9.214 0.404 17.901 o
4 19 4 1.180 0.995 0.118 316.887 o
4 19 5 0.215 0.227 0.118 350.158 o
4 19 6 0.018 -0.030 0.217 104.617 o
4 19 7 0.013 -0.227 0.227 95.718 o
4 19 8 0.124 -0.030 0.246 81.004 o
4 19 9 3.812 3.538 0.266 56.034 o
4 19 10 24.349 23.029 0.808 3.633 o
4 19 11 4.426 4.464 0.197 78.068 o
4 20 0 0.077 0.020 0.108 418.325 o
4 20 1 24.811 24.704 0.729 3.830 o
4 20 2 1.951 1.695 0.138 211.050 o
4 20 3 3.268 2.808 0.158 133.811 o
4 20 4 3.870 3.735 0.168 106.911 o
4 20 5 1.251 1.232 0.128 268.546 o
4 20 6 5.699 5.774 0.246 48.758 o
4 20 7 0.067 0.207 0.168 175.109 o
4 20 8 0.573 0.434 0.118 343.286 o
4 20 9 8.414 8.031 0.325 25.893 o
4 21 0 10.243 9.893 0.315 21.845 o
4 21 1 6.207 6.238 0.217 52.108 o
4 21 2 0.010 0.000 0.099 506.345 o
4 21 3 1.740 2.020 0.168 152.777 o
4 21 4 0.529 0.345 0.108 409.135 o
4 21 5 1.967 1.941 0.128 232.897 o
4 21 6 1.218 1.074 0.118 313.950 o
4 21 7 0.020 -0.049 0.276 64.585 o
4 22 0 2.616 2.404 0.168 136.562 o
4 22 1 17.953 17.737 0.493 7.749 o
4 22 2 11.739 11.923 0.591 9.452 o
4 22 3 34.666 35.356 1.399 1.425 o
4 22 4 3.513 3.350 0.266 57.541 o
5 0 0 7.252 6.642 0.315 30.671 o
5 0 2 6.155 5.952 0.256 44.278 o
5 0 4 1.225 1.271 0.158 183.848 o
5 0 6 4.420 4.277 0.246 58.453 o
5 0 8 0.446 0.503 0.118 345.101 o
5 0 10 0.225 0.128 0.108 416.859 o
5 0 12 0.066 -0.118 0.217 104.612 o
5 0 14 18.990 18.112 0.493 7.326 o
5 0 16 0.677 0.335 0.246 80.501 o
5 0 18 7.081 6.169 0.414 21.606 o
5 0 20 2.123 2.128 0.286 56.388 o
5 1 0 0.972 0.985 0.108 380.606 o
5 1 1 116.897 123.146 1.587 0.248 o
5 1 2 58.628 59.006 0.936 0.963 o
5 1 3 30.511 30.094 0.512 3.530 o
5 1 4 21.967 20.556 0.345 7.176 o
5 1 5 66.720 66.032 0.936 0.781 o
5 1 6 7.592 6.918 0.236 40.159 o
5 1 7 25.963 25.118 0.335 5.342 o
5 1 8 5.834 5.587 0.168 71.674 o
5 1 9 0.631 0.601 0.079 735.252 o
5 1 10 0.502 0.453 0.079 755.989 o
5 1 11 6.532 5.981 0.207 53.321 o
5 1 12 1.440 1.320 0.138 229.387 o
5 1 13 5.828 5.262 0.217 57.195 o
5 1 14 2.208 2.059 0.187 120.623 o
5 1 15 20.637 17.954 1.685 1.482 o
5 1 16 1.050 0.956 0.168 167.617 o
5 1 17 0.776 0.660 0.158 192.633 o
5 1 18 4.686 4.474 0.246 56.652 o
5 1 19 0.135 0.168 0.138 257.986 o
5 1 20 4.680 4.681 0.266 50.362 o
5 2 0 99.729 101.260 1.458 0.341 o
5 2 1 0.000 0.108 0.099 506.263 o
5 2 2 1.143 1.143 0.118 315.496 o
5 2 3 108.167 108.552 1.468 0.298 o
5 2 4 39.417 38.579 0.591 2.208 o
5 2 5 120.740 121.855 1.488 0.244 o
5 2 6 144.635 141.642 1.527 0.178 o
5 2 7 1.399 1.370 0.118 300.768 o
5 2 8 19.927 19.058 0.276 8.962 o
5 2 9 18.951 17.806 0.374 8.737 o
5 2 10 6.662 6.316 0.187 56.147 o
5 2 11 38.115 36.371 0.641 2.301 o
5 2 12 136.657 133.621 1.695 0.193 o
5 2 13 38.140 35.948 0.542 2.448 o
5 2 14 3.320 3.045 0.187 102.806 o
5 2 15 0.193 0.148 0.128 298.907 o
5 2 16 0.171 0.020 0.148 224.860 o
5 2 17 0.170 0.039 0.148 224.841 o
5 2 18 10.060 9.815 0.315 22.204 o
5 2 19 7.964 7.588 0.276 32.473 o
5 2 20 1.390 1.409 0.158 180.452 o
5 3 0 7.056 6.533 0.168 57.107 o
5 3 1 0.002 0.099 0.089 625.005 o
5 3 2 23.953 23.167 0.424 5.669 o
5 3 3 0.288 0.414 0.099 499.482 o
5 3 4 0.178 0.325 0.118 350.050 o
5 3 5 259.854 263.911 3.094 0.053 o
5 3 6 115.077 110.296 1.340 0.280 o
5 3 7 433.250 445.728 6.376 0.018 o
5 3 8 117.725 116.879 1.429 0.260 o
5 3 9 9.064 8.790 0.207 34.757 o
5 3 10 18.409 17.590 0.365 9.174 o
5 3 11 8.446 8.346 0.227 35.605 o
5 3 12 0.002 -0.039 0.217 104.617 o
5 3 13 3.219 2.986 0.187 104.292 o
5 3 14 38.732 36.578 0.562 2.357 o
5 3 16 12.731 12.239 0.374 14.733 o
5 3 17 18.974 18.614 0.434 7.885 o
5 3 18 23.327 21.856 0.463 5.760 o
5 3 19 9.101 8.947 0.286 27.014 o
5 3 20 0.555 0.650 0.138 252.744 o
5 4 0 82.045 79.424 1.291 0.505 o
5 4 1 42.828 41.850 0.572 1.936 o
5 4 2 13.888 12.761 0.286 16.101 o
5 4 3 0.488 0.443 0.108 408.931 o
5 4 4 4.626 4.464 0.177 86.146 o
5 4 5 227.037 232.250 2.365 0.071 o
5 4 6 1.224 1.251 0.108 361.197 o
5 4 7 52.823 52.483 0.719 1.254 o
5 4 8 140.637 138.617 1.419 0.189 o
5 4 9 1.470 1.350 0.089 474.044 o
5 4 10 0.600 0.562 0.089 593.276 o
5 4 11 2.245 2.247 0.128 217.644 o
5 4 12 9.574 9.016 0.246 29.147 o
5 4 13 6.271 5.962 0.217 52.522 o
5 4 14 1.907 1.675 0.148 189.467 o
5 4 15 1.443 1.232 0.168 161.889 o
5 4 16 11.220 10.830 0.325 19.173 o
5 4 17 8.412 8.307 0.296 28.360 o
5 4 18 0.247 0.394 0.148 223.942 o
5 4 19 23.829 23.039 0.473 5.438 o
5 4 20 7.557 7.814 0.434 18.943 o
5 5 0 83.306 84.538 1.261 0.483 o
5 5 1 20.005 18.821 0.296 8.802 o
5 5 2 16.956 16.161 0.296 11.468 o
5 5 3 3.318 3.203 0.158 129.263 o
5 5 4 10.366 9.647 0.187 30.595 o
5 5 5 2.318 2.345 0.118 238.445 o
5 5 6 129.675 133.266 1.370 0.215 o
5 5 7 0.014 -0.020 0.276 64.585 o
5 5 8 3.680 3.459 0.128 152.008 o
5 5 9 2.453 2.168 0.108 264.897 o
5 5 10 8.157 7.923 0.168 45.507 o
5 5 11 7.050 6.957 0.236 42.276 o
5 5 12 1.649 1.587 0.128 250.118 o
5 5 13 8.715 8.386 0.246 32.471 o
5 5 14 0.034 -0.059 0.217 104.616 o
5 5 15 1.949 1.478 0.177 138.910 o
5 5 16 0.215 0.099 0.138 257.826 o
5 5 17 10.102 9.746 0.483 13.839 o
5 5 18 29.490 29.188 0.769 2.981 o
5 5 19 4.387 4.710 0.394 27.298 o
5 5 20 0.422 0.325 0.246 80.768 o
5 6 0 19.007 17.235 0.434 8.146 o
5 6 1 32.916 31.701 0.621 2.926 o
5 6 2 233.664 239.079 3.587 0.061 o
5 6 3 7.623 7.529 0.177 48.168 o
5 6 4 0.005 -0.049 0.227 95.718 o
5 6 5 24.540 24.951 0.345 5.683 o
5 6 6 0.246 0.227 0.079 782.307 o
5 6 7 5.680 5.479 0.148 81.336 o
5 6 8 7.361 6.908 0.187 49.789 o
5 6 9 1.543 1.537 0.108 335.400 o
5 6 10 23.815 23.571 0.552 4.943 o
5 6 11 0.008 -0.049 0.217 104.617 o
5 6 12 1.709 1.596 0.246 76.690 o
5 6 13 1.410 1.301 0.158 180.964 o
5 6 14 15.530 12.810 0.641 7.313 o
5 6 16 2.122 1.951 0.197 111.581 o
5 6 17 0.009 -0.059 0.217 104.617 o
5 6 18 3.384 3.212 0.246 66.219 o
5 6 19 0.371 0.148 0.158 196.938 o
5 7 0 9.105 8.534 0.197 36.094 o
5 7 1 120.263 113.972 1.547 0.252 o
5 7 2 0.956 0.838 0.089 552.739 o
5 7 3 10.160 10.022 0.236 27.123 o
5 7 4 97.704 99.713 1.202 0.370 o
5 7 5 0.468 0.591 0.177 154.717 o
5 7 6 25.228 25.463 0.512 4.695 o
5 7 7 0.000 0.010 0.099 506.347 o
5 7 8 95.135 97.565 1.340 0.376 o
5 7 9 58.987 60.159 0.749 1.007 o
5 7 10 2.428 2.700 0.138 183.428 o
5 7 11 0.056 0.108 0.099 506.006 o
5 7 12 5.828 6.149 0.266 43.148 o
5 7 13 0.087 -0.030 0.236 87.901 o
5 7 14 1.225 1.478 0.296 54.940 o
5 7 15 40.213 41.436 0.995 1.632 o
5 7 16 66.492 69.205 1.360 0.663 o
5 7 17 15.612 16.171 0.641 6.866 o
5 7 18 1.631 1.724 0.197 116.435 o
5 7 19 0.167 0.158 0.158 197.530 o
5 8 0 1.447 1.301 0.099 406.139 o
5 8 1 88.518 84.972 1.074 0.468 o
5 8 2 85.765 82.015 1.261 0.475 o
5 8 3 181.013 177.196 2.424 0.108 o
5 8 4 9.004 8.366 0.227 33.661 o
5 8 5 0.294 0.384 0.108 413.932 o
5 8 6 0.668 0.562 0.118 339.729 o
5 8 7 11.040 10.495 0.276 22.290 o
5 8 8 14.051 13.924 0.335 13.940 o
5 8 9 10.868 10.830 0.266 22.851 o
5 8 10 196.161 214.158 3.409 0.080 o
5 8 11 39.337 44.117 1.064 1.544 o
5 8 12 3.950 4.533 0.325 38.779 o
5 8 13 5.738 5.370 0.493 17.473 o
5 8 14 51.560 54.769 1.251 0.991 o
5 8 15 1.689 1.853 0.207 105.629 o
5 8 16 5.261 5.459 0.355 30.612 o
5 8 17 7.452 8.120 0.315 28.651 o
5 8 18 6.483 6.681 0.286 36.634 o
5 8 19 0.068 0.138 0.148 224.938 o
5 9 0 14.342 13.332 0.424 11.710 o
5 9 1 8.604 8.317 0.187 39.731 o
5 9 2 42.683 40.343 0.660 1.900 o
5 9 3 80.137 77.827 1.005 0.563 o
5 9 4 16.512 16.230 0.256 12.419 o
5 9 5 4.605 4.622 0.177 85.497 o
5 9 6 5.727 5.400 0.177 70.103 o
5 9 7 3.789 3.942 0.168 106.580 o
5 9 8 200.800 207.398 3.853 0.075 o
5 9 9 24.847 24.753 0.690 3.996 o
5 9 10 42.293 45.831 1.271 1.251 o
5 9 11 7.478 8.317 0.266 34.021 o
5 9 12 0.766 0.759 0.138 248.989 o
5 9 13 0.006 -0.128 0.266 69.458 o
5 9 14 2.312 1.991 0.335 41.594 o
5 9 15 7.562 8.021 0.522 14.223 o
5 9 16 33.222 37.229 0.946 2.085 o
5 9 17 7.697 8.672 0.542 13.196 o
5 9 18 1.003 1.370 0.315 48.688 o
5 10 0 46.778 47.349 0.838 1.444 o
5 10 1 24.830 23.601 0.355 5.740 o
5 10 2 56.792 54.798 0.976 1.022 o
5 10 3 2.539 2.365 0.118 228.440 o
5 10 4 8.710 8.514 0.177 39.966 o
5 10 5 0.049 0.059 0.089 624.857 o
5 10 6 1.502 1.291 0.118 298.071 o
5 10 7 0.184 0.197 0.108 416.931 o
5 10 8 0.565 0.503 0.108 405.920 o
5 10 9 45.195 46.856 1.025 1.360 o
5 10 10 4.500 4.533 0.217 68.353 o
5 10 11 8.553 9.263 0.266 29.718 o
5 10 12 5.890 6.405 0.305 35.541 o
5 10 13 0.096 -0.039 0.276 64.581 o
5 10 14 0.203 0.207 0.286 60.170 o
5 10 15 21.770 23.344 0.739 4.256 o
5 10 16 1.861 2.207 0.355 37.638 o
5 10 17 0.010 -0.030 0.286 60.208 o
5 10 18 0.168 0.365 0.286 60.159 o
5 11 0 54.244 55.439 0.995 1.058 o
5 11 1 8.244 8.258 0.236 35.295 o
5 11 2 24.375 24.241 0.532 4.875 o
5 11 3 0.228 0.187 0.079 784.040 o
5 11 4 2.336 2.247 0.108 269.160 o
5 11 5 15.444 15.165 0.266 13.675 o
5 11 6 4.850 4.661 0.168 87.574 o
5 11 7 0.082 0.079 0.099 505.930 o
5 11 8 2.223 2.020 0.128 222.461 o
5 11 9 1.356 1.222 0.118 305.569 o
5 11 10 0.119 -0.039 0.256 74.895 o
5 11 11 11.398 11.923 0.453 13.303 o
5 11 12 1.889 1.754 0.207 104.636 o
5 11 13 4.817 4.710 0.305 40.526 o
5 11 14 10.260 11.155 0.562 10.876 o
5 11 15 5.734 6.188 0.305 36.218 o
5 11 16 2.786 2.917 0.355 36.245 o
5 11 17 2.194 2.404 0.335 41.480 o
5 12 0 29.660 28.064 0.434 4.005 o
5 12 1 239.497 246.854 4.011 0.056 o
5 12 2 23.567 24.073 0.463 5.434 o
5 12 3 8.288 8.238 0.187 41.358 o
5 12 4 0.361 0.463 0.089 610.294 o
5 12 5 1.487 1.370 0.099 400.440 o
5 12 6 7.423 7.302 0.246 38.570 o
5 12 7 1.329 1.409 0.118 302.865 o
5 12 8 2.276 2.227 0.138 194.430 o
5 12 9 0.044 -0.108 0.236 87.906 o
5 12 10 0.678 0.739 0.177 153.367 o
5 12 11 32.087 34.066 0.641 2.852 o
5 12 12 11.848 12.643 0.532 10.621 o
5 12 13 0.088 0.118 0.168 175.133 o
5 12 14 0.533 0.877 0.305 52.401 o
5 12 15 1.170 1.143 0.305 51.773 o
5 12 16 0.011 -0.030 0.266 69.458 o
5 13 0 166.432 164.021 1.981 0.131 o
5 13 1 34.147 33.878 0.581 2.795 o
5 13 2 0.206 0.266 0.089 620.195 o
5 13 3 16.919 16.230 0.394 9.900 o
5 13 4 10.603 9.874 0.296 22.460 o
5 13 5 31.212 29.592 0.512 3.474 o
5 13 6 0.059 0.079 0.089 624.698 o
5 13 7 20.202 19.747 0.670 5.222 o
5 13 8 7.238 6.435 0.246 40.897 o
5 13 9 31.607 33.455 0.907 2.348 o
5 13 10 7.876 8.780 0.335 25.320 o
5 13 11 0.990 1.074 0.187 135.361 o
5 13 12 5.791 6.110 0.286 39.565 o
5 13 13 4.382 4.986 0.276 48.264 o
5 13 14 6.774 6.996 0.473 17.485 o
5 13 15 5.027 5.114 0.434 22.419 o
5 13 16 0.022 -0.030 0.256 74.903 o
5 14 0 20.660 20.457 0.394 7.285 o
5 14 1 18.064 17.530 0.305 10.131 o
5 14 2 20.192 20.132 0.473 6.807 o
5 14 3 145.901 142.450 1.922 0.167 o
5 14 4 83.688 80.685 1.311 0.487 o
5 14 5 3.992 3.419 0.168 107.434 o
5 14 6 57.011 52.965 0.759 1.125 o
5 14 7 0.076 -0.010 0.217 104.610 o
5 14 8 0.417 0.315 0.138 255.918 o
5 14 9 22.555 24.083 0.522 5.318 o
5 14 10 25.148 25.877 0.709 3.802 o
5 14 11 14.528 15.195 0.650 7.130 o
5 14 12 6.891 7.243 0.305 32.033 o
5 14 13 5.715 5.893 0.286 40.133 o
5 14 14 11.989 12.692 0.552 10.084 o
5 14 15 4.716 5.321 0.434 22.593 o
5 15 0 0.073 -0.030 0.246 81.012 o
5 15 1 0.053 -0.089 0.246 81.014 o
5 15 2 0.006 -0.049 0.256 74.903 o
5 15 3 33.870 32.430 0.591 2.866 o
5 15 4 130.962 116.110 2.779 0.181 o
5 15 5 62.076 66.239 1.813 0.598 o
5 15 6 6.089 5.656 0.236 49.546 o
5 15 7 0.645 0.414 0.118 341.964 o
5 15 8 3.414 2.946 0.236 71.322 o
5 15 9 0.746 0.729 0.177 153.011 o
5 15 10 3.037 3.331 0.227 77.543 o
5 15 11 10.521 11.155 0.355 18.416 o
5 15 12 0.052 -0.108 0.217 104.614 o
5 15 13 2.233 1.922 0.197 110.747 o
5 15 14 0.000 0.030 0.266 69.458 o
5 16 0 0.920 0.907 0.128 281.972 o
5 16 1 14.291 13.953 0.522 9.472 o
5 16 2 21.427 21.620 0.621 5.168 o
5 16 3 3.432 2.710 0.345 37.409 o
5 16 4 0.803 0.611 0.128 287.881 o
5 16 5 7.909 7.726 0.355 24.424 o
5 16 6 0.036 -0.010 0.217 104.616 o
5 16 7 6.214 5.735 0.345 30.006 o
5 16 8 1.622 1.685 0.128 249.364 o
5 16 9 9.216 9.785 0.335 22.284 o
5 16 10 2.636 2.523 0.207 96.233 o
5 16 11 9.469 10.159 0.335 21.610 o
5 16 12 1.177 1.271 0.187 133.452 o
5 16 13 0.264 0.315 0.158 197.025 o
5 17 0 0.859 0.749 0.128 285.222 o
5 17 1 0.636 0.857 0.128 288.756 o
5 17 2 7.956 7.952 0.236 36.840 o
5 17 3 0.040 0.059 0.118 351.565 o
5 17 4 3.942 3.942 0.187 90.890 o
5 17 5 0.700 0.739 0.118 336.641 o
5 17 6 13.778 13.530 0.522 9.783 o
5 17 7 1.681 1.931 0.177 139.382 o
5 17 8 5.733 5.449 0.207 60.123 o
5 17 9 0.103 -0.069 0.217 104.604 o
5 17 10 0.432 0.532 0.168 173.565 o
5 17 11 1.306 1.606 0.187 131.199 o
5 17 12 0.521 0.778 0.236 87.204 o
5 18 0 0.007 -0.039 0.227 95.718 o
5 18 1 0.834 0.897 0.128 284.108 o
5 18 2 7.401 7.785 0.227 40.692 o
5 18 3 0.424 0.296 0.148 223.223 o
5 18 4 14.461 14.466 0.414 11.499 o
5 18 5 27.388 28.626 0.690 3.456 o
5 18 6 0.004 0.118 0.108 418.391 o
5 18 7 0.009 -0.010 0.217 104.617 o
5 18 8 6.327 6.750 0.227 47.908 o
5 18 9 2.201 2.119 0.197 110.167 o
5 18 10 2.108 2.188 0.197 110.677 o
5 19 0 13.934 14.643 0.719 6.440 o
5 19 1 0.866 0.719 0.118 332.202 o
5 19 2 0.870 0.709 0.128 285.407 o
5 19 3 6.979 6.967 0.335 28.608 o
5 19 4 0.003 0.030 0.108 418.463 o
5 19 5 0.805 0.857 0.118 331.950 o
5 19 6 7.395 7.075 0.266 36.185 o
5 19 7 0.444 0.384 0.108 410.756 o
5 19 8 1.201 1.182 0.138 236.597 o
5 19 9 1.678 1.931 0.187 126.527 o
5 20 0 24.137 24.606 1.074 2.620 o
5 20 1 8.501 8.218 0.286 29.220 o
5 20 2 0.077 0.069 0.099 505.996 o
5 20 3 0.594 0.532 0.108 404.588 o
5 20 4 3.440 3.193 0.158 127.133 o
5 20 5 4.283 4.099 0.266 53.081 o
5 20 6 4.417 4.316 0.236 61.869 o
5 20 7 1.356 1.143 0.236 84.839 o
5 21 0 9.524 9.834 0.266 26.670 o
5 21 1 8.281 8.189 0.404 19.935 o
5 21 2 0.023 -0.059 0.187 140.261 o
5 21 3 0.000 -0.059 0.207 114.818 o
6 0 0 3.025 2.680 0.158 139.539 o
6 0 2 2.683 2.473 0.168 134.970 o
6 0 4 6.831 6.573 0.246 42.229 o
6 0 6 12.755 12.386 0.345 15.635 o
6 0 8 30.684 29.956 0.591 3.311 o
6 0 10 47.298 45.388 1.192 1.202 o
6 0 12 1.931 1.626 0.266 65.654 o
6 0 14 73.396 69.284 1.488 0.574 o
6 0 16 4.467 3.784 0.374 30.306 o
6 0 18 1.072 1.035 0.266 68.134 o
6 1 0 0.092 0.030 0.069 1032.020 o
6 1 1 2.837 2.542 0.138 174.198 o
6 1 2 1.798 1.853 0.089 412.916 o
6 1 3 11.474 10.938 0.197 25.192 o
6 1 4 42.743 42.126 0.532 1.966 o
6 1 5 1.071 0.936 0.089 537.004 o
6 1 6 17.967 17.530 0.256 10.811 o
6 1 7 64.651 65.786 0.700 0.867 o
6 1 8 185.441 189.306 2.247 0.103 o
6 1 9 124.879 128.063 1.547 0.225 o
6 1 10 3.482 3.212 0.138 148.397 o
6 1 11 0.317 0.286 0.089 616.117 o
6 1 12 0.565 0.453 0.108 406.667 o
6 1 13 0.187 0.049 0.148 224.793 o
6 1 14 0.070 -0.089 0.207 114.811 o
6 1 15 16.135 14.614 0.384 11.001 o
6 1 16 30.668 28.114 0.552 3.527 o
6 1 17 0.666 0.562 0.158 193.979 o
6 1 18 0.587 0.453 0.148 221.387 o
6 1 19 0.418 0.296 0.128 296.459 o
6 2 0 192.471 202.954 2.059 0.096 o
6 2 1 187.732 194.687 2.237 0.100 o
6 2 2 17.202 16.131 0.335 10.690 o
6 2 3 10.040 8.977 0.187 32.776 o
6 2 4 0.034 0.049 0.079 790.934 o
6 2 5 1.263 1.173 0.089 505.462 o
6 2 6 18.135 17.678 0.256 10.645 o
6 2 7 7.972 7.735 0.177 45.612 o
6 2 8 10.203 9.824 0.207 29.400 o
6 2 9 126.472 129.275 1.606 0.219 o
6 2 10 55.041 54.818 0.946 1.070 o
6 2 11 11.628 11.184 0.286 20.221 o
6 2 12 0.095 -0.030 0.227 95.709 o
6 2 13 0.516 0.187 0.148 222.978 o
6 2 14 1.026 0.867 0.217 102.098 o
6 2 15 0.897 0.818 0.168 169.592 o
6 2 16 0.238 0.207 0.148 224.391 o
6 2 17 2.337 1.971 0.256 68.618 o
6 2 18 0.018 0.089 0.138 258.312 o
6 2 19 1.291 1.114 0.148 207.389 o
6 3 0 47.829 49.684 0.719 1.449 o
6 3 1 51.299 52.187 0.552 1.379 o
6 3 2 45.781 46.758 0.503 1.721 o
6 3 3 63.394 63.529 0.808 0.880 o
6 3 4 18.179 17.067 0.246 10.943 o
6 3 5 5.354 4.927 0.148 89.180 o
6 3 6 55.379 55.488 0.650 1.175 o
6 3 7 136.820 143.564 1.606 0.187 o
6 3 8 20.212 19.787 0.345 8.027 o
6 3 9 14.298 13.540 0.227 16.777 o
6 3 10 6.955 6.563 0.168 57.760 o
6 3 11 1.696 1.478 0.099 379.989 o
6 3 12 4.004 3.685 0.158 113.097 o
6 3 13 9.118 8.120 0.453 16.387 o
6 3 14 3.924 3.419 0.236 67.155 o
6 3 15 3.248 3.025 0.227 77.175 o
6 3 16 2.444 2.119 0.187 117.802 o
6 3 17 0.368 0.335 0.148 223.446 o
6 3 18 0.251 0.049 0.138 257.781 o
6 3 19 0.241 0.266 0.217 104.448 o
6 4 0 2.012 1.853 0.099 341.181 o
6 4 1 187.210 192.686 2.227 0.101 o
6 4 2 5.154 4.838 0.158 87.650 o
6 4 3 0.110 0.089 0.079 789.521 o
6 4 4 49.567 48.383 0.680 1.436 o
6 4 5 17.422 17.333 0.276 11.005 o
6 4 6 13.880 13.727 0.227 17.210 o
6 4 7 0.000 -0.049 0.227 95.718 o
6 4 8 3.829 3.557 0.138 135.977 o
6 4 9 5.502 5.154 0.158 81.404 o
6 4 10 0.866 0.798 0.089 562.783 o
6 4 11 4.696 4.346 0.148 103.421 o
6 4 12 7.979 7.519 0.236 37.543 o
6 4 14 7.863 7.568 0.443 18.176 o
6 4 15 0.225 0.158 0.148 224.528 o
6 4 16 5.889 5.430 0.256 46.404 o
6 4 17 2.449 2.266 0.187 116.952 o
6 4 18 0.245 0.335 0.148 224.093 o
6 5 0 1.023 0.956 0.089 540.793 o
6 5 1 2.255 2.217 0.108 274.525 o
6 5 2 0.001 0.030 0.079 791.152 o
6 5 3 3.505 3.183 0.128 160.901 o
6 5 4 6.670 6.661 0.168 59.574 o
6 5 5 30.880 30.577 0.394 3.736 o
6 5 6 41.244 40.766 0.621 2.004 o
6 5 7 4.216 4.149 0.148 113.308 o
6 5 8 38.205 38.618 0.522 2.370 o
6 5 9 1.664 1.577 0.099 378.642 o
6 5 10 2.930 2.680 0.128 186.659 o
6 5 11 0.202 0.168 0.089 621.604 o
6 5 12 12.059 11.825 0.503 11.476 o
6 5 13 0.595 0.581 0.158 194.448 o
6 5 14 0.004 0.069 0.138 258.330 o
6 5 15 7.572 6.888 0.404 21.441 o
6 5 16 4.720 4.513 0.236 59.645 o
6 5 17 29.131 28.764 0.749 3.089 o
6 5 18 4.645 4.513 0.374 29.591 o
6 6 0 3.654 3.232 0.148 132.985 o
6 6 1 17.441 17.294 0.266 11.138 o
6 6 2 26.245 26.783 0.424 4.750 o
6 6 3 33.997 33.928 0.443 3.052 o
6 6 4 60.365 60.661 0.680 0.995 o
6 6 5 28.943 28.695 0.365 4.262 o
6 6 6 2.594 2.464 0.118 223.973 o
6 6 7 12.472 12.022 0.227 20.711 o
6 6 8 0.445 0.532 0.089 603.993 o
6 6 9 7.750 7.371 0.197 44.677 o
6 6 10 0.875 0.818 0.099 463.479 o
6 6 11 14.827 14.259 0.414 11.334 o
6 6 12 0.725 0.700 0.148 218.743 o
6 6 13 1.633 1.330 0.187 129.629 o
6 6 14 0.464 0.512 0.246 80.641 o
6 6 15 7.667 7.193 0.434 19.125 o
6 6 16 11.540 11.579 0.512 11.539 o
6 6 17 0.152 0.158 0.236 87.862 o
6 6 18 23.566 23.502 0.670 4.358 o
6 7 0 2.673 2.454 0.108 245.433 o
6 7 1 5.932 5.883 0.177 66.135 o
6 7 2 16.779 16.919 0.276 11.623 o
6 7 3 1.798 1.961 0.118 270.349 o
6 7 4 25.403 25.768 0.414 5.071 o
6 7 5 134.462 138.706 1.734 0.192 o
6 7 6 6.436 6.139 0.236 46.763 o
6 7 7 13.429 13.323 0.305 15.702 o
6 7 8 0.610 0.631 0.108 402.507 o
6 7 9 22.306 22.585 0.443 6.060 o
6 7 10 20.786 20.753 0.493 6.372 o
6 7 11 6.201 6.188 0.227 49.957 o
6 7 12 4.147 5.006 0.424 24.146 o
6 7 13 1.618 1.281 0.276 62.311 o
6 7 14 0.780 0.867 0.256 73.999 o
6 7 15 1.985 1.941 0.296 53.357 o
6 7 16 8.483 8.741 0.463 16.149 o
6 7 17 16.968 16.722 0.572 7.273 o
6 8 0 10.141 9.903 0.256 25.921 o
6 8 1 5.010 5.508 0.207 64.994 o
6 8 2 7.622 7.844 0.246 36.895 o
6 8 3 174.264 182.034 3.646 0.095 o
6 8 4 15.872 16.496 0.345 11.283 o
6 8 5 3.575 3.971 0.207 82.415 o
6 8 6 0.719 0.562 0.138 251.158 o
6 8 7 9.084 9.312 0.266 28.323 o
6 8 8 0.293 0.256 0.148 224.054 o
6 8 9 2.559 2.562 0.177 124.501 o
6 8 10 39.588 38.983 1.182 1.490 o
6 8 11 0.004 0.719 0.276 64.524 o
6 8 12 18.771 20.408 0.660 5.505 o
6 8 13 5.865 6.484 0.443 20.334 o
6 8 14 0.597 0.611 0.246 80.428 o
6 8 15 0.080 0.227 0.236 87.876 o
6 8 16 0.004 0.030 0.227 95.718 o
6 8 17 3.321 3.498 0.365 33.463 o
6 9 0 18.993 18.673 0.345 8.843 o
6 9 1 9.400 9.499 0.217 31.511 o
6 9 2 7.162 7.056 0.246 39.998 o
6 9 3 1.782 1.862 0.158 170.320 o
6 9 4 23.188 22.911 0.493 5.485 o
6 9 5 23.928 23.462 0.670 4.307 o
6 9 6 8.284 8.425 0.296 28.514 o
6 9 7 20.893 21.856 0.739 4.479 o
6 9 8 0.227 0.236 0.128 298.436 o
6 9 9 13.060 13.027 0.552 9.581 o
6 9 10 41.626 45.496 1.074 1.442 o
6 9 11 21.891 23.571 0.709 4.386 o
6 9 12 1.689 1.872 0.325 44.903 o
6 9 13 19.731 23.009 0.700 4.816 o
6 10 0 24.596 24.448 0.650 4.234 o
6 10 1 1.299 1.192 0.118 308.471 o
6 10 2 6.839 6.346 0.217 48.397 o
6 10 3 0.125 -0.020 0.246 81.004 o
6 10 4 13.603 13.500 0.384 13.171 o
6 10 5 4.728 4.355 0.217 67.380 o
6 10 6 0.010 -0.049 0.246 81.016 o
6 10 7 0.025 -0.079 0.256 74.903 o
6 10 8 0.060 0.000 0.256 74.901 o
6 10 9 3.127 2.621 0.197 99.202 o
6 10 10 0.655 0.680 0.177 153.646 o
6 10 11 33.167 35.948 0.907 2.189 o
6 10 12 75.309 85.474 1.882 0.442 o
6 10 13 0.569 0.867 0.296 55.910 o
6 11 0 22.646 22.999 0.611 4.877 o
6 11 1 12.729 12.426 0.315 16.676 o
6 11 2 6.529 6.425 0.197 54.317 o
6 11 3 6.184 6.119 0.236 47.985 o
6 11 4 2.940 2.996 0.217 85.176 o
6 11 5 5.899 5.499 0.335 32.139 o
6 11 6 12.813 12.416 0.305 16.934 o
6 11 7 5.157 5.045 0.227 58.895 o
6 11 8 0.974 0.818 0.177 151.275 o
6 11 9 7.425 7.213 0.581 12.162 o
6 11 10 25.386 25.128 1.813 1.208 o
6 11 11 2.784 3.173 0.394 29.661 o
6 11 12 10.590 11.657 0.542 11.161 o
6 11 13 1.918 1.961 0.325 44.569 o
6 12 0 3.925 3.961 0.168 104.483 o
6 12 1 9.542 9.095 0.305 24.410 o
6 12 2 7.531 7.292 0.197 46.007 o
6 12 3 43.702 43.368 0.907 1.561 o
6 12 4 20.101 20.142 0.838 4.106 o
6 12 5 72.089 70.890 2.730 0.358 o
6 12 6 2.039 1.655 0.256 70.121 o
6 12 7 1.468 1.468 0.197 118.530 o
6 12 8 21.201 22.566 0.680 4.742 o
6 12 9 2.578 2.651 0.177 123.668 o
6 12 10 0.120 0.069 0.168 175.126 o
6 12 11 19.477 20.506 0.985 3.385 o
6 12 12 24.423 26.281 0.887 3.162 o
6 12 13 8.692 9.273 0.325 24.282 o
6 12 14 0.172 -0.039 0.246 80.994 o
6 13 0 2.127 1.862 0.138 203.804 o
6 13 1 15.113 14.436 0.335 12.810 o
6 13 2 17.692 17.333 0.473 8.166 o
6 13 3 10.675 10.130 0.296 22.117 o
6 13 4 0.353 0.404 0.118 347.462 o
6 13 5 102.508 113.686 1.793 0.288 o
6 13 6 149.631 162.493 3.951 0.110 o
6 13 7 44.811 47.329 1.340 1.130 o
6 13 8 0.201 0.168 0.138 257.742 o
6 13 9 0.137 0.079 0.138 258.110 o
6 13 10 0.269 0.168 0.168 174.785 o
6 13 11 0.130 0.049 0.168 175.126 o
6 13 12 10.423 11.017 0.345 19.119 o
6 13 13 6.890 7.479 0.315 30.547 o
6 13 14 2.591 2.286 0.315 45.940 o
6 14 0 12.918 11.874 0.641 8.142 o
6 14 1 24.410 24.872 1.439 1.750 o
6 14 2 89.556 96.885 1.518 0.388 o
6 14 3 77.192 84.489 1.330 0.515 o
6 14 4 0.079 0.197 0.118 351.200 o
6 14 5 3.390 3.390 0.296 48.453 o
6 14 6 8.309 8.317 0.483 15.472 o
6 14 7 10.871 10.859 0.296 21.184 o
6 14 8 2.561 2.473 0.177 125.053 o
6 14 9 0.042 -0.118 0.246 81.014 o
6 14 10 7.014 8.159 0.315 29.539 o
6 14 11 0.083 0.000 0.227 95.711 o
6 14 12 6.154 6.090 0.325 32.383 o
6 14 13 1.463 1.468 0.177 144.227 o
6 15 0 13.664 13.520 0.394 12.853 o
6 15 1 6.997 6.435 0.296 34.095 o
6 15 2 21.930 20.743 0.641 5.025 o
6 15 3 20.504 21.620 0.621 5.348 o
6 15 4 5.660 5.282 0.236 52.611 o
6 15 5 8.952 9.066 0.355 21.864 o
6 15 6 0.000 -0.128 0.217 104.617 o
6 15 7 0.351 0.325 0.138 256.402 o
6 15 8 7.125 6.908 0.394 22.731 o
6 15 9 20.128 21.600 0.650 5.209 o
6 15 10 0.004 0.138 0.158 197.769 o
6 15 11 2.677 2.611 0.197 103.554 o
6 15 12 2.671 2.956 0.217 87.222 o
6 16 0 1.497 1.527 0.158 177.871 o
6 16 1 12.865 13.086 0.384 13.936 o
6 16 2 0.875 0.670 0.128 285.738 o
6 16 3 0.225 0.197 0.128 298.577 o
6 16 4 1.258 1.192 0.128 268.929 o
6 16 5 0.280 0.187 0.108 415.777 o
6 16 6 0.859 0.769 0.148 216.700 o
6 16 7 9.984 10.061 0.345 20.340 o
6 16 8 0.030 0.158 0.128 299.496 o
6 16 9 2.863 3.183 0.246 68.771 o
6 16 10 4.133 4.089 0.266 53.693 o
6 16 11 0.004 -0.276 0.227 95.718 o
6 17 0 18.863 19.028 0.542 6.714 o
6 17 1 4.897 5.321 0.276 45.852 o
6 17 2 9.288 9.312 0.503 13.717 o
6 17 3 0.477 0.404 0.118 345.422 o
6 17 4 0.738 0.621 0.118 337.191 o
6 17 5 6.676 7.272 0.207 48.810 o
6 17 6 2.012 1.724 0.128 235.134 o
6 17 7 0.509 0.453 0.128 294.331 o
6 17 8 0.246 0.039 0.118 350.663 o
6 17 9 0.302 0.059 0.138 257.532 o
6 18 0 21.262 21.482 0.838 3.904 o
6 18 1 25.799 27.000 0.936 2.863 o
6 18 2 37.960 41.318 0.621 2.179 o
6 18 3 0.019 -0.069 0.217 104.617 o
6 18 4 0.385 0.296 0.108 413.038 o
6 18 5 0.787 0.857 0.118 332.495 o
6 18 6 2.010 1.784 0.128 234.166 o
6 18 7 2.606 2.286 0.158 151.229 o
6 19 0 10.448 10.613 0.394 16.924 o
6 19 1 10.332 10.997 0.453 14.379 o
6 19 2 16.080 17.737 0.621 6.788 o
6 19 3 9.228 8.829 0.286 26.865 o
6 19 4 0.166 0.020 0.108 417.873 o
6 19 5 0.056 -0.010 0.197 126.582 o
7 0 0 5.313 4.671 0.207 65.841 o
7 0 2 21.957 21.738 0.384 6.694 o
7 0 4 39.176 38.007 0.877 1.882 o
7 0 6 1.220 1.192 0.148 207.952 o
7 0 8 13.880 13.677 0.414 12.139 o
7 0 10 163.400 162.267 2.562 0.126 o
7 0 12 121.270 123.885 4.976 0.114 o
7 0 14 0.124 0.059 0.236 87.888 o
7 0 16 1.224 1.123 0.276 63.144 o
7 1 0 11.211 11.224 0.207 24.966 o
7 1 1 6.154 6.169 0.168 65.959 o
7 1 2 12.438 12.564 0.276 18.417 o
7 1 3 10.209 10.081 0.207 29.015 o
7 1 4 10.845 10.504 0.236 24.954 o
7 1 5 11.704 11.332 0.286 19.989 o
7 1 6 16.909 16.515 0.374 10.135 o
7 1 7 4.386 4.434 0.148 107.841 o
7 1 8 33.584 33.760 0.443 3.105 o
7 1 9 0.046 0.168 0.089 624.395 o
7 1 10 148.239 138.134 2.592 0.152 o
7 1 11 21.487 22.733 0.690 4.623 o
7 1 12 11.249 11.096 0.325 18.955 o
7 1 13 0.148 0.089 0.158 197.632 o
7 1 14 0.277 0.138 0.148 224.376 o
7 1 15 0.087 0.079 0.148 224.954 o
7 1 16 4.980 4.484 0.236 58.304 o
7 1 17 10.556 9.312 0.286 23.673 o
7 2 0 2.690 2.877 0.128 191.372 o
7 2 1 21.140 21.029 0.286 7.838 o
7 2 2 1.702 1.547 0.108 325.882 o
7 2 3 52.237 51.635 0.700 1.291 o
7 2 4 10.787 10.771 0.217 25.956 o
7 2 5 0.215 0.187 0.089 621.035 o
7 2 6 28.524 28.577 0.483 3.993 o
7 2 7 0.063 0.020 0.089 624.888 o
7 2 8 4.400 4.277 0.148 108.952 o
7 2 9 2.752 2.631 0.128 193.434 o
7 2 10 5.968 4.651 0.384 26.555 o
7 2 11 0.452 0.325 0.118 346.528 o
7 2 12 1.423 1.153 0.128 264.527 o
7 2 13 0.093 0.000 0.217 104.607 o
7 2 14 0.072 0.148 0.148 224.924 o
7 2 15 0.632 0.562 0.158 194.247 o
7 2 16 6.776 6.208 0.256 41.386 o
7 2 17 3.459 3.065 0.207 87.192 o
7 3 0 107.237 113.952 1.419 0.294 o
7 3 1 7.822 8.021 0.187 44.173 o
7 3 2 6.876 6.474 0.168 58.701 o
7 3 3 20.823 20.496 0.325 7.786 o
7 3 4 1.978 1.941 0.108 298.278 o
7 3 5 7.260 7.056 0.177 51.845 o
7 3 6 4.558 4.493 0.158 98.196 o
7 3 7 11.505 11.253 0.236 22.788 o
7 3 8 5.090 4.897 0.158 88.104 o
7 3 9 1.274 1.251 0.118 308.312 o
7 3 10 2.528 1.833 0.197 108.535 o
7 3 11 0.228 0.138 0.148 224.551 o
7 3 12 0.111 0.010 0.108 418.210 o
7 3 13 2.653 2.670 0.168 133.880 o
7 3 14 2.010 2.000 0.187 122.953 o
7 3 15 0.564 0.473 0.148 221.506 o
7 3 16 1.324 1.163 0.168 163.679 o
7 3 17 2.425 2.119 0.296 52.305 o
7 4 0 34.827 35.701 0.414 2.922 o
7 4 1 69.563 71.846 0.739 0.744 o
7 4 2 197.430 211.153 2.227 0.089 o
7 4 3 59.375 62.593 0.926 0.922 o
7 4 4 5.761 5.420 0.158 76.901 o
7 4 5 8.981 8.307 0.187 38.114 o
7 4 6 11.241 10.839 0.227 24.277 o
7 4 7 11.461 11.490 0.217 23.613 o
7 4 8 8.207 7.804 0.207 40.081 o
7 4 9 0.229 0.187 0.089 620.647 o
7 4 10 12.426 12.130 0.365 15.406 o
7 4 11 0.075 0.020 0.108 418.331 o
7 4 12 4.769 4.612 0.187 78.902 o
7 4 13 0.923 0.877 0.138 245.331 o
7 4 14 0.045 -0.049 0.197 126.583 o
7 4 15 0.000 -0.138 0.197 126.587 o
7 4 16 0.388 0.335 0.138 256.083 o
7 4 17 1.419 1.291 0.266 67.253 o
7 5 0 50.020 52.374 0.572 1.409 o
7 5 1 99.024 105.606 1.114 0.356 o
7 5 2 26.940 28.409 0.374 4.629 o
7 5 3 3.636 3.449 0.138 141.769 o
7 5 4 31.293 31.651 0.434 3.519 o
7 5 5 18.669 19.393 0.276 9.560 o
7 5 6 34.545 34.745 0.493 2.874 o
7 5 7 82.593 86.124 0.916 0.521 o
7 5 8 22.163 22.507 0.404 6.374 o
7 5 9 5.511 4.296 0.256 50.382 o
7 5 10 5.936 5.459 0.246 48.402 o
7 5 11 4.198 4.395 0.187 85.764 o
7 5 12 2.756 2.582 0.236 75.818 o
7 5 13 0.206 0.197 0.128 298.697 o
7 5 14 1.557 1.518 0.177 143.000 o
7 5 15 7.145 6.583 0.256 39.350 o
7 5 16 3.968 3.321 0.345 36.100 o
7 6 0 97.371 103.970 1.449 0.345 o
7 6 1 34.009 34.923 0.453 2.983 o
7 6 2 2.886 2.838 0.128 185.511 o
7 6 3 21.604 21.709 0.325 7.236 o
7 6 4 19.925 19.856 0.315 8.408 o
7 6 5 26.051 26.084 0.572 4.243 o
7 6 6 4.194 4.040 0.148 114.664 o
7 6 7 0.574 0.453 0.089 598.586 o
7 6 8 12.525 12.012 0.256 19.460 o
7 6 9 5.208 5.173 0.286 42.848 o
7 6 10 6.282 6.011 0.197 57.296 o
7 6 11 1.357 1.311 0.128 264.124 o
7 6 12 10.419 10.041 0.562 11.041 o
7 6 13 19.503 19.728 0.985 3.413 o
7 6 14 5.036 5.065 0.394 26.355 o
7 6 15 2.258 1.991 0.296 52.780 o
7 6 16 0.928 0.719 0.246 79.829 o
7 7 0 5.750 5.370 0.227 54.558 o
7 7 1 28.465 29.464 0.453 4.025 o
7 7 2 8.844 8.681 0.217 34.705 o
7 7 3 0.493 0.384 0.108 409.561 o
7 7 4 6.768 6.750 0.197 51.825 o
7 7 5 21.767 22.467 0.473 6.020 o
7 7 6 26.870 27.532 0.631 3.791 o
7 7 7 4.741 4.562 0.227 62.854 o
7 7 8 0.641 0.512 0.138 252.521 o
7 7 9 16.201 16.032 0.473 9.053 o
7 7 10 1.355 1.350 0.158 181.418 o
7 7 11 0.745 0.670 0.138 249.989 o
7 7 12 0.751 0.847 0.168 170.637 o
7 7 13 1.367 1.301 0.177 145.994 o
7 7 14 0.552 0.581 0.246 80.503 o
7 7 15 0.616 0.759 0.246 80.302 o
7 8 0 88.909 90.510 1.803 0.377 o
7 8 1 2.747 3.183 0.197 100.153 o
7 8 2 0.009 -0.148 0.236 87.908 o
7 8 3 13.911 14.022 0.453 11.077 o
7 8 4 2.364 2.532 0.177 127.257 o
7 8 5 0.586 0.493 0.138 253.320 o
7 8 6 2.775 2.345 0.177 123.086 o
7 8 7 0.010 -0.256 0.227 95.718 o
7 8 8 0.032 -0.089 0.227 95.717 o
7 8 9 1.620 1.409 0.305 51.079 o
7 8 10 4.593 4.474 0.374 29.687 o
7 8 11 1.899 1.951 0.246 75.424 o
7 8 12 0.609 0.739 0.286 59.826 o
7 8 13 1.109 0.916 0.286 59.237 o
7 9 0 5.294 5.164 0.227 57.747 o
7 9 1 0.864 1.094 0.148 214.400 o
7 9 2 27.639 28.084 0.788 3.137 o
7 9 3 7.758 7.972 0.493 15.468 o
7 9 4 6.502 6.435 0.355 27.733 o
7 9 5 0.553 0.631 0.148 220.893 o
7 9 6 28.492 28.803 1.557 1.435 o
7 9 7 1.518 1.389 0.197 118.455 o
7 9 8 1.291 1.380 0.217 100.069 o
7 9 9 5.451 5.676 0.286 41.290 o
7 9 10 2.753 2.680 0.335 40.510 o
7 9 11 0.987 1.261 0.187 134.783 o
7 9 12 1.037 0.926 0.296 55.483 o
7 9 13 4.825 5.026 0.414 24.509 o
7 10 0 2.462 2.257 0.158 154.246 o
7 10 1 12.185 12.791 0.374 14.980 o
7 10 2 0.214 0.266 0.138 257.453 o
7 10 3 4.093 3.429 0.365 32.497 o
7 10 4 11.739 11.933 1.064 3.772 o
7 10 5 4.281 3.843 0.985 4.957 o
7 10 6 48.797 49.970 3.212 0.370 o
7 10 7 4.526 4.395 0.818 7.089 o
7 10 8 7.281 7.302 0.916 5.433 o
7 10 9 2.916 2.552 0.700 9.852 o
7 10 10 5.643 6.060 0.286 40.095 o
7 10 11 0.087 0.296 0.276 64.560 o
7 10 12 16.892 17.905 0.621 6.563 o
7 10 13 0.215 0.315 0.266 69.384 o
7 11 0 11.127 9.982 0.325 19.887 o
7 11 1 3.192 3.124 0.374 32.236 o
7 11 2 0.009 0.039 0.158 197.789 o
7 11 3 8.138 8.100 0.956 4.944 o
7 11 4 1.610 1.458 0.197 117.570 o
7 11 5 6.079 6.129 0.296 36.991 o
7 11 6 37.040 37.899 1.518 1.226 o
7 11 7 45.388 47.920 3.557 0.322 o
7 11 8 118.338 125.738 8.100 0.059 o
7 11 9 4.928 4.700 0.355 31.785 o
7 11 10 0.063 -0.128 0.227 95.714 o
7 11 11 14.370 15.895 0.611 7.629 o
7 11 12 11.175 12.377 0.552 10.490 o
7 11 13 2.661 3.390 0.384 31.114 o
7 12 0 12.072 10.820 0.532 10.936 o
7 12 1 1.270 1.192 0.148 207.067 o
7 12 2 17.755 18.062 1.104 3.056 o
7 12 3 0.000 -0.059 0.227 95.718 o
7 12 4 0.017 0.030 0.158 197.788 o
7 12 5 0.844 0.680 0.177 152.577 o
7 12 6 11.872 11.973 0.759 6.561 o
7 12 7 1.937 1.981 0.227 87.746 o
7 12 8 29.368 30.006 1.941 1.016 o
7 12 9 21.350 22.595 1.843 1.237 o
7 12 10 1.421 1.212 0.187 131.847 o
7 12 11 0.371 0.394 0.276 64.437 o
7 12 12 3.440 3.429 0.394 28.950 o
7 13 0 42.242 42.106 0.749 1.793 o
7 13 1 1.550 1.606 0.158 176.400 o
7 13 2 9.285 9.785 0.562 11.570 o
7 13 3 2.126 1.833 0.227 87.164 o
7 13 4 3.162 3.203 0.236 72.000 o
7 13 5 0.268 0.315 0.168 174.592 o
7 13 6 0.468 0.404 0.177 155.075 o
7 13 7 8.212 8.494 0.532 13.372 o
7 13 8 0.264 0.197 0.168 174.761 o
7 13 9 0.636 0.512 0.177 154.154 o
7 13 10 0.016 -0.049 0.217 104.617 o
7 13 11 0.116 -0.296 0.246 81.006 o
7 14 0 0.126 0.187 0.168 175.043 o
7 14 1 6.215 6.996 0.246 43.873 o
7 14 2 0.092 0.049 0.128 299.479 o
7 14 3 1.011 0.946 0.236 86.063 o
7 14 4 29.557 29.720 1.685 1.256 o
7 14 5 5.368 6.119 0.286 40.856 o
7 14 6 0.021 0.148 0.168 175.176 o
7 14 7 0.166 0.158 0.168 175.004 o
7 14 8 0.008 -0.069 0.217 104.617 o
7 14 9 5.703 5.735 0.503 16.805 o
7 14 10 1.850 1.922 0.325 44.679 o
7 15 0 0.003 0.128 0.168 175.192 o
7 15 1 2.082 2.030 0.177 134.029 o
7 15 2 0.180 0.246 0.138 257.663 o
7 15 3 22.918 23.581 1.675 1.420 o
7 15 4 8.522 8.120 0.384 21.021 o
7 15 5 4.641 5.006 0.276 47.314 o
7 15 6 23.041 24.822 1.734 1.332 o
7 15 7 1.294 1.261 0.187 132.631 o
7 15 8 0.813 0.818 0.168 170.270 o
7 15 9 0.616 0.463 0.158 194.725 o
7 16 0 0.288 0.128 0.168 174.787 o
7 16 1 5.944 5.715 0.286 39.699 o
7 16 2 7.075 7.302 0.276 35.430 o
7 16 3 75.465 74.595 1.242 0.581 o
7 16 4 4.369 4.760 0.296 43.824 o
7 16 5 23.390 24.418 1.606 1.504 o
7 16 6 2.099 2.621 0.207 100.026 o
7 16 7 0.237 0.305 0.177 155.871 o
7 17 0 0.025 0.099 0.177 156.265 o
7 17 1 3.768 3.301 0.227 72.996 o
7 17 2 3.947 3.636 0.197 86.344 o
7 17 3 1.692 2.178 0.158 169.141 o
7 17 4 44.131 45.890 3.400 0.351 o
7 17 5 4.551 4.424 0.256 54.298 o
7 18 0 0.033 -0.089 0.217 104.616 o
7 18 1 1.925 1.862 0.325 44.622 o
8 0 0 75.599 81.848 1.685 0.480 o
8 0 2 7.142 7.036 0.335 28.236 o
8 0 4 64.366 66.318 0.916 0.817 o
8 0 6 10.402 10.406 0.355 19.023 o
8 0 8 17.886 18.200 0.660 5.906 o
8 0 10 0.467 0.562 0.168 173.325 o
8 0 12 42.090 41.663 2.050 0.773 o
8 0 14 0.028 -0.099 0.227 95.717 o
8 1 0 18.066 18.841 0.394 8.674 o
8 1 1 5.542 5.646 0.217 57.775 o
8 1 2 0.035 0.039 0.089 624.991 o
8 1 3 2.215 2.178 0.118 246.740 o
8 1 4 0.856 0.739 0.099 466.998 o
8 1 5 2.295 1.823 0.118 251.089 o
8 1 6 26.904 26.852 0.414 4.651 o
8 1 7 11.648 11.519 0.365 16.502 o
8 1 8 2.201 1.951 0.148 179.812 o
8 1 9 7.070 6.730 0.335 28.660 o
8 1 10 6.961 6.819 0.227 44.723 o
8 1 11 17.266 16.752 0.552 7.421 o
8 1 12 0.603 0.700 0.128 290.853 o
8 1 13 4.354 4.109 0.177 91.340 o
8 1 14 5.566 5.114 0.256 48.406 o
8 2 0 1.255 1.419 0.108 355.000 o
8 2 1 8.623 8.563 0.207 36.826 o
8 2 2 2.022 1.991 0.108 294.303 o
8 2 3 13.645 13.421 0.276 16.293 o
8 2 4 2.336 2.148 0.118 242.035 o
8 2 5 0.009 -0.089 0.246 81.016 o
8 2 6 4.175 4.060 0.197 82.207 o
8 2 7 4.271 4.099 0.197 81.139 o
8 2 8 2.594 2.483 0.168 136.292 o
8 2 9 5.276 5.035 0.266 47.337 o
8 2 10 2.201 2.217 0.148 176.777 o
8 2 11 17.098 16.791 0.483 8.375 o
8 2 12 17.570 17.461 0.315 10.326 o
8 2 13 41.480 40.569 0.641 1.976 o
8 2 14 3.633 3.370 0.227 73.638 o
8 3 0 8.106 8.435 0.187 41.751 o
8 3 1 2.424 2.464 0.118 231.263 o
8 3 2 0.251 0.256 0.089 618.953 o
8 3 3 0.006 -0.049 0.256 74.903 o
8 3 4 0.060 -0.030 0.246 81.013 o
8 3 5 1.456 1.399 0.187 130.815 o
8 3 6 1.418 1.419 0.138 228.721 o
8 3 7 5.552 5.617 0.217 57.805 o
8 3 8 23.840 23.955 0.591 4.691 o
8 3 9 2.065 2.000 0.158 164.021 o
8 3 10 5.462 5.292 0.197 65.871 o
8 3 11 16.676 16.486 0.621 6.795 o
8 3 12 6.459 6.297 0.207 52.818 o
8 3 13 1.717 1.813 0.158 171.883 o
8 3 14 1.299 1.380 0.168 162.723 o
8 4 0 4.734 4.700 0.158 94.207 o
8 4 1 6.855 7.046 0.177 54.564 o
8 4 2 9.415 9.943 0.246 28.355 o
8 4 3 44.288 45.289 0.847 1.557 o
8 4 4 4.366 3.646 0.187 87.936 o
8 4 5 4.177 3.735 0.187 89.474 o
8 4 6 11.326 11.618 0.266 21.313 o
8 4 7 13.498 13.500 0.286 16.124 o
8 4 8 9.209 9.243 0.256 28.953 o
8 4 9 6.856 6.691 0.345 27.997 o
8 4 10 1.486 1.419 0.138 227.017 o
8 4 11 0.105 0.010 0.108 418.236 o
8 4 12 0.736 0.719 0.118 335.931 o
8 4 13 5.193 5.016 0.207 65.456 o
8 4 14 6.324 6.257 0.256 43.016 o
8 5 0 120.792 130.202 1.478 0.234 o
8 5 1 62.017 64.958 0.838 0.884 o
8 5 2 37.534 37.889 0.798 2.071 o
8 5 3 22.667 20.378 0.552 5.510 o
8 5 4 5.891 5.843 0.227 52.497 o
8 5 5 24.956 26.586 0.581 4.333 o
8 5 6 5.619 5.568 0.217 57.541 o
8 5 7 18.301 18.122 0.621 6.199 o
8 5 8 11.160 11.559 0.374 16.583 o
8 5 9 3.335 2.956 0.158 131.203 o
8 5 10 0.024 -0.069 0.217 104.617 o
8 5 11 0.062 0.000 0.236 87.904 o
8 5 12 0.494 0.286 0.108 410.753 o
8 5 13 0.017 -0.010 0.197 126.586 o
8 5 14 1.221 1.192 0.266 67.737 o
8 6 0 23.204 24.576 0.680 4.282 o
8 6 1 151.749 143.761 2.917 0.138 o
8 6 2 0.499 0.463 0.217 103.975 o
8 6 3 80.034 83.287 1.330 0.500 o
8 6 4 103.364 114.179 1.685 0.292 o
8 6 5 7.777 8.721 0.365 23.066 o
8 6 6 2.103 2.030 0.168 147.403 o
8 6 7 4.057 4.070 0.236 64.576 o
8 6 8 5.044 4.789 0.217 63.746 o
8 6 9 1.206 1.035 0.128 272.728 o
8 6 10 2.825 2.700 0.148 156.893 o
8 6 11 8.620 8.603 0.286 28.489 o
8 6 12 1.024 1.005 0.138 242.188 o
8 6 13 0.205 0.128 0.148 224.637 o
8 7 0 1.822 1.587 0.266 65.986 o
8 7 1 11.072 11.224 0.305 20.077 o
8 7 2 48.686 50.236 1.143 1.151 o
8 7 3 25.240 26.961 0.562 4.344 o
8 7 4 8.073 8.110 0.286 30.395 o
8 7 5 0.282 0.305 0.148 223.989 o
8 7 6 12.024 13.214 0.493 11.387 o
8 7 7 0.370 0.355 0.177 155.473 o
8 7 8 5.691 6.050 0.296 38.183 o
8 7 9 7.378 7.519 0.315 29.444 o
8 7 10 10.271 10.810 0.434 15.278 o
8 7 11 3.070 3.301 0.236 72.237 o
8 7 12 0.453 0.572 0.276 64.334 o
8 7 13 0.068 0.158 0.138 258.182 o
8 8 0 0.112 0.069 0.158 197.700 o
8 8 1 0.548 0.443 0.168 173.215 o
8 8 2 0.004 -0.148 0.227 95.718 o
8 8 3 0.057 -0.010 0.335 43.801 o
8 8 4 0.135 0.069 0.168 175.109 o
8 8 5 4.320 4.326 0.286 47.027 o
8 8 6 0.027 0.059 0.177 156.272 o
8 8 7 0.088 0.128 0.177 156.218 o
8 8 8 5.564 5.696 0.296 39.045 o
8 8 9 2.447 2.552 0.335 41.041 o
8 8 10 2.400 2.395 0.296 52.064 o
8 8 11 0.372 0.365 0.168 174.169 o
8 8 12 4.057 4.799 0.404 26.444 o
8 9 0 0.196 0.256 0.266 69.402 o
8 9 1 0.864 0.838 0.177 151.954 o
8 9 2 1.438 1.261 0.187 131.522 o
8 9 3 0.803 0.847 0.187 137.060 o
8 9 4 0.847 0.877 0.187 136.750 o
8 9 5 6.463 6.622 0.305 33.830 o
8 9 6 1.094 1.192 0.197 121.711 o
8 9 7 8.775 9.292 0.384 20.004 o
8 9 8 26.346 27.798 0.650 3.768 o
8 9 9 37.139 41.042 1.389 1.314 o
8 9 10 28.929 30.114 1.833 1.114 o
8 9 11 0.575 0.601 0.177 154.236 o
8 9 12 0.740 0.729 0.276 64.026 o
8 10 0 0.312 0.148 0.266 69.379 o
8 10 1 13.411 14.091 0.877 4.931 o
8 10 2 0.610 0.641 0.355 38.924 o
8 10 3 16.243 16.860 1.626 1.653 o
8 10 4 0.004 -0.177 0.227 95.718 o
8 10 5 1.396 1.123 0.197 120.130 o
8 10 6 0.193 0.256 0.177 156.002 o
8 10 7 0.536 0.434 0.256 74.553 o
8 10 8 0.032 0.000 0.236 87.907 o
8 10 9 6.997 7.302 0.483 16.674 o
8 10 10 34.581 36.322 1.715 1.104 o
8 10 11 25.978 27.148 0.680 3.741 o
8 11 0 0.291 0.325 0.266 69.348 o
8 11 1 32.369 34.243 2.079 0.869 o
8 11 2 2.958 3.124 0.305 47.077 o
8 11 3 0.225 -0.039 0.227 95.667 o
8 11 4 5.936 5.469 0.286 40.103 o
8 11 5 1.055 0.778 0.187 135.859 o
8 11 6 0.011 -0.079 0.227 95.718 o
8 11 7 2.593 2.651 0.384 31.507 o
8 11 8 28.948 29.207 2.532 0.660 o
8 11 9 0.982 0.867 0.177 151.044 o
8 11 10 0.200 -0.039 0.217 104.569 o
8 12 0 1.225 1.301 0.305 51.630 o
8 12 1 5.817 5.489 0.443 20.785 o
8 12 2 0.568 0.611 0.256 74.433 o
8 12 3 17.715 18.989 1.311 2.318 o
8 12 4 0.005 -0.030 0.227 95.718 o
8 12 5 11.738 11.943 0.897 5.043 o
8 12 6 1.858 2.326 0.207 102.877 o
8 12 7 1.186 1.025 0.187 134.247 o
8 12 8 2.706 2.828 0.217 87.422 o
8 12 9 0.034 -0.039 0.266 69.457 o
8 13 0 7.362 6.208 0.443 19.185 o
8 13 1 5.270 5.045 0.424 23.126 o
8 13 2 2.320 2.670 0.207 98.140 o
8 13 3 0.615 0.857 0.177 153.388 o
8 13 4 0.714 0.680 0.177 153.332 o
8 13 5 3.711 3.715 0.246 63.382 o
8 13 6 4.064 4.129 0.246 60.596 o
8 13 7 2.777 2.690 0.207 94.415 o
8 13 8 0.112 -0.039 0.217 104.602 o
8 14 0 0.561 0.542 0.276 64.267 o
8 14 1 0.939 0.443 0.276 63.968 o
8 14 2 4.888 5.134 0.296 41.788 o
8 14 3 0.409 0.128 0.158 196.828 o
8 14 4 11.867 11.470 1.232 2.916 o
8 14 5 12.969 13.352 1.104 3.443 o
8 14 6 4.366 4.139 0.296 44.721 o
8 15 0 0.387 0.572 0.158 195.848 o
8 15 1 3.077 3.212 0.355 35.684 o
8 15 2 1.976 2.266 0.197 111.481 o
8 15 3 0.232 0.197 0.158 197.321 o
8 15 4 5.803 6.031 0.443 20.574 o
9 0 0 20.268 21.216 1.813 1.292 o
9 0 2 10.247 10.386 0.355 19.231 o
9 0 4 14.952 15.510 0.532 8.719 o
9 0 6 1.610 1.655 0.207 106.753 o
9 0 8 0.075 -0.079 0.207 114.810 o
9 0 10 9.426 8.780 0.857 5.861 o
9 1 0 14.519 15.234 0.581 8.129 o
9 1 1 4.536 4.858 0.207 71.011 o
9 1 2 0.291 0.089 0.138 257.510 o
9 1 3 0.008 -0.256 0.236 87.908 o
9 1 4 0.010 -0.256 0.236 87.907 o
9 1 5 0.557 0.562 0.128 292.800 o
9 1 6 0.514 0.365 0.128 294.866 o
9 1 7 5.656 5.617 0.207 60.075 o
9 1 8 7.389 7.085 0.394 22.304 o
9 1 9 6.336 6.050 0.236 47.434 o
9 1 10 0.251 0.404 0.108 414.528 o
9 1 11 3.134 3.252 0.217 82.865 o
9 2 0 3.219 3.212 0.207 88.588 o
9 2 1 16.515 17.668 0.611 6.799 o
9 2 2 2.270 2.266 0.158 157.754 o
9 2 3 7.693 7.923 0.236 37.849 o
9 2 4 13.700 14.387 0.414 12.021 o
9 2 5 2.527 2.601 0.158 149.738 o
9 2 6 8.930 9.007 0.236 31.886 o
9 2 7 0.342 0.394 0.148 223.425 o
9 2 8 3.280 3.074 0.158 131.130 o
9 2 9 4.092 3.942 0.217 73.371 o
9 2 10 9.344 9.371 0.394 18.727 o
9 2 11 4.017 3.774 0.286 48.850 o
9 3 0 0.069 0.493 0.266 69.405 o
9 3 1 91.796 102.137 1.744 0.347 o
9 3 2 13.768 14.663 0.296 14.907 o
9 3 3 0.200 0.236 0.128 298.609 o
9 3 4 8.640 8.957 0.276 28.947 o
9 3 5 11.781 12.367 0.276 19.520 o
9 3 6 2.629 2.907 0.168 132.392 o
9 3 7 0.000 -0.039 0.227 95.718 o
9 3 8 26.053 25.847 1.389 1.783 o
9 3 9 5.262 5.075 0.187 72.110 o
9 3 10 4.900 4.444 0.276 47.391 o
9 3 11 0.834 0.778 0.118 332.272 o
9 4 0 10.461 10.495 0.286 22.758 o
9 4 1 1.820 1.931 0.148 188.578 o
9 4 2 99.765 109.577 1.380 0.330 o
9 4 3 53.688 60.149 0.966 1.034 o
9 4 4 14.518 15.520 0.453 10.335 o
9 4 5 3.582 3.616 0.207 83.838 o
9 4 6 0.716 0.581 0.138 251.064 o
9 4 7 0.005 -0.138 0.217 104.617 o
9 4 8 0.398 0.305 0.108 412.665 o
9 4 9 1.464 1.587 0.128 256.287 o
9 4 10 6.444 6.297 0.246 44.378 o
9 4 11 0.374 0.207 0.148 223.771 o
9 5 0 3.674 3.636 0.217 77.526 o
9 5 1 0.698 0.739 0.128 288.694 o
9 5 2 2.578 3.212 0.177 119.930 o
9 5 3 1.668 2.069 0.227 88.837 o
9 5 4 11.544 12.928 0.286 19.037 o
9 5 5 0.483 0.325 0.128 295.524 o
9 5 6 6.184 6.543 0.207 53.726 o
9 5 7 0.970 0.857 0.128 281.343 o
9 5 8 0.005 0.030 0.108 418.462 o
9 5 9 0.225 0.089 0.108 417.070 o
9 5 10 0.255 0.345 0.108 414.954 o
9 6 0 32.858 35.140 0.660 2.700 o
9 6 1 1.041 1.439 0.158 185.222 o
9 6 2 5.331 5.725 0.246 50.557 o
9 6 3 2.168 2.119 0.177 132.406 o
9 6 4 10.834 11.588 0.424 14.894 o
9 6 5 14.201 15.954 0.739 6.040 o
9 6 6 0.452 0.335 0.118 346.446 o
9 6 7 0.586 0.473 0.118 342.596 o
9 6 8 0.345 0.345 0.108 413.341 o
9 6 9 0.818 0.847 0.118 331.713 o
9 6 10 0.122 0.099 0.187 140.199 o
9 7 0 2.804 3.212 0.236 73.912 o
9 7 1 0.283 0.414 0.138 256.579 o
9 7 2 0.007 0.030 0.138 258.337 o
9 7 3 4.600 4.691 0.315 39.115 o
9 7 4 0.069 0.059 0.138 258.268 o
9 7 5 1.479 1.488 0.207 108.028 o
9 7 6 31.327 35.268 1.320 1.613 o
9 7 7 4.747 6.159 0.296 40.719 o
9 7 8 3.188 3.784 0.256 61.693 o
9 7 9 6.033 7.046 0.650 10.401 o
9 8 0 0.801 0.690 0.177 152.809 o
9 8 1 0.718 0.966 0.296 55.760 o
9 8 2 8.911 10.110 1.005 4.404 o
9 8 3 1.236 1.005 0.187 133.971 o
9 8 4 31.109 33.829 2.828 0.531 o
9 8 5 24.144 26.754 2.454 0.724 o
9 8 6 15.053 17.077 0.739 5.789 o
9 8 7 0.681 1.035 0.187 137.202 o
9 8 8 2.195 2.464 0.217 92.089 o
9 9 0 0.008 0.315 0.276 64.573 o
9 9 1 2.678 2.907 0.355 36.382 o
9 9 2 6.969 7.558 0.562 12.994 o
9 9 3 0.261 0.335 0.168 174.586 o
9 9 4 8.278 8.603 0.729 7.957 o
9 9 5 5.999 6.435 0.887 5.904 o
9 9 6 7.556 7.844 0.384 22.406 o
9 9 7 0.595 0.778 0.177 153.703 o
9 10 0 0.005 0.039 0.266 69.458 o
9 10 1 0.003 0.030 0.266 69.458 o
9 10 2 0.404 0.434 0.168 173.908 o
9 10 3 8.379 9.046 0.936 5.085 o
9 10 4 6.447 7.065 0.305 33.322 o
9 10 5 3.879 4.188 0.256 57.795 o
9 10 6 0.551 0.493 0.168 173.073 o
9 11 0 0.229 0.286 0.266 69.384 o
9 11 1 0.489 0.552 0.276 64.316 o
9 11 2 1.938 2.099 0.197 112.511 o
9 11 3 0.332 0.296 0.158 196.801 o
9 11 4 0.021 -0.197 0.197 126.586 o
9 11 5 1.479 1.399 0.177 144.416 o
9 12 0 0.571 0.719 0.276 64.187 o
9 12 1 0.978 0.916 0.286 59.391 o
9 12 2 4.806 4.523 0.404 25.819 o
10 0 0 5.424 5.637 0.453 20.278 o
10 0 2 0.029 -0.158 0.227 95.717 o
10 0 4 2.617 2.868 0.227 81.537 o
10 0 6 1.279 1.389 0.187 132.256 o
10 1 0 0.228 0.118 0.177 156.058 o
10 1 1 4.940 5.282 0.217 62.798 o
10 1 2 7.076 7.607 0.522 14.580 o
10 1 3 5.965 6.247 0.315 34.046 o
10 1 4 3.188 3.291 0.177 111.271 o
10 1 5 2.135 1.912 0.148 181.765 o
10 1 6 3.389 3.242 0.177 108.950 o
10 2 0 3.635 3.705 0.266 56.394 o
10 2 1 8.161 8.583 0.266 31.674 o
10 2 2 0.041 0.089 0.118 351.530 o
10 2 3 45.105 49.664 1.399 1.064 o
10 2 4 26.327 28.360 0.759 3.346 o
10 2 5 31.721 34.213 0.581 3.005 o
10 2 6 0.004 -0.030 0.217 104.617 o
10 3 0 1.662 1.596 0.207 106.609 o
10 3 1 3.226 3.212 0.197 95.363 o
10 3 2 0.824 1.114 0.138 244.979 o
10 3 3 1.992 2.148 0.148 182.312 o
10 3 4 0.059 -0.020 0.236 87.905 o
10 3 5 17.349 19.127 0.325 9.830 o
10 3 6 8.671 8.494 0.838 6.205 o
10 4 0 1.620 1.892 0.207 105.946 o
10 4 1 1.355 1.409 0.158 180.970 o
10 4 2 8.341 9.174 0.246 32.408 o
10 4 3 16.018 17.481 0.345 10.859 o
10 4 4 0.487 0.374 0.128 295.162 o
10 4 5 0.204 0.168 0.108 416.865 o
10 5 0 9.900 10.741 0.542 11.686 o
10 5 1 1.252 1.281 0.158 183.407 o
10 5 2 1.274 1.202 0.138 234.722 o
10 5 3 7.776 8.514 0.227 37.757 o
10 5 4 0.554 0.572 0.138 253.226 o
10 6 0 3.374 3.518 0.374 31.810 o
10 6 1 1.869 1.636 0.197 114.953 o
10 6 2 0.121 -0.010 0.227 95.703 o
10 6 3 5.613 5.912 0.286 40.417 o
10 7 0 4.128 4.966 0.463 20.633 o
10 7 1 4.339 4.907 0.463 20.518 o
;
_olex2_submission_special_instructions 'No special instructions were received'
loop_
_space_group_symop_id
_space_group_symop_operation_xyz
1 x,y,z
2 -x,y+1/2,-z+1/2
3 -x,-y,-z
4 x,-y-1/2,z-1/2
loop_
_atom_site_label
_atom_site_type_symbol
_atom_site_fract_x
_atom_site_fract_y
_atom_site_fract_z
_atom_site_U_iso_or_equiv
_atom_site_adp_type
_atom_site_occupancy
_atom_site_refinement_flags_posn
O(1) O 0.84011(3) 0.139072(12) -0.052092(12) 0.01405(2) Uani 1.000000 .
H(1) H 0.9753(13) 0.0820(5) -0.0674(5) 0.0252(11) Uani 1.000000 .
O(3) O 0.39309(3) 0.067657(13) 0.249853(12) 0.01591(2) Uani 1.000000 .
H(3) H 0.5338(11) 0.0225(5) 0.2163(5) 0.0259(11) Uani 1.000000 .
O(2) O 0.76759(3) 0.014988(11) 0.098888(11) 0.01302(2) Uani 1.000000 .
C(1) C 0.50515(3) 0.192858(13) 0.082365(13) 0.01067(2) Uani 1.000000 .
C(3) C 0.15873(3) 0.249276(16) 0.220222(15) 0.01460(3) Uani 1.000000 .
H(3a H 0.0474(12) 0.2271(5) 0.2979(5) 0.0341(12) Uani 1.000000 .
C(6) C 0.45370(3) 0.299300(14) 0.019038(15) 0.01327(2) Uani 1.000000 .
H(6) H 0.5695(11) 0.3171(4) -0.0593(6) 0.0331(13) Uani 1.000000 .
C(2) C 0.35613(3) 0.167761(14) 0.184132(13) 0.01178(2) Uani 1.000000 .
C(5) C 0.25886(3) 0.379618(15) 0.055417(17) 0.01552(3) Uani 1.000000 .
H(5) H 0.2198(11) 0.4591(5) 0.0059(5) 0.0357(13) Uani 1.000000 .
C(4) C 0.11110(3) 0.354017(16) 0.156492(16) 0.01543(3) Uani 1.000000 .
H(4) H -0.0366(11) 0.4153(5) 0.1852(5) 0.0322(12) Uani 1.000000 .
C(7) C 0.71401(3) 0.109071(13) 0.043963(13) 0.01056(2) Uani 1.000000 .
loop_
_atom_site_aniso_label
_atom_site_aniso_U_11
_atom_site_aniso_U_22
_atom_site_aniso_U_33
_atom_site_aniso_U_12
_atom_site_aniso_U_13
_atom_site_aniso_U_23
O(1) 0.01464(4) 0.01356(4) 0.01437(4) 0.00285(3) 0.00518(3) 0.00270(3)
H(1) 0.030(3) 0.026(3) 0.020(2) -0.009(2) 0.004(2) 0.008(2)
O(3) 0.01828(5) 0.01557(5) 0.01433(4) 0.00315(4) 0.00568(4) 0.00229(3)
H(3) 0.027(3) 0.022(2) 0.028(2) -0.002(2) 0.001(2) 0.012(2)
O(2) 0.01363(4) 0.01151(4) 0.01425(4) 0.00321(3) 0.00433(3) 0.00211(3)
C(1) 0.01012(4) 0.01027(4) 0.01171(4) 0.00118(3) 0.00140(3) -0.00037(3)
C(3) 0.01371(5) 0.01598(5) 0.01430(5) 0.00333(4) 0.00277(4) -0.00295(4)
H(3a 0.030(3) 0.032(3) 0.041(3) 0.014(2) 0.006(2) 0.004(2)
C(6) 0.01258(5) 0.01155(5) 0.01574(5) 0.00204(4) 0.00142(4) 0.00136(4)
H(6) 0.033(3) 0.021(2) 0.045(3) 0.014(2) 0.002(2) 0.005(2)
C(2) 0.01159(5) 0.01232(5) 0.01156(4) 0.00134(4) 0.00196(3) -0.00126(4)
C(5) 0.01439(5) 0.01224(5) 0.01990(6) 0.00350(4) 0.00047(4) 0.00007(4)
H(5) 0.034(3) 0.026(3) 0.047(3) 0.009(2) 0.007(3) 0.008(3)
C(4) 0.01358(5) 0.01448(5) 0.01822(6) 0.00385(4) 0.00043(4) -0.00383(5)
H(4) 0.028(3) 0.038(3) 0.031(3) 0.012(2) 0.005(2) -0.006(2)
C(7) 0.01019(4) 0.01012(4) 0.01150(4) 0.00092(3) 0.00180(3) 0.00012(3)
loop_
_atom_type_symbol
_atom_type_description
_atom_type_scat_dispersion_real
_atom_type_scat_dispersion_imag
_atom_type_scat_source
_atom_type_scat_dispersion_source
C C 0.00347 0.00161
'Clementi & Roetti, C., At. Data Nucl. Data Tables 1974, 14, (177-478); Clementi & Raimondi, J. Chem. Phys., 1963, 38, (2686-2689)'
'Henke, Gullikson and Davis, At. Data and Nucl. Data Tables, 1993, 54, 2'
H H 0.00000 0.00000
'Clementi & Roetti, C., At. Data Nucl. Data Tables 1974, 14, (177-478); Clementi & Raimondi, J. Chem. Phys., 1963, 38, (2686-2689)'
'Henke, Gullikson and Davis, At. Data and Nucl. Data Tables, 1993, 54, 2'
N N 0.00653 0.00323
'Clementi & Roetti, C., At. Data Nucl. Data Tables 1974, 14, (177-478); Clementi & Raimondi, J. Chem. Phys., 1963, 38, (2686-2689)'
'Henke, Gullikson and Davis, At. Data and Nucl. Data Tables, 1993, 54, 2'
O O 0.01158 0.00611
'Clementi & Roetti, C., At. Data Nucl. Data Tables 1974, 14, (177-478); Clementi & Raimondi, J. Chem. Phys., 1963, 38, (2686-2689)'
'Henke, Gullikson and Davis, At. Data and Nucl. Data Tables, 1993, 54, 2'
loop_
_geom_angle_atom_site_label_1
_geom_angle_atom_site_label_2
_geom_angle_atom_site_label_3
_geom_angle
_geom_angle_site_symmetry_1
_geom_angle_site_symmetry_3
_geom_angle_publ_flag
C(7) O(1) H(1) 109.7(3) . . ?
C(2) O(3) H(3) 107.9(3) . . ?
C(2) C(1) C(6) 119.495(13) . . ?
C(7) C(1) C(6) 120.341(13) . . ?
C(7) C(1) C(2) 120.160(13) . . ?
C(2) C(3) H(3a 117.6(3) . . ?
C(4) C(3) H(3a 122.3(3) . . ?
C(4) C(3) C(2) 120.180(15) . . ?
H(6) C(6) C(1) 118.6(2) . . ?
C(5) C(6) C(1) 120.749(15) . . ?
C(5) C(6) H(6) 120.6(2) . . ?
C(1) C(2) O(3) 123.198(13) . . ?
C(3) C(2) O(3) 117.358(14) . . ?
C(3) C(2) C(1) 119.444(14) . . ?
H(5) C(5) C(6) 120.0(3) . . ?
C(4) C(5) C(6) 119.465(15) . . ?
C(4) C(5) H(5) 120.6(3) . . ?
C(5) C(4) C(3) 120.667(14) . . ?
H(4) C(4) C(3) 119.4(3) . . ?
H(4) C(4) C(5) 119.9(3) . . ?
O(2) C(7) O(1) 122.013(13) . . ?
C(1) C(7) O(1) 115.954(13) . . ?
C(1) C(7) O(2) 122.032(13) . . ?
loop_
_geom_bond_atom_site_label_1
_geom_bond_atom_site_label_2
_geom_bond_distance
_geom_bond_site_symmetry_2
_geom_bond_publ_flag
O(1) H(1) 0.941(7) . ?
O(1) C(7) 1.31031(18) . ?
O(3) H(3) 0.945(6) . ?
O(3) C(2) 1.3500(2) . ?
O(2) C(7) 1.24292(18) . ?
C(1) C(6) 1.4051(2) . ?
C(1) C(2) 1.4111(2) . ?
C(1) C(7) 1.46516(19) . ?
C(3) H(3a 1.078(6) . ?
C(3) C(2) 1.4009(2) . ?
C(3) C(4) 1.3884(3) . ?
C(6) H(6) 1.086(6) . ?
C(6) C(5) 1.3844(2) . ?
C(5) H(5) 1.063(6) . ?
C(5) C(4) 1.4024(3) . ?
C(4) H(4) 1.056(5) . ?
loop_
_refln_index_h
_refln_index_k
_refln_index_l
_refln_F_squared_meas
_refln_F_squared_sigma
-10 0 2 5.67 0.44
-10 0 4 5.72 0.45
-10 0 6 8.62 0.48
-10 0 8 25.83 0.73
-10 1 1 1.29 0.2
-10 1 2 0.68 0.19
-10 1 3 6.3 0.29
-10 1 4 21.33 0.77
-10 1 5 1.26 0.19
-10 1 6 2.84 0.22
-10 1 7 4.34 0.26
-10 1 8 2.03 0.19
-10 2 1 4.64 0.28
-10 2 2 8.78 0.44
-10 2 3 -0.04 0.24
-10 2 4 7.85 0.31
-10 2 5 61.16 3.34
-10 2 6 17.29 0.48
-10 2 7 7.09 0.29
-10 2 8 6.52 0.28
-10 3 1 5.78 0.29
-10 3 2 0.21 0.27
-10 3 3 30.9 1.13
-10 3 4 3.2 0.25
-10 3 5 0.67 0.17
-10 3 6 1.63 0.19
-10 3 7 13.28 0.36
-10 3 8 7.54 0.45
-10 4 1 5.3 0.28
-10 4 2 0.02 0.17
-10 4 3 12.42 1.01
-10 4 4 -0.11 0.22
-10 4 5 10.16 0.38
-10 4 6 0.28 0.27
-10 4 7 -0.07 0.25
-10 5 1 -0.07 0.27
-10 5 2 2.95 0.35
-10 5 3 0.19 0.27
-10 5 4 0.84 0.3
-10 5 5 0.9 0.3
-10 5 6 5.93 0.44
-10 6 1 7.76 0.49
-10 6 2 4.18 0.42
-10 6 3 0.21 0.28
-10 6 4 9.06 0.48
-10 6 5 5.63 0.44
-10 7 1 31.29 0.82
-10 7 2 2.83 0.36
-10 7 3 4.75 0.41
-9 0 2 2.43 0.35
-9 0 4 31.47 0.86
-9 0 6 236.94 6.12
-9 0 8 64.68 1.43
-9 0 10 50.45 1.15
-9 0 12 3.82 0.33
-9 1 1 6.98 0.31
-9 1 2 -0.18 0.24
-9 1 3 11.88 0.38
-9 1 4 11.65 0.38
-9 1 5 7.94 0.33
-9 1 6 12.46 0.38
-9 1 7 8.71 0.33
-9 1 8 53.42 1.38
-9 1 9 18.08 0.61
-9 1 10 0.27 0.16
-9 1 11 14.56 0.39
-9 1 12 7.42 0.44
-9 1 13 2.31 0.15
-9 2 1 0.68 0.19
-9 2 2 4.46 0.28
-9 2 3 9.66 0.35
-9 2 4 6.17 0.31
-9 2 5 6.86 0.31
-9 2 6 34.93 1.33
-9 2 7 0.27 0.17
-9 2 8 1 0.18
-9 2 9 10.6 0.34
-9 2 10 11.05 0.34
-9 2 11 -0.04 0.21
-9 2 12 5.09 0.26
-9 2 13 4.52 0.21
-9 3 1 27.14 0.56
-9 3 2 0.18 0.17
-9 3 3 1.98 0.21
-9 3 4 1.22 0.2
-9 3 5 1.9 0.21
-9 3 6 0.83 0.23
-9 3 7 5.3 0.43
-9 3 8 5.13 0.28
-9 3 9 0.51 0.14
-9 3 10 0.04 0.13
-9 3 11 0.23 0.13
-9 3 12 1.11 0.18
-9 3 13 -0.02 0.21
-9 4 1 1.43 0.2
-9 4 2 12.89 0.38
-9 4 3 1.37 0.21
-9 4 4 6.89 0.66
-9 4 5 0.2 0.21
-9 4 6 27.6 1.63
-9 4 7 -0.09 0.22
-9 4 8 10.81 0.52
-9 4 9 9.56 0.81
-9 4 10 0.05 0.16
-9 4 11 11.33 0.51
-9 4 12 8.92 0.31
-9 4 13 0.29 0.25
-9 5 1 0.19 0.17
-9 5 2 4.33 0.44
-9 5 3 16.37 0.62
-9 5 4 5.39 0.45
-9 5 5 3.16 0.37
-9 5 6 2.65 0.35
-9 5 7 0.37 0.27
-9 5 8 8.67 0.55
-9 5 9 2.06 0.31
-9 5 10 0.02 0.16
-9 5 11 15.5 0.56
-9 5 12 19.43 0.84
-9 6 1 0.2 0.17
-9 6 2 11.24 0.54
-9 6 3 0.1 0.28
-9 6 4 0.07 0.27
-9 6 5 25.8 0.75
-9 6 6 0.98 0.3
-9 6 7 0.54 0.18
-9 6 8 17.74 1.19
-9 6 9 2.86 0.22
-9 6 10 4.72 0.27
-9 6 11 11.17 0.69
-9 6 12 3.01 0.24
-9 7 1 2.35 0.21
-9 7 2 20.08 0.67
-9 7 3 -0.07 0.27
-9 7 4 0.11 0.27
-9 7 5 0.74 0.3
-9 7 6 -0.06 0.26
-9 7 7 1.23 0.21
-9 7 8 0.56 0.18
-9 7 9 23.5 0.79
-9 7 10 1.92 0.28
-9 7 11 15.19 0.38
-9 8 1 2.57 0.22
-9 8 2 5.57 0.45
-9 8 3 23.77 0.72
-9 8 4 4.19 0.42
-9 8 5 7.43 0.48
-9 8 6 1.09 0.19
-9 8 7 0.24 0.23
-9 8 8 12.4 0.37
-9 8 9 -0.17 0.22
-9 8 10 4.17 0.25
-9 9 1 8.82 0.49
-9 9 6 0.01 0.29
-9 9 7 2.08 0.28
-9 9 8 -0.02 0.23
-9 9 9 11.02 0.58
-9 10 1 16.25 0.6
-9 10 5 9.9 0.53
-9 10 6 0.91 0.31
-9 10 7 15.73 0.62
-9 10 8 31.21 0.82
-9 11 1 0.42 0.27
-9 11 5 1.15 0.3
-9 11 6 2.5 0.34
-9 12 1 3.13 0.39
-9 12 4 28 0.73
-8 0 2 1.37 0.22
-8 0 4 0.14 0.18
-8 0 6 29.18 1.28
-8 0 8 129.6 7.07
-8 0 10 0.19 0.16
-8 0 12 1.92 0.2
-8 0 14 3.21 0.23
-8 0 16 0.91 0.17
-8 1 1 9.67 0.27
-8 1 2 128.4 2.15
-8 1 3 0.03 0.13
-8 1 4 0.25 0.13
-8 1 5 0.23 0.13
-8 1 6 39.06 0.75
-8 1 7 33.85 1.36
-8 1 8 33.8 0.54
-8 1 9 24.42 0.65
-8 1 10 75.58 1.27
-8 1 11 7.91 0.28
-8 1 12 11.24 0.37
-8 1 13 9.37 0.42
-8 1 14 12.52 0.35
-8 1 15 0.74 0.12
-8 1 16 2.66 0.17
-8 2 1 35.46 0.47
-8 2 2 4.79 0.22
-8 2 3 2.2 0.17
-8 2 4 11.91 0.33
-8 2 5 10.62 0.38
-8 2 6 13.95 0.58
-8 2 7 59.71 4.53
-8 2 8 34.71 1.04
-8 2 9 75.01 1.86
-8 2 10 1.94 0.14
-8 2 11 11.75 0.38
-8 2 12 25.9 0.75
-8 2 13 2.82 0.16
-8 2 14 0.6 0.12
-8 2 15 0.48 0.11
-8 2 16 0.02 0.1
-8 3 1 3.46 0.17
-8 3 2 4.44 0.22
-8 3 3 4.01 0.21
-8 3 4 0.36 0.13
-8 3 5 11.77 0.45
-8 3 6 2.09 0.21
-8 3 7 1.75 0.18
-8 3 8 7.12 0.46
-8 3 9 23.08 0.81
-8 3 10 0.07 0.13
-8 3 11 1.65 0.14
-8 3 12 33.82 0.69
-8 3 13 6.16 0.2
-8 3 14 5.07 0.25
-8 3 15 16.55 0.51
-8 3 16 10.64 0.27
-8 4 1 1.28 0.13
-8 4 2 26.45 0.51
-8 4 3 0.81 0.15
-8 4 4 23.59 0.68
-8 4 5 0.6 0.14
-8 4 6 10.59 0.75
-8 4 7 1.52 0.16
-8 4 8 3.87 0.22
-8 4 9 15.7 0.81
-8 4 10 18.26 0.77
-8 4 11 12.58 0.31
-8 4 12 3.29 0.2
-8 4 13 2.95 0.18
-8 4 14 4 0.21
-8 4 15 7.73 0.24
-8 4 16 3.59 0.29
-8 5 1 91.63 1.1
-8 5 2 1.18 0.17
-8 5 3 64.77 1.66
-8 5 4 1.39 0.22
-8 5 5 2.05 0.31
-8 5 6 0.29 0.17
-8 5 7 3.65 0.27
-8 5 8 -0.01 0.23
-8 5 9 0.03 0.17
-8 5 10 23.15 0.96
-8 5 11 26.31 0.74
-8 5 12 4 0.27
-8 5 13 2.74 0.22
-8 5 14 6.89 0.27
-8 5 15 0.54 0.14
-8 6 1 9.82 0.28
-8 6 2 0.08 0.14
-8 6 3 1.18 0.21
-8 6 4 15.58 0.58
-8 6 5 16.1 0.42
-8 6 6 2.24 0.24
-8 6 7 14.61 0.58
-8 6 8 7.89 0.32
-8 6 9 6.71 0.31
-8 6 10 7.1 1.02
-8 6 11 0.83 0.18
-8 6 12 2.22 0.18
-8 6 13 27.42 0.46
-8 6 14 3.23 0.19
-8 6 15 7.79 0.29
-8 7 1 17.39 0.71
-8 7 2 4.39 0.27
-8 7 3 12.02 0.53
-8 7 4 2.03 0.21
-8 7 5 6.92 0.31
-8 7 6 6.59 0.31
-8 7 7 0.53 0.18
-8 7 8 11.49 0.44
-8 7 9 0.93 0.19
-8 7 10 0.23 0.17
-8 7 11 1.68 0.22
-8 7 12 6.24 0.33
-8 7 13 34.89 0.89
-8 7 14 16.2 0.35
-8 8 1 0.61 0.18
-8 8 2 34.09 0.85
-8 8 3 0.26 0.27
-8 8 4 1.83 0.21
-8 8 5 10.6 0.37
-8 8 6 40.36 1.19
-8 8 7 0.74 0.19
-8 8 8 1.64 0.31
-8 8 9 6.14 0.83
-8 8 10 3.02 0.24
-8 8 11 3.01 0.54
-8 8 12 3.23 0.24
-8 8 13 0.52 0.17
-8 8 14 0.35 0.13
-8 9 1 1.51 0.3
-8 9 2 2.52 0.33
-8 9 3 2.09 0.35
-8 9 4 1.15 0.32
-8 9 5 28.38 0.82
-8 9 6 -0.07 0.24
-8 9 7 0.07 0.22
-8 9 8 2.14 0.21
-8 9 9 0.96 0.19
-8 9 10 15.23 1.08
-8 9 11 15.13 0.65
-8 9 12 1.49 0.19
-8 9 13 13.34 0.46
-8 10 1 1.37 0.3
-8 10 2 3.43 0.41
-8 10 3 15.17 0.62
-8 10 4 38.99 0.99
-8 10 5 1.18 0.34
-8 10 6 125.87 2.78
-8 10 7 6.67 0.52
-8 10 8 12.77 0.6
-8 10 9 11.56 0.58
-8 10 10 3.38 0.39
-8 10 11 3.41 0.39
-8 10 12 6.82 0.51
-8 10 13 0.44 0.31
-8 11 1 7.89 0.48
-8 11 2 1.83 0.2
-8 11 3 5.75 0.49
-8 11 4 118.75 2.62
-8 11 5 9.58 0.58
-8 11 6 2.58 0.38
-8 11 7 24.46 0.76
-8 11 8 0.13 0.31
-8 11 9 6.35 0.51
-8 11 10 19.67 0.68
-8 11 11 13.57 0.59
-8 11 12 12.41 0.57
-8 12 1 -0.06 0.26
-8 12 2 1.24 0.19
-8 12 3 9.64 0.52
-8 12 4 1.27 0.33
-8 12 5 -0.05 0.3
-8 12 6 4.29 0.48
-8 12 7 1.17 0.33
-8 12 8 0.45 0.31
-8 12 9 25.43 0.75
-8 12 10 35.79 0.9
-8 12 11 4.1 0.46
-8 13 1 3 0.27
-8 13 2 2.56 0.21
-8 13 3 2.22 0.21
-8 13 4 -0.06 0.28
-8 13 5 11.17 0.55
-8 13 6 1.62 0.34
-8 13 7 0.51 0.3
-8 13 8 3.33 0.38
-8 13 9 4.9 0.48
-8 14 1 0.05 0.16
-8 14 2 0.27 0.17
-8 14 3 -0.15 0.22
-8 14 4 10.02 0.51
-8 14 5 2.34 0.34
-8 14 6 2.06 0.33
-8 14 7 2.12 0.33
-8 14 8 17.21 0.62
-8 15 1 17.69 0.41
-8 15 2 2.37 0.46
-8 15 3 13.8 0.37
-8 15 4 0.93 0.29
-8 15 5 4.21 0.42
-7 0 2 29.87 0.63
-7 0 4 166.25 2.91
-7 0 6 24.81 0.58
-7 0 8 15.5 0.32
-7 0 10 32.43 0.69
-7 0 12 33.78 0.86
-7 0 14 6.84 0.46
-7 0 16 2.81 0.21
-7 0 18 26.95 1.56
-7 1 1 -0.02 0.23
-7 1 2 9.13 0.24
-7 1 3 201.65 2.61
-7 1 4 19.83 0.37
-7 1 5 0.4 0.12
-7 1 6 0.8 0.12
-7 1 7 13.8 0.26
-7 1 8 2.27 0.11
-7 1 9 61.23 1.05
-7 1 10 0.93 0.1
-7 1 11 47.78 0.74
-7 1 12 0.21 0.11
-7 1 13 26.93 0.76
-7 1 14 -0.01 0.21
-7 1 15 1.93 0.14
-7 1 16 3.78 0.28
-7 1 17 17.68 0.58
-7 1 18 2.44 0.17
-7 2 1 27.76 0.55
-7 2 2 9.56 0.24
-7 2 3 3.77 0.2
-7 2 4 0.5 0.12
-7 2 5 1 0.11
-7 2 6 18.1 0.3
-7 2 7 8.53 0.19
-7 2 8 46.29 0.78
-7 2 9 52.16 0.73
-7 2 10 34.04 0.44
-7 2 11 2.95 0.13
-7 2 12 14.45 0.44
-7 2 13 10.78 0.44
-7 2 14 -0.05 0.21
-7 2 15 1.08 0.13
-7 2 16 4.24 0.18
-7 2 17 3.71 0.17
-7 2 18 27.11 0.91
-7 3 1 6.54 0.19
-7 3 2 -0.07 0.23
-7 3 3 8.08 0.25
-7 3 4 135.86 2.72
-7 3 5 9.49 0.22
-7 3 6 4.26 0.17
-7 3 7 15.29 0.27
-7 3 8 22.16 0.42
-7 3 9 11.44 0.21
-7 3 10 83.14 1.11
-7 3 11 172.65 2.82
-7 3 12 0.23 0.11
-7 3 13 59.41 1.15
-7 3 14 5.81 0.21
-7 3 15 41.64 0.78
-7 3 16 2.03 0.16
-7 3 17 0.36 0.13
-7 3 18 0.4 0.16
-7 4 1 0.05 0.08
-7 4 2 10.87 0.26
-7 4 3 0.27 0.12
-7 4 4 1.43 0.16
-7 4 5 6.89 0.22
-7 4 6 17.33 0.47
-7 4 7 39.15 0.87
-7 4 8 2.64 0.12
-7 4 9 20.62 0.38
-7 4 10 44.88 0.64
-7 4 11 2.53 0.21
-7 4 12 5.34 0.24
-7 4 13 4.87 0.23
-7 4 14 58.31 0.82
-7 4 15 0.18 0.13
-7 4 16 0.58 0.14
-7 4 17 7.65 0.24
-7 4 18 10.95 0.27
-7 5 1 80.91 1.04
-7 5 2 0.26 0.1
-7 5 3 29.27 0.56
-7 5 4 0.24 0.12
-7 5 5 0.75 0.14
-7 5 6 16.39 0.34
-7 5 7 9.52 0.33
-7 5 8 17.2 0.53
-7 5 9 -0.02 0.24
-7 5 10 -0.03 0.25
-7 5 11 12.43 0.31
-7 5 12 5 0.23
-7 5 13 25.86 0.45
-7 5 14 26.06 0.53
-7 5 15 0.47 0.14
-7 5 16 8.45 0.26
-7 5 17 0.45 0.13
-7 5 18 9.68 0.26
-7 6 1 4.11 0.21
-7 6 2 6.81 0.24
-7 6 3 10.36 0.28
-7 6 4 36.04 0.95
-7 6 5 0.42 0.13
-7 6 6 3.29 0.2
-7 6 7 14.43 0.32
-7 6 8 7.27 0.25
-7 6 9 0.04 0.13
-7 6 10 16.52 0.85
-7 6 11 3.65 0.21
-7 6 12 6.12 0.23
-7 6 13 3.89 0.21
-7 6 14 0.21 0.13
-7 6 15 4.3 0.22
-7 6 16 0.13 0.13
-7 6 17 2.94 0.18
-7 7 1 126.84 1.63
-7 7 2 244.45 2.97
-7 7 3 83.19 1.38
-7 7 4 3.41 0.2
-7 7 5 26.13 0.61
-7 7 6 36.57 0.97
-7 7 7 0.78 0.15
-7 7 8 13.5 0.31
-7 7 9 1.96 0.23
-7 7 10 3.93 0.22
-7 7 11 38.41 0.58
-7 7 12 -0.08 0.21
-7 7 13 15.29 0.33
-7 7 14 2.53 0.17
-7 7 15 -0.02 0.22
-7 7 16 2.11 0.16
-7 7 17 -0.08 0.21
-7 8 1 56.61 1.05
-7 8 2 3.09 0.16
-7 8 3 0.28 0.11
-7 8 4 2.35 0.17
-7 8 5 4.91 0.23
-7 8 6 8.79 0.34
-7 8 7 32.07 0.63
-7 8 8 154.37 7.98
-7 8 9 0.5 0.17
-7 8 10 14.03 0.39
-7 8 11 8.46 0.25
-7 8 12 3.27 0.21
-7 8 13 2.78 0.18
-7 8 14 0.73 0.14
-7 8 15 45.08 0.65
-7 8 16 2.48 0.16
-7 8 17 22.17 0.67
-7 9 1 13.3 0.32
-7 9 2 46.74 0.67
-7 9 3 0.29 0.14
-7 9 4 10.73 0.45
-7 9 5 72.6 1.28
-7 9 6 31.95 0.59
-7 9 7 24.52 2.82
-7 9 8 48.51 1.49
-7 9 9 7.69 0.31
-7 9 10 30.96 0.59
-7 9 11 6.27 0.23
-7 9 12 18.14 0.35
-7 9 13 3.05 0.18
-7 9 14 18.22 0.35
-7 9 15 10.97 0.27
-7 9 16 11.35 0.27
-7 10 1 1.28 0.16
-7 10 2 7.87 0.28
-7 10 3 2.7 0.18
-7 10 4 4.11 0.51
-7 10 5 2.48 0.35
-7 10 6 2.45 0.36
-7 10 8 11.5 0.58
-7 10 9 3.43 0.38
-7 10 10 2.08 0.35
-7 10 11 0.86 0.33
-7 10 12 2.09 0.2
-7 10 13 -0.05 0.26
-7 10 14 0.31 0.23
-7 10 15 0.18 0.15
-7 11 1 23.03 0.92
-7 11 2 0.42 0.18
-7 11 3 3.28 0.25
-7 11 4 -0.12 0.29
-7 11 5 -0.12 0.29
-7 11 6 18.69 0.68
-7 11 7 0.07 0.3
-7 11 8 9.27 0.56
-7 11 9 1.45 0.34
-7 11 10 0.5 0.32
-7 11 11 0.44 0.31
-7 11 12 10.58 0.56
-7 11 13 4.44 0.28
-7 11 14 0.29 0.17
-7 11 15 0.77 0.3
-7 12 1 1.95 0.24
-7 12 2 0 0.17
-7 12 3 6.98 0.49
-7 12 4 0.15 0.29
-7 12 5 20.58 0.69
-7 12 6 14.03 0.61
-7 12 7 91.62 1.97
-7 12 8 0.68 0.32
-7 12 9 15.2 0.62
-7 12 10 -0.15 0.29
-7 12 11 0.05 0.29
-7 12 12 0.96 0.32
-7 12 13 3.17 0.37
-7 12 14 10.53 0.32
-7 13 1 5.08 0.28
-7 13 2 0.16 0.17
-7 13 3 12.21 0.46
-7 13 4 8.63 0.33
-7 13 5 30.45 0.84
-7 13 6 64.67 1.44
-7 13 7 -0.04 0.29
-7 13 8 1.66 0.35
-7 13 9 0.05 0.3
-7 13 10 24.22 0.73
-7 13 11 7.21 0.49
-7 13 12 30.6 0.8
-7 13 13 25.75 0.72
-7 14 1 8.88 0.33
-7 14 2 -0.03 0.24
-7 14 3 0.79 0.19
-7 14 4 6.61 0.3
-7 14 5 10.3 0.55
-7 14 6 7.71 0.51
-7 14 7 3.19 0.38
-7 14 8 0.28 0.3
-7 14 9 0.07 0.29
-7 14 10 0.15 0.29
-7 14 11 24.75 0.72
-7 14 12 15.47 0.59
-7 15 1 6.03 0.3
-7 15 2 27.64 0.56
-7 15 3 0.96 0.19
-7 15 4 1.51 0.2
-7 15 5 0.46 0.29
-7 15 6 0.5 0.29
-7 15 7 3.42 0.43
-7 15 8 0.25 0.29
-7 15 9 12.1 0.55
-7 15 10 18.32 0.63
-7 16 1 0.25 0.17
-7 16 2 1.91 0.39
-7 16 3 2.07 0.21
-7 16 4 0.21 0.17
-7 16 5 5.4 0.46
-7 16 6 3.22 0.36
-7 16 7 1.03 0.31
-7 16 8 0.04 0.28
-7 16 9 7.71 0.49
-7 17 1 1.41 0.27
-7 17 2 7.73 0.31
-7 17 3 10.89 0.35
-7 17 4 34.55 0.64
-7 17 5 2.72 0.34
-7 17 6 1.45 0.32
-7 17 7 2.8 0.35
-7 18 1 9.35 0.32
-7 18 2 13.36 0.55
-6 0 2 29.37 0.86
-6 0 4 0.21 0.13
-6 0 6 8.58 0.24
-6 0 8 76.57 0.94
-6 0 10 0.4 0.11
-6 0 12 8.93 0.29
-6 0 14 0.98 0.14
-6 0 16 4.86 0.26
-6 0 18 6.74 0.28
-6 0 20 91.13 3.35
-6 1 1 112.4 1.76
-6 1 2 7.15 0.22
-6 1 3 1.85 0.13
-6 1 4 55.6 0.83
-6 1 5 63.44 0.66
-6 1 6 13.75 0.22
-6 1 7 7.69 0.17
-6 1 8 27.01 0.33
-6 1 9 2.62 0.11
-6 1 10 1.26 0.09
-6 1 11 62.03 0.84
-6 1 12 15.23 0.24
-6 1 13 2.52 0.12
-6 1 14 97.44 1.77
-6 1 15 -0.06 0.2
-6 1 16 0.03 0.1
-6 1 17 26.04 0.39
-6 1 18 13.01 0.27
-6 1 19 4.01 0.17
-6 1 20 18 0.43
-6 2 1 89.69 0.94
-6 2 2 0.26 0.09
-6 2 3 2.71 0.16
-6 2 4 0.11 0.08
-6 2 5 121.26 1.82
-6 2 6 203.23 2.1
-6 2 7 5.46 0.15
-6 2 8 42.58 0.47
-6 2 9 4.43 0.14
-6 2 10 2.26 0.11
-6 2 11 6.51 0.16
-6 2 12 20.54 0.4
-6 2 13 19.81 0.28
-6 2 14 3.03 0.16
-6 2 15 40.31 0.54
-6 2 16 14.01 0.34
-6 2 17 2.56 0.14
-6 2 18 1.26 0.13
-6 2 19 1.08 0.12
-6 2 20 0.98 0.12
-6 3 1 504.83 6.08
-6 3 2 82.61 0.98
-6 3 3 21.55 0.32
-6 3 4 219.33 2.73
-6 3 5 40.24 0.66
-6 3 6 26.55 0.44
-6 3 7 1.5 0.09
-6 3 8 0.14 0.08
-6 3 9 38.43 0.5
-6 3 10 18.64 0.34
-6 3 11 30.96 0.45
-6 3 12 43.48 0.61
-6 3 13 24.07 0.32
-6 3 14 18.29 0.46
-6 3 15 -0.01 0.21
-6 3 16 0.63 0.12
-6 3 17 -0.08 0.21
-6 3 18 10.88 0.28
-6 3 19 0.64 0.13
-6 3 20 3.84 0.2
-6 4 1 3.22 0.15
-6 4 2 49.53 0.66
-6 4 3 7.86 0.18
-6 4 4 1.45 0.11
-6 4 5 3.64 0.16
-6 4 6 12.7 0.33
-6 4 7 32.54 0.44
-6 4 8 13.13 0.22
-6 4 9 10.18 0.19
-6 4 10 38.17 0.52
-6 4 11 66.15 1.11
-6 4 12 34.35 0.45
-6 4 13 41.96 0.63
-6 4 14 24.52 0.6
-6 4 15 3.34 0.21
-6 4 16 -0.03 0.22
-6 4 17 15.59 0.34
-6 4 18 2.07 0.16
-6 4 19 0.25 0.13
-6 4 20 1.09 0.16
-6 5 1 14.5 0.26
-6 5 2 43.69 0.61
-6 5 3 16.38 0.26
-6 5 4 5.29 0.2
-6 5 5 3.58 0.18
-6 5 6 57.36 0.68
-6 5 7 13.57 0.25
-6 5 8 7.96 0.2
-6 5 9 2.58 0.13
-6 5 10 84.05 1.03
-6 5 11 39.66 0.68
-6 5 12 186.34 2.5
-6 5 13 22.12 0.34
-6 5 14 12.03 0.42
-6 5 15 26.65 0.46
-6 5 16 10.96 0.29
-6 5 17 9.63 0.27
-6 5 18 0.27 0.13
-6 5 19 0.27 0.13
-6 6 1 5.64 0.16
-6 6 2 0.1 0.09
-6 6 3 0.78 0.1
-6 6 4 12.01 0.28
-6 6 5 -0.06 0.22
-6 6 6 0.15 0.12
-6 6 7 0.03 0.11
-6 6 8 56.88 0.97
-6 6 9 45.52 0.56
-6 6 10 47.06 0.74
-6 6 11 22.58 0.4
-6 6 12 6.28 0.23
-6 6 13 11.49 0.71
-6 6 14 26.3 0.45
-6 6 15 0.8 0.14
-6 6 16 73.57 1.72
-6 6 17 0.97 0.15
-6 6 18 -0.08 0.21
-6 6 19 19.34 0.36
-6 7 1 1.33 0.1
-6 7 2 123.02 1.61
-6 7 3 0.62 0.11
-6 7 4 43.33 0.82
-6 7 5 11.41 0.28
-6 7 6 8.72 0.25
-6 7 7 17.59 0.34
-6 7 8 29.35 0.39
-6 7 9 129.53 1.65
-6 7 10 60.65 0.88
-6 7 11 63.57 0.98
-6 7 12 6.12 0.19
-6 7 13 48.02 0.81
-6 7 14 29.11 0.57
-6 7 15 12.76 0.32
-6 7 16 7.96 0.26
-6 7 17 2.49 0.17
-6 7 18 7.51 0.24
-6 7 19 16.86 0.44
-6 8 1 29.62 0.41
-6 8 2 119.13 1.38
-6 8 3 1.11 0.12
-6 8 4 153.86 3.18
-6 8 5 61.41 1.32
-6 8 6 14.99 0.32
-6 8 7 1.11 0.14
-6 8 8 80.14 1.34
-6 8 9 14.8 0.26
-6 8 10 0.19 0.1
-6 8 11 3.49 0.16
-6 8 12 4.92 0.76
-6 8 13 0.22 0.13
-6 8 14 0.04 0.13
-6 8 15 3.38 0.2
-6 8 16 6.07 0.23
-6 8 17 0.46 0.13
-6 8 18 8.74 0.48
-6 9 1 40.22 0.55
-6 9 2 195.48 2.53
-6 9 3 125.76 1.59
-6 9 4 214.97 2.85
-6 9 5 22.19 0.56
-6 9 6 13.65 0.46
-6 9 7 23.55 0.58
-6 9 8 0.17 0.24
-6 9 9 4.53 0.2
-6 9 10 24.48 0.5
-6 9 11 4.39 0.25
-6 9 12 14.18 0.49
-6 9 13 13.22 0.42
-6 9 14 -0.05 0.21
-6 9 15 8.88 0.26
-6 9 16 -0.02 0.22
-6 9 17 2.6 0.17
-6 9 18 3.68 0.23
-6 10 1 4.56 0.23
-6 10 2 2.91 0.19
-6 10 3 75.59 1.25
-6 10 4 13.7 0.32
-6 10 5 3.21 0.28
-6 10 6 2.91 0.27
-6 10 7 5.8 0.36
-6 10 8 15.28 0.48
-6 10 9 68.79 2.74
-6 10 10 1.18 0.16
-6 10 11 7.95 0.74
-6 10 12 0.33 0.17
-6 10 13 2.16 0.21
-6 10 14 0.06 0.13
-6 10 15 1.71 0.15
-6 10 16 5.42 0.27
-6 10 17 6.1 0.54
-6 11 1 15.03 0.33
-6 11 2 11.55 0.3
-6 11 3 3.71 0.21
-6 11 4 9.98 0.29
-6 11 5 17.32 0.51
-6 11 6 32.74 0.71
-6 11 7 14.55 0.48
-6 11 8 29.93 0.92
-6 11 9 3.71 0.46
-6 11 10 -0.08 0.28
-6 11 11 37.38 1.91
-6 11 12 6.17 0.29
-6 11 13 1.19 0.19
-6 11 14 4.15 0.48
-6 11 15 1.47 0.19
-6 11 16 32.34 0.79
-6 11 17 1.74 0.3
-6 12 1 0.25 0.14
-6 12 2 1.02 0.15
-6 12 3 15.37 0.34
-6 12 4 2.28 0.18
-6 12 5 10.03 0.42
-6 12 6 20.39 0.7
-6 12 7 4.69 1.14
-6 12 8 0.18 0.28
-6 12 9 0.34 0.29
-6 12 10 0.33 0.3
-6 12 11 1.54 0.19
-6 12 12 0.29 0.16
-6 12 13 0.06 0.16
-6 12 14 0.81 0.17
-6 12 15 5.58 0.32
-6 12 16 1.96 0.3
-6 13 1 4.96 0.23
-6 13 2 0.19 0.14
-6 13 3 56.06 0.9
-6 13 4 1.3 0.2
-6 13 5 1.53 0.32
-6 13 6 0.19 0.29
-6 13 7 -0.04 0.28
-6 13 8 24.44 0.73
-6 13 9 5.77 0.47
-6 13 10 1.7 0.33
-6 13 11 28.66 0.78
-6 13 12 6.57 0.28
-6 13 13 0.16 0.15
-6 13 14 9.28 0.31
-6 13 15 1.42 0.28
-6 14 1 10.7 0.52
-6 14 2 3.52 0.22
-6 14 3 6.73 0.25
-6 14 4 1.22 0.16
-6 14 5 22.95 0.5
-6 14 6 2.55 0.35
-6 14 7 12.11 0.57
-6 14 8 71.35 1.54
-6 14 9 32.65 0.85
-6 14 10 7.33 0.49
-6 14 11 0.22 0.29
-6 14 12 20.08 0.65
-6 14 13 0.03 0.15
-6 14 14 -0.2 0.2
-6 15 1 25.95 0.85
-6 15 2 13.17 0.32
-6 15 3 3.91 0.22
-6 15 4 3.44 0.2
-6 15 5 0.87 0.15
-6 15 6 1.15 0.19
-6 15 7 42.25 2.22
-6 15 8 16.78 1.36
-6 15 9 1.79 0.34
-6 15 10 -0.19 0.28
-6 15 11 10.1 0.52
-6 15 12 0.51 0.29
-6 15 13 13.4 0.35
-6 16 1 3.43 0.2
-6 16 2 0.13 0.14
-6 16 3 2.94 0.19
-6 16 4 0.49 0.14
-6 16 5 17.18 0.36
-6 16 6 3.38 0.25
-6 16 7 10.54 0.59
-6 16 8 0.14 0.17
-6 16 9 0.7 0.18
-6 16 10 0.7 0.18
-6 16 11 0.96 0.29
-6 16 12 -0.09 0.27
-6 17 1 -0.09 0.23
-6 17 2 0.92 0.15
-6 17 3 -0.15 0.23
-6 17 4 3.55 0.22
-6 17 5 10.99 0.29
-6 17 6 3.74 0.27
-6 17 7 0.44 0.18
-6 17 8 10.35 0.36
-6 17 9 0.07 0.25
-6 17 10 5.99 0.29
-6 18 1 1.2 0.16
-6 18 2 0.17 0.14
-6 18 3 0.72 0.15
-6 18 4 0.93 0.15
-6 18 5 0.84 0.18
-6 18 6 58.62 2.88
-6 18 7 6.5 0.31
-6 18 8 29.12 0.92
-6 19 1 -0.16 0.22
-6 19 2 -0.15 0.22
-6 19 3 -0.06 0.25
-6 19 4 34.24 0.53
-6 19 5 15.06 0.33
-6 19 6 11.22 0.53
-5 0 2 727.64 10.28
-5 0 4 136.12 1.74
-5 0 6 140.47 1.94
-5 0 8 290.06 3.5
-5 0 10 35.39 0.8
-5 0 12 6.53 0.22
-5 0 14 10.75 0.27
-5 0 16 166.71 2.6
-5 0 18 18.68 0.43
-5 0 20 29.81 0.57
-5 1 1 60.83 0.85
-5 1 2 791.97 9.08
-5 1 3 288.22 2.91
-5 1 4 144.52 1.5
-5 1 5 172.56 1.79
-5 1 6 4.97 0.2
-5 1 7 0.21 0.1
-5 1 8 18.01 0.27
-5 1 9 5.06 0.14
-5 1 10 97.99 0.96
-5 1 11 3.6 0.13
-5 1 12 28.03 0.34
-5 1 13 -0.01 0.21
-5 1 14 2.79 0.12
-5 1 15 20.69 0.29
-5 1 16 6.81 0.19
-5 1 17 8.42 0.22
-5 1 18 1.43 0.13
-5 1 19 17.04 0.3
-5 1 20 2.08 0.16
-5 1 21 1.19 0.15
-5 2 1 142.14 1.53
-5 2 2 2.03 0.13
-5 2 3 108.07 1.08
-5 2 4 145.84 1.52
-5 2 5 5.76 0.19
-5 2 6 1.94 0.13
-5 2 7 32.89 0.5
-5 2 8 2.07 0.11
-5 2 9 35.41 0.47
-5 2 10 0.47 0.08
-5 2 11 0.46 0.08
-5 2 12 0.94 0.09
-5 2 13 5.56 0.17
-5 2 14 35.38 0.41
-5 2 15 1.14 0.1
-5 2 16 2.06 0.14
-5 2 17 8.58 0.22
-5 2 18 5.42 0.19
-5 2 19 13.43 0.27
-5 2 20 2.49 0.16
-5 2 21 18.09 0.53
-5 3 1 38.39 0.51
-5 3 2 0.01 0.08
-5 3 3 52.53 0.62
-5 3 4 5.16 0.18
-5 3 5 2.23 0.13
-5 3 6 2.31 0.14
-5 3 7 90.06 1.13
-5 3 8 0.05 0.07
-5 3 9 46.2 0.52
-5 3 10 0.64 0.08
-5 3 11 10.4 0.19
-5 3 12 66.59 0.77
-5 3 13 16.93 0.25
-5 3 14 1.66 0.1
-5 3 15 51.81 0.57
-5 3 16 12 0.35
-5 3 17 0.07 0.1
-5 3 18 4.69 0.18
-5 3 19 0.14 0.15
-5 3 20 0.3 0.15
-5 3 21 0.02 0.14
-5 4 1 22.05 0.34
-5 4 2 0.38 0.09
-5 4 3 0.44 0.11
-5 4 4 7.02 0.2
-5 4 5 1.22 0.11
-5 4 6 23.59 0.38
-5 4 7 214.22 2.32
-5 4 8 148.75 1.5
-5 4 9 11.15 0.22
-5 4 10 24.46 0.36
-5 4 11 111.59 1.16
-5 4 12 1.37 0.11
-5 4 13 25.73 0.37
-5 4 14 36.46 0.55
-5 4 15 0.76 0.11
-5 4 16 30.78 0.79
-5 4 17 20.25 0.38
-5 4 18 13.96 0.31
-5 4 19 4.43 0.25
-5 4 20 0.38 0.15
-5 4 21 4.05 0.27
-5 5 1 7.58 0.19
-5 5 2 154.69 1.76
-5 5 3 0.52 0.1
-5 5 4 50.26 0.64
-5 5 5 68.54 0.8
-5 5 6 109.57 1.16
-5 5 7 35.76 0.43
-5 5 8 1.9 0.11
-5 5 9 8.92 0.21
-5 5 10 25.69 0.42
-5 5 11 82.53 0.91
-5 5 12 66.44 0.83
-5 5 13 269.23 3.29
-5 5 14 19.48 0.31
-5 5 15 80.7 0.99
-5 5 16 11.34 0.35
-5 5 17 1.74 0.16
-5 5 18 4.5 0.26
-5 5 19 3.25 0.23
-5 5 20 11.69 0.33
-5 5 21 6.42 0.26
-5 6 1 46.81 0.71
-5 6 2 -0.03 0.27
-5 6 3 0.56 0.13
-5 6 4 26.83 0.48
-5 6 5 59.37 0.89
-5 6 6 17.67 0.27
-5 6 7 7.19 0.18
-5 6 8 38.24 0.46
-5 6 9 72.01 0.97
-5 6 10 143.29 1.63
-5 6 11 22.45 0.45
-5 6 12 161.52 1.97
-5 6 13 3.63 0.16
-5 6 14 0.38 0.1
-5 6 15 79.54 2.4
-5 6 16 5 0.23
-5 6 17 5.98 0.24
-5 6 18 10.6 0.34
-5 6 19 3.01 0.22
-5 6 20 8.93 0.3
-5 6 21 3.71 0.35
-5 7 1 16.72 0.32
-5 7 2 3.84 0.18
-5 7 3 151.77 2.54
-5 7 4 10.73 0.28
-5 7 5 55.8 0.94
-5 7 6 2.16 0.14
-5 7 7 13.67 0.24
-5 7 8 0.98 0.1
-5 7 9 12.8 0.24
-5 7 10 8.95 0.28
-5 7 11 6.43 0.19
-5 7 12 22.53 0.41
-5 7 13 54.92 0.84
-5 7 14 86.06 1.19
-5 7 15 28.1 0.74
-5 7 16 -0.15 0.21
-5 7 17 9.07 0.31
-5 7 18 10.32 0.33
-5 7 19 10.91 0.33
-5 7 20 2.38 0.19
-5 8 1 0.25 0.1
-5 8 2 0.77 0.11
-5 8 3 9.74 0.24
-5 8 4 80.96 1.25
-5 8 5 15.27 0.39
-5 8 6 38.73 0.76
-5 8 7 4.3 0.16
-5 8 8 4.44 0.17
-5 8 9 8.13 0.2
-5 8 10 3.44 0.15
-5 8 11 59.26 0.78
-5 8 12 0.86 0.11
-5 8 13 0.06 0.1
-5 8 14 1.38 0.13
-5 8 15 0.7 0.14
-5 8 16 9.01 0.26
-5 8 17 13.38 0.37
-5 8 18 18.66 0.43
-5 8 19 11.16 0.55
-5 8 20 28.01 0.56
-5 9 1 0.83 0.1
-5 9 2 4.48 0.22
-5 9 3 78.86 0.99
-5 9 4 43.54 0.61
-5 9 5 85.38 14.9
-5 9 6 11.8 0.41
-5 9 7 0.02 0.11
-5 9 8 0.07 0.12
-5 9 9 1.79 0.12
-5 9 10 60.65 0.84
-5 9 11 4.75 0.17
-5 9 12 24.05 0.43
-5 9 13 9.79 0.24
-5 9 14 15.62 0.33
-5 9 15 0.53 0.14
-5 9 16 20.45 0.5
-5 9 17 14.14 0.37
-5 9 18 0.43 0.16
-5 9 19 0.1 0.15
-5 10 1 -0.04 0.22
-5 10 2 1.04 0.11
-5 10 3 104.54 1.56
-5 10 4 63.16 0.76
-5 10 5 113.51 1.38
-5 10 6 281.97 4.33
-5 10 7 10.49 0.46
-5 10 8 47.51 1
-5 10 9 5.18 0.22
-5 10 10 29.54 0.49
-5 10 11 0.66 0.13
-5 10 12 0.69 0.14
-5 10 13 0.32 0.17
-5 10 14 0.23 0.13
-5 10 15 9.16 0.26
-5 10 16 2.28 0.21
-5 10 17 9.22 0.31
-5 10 18 16.33 0.4
-5 10 19 10.28 0.32
-5 11 1 42.13 0.63
-5 11 2 4.48 0.19
-5 11 3 1.32 0.12
-5 11 4 175.27 2.41
-5 11 5 72.84 1.26
-5 11 6 137.91 2.67
-5 11 7 6.84 0.25
-5 11 8 0.4 0.1
-5 11 9 40.96 0.89
-5 11 10 -0.04 0.23
-5 11 11 2.15 0.14
-5 11 12 2.93 0.31
-5 11 13 69.35 0.95
-5 11 14 0.05 0.14
-5 11 15 8.85 0.48
-5 11 16 6.33 0.44
-5 11 17 0.02 0.24
-5 11 18 0.11 0.25
-5 12 1 23.4 0.4
-5 12 2 35.97 0.77
-5 12 3 7.77 0.22
-5 12 4 12.97 0.26
-5 12 5 22.62 0.42
-5 12 6 77.99 1.49
-5 12 7 5.46 0.23
-5 12 8 4 0.21
-5 12 9 43.13 0.7
-5 12 10 2.48 0.14
-5 12 11 25.04 0.71
-5 12 12 5.97 0.45
-5 12 13 18.55 0.53
-5 12 14 7.61 0.3
-5 12 15 4.24 0.27
-5 12 16 0.16 0.24
-5 12 17 2.34 0.31
-5 12 18 10.83 0.5
-5 13 1 24.47 0.51
-5 13 2 52.83 0.96
-5 13 3 3.68 0.17
-5 13 4 1.63 0.13
-5 13 5 0.57 0.11
-5 13 6 7 0.25
-5 13 7 4.25 0.22
-5 13 8 44.22 1.21
-5 13 9 -0.05 0.22
-5 13 10 1.64 0.15
-5 13 11 1.05 0.15
-5 13 12 8.4 0.31
-5 13 13 0.3 0.13
-5 13 14 0.11 0.24
-5 13 15 0.03 0.2
-5 13 16 0.08 0.15
-5 13 17 2.61 0.32
-5 14 1 0.66 0.1
-5 14 2 4.3 0.18
-5 14 3 0.23 0.11
-5 14 4 0.2 0.11
-5 14 5 4.21 0.18
-5 14 6 16.96 0.4
-5 14 7 5.1 0.31
-5 14 8 4.04 0.43
-5 14 9 8.92 0.5
-5 14 10 1.1 0.15
-5 14 11 6.18 0.26
-5 14 12 2.73 0.17
-5 14 13 -0.02 0.21
-5 14 14 3.13 0.22
-5 14 15 -0.07 0.23
-5 14 16 11.97 0.62
-5 15 1 3.4 0.15
-5 15 2 22.23 0.59
-5 15 3 7.8 0.21
-5 15 4 4.82 0.21
-5 15 5 14.67 0.62
-5 15 6 0.18 0.23
-5 15 7 2.66 0.22
-5 15 8 3.91 0.34
-5 15 9 18.65 1.37
-5 15 10 2.25 0.22
-5 15 11 19.43 0.52
-5 15 12 22.09 0.96
-5 15 13 2.03 0.19
-5 15 14 4.11 0.25
-5 15 15 2.95 0.36
-5 16 1 2.82 0.21
-5 16 2 13.25 0.45
-5 16 3 2.55 0.18
-5 16 4 19.18 0.42
-5 16 5 6.13 0.25
-5 16 6 2.98 0.19
-5 16 7 5.71 0.3
-5 16 8 34.1 2.32
-5 16 9 142.71 9.1
-5 16 10 31.4 1.73
-5 16 11 22.09 0.52
-5 16 12 2.81 0.22
-5 16 13 12.88 0.55
-5 16 14 13.53 0.36
-5 17 1 19.58 0.72
-5 17 2 13.17 0.62
-5 17 3 3.91 0.23
-5 17 4 9.38 0.28
-5 17 5 -0.19 0.34
-5 17 6 9.38 0.28
-5 17 7 1.59 0.27
-5 17 8 27.3 0.79
-5 17 9 5.83 0.32
-5 17 10 34.51 0.94
-5 17 11 16.39 0.63
-5 17 12 7.41 0.54
-5 17 13 -0.06 0.2
-5 18 1 11.37 0.61
-5 18 2 0.62 0.15
-5 18 3 4.45 0.23
-5 18 4 0.08 0.14
-5 18 5 -0.12 0.23
-5 18 6 0.29 0.15
-5 18 7 30.3 1.05
-5 18 8 0.39 0.18
-5 18 9 0.39 0.17
-5 18 10 6.28 0.47
-5 18 11 -0.17 0.25
-5 19 1 4.48 0.29
-5 19 2 33.96 1.19
-5 19 3 0.73 0.15
-5 19 4 -0.05 0.23
-5 19 5 0.54 0.15
-5 19 6 1.09 0.19
-5 19 7 1.43 0.3
-5 19 8 0.84 0.18
-5 19 9 0.36 0.16
-5 19 10 0.09 0.26
-5 20 1 61.78 1.12
-5 20 2 1.38 0.16
-5 20 3 -0.04 0.23
-5 20 4 0.33 0.14
-5 20 5 2.36 0.17
-5 20 6 0.19 0.14
-5 20 7 29.41 2
-5 21 1 0.33 0.13
-5 21 2 2.41 0.17
-5 21 3 -0.2 0.26
-5 21 4 1.87 0.32
-4 0 2 887.91 11.68
-4 0 4 521.18 7.63
-4 0 6 831.16 13.52
-4 0 8 121.12 2.37
-4 0 10 -0.02 0.26
-4 0 12 8.42 0.23
-4 0 14 20.02 0.36
-4 0 16 22.31 0.39
-4 0 18 -0.01 0.2
-4 0 20 7.03 0.42
-4 0 22 6.83 0.41
-4 1 1 2.07 0.1
-4 1 2 7.4 0.16
-4 1 3 38.04 0.43
-4 1 4 1478.13 22.33
-4 1 5 418.31 4.24
-4 1 6 32.92 0.53
-4 1 7 9 0.21
-4 1 8 88.17 1.38
-4 1 9 0.2 0.09
-4 1 10 0.92 0.08
-4 1 11 127.56 1.34
-4 1 12 13.71 0.22
-4 1 13 64.74 0.66
-4 1 14 2.3 0.11
-4 1 15 0.11 0.07
-4 1 16 12.56 0.22
-4 1 17 14.4 0.23
-4 1 18 4.85 0.26
-4 1 19 13.53 0.31
-4 1 20 10.55 0.58
-4 1 21 0.15 0.14
-4 1 22 0.72 0.14
-4 2 1 51.8 0.63
-4 2 2 19.13 0.35
-4 2 3 206.53 2.09
-4 2 4 23.05 0.35
-4 2 5 28.28 0.4
-4 2 6 56.95 0.76
-4 2 7 27.45 0.52
-4 2 8 75.57 1.07
-4 2 9 5.08 0.18
-4 2 10 169.82 1.81
-4 2 11 22.68 0.3
-4 2 12 22.46 0.29
-4 2 13 13.03 0.22
-4 2 14 6.6 0.16
-4 2 15 18.98 0.29
-4 2 16 13.13 0.22
-4 2 17 95.23 0.99
-4 2 18 33.12 0.52
-4 2 19 0.25 0.12
-4 2 20 13.32 0.36
-4 2 21 1.76 0.17
-4 2 22 16.1 0.38
-4 3 1 136.31 1.3
-4 3 2 7.04 0.15
-4 3 3 169.68 1.82
-4 3 4 27.16 0.34
-4 3 5 25.18 0.37
-4 3 6 65.05 0.85
-4 3 7 41.72 0.67
-4 3 8 0.13 0.09
-4 3 9 0.81 0.1
-4 3 10 0.36 0.07
-4 3 11 4.89 0.14
-4 3 12 3.04 0.13
-4 3 13 235.65 2.46
-4 3 14 119.57 1.26
-4 3 15 17.25 0.27
-4 3 16 11.78 0.21
-4 3 17 3.31 0.16
-4 3 18 39.77 0.74
-4 3 19 0.09 0.12
-4 3 20 9.75 0.32
-4 3 21 26.9 0.73
-4 3 22 0.74 0.25
-4 4 1 1.88 0.13
-4 4 2 14.36 0.21
-4 4 3 63.03 0.76
-4 4 4 12.31 0.21
-4 4 5 8.78 0.2
-4 4 6 6.72 0.19
-4 4 7 65.12 0.89
-4 4 8 25.27 0.45
-4 4 9 36.18 0.55
-4 4 10 2.25 0.11
-4 4 11 128.25 1.55
-4 4 12 61.79 0.67
-4 4 13 11.72 0.22
-4 4 14 90.74 1
-4 4 15 1.89 0.12
-4 4 16 33.63 0.44
-4 4 17 2.89 0.27
-4 4 18 34.24 0.63
-4 4 19 2.02 0.2
-4 4 20 2.17 0.19
-4 4 21 2.02 0.3
-4 4 22 1.55 0.28
-4 5 1 290.05 3.24
-4 5 2 0.09 0.06
-4 5 3 54.92 0.63
-4 5 4 32.23 0.38
-4 5 5 12.45 0.23
-4 5 6 134.67 1.84
-4 5 7 16.56 0.29
-4 5 8 1.29 0.14
-4 5 9 35.64 0.53
-4 5 10 110.1 1.16
-4 5 11 46.71 0.56
-4 5 12 50.38 0.7
-4 5 13 53.5 0.73
-4 5 14 26.89 0.37
-4 5 15 4.74 0.17
-4 5 16 10.58 0.27
-4 5 17 5.53 0.27
-4 5 18 7.88 0.3
-4 5 19 0.01 0.17
-4 5 20 0.42 0.16
-4 5 21 2.93 0.21
-4 5 22 3.18 0.35
-4 6 1 88.45 1.08
-4 6 2 1.77 0.11
-4 6 3 36.79 0.44
-4 6 4 7.58 0.17
-4 6 5 9.99 0.21
-4 6 6 242.1 2.76
-4 6 7 92.77 1.21
-4 6 8 61.69 0.82
-4 6 9 244.25 2.76
-4 6 10 42.62 0.53
-4 6 11 0.01 0.08
-4 6 12 40.55 0.53
-4 6 13 0.1 0.09
-4 6 14 8.82 0.21
-4 6 15 42.92 0.56
-4 6 16 28.83 0.47
-4 6 17 14.13 0.65
-4 6 18 20.14 0.5
-4 6 19 3.18 0.24
-4 6 20 0.37 0.15
-4 6 21 2.12 0.19
-4 6 22 8.19 0.44
-4 7 1 0.77 0.09
-4 7 2 23.21 0.32
-4 7 3 192.2 2.13
-4 7 4 3.78 0.15
-4 7 5 23.79 0.38
-4 7 6 17.42 0.29
-4 7 7 0.13 0.09
-4 7 8 75.2 0.78
-4 7 9 13.63 0.25
-4 7 10 7.34 0.2
-4 7 11 3.21 0.12
-4 7 12 12.98 0.25
-4 7 13 42.76 0.68
-4 7 14 112.61 1.64
-4 7 15 53.55 0.75
-4 7 16 65 0.9
-4 7 17 4.27 0.23
-4 7 18 10.27 0.35
-4 7 19 0.05 0.14
-4 7 20 0.45 0.15
-4 7 21 2.85 0.2
-4 8 1 1.46 0.17
-4 8 2 29.66 0.52
-4 8 3 14.45 0.28
-4 8 4 9.19 0.21
-4 8 5 13.07 0.24
-4 8 6 138.75 1.73
-4 8 7 6.5 0.21
-4 8 8 11.5 0.2
-4 8 9 80.37 1
-4 8 10 9.45 0.19
-4 8 11 -0.07 0.21
-4 8 12 40.23 0.6
-4 8 13 35.95 0.56
-4 8 14 33.05 0.58
-4 8 15 7.34 0.21
-4 8 16 98.6 1.58
-4 8 17 35.82 0.75
-4 8 18 0.58 0.18
-4 8 19 3.67 0.22
-4 8 20 31.91 0.59
-4 8 21 0.18 0.14
-4 9 1 9.52 0.24
-4 9 2 117.27 1.84
-4 9 3 31.26 0.5
-4 9 4 22.78 0.36
-4 9 5 2.07 0.12
-4 9 6 0.09 0.08
-4 9 7 64.37 0.84
-4 9 8 0.55 0.11
-4 9 9 6.35 0.17
-4 9 10 14.6 0.31
-4 9 11 17.86 0.33
-4 9 12 1.75 0.1
-4 9 13 2.5 0.11
-4 9 14 10.47 0.32
-4 9 15 1.27 0.13
-4 9 16 63.61 1.22
-4 9 17 1.49 0.19
-4 9 18 0.9 0.14
-4 9 19 0.58 0.13
-4 9 20 9.39 0.26
-4 10 1 49.97 0.85
-4 10 2 8.94 0.22
-4 10 3 18.77 0.33
-4 10 4 0.81 0.1
-4 10 5 8.74 0.19
-4 10 6 30.53 0.47
-4 10 7 1.24 0.11
-4 10 8 174.51 1.98
-4 10 9 0.22 0.09
-4 10 10 17.46 0.35
-4 10 11 0.09 0.1
-4 10 12 5.83 0.2
-4 10 13 24.51 0.72
-4 10 14 7.47 0.49
-4 10 15 26.72 0.53
-4 10 16 21.07 0.62
-4 10 17 -0.15 0.21
-4 10 18 1.23 0.15
-4 10 19 33.01 0.93
-4 10 20 7.41 0.23
-4 11 1 94.37 1.41
-4 11 2 520.21 8.09
-4 11 3 112.27 1.38
-4 11 4 29.23 0.4
-4 11 5 30.75 0.41
-4 11 6 261.41 3.15
-4 11 7 39.93 0.56
-4 11 8 26.63 0.51
-4 11 9 0.12 0.15
-4 11 10 16.95 0.39
-4 11 11 7.26 0.2
-4 11 12 0.28 0.11
-4 11 13 -0.09 0.23
-4 11 14 -0.04 0.21
-4 11 15 2.41 0.21
-4 11 16 1.21 0.19
-4 11 17 0.06 0.17
-4 11 18 4.6 0.45
-4 11 19 2.27 0.2
-4 12 1 36.08 0.65
-4 12 2 21.87 0.33
-4 12 3 23.78 0.46
-4 12 4 4.43 0.19
-4 12 5 63.65 0.96
-4 12 6 3.89 0.21
-4 12 7 249.73 2.9
-4 12 8 110.41 1.26
-4 12 9 83.13 1.54
-4 12 10 0.2 0.1
-4 12 11 33.43 0.83
-4 12 12 13.61 0.45
-4 12 13 5.94 0.28
-4 12 14 0.08 0.15
-4 12 15 0.76 0.17
-4 12 16 6.93 0.45
-4 12 17 12.59 0.41
-4 12 18 2.11 0.25
-4 12 19 3.28 0.38
-4 13 1 2.25 0.11
-4 13 2 0.7 0.11
-4 13 3 0.54 0.1
-4 13 4 13.63 0.34
-4 13 5 0.84 0.11
-4 13 6 122 1.69
-4 13 7 41.68 0.65
-4 13 8 27.15 0.38
-4 13 9 7.76 0.26
-4 13 10 19.28 0.42
-4 13 11 0.01 0.11
-4 13 12 11.7 0.36
-4 13 13 4.28 0.26
-4 13 14 47.95 0.81
-4 13 15 8.6 0.32
-4 13 16 0.41 0.17
-4 13 17 2.17 0.2
-4 13 18 0.05 0.16
-4 14 1 4.94 0.16
-4 14 2 10.32 0.33
-4 14 3 34.25 0.89
-4 14 4 15.06 0.28
-4 14 5 18.27 0.3
-4 14 6 8.7 0.22
-4 14 7 0 0.12
-4 14 8 1.51 0.12
-4 14 9 13.64 0.3
-4 14 10 156.27 2.11
-4 14 11 0.07 0.17
-4 14 12 5.27 0.28
-4 14 13 11.04 0.35
-4 14 14 11.75 0.74
-4 14 15 0.1 0.15
-4 14 16 3.31 0.24
-4 14 17 8.19 0.31
-4 15 1 7.41 0.18
-4 15 2 3.93 0.18
-4 15 3 21.86 0.34
-4 15 4 5.11 0.19
-4 15 5 0.21 0.11
-4 15 6 0.49 0.11
-4 15 7 0.56 0.14
-4 15 8 20.29 0.34
-4 15 9 9.94 0.65
-4 15 10 15.77 0.41
-4 15 11 85.74 2.78
-4 15 12 31.99 1.98
-4 15 13 16.93 0.42
-4 15 14 2.38 0.2
-4 15 15 11.73 0.35
-4 15 16 1.46 0.19
-4 15 17 3.06 0.22
-4 16 1 4.72 0.19
-4 16 2 18.45 0.33
-4 16 3 0.86 0.12
-4 16 4 6.45 0.21
-4 16 5 3.04 0.19
-4 16 6 0.81 0.12
-4 16 7 4.52 0.29
-4 16 8 29.39 1.32
-4 16 9 18.81 0.37
-4 16 10 0.02 0.15
-4 16 11 1.82 0.19
-4 16 12 2.82 0.33
-4 16 13 6.6 0.29
-4 16 14 0.03 0.15
-4 16 15 3.8 0.24
-4 16 16 0.22 0.15
-4 17 1 0.36 0.13
-4 17 2 0.08 0.13
-4 17 3 10.22 0.53
-4 17 4 51.77 0.86
-4 17 5 12.66 0.31
-4 17 6 3.34 0.3
-4 17 7 -0.19 0.23
-4 17 8 0.25 0.17
-4 17 9 0.02 0.26
-4 17 10 10.34 0.34
-4 17 11 7.75 0.3
-4 17 12 32.45 0.74
-4 17 13 14.09 0.38
-4 17 14 5.02 0.26
-4 18 1 8.09 0.33
-4 18 2 7.66 0.32
-4 18 3 29.06 0.77
-4 18 4 0.07 0.14
-4 18 5 0.54 0.15
-4 18 6 14.99 0.55
-4 18 7 2.97 0.18
-4 18 8 0.23 0.17
-4 18 9 11.24 0.57
-4 18 10 25.97 1.05
-4 18 11 20.29 0.68
-4 18 12 26.28 0.72
-4 18 13 2.44 0.19
-4 19 1 0.58 0.15
-4 19 2 3.59 0.22
-4 19 3 0.28 0.14
-4 19 4 0.18 0.14
-4 19 5 2.21 0.17
-4 19 6 8.23 0.27
-4 19 7 0.07 0.14
-4 19 8 2.09 0.34
-4 19 9 4.88 0.47
-4 19 10 4.95 0.44
-4 19 11 12.55 0.34
-4 19 12 3.42 0.4
-4 20 1 0.12 0.14
-4 20 2 2.13 0.17
-4 20 3 12.06 0.58
-4 20 4 0 0.23
-4 20 5 1.32 0.2
-4 20 6 11.27 0.29
-4 20 7 10.62 0.53
-4 20 8 -0.06 0.27
-4 20 9 10.48 0.53
-4 20 10 1.02 0.28
-4 21 1 1.83 0.16
-4 21 2 17.38 0.42
-4 21 3 14.78 0.52
-4 21 4 47.15 1.24
-4 21 5 0.78 0.14
-4 21 6 -0.05 0.23
-4 21 7 2.97 0.22
-4 21 8 0.63 0.29
-4 22 1 12.87 0.46
-4 22 2 35.17 0.87
-4 22 3 17.59 0.8
-4 22 4 0.58 0.17
-3 0 2 12 0.32
-3 0 4 35.31 0.69
-3 0 6 81.33 0.97
-3 0 8 35.41 0.64
-3 0 10 0.66 0.14
-3 0 12 73.54 1.24
-3 0 14 15.83 0.31
-3 0 16 54.55 0.8
-3 0 18 73.94 1.63
-3 0 20 0.13 0.22
-3 0 22 3.61 0.35
-3 1 1 236.54 2.42
-3 1 2 45.88 0.58
-3 1 3 19.55 0.32
-3 1 4 0.56 0.09
-3 1 5 1079.08 12.44
-3 1 6 0.78 0.09
-3 1 7 5.2 0.15
-3 1 8 30.75 0.37
-3 1 9 -0.01 0.22
-3 1 10 20.73 0.29
-3 1 11 3.1 0.14
-3 1 12 3.34 0.11
-3 1 13 4.97 0.15
-3 1 14 106.59 1.05
-3 1 15 114.04 1.14
-3 1 16 46.2 0.56
-3 1 17 4.52 0.18
-3 1 18 5.2 0.24
-3 1 19 58.78 0.95
-3 1 20 7.23 0.29
-3 1 21 1.83 0.17
-3 1 22 23.91 0.95
-3 1 23 1.44 0.16
-3 2 1 46.25 0.57
-3 2 2 67.5 0.8
-3 2 3 20 0.29
-3 2 4 441.17 4.14
-3 2 5 188.38 1.97
-3 2 6 274.5 2.72
-3 2 7 762.04 8.55
-3 2 8 102.41 1.13
-3 2 9 173.61 1.67
-3 2 10 42.23 0.48
-3 2 11 1.54 0.11
-3 2 12 6.72 0.17
-3 2 13 34.99 0.42
-3 2 14 31.82 0.43
-3 2 15 115.6 1.29
-3 2 16 47.49 0.63
-3 2 17 34.07 0.44
-3 2 18 20.82 0.46
-3 2 19 5.39 0.26
-3 2 20 13.39 0.36
-3 2 21 0.94 0.16
-3 2 22 0.25 0.18
-3 2 23 0.56 0.17
-3 3 1 164.62 1.62
-3 3 2 614.29 7.01
-3 3 3 377.5 3.55
-3 3 4 38.95 0.47
-3 3 5 284.19 2.66
-3 3 6 739.19 8.42
-3 3 7 486.66 5.04
-3 3 8 82.03 0.93
-3 3 9 4.06 0.15
-3 3 10 110.74 1.1
-3 3 11 20.3 0.29
-3 3 12 87.88 0.88
-3 3 13 230.09 2.22
-3 3 14 36.65 0.39
-3 3 15 128.31 1.62
-3 3 16 3.44 0.14
-3 3 17 0.41 0.09
-3 3 18 4.17 0.24
-3 3 19 0.11 0.12
-3 3 20 16.47 0.34
-3 3 21 9.49 0.46
-3 3 22 0.52 0.24
-3 3 23 1.95 0.28
-3 4 1 279.4 2.95
-3 4 2 209.83 2.04
-3 4 3 36.19 0.38
-3 4 4 40.93 0.47
-3 4 5 63.19 0.69
-3 4 6 0.04 0.07
-3 4 7 279.61 2.74
-3 4 8 185.48 1.87
-3 4 9 0.54 0.09
-3 4 10 68 0.71
-3 4 11 33.11 0.41
-3 4 12 23.69 0.3
-3 4 13 0.88 0.08
-3 4 14 7.16 0.17
-3 4 15 36.78 0.47
-3 4 16 15.55 0.29
-3 4 17 10.88 0.23
-3 4 18 2.82 0.23
-3 4 19 26.32 0.73
-3 4 20 22.5 0.64
-3 4 21 1.72 0.2
-3 4 22 0.08 0.22
-3 4 23 10.29 0.47
-3 5 1 35.75 0.5
-3 5 2 116.13 1.11
-3 5 3 9.6 0.17
-3 5 4 162.04 1.77
-3 5 5 26.11 0.32
-3 5 6 -0.05 0.2
-3 5 7 24.7 0.4
-3 5 8 6.22 0.18
-3 5 9 179.43 1.85
-3 5 10 0.6 0.11
-3 5 11 7.83 0.2
-3 5 12 0.56 0.08
-3 5 13 0.37 0.08
-3 5 14 84.76 1.12
-3 5 15 32.64 0.43
-3 5 16 4.91 0.18
-3 5 17 2.23 0.13
-3 5 18 0.33 0.11
-3 5 19 -0.08 0.22
-3 5 20 6.54 0.31
-3 5 21 3.86 0.26
-3 5 22 0.03 0.15
-3 6 1 2.25 0.1
-3 6 2 3.58 0.12
-3 6 3 16.24 0.26
-3 6 4 1.52 0.11
-3 6 5 0.34 0.08
-3 6 6 21.51 0.31
-3 6 7 45.57 0.6
-3 6 8 6.28 0.18
-3 6 9 0.26 0.09
-3 6 10 25.18 0.34
-3 6 11 0.06 0.07
-3 6 12 1.82 0.09
-3 6 13 1.88 0.11
-3 6 14 37 0.55
-3 6 15 13.09 0.27
-3 6 16 -0.06 0.23
-3 6 17 40.49 0.65
-3 6 18 0.7 0.14
-3 6 19 2.36 0.17
-3 6 20 20.09 0.47
-3 6 21 1 0.18
-3 6 22 15.48 0.48
-3 7 1 160.23 1.77
-3 7 2 28.75 0.33
-3 7 3 22.93 0.28
-3 7 4 212.48 2.13
-3 7 5 6.05 0.16
-3 7 6 8.92 0.19
-3 7 7 42.37 0.56
-3 7 8 12.41 0.24
-3 7 9 49.6 0.62
-3 7 10 0.97 0.09
-3 7 11 266.39 3.43
-3 7 12 22.69 0.5
-3 7 13 13.38 0.32
-3 7 14 0.69 0.11
-3 7 15 1.27 0.11
-3 7 16 7.92 0.21
-3 7 17 20.63 0.45
-3 7 18 6.55 0.3
-3 7 19 4.88 0.22
-3 7 20 -0.16 0.22
-3 7 21 6.07 0.29
-3 7 22 0.82 0.17
-3 8 1 31.12 0.42
-3 8 2 341.59 3.76
-3 8 3 3.96 0.15
-3 8 4 24.43 0.42
-3 8 5 0.12 0.08
-3 8 6 21.29 0.3
-3 8 7 44.59 0.56
-3 8 8 23.85 0.36
-3 8 9 183.58 2.23
-3 8 10 18 0.32
-3 8 11 174.33 1.99
-3 8 12 11.25 0.24
-3 8 13 0.4 0.09
-3 8 14 14.82 0.35
-3 8 15 4.76 0.17
-3 8 16 16.68 0.29
-3 8 17 0.86 0.14
-3 8 18 108.22 2.21
-3 8 19 9.28 0.27
-3 8 20 15.96 0.49
-3 8 21 1.37 0.35
-3 8 22 0.7 0.19
-3 9 1 1.5 0.14
-3 9 2 40.35 0.52
-3 9 3 615.47 6.9
-3 9 4 953.09 14.17
-3 9 5 0.68 0.11
-3 9 6 15.52 0.32
-3 9 7 25.27 0.42
-3 9 8 26.78 0.5
-3 9 9 3.57 0.2
-3 9 10 108.95 1.56
-3 9 11 23.76 0.53
-3 9 12 0.02 0.08
-3 9 13 21.13 0.5
-3 9 14 17.33 0.39
-3 9 15 -0.16 0.27
-3 9 16 59.24 1.61
-3 9 17 107.2 4.69
-3 9 18 0.2 0.13
-3 9 19 1.13 0.15
-3 9 20 4.47 0.23
-3 9 21 0.7 0.13
-3 10 1 158.45 1.75
-3 10 2 1.72 0.16
-3 10 3 16.32 0.27
-3 10 4 144.3 1.7
-3 10 5 117.68 1.42
-3 10 6 7.08 0.25
-3 10 7 73.76 0.95
-3 10 8 23.26 0.46
-3 10 9 1.95 0.2
-3 10 10 18.57 0.44
-3 10 11 0.23 0.11
-3 10 12 12.25 0.36
-3 10 13 17.93 0.52
-3 10 14 5.97 0.23
-3 10 15 24.42 0.73
-3 10 16 3.76 0.24
-3 10 17 9.17 0.27
-3 10 18 46.55 1.11
-3 10 19 9.21 0.27
-3 10 20 2.86 0.18
-3 10 21 1.46 0.14
-3 11 1 54.29 0.66
-3 11 2 285.35 3.71
-3 11 3 36.32 0.51
-3 11 4 0.07 0.08
-3 11 5 0.09 0.08
-3 11 6 0.31 0.07
-3 11 7 8.79 0.2
-3 11 8 0.89 0.09
-3 11 9 35.05 0.61
-3 11 10 4.97 0.29
-3 11 11 25.3 0.7
-3 11 12 9.45 0.35
-3 11 13 8.13 0.28
-3 11 14 0.22 0.13
-3 11 15 1.32 0.2
-3 11 16 5.9 0.48
-3 11 17 8.86 0.76
-3 11 18 16.48 1.13
-3 11 19 0.1 0.16
-3 11 20 5.54 0.3
-3 12 1 270.41 2.83
-3 12 2 91.08 1.02
-3 12 3 7.55 0.19
-3 12 4 0.27 0.09
-3 12 5 0.44 0.09
-3 12 6 18.58 0.26
-3 12 7 29.63 0.37
-3 12 8 54.46 0.62
-3 12 9 57.8 0.83
-3 12 10 24.43 0.69
-3 12 11 55.98 1.22
-3 12 12 8.27 0.32
-3 12 13 1.52 0.15
-3 12 14 21.75 0.84
-3 12 15 12.26 0.37
-3 12 16 6.1 0.3
-3 12 17 0.12 0.16
-3 12 18 13.01 0.66
-3 12 19 4.47 0.27
-3 12 20 -0.06 0.21
-3 13 1 0.75 0.09
-3 13 2 19.6 0.4
-3 13 3 152.73 1.8
-3 13 4 0.38 0.1
-3 13 5 4.8 0.15
-3 13 6 1.99 0.11
-3 13 7 109.46 1.12
-3 13 8 153.98 1.67
-3 13 9 0.39 0.12
-3 13 10 58.57 1
-3 13 11 76.66 1.32
-3 13 12 75.54 1.54
-3 13 13 99.53 1.54
-3 13 14 9.19 0.33
-3 13 15 10.26 0.35
-3 13 16 12.89 1.02
-3 13 17 8.4 1.13
-3 13 18 0.12 0.16
-3 13 19 6.73 0.5
-3 14 1 0.26 0.09
-3 14 2 32.63 0.44
-3 14 3 2.9 0.16
-3 14 4 3.31 0.16
-3 14 5 3.49 0.15
-3 14 6 72.74 0.79
-3 14 7 0.16 0.08
-3 14 8 55.96 0.68
-3 14 9 193.59 2.91
-3 14 10 18.05 0.58
-3 14 11 62.41 1.2
-3 14 12 5.18 0.35
-3 14 13 1.27 0.19
-3 14 14 40.11 0.71
-3 14 15 8.32 0.32
-3 14 16 0.22 0.28
-3 14 17 16.93 1.21
-3 14 18 4.21 0.26
-3 15 1 19.29 0.28
-3 15 2 0.29 0.09
-3 15 3 4.01 0.17
-3 15 4 24.95 0.42
-3 15 5 13.91 0.26
-3 15 6 27.21 0.37
-3 15 7 0.06 0.08
-3 15 8 27.13 0.44
-3 15 9 34.18 0.93
-3 15 10 0.14 0.12
-3 15 11 28.77 0.76
-3 15 12 37.66 1.3
-3 15 13 9.14 0.33
-3 15 14 0.51 0.17
-3 15 15 13.79 0.38
-3 15 16 7.59 0.58
-3 15 17 0.48 0.16
-3 15 18 -0.04 0.21
-3 16 1 17.72 0.27
-3 16 2 12.46 0.22
-3 16 3 6.81 0.2
-3 16 4 1.78 0.13
-3 16 5 87.98 1.28
-3 16 6 0.11 0.1
-3 16 7 6.87 0.18
-3 16 8 1.29 0.14
-3 16 9 0.04 0.13
-3 16 10 1.16 0.17
-3 16 11 40.55 0.97
-3 16 12 4.48 0.27
-3 16 13 6.64 0.29
-3 16 14 1.87 0.28
-3 16 15 1.16 0.18
-3 16 16 7.19 0.3
-3 16 17 0.14 0.15
-3 17 1 54.2 0.81
-3 17 2 16.28 0.27
-3 17 3 4.31 0.21
-3 17 4 0.94 0.12
-3 17 5 8.77 0.22
-3 17 6 0.99 0.13
-3 17 7 0.07 0.11
-3 17 8 5.43 0.27
-3 17 9 0.59 0.16
-3 17 10 5.69 0.28
-3 17 11 7.67 0.3
-3 17 12 32.54 1.26
-3 17 13 2.68 0.2
-3 17 14 4.71 0.26
-3 17 15 0.09 0.15
-3 17 16 0.22 0.18
-3 18 1 53.65 0.74
-3 18 2 2.92 0.27
-3 18 3 6.54 0.42
-3 18 4 3.64 0.22
-3 18 5 1.37 0.15
-3 18 6 0.64 0.17
-3 18 7 0.02 0.16
-3 18 8 36.28 1.21
-3 18 9 0.07 0.15
-3 18 10 7.89 0.35
-3 18 11 7.81 0.3
-3 18 12 -0.18 0.2
-3 18 13 1.43 0.18
-3 18 14 3.51 0.23
-3 18 15 0.33 0.22
-3 19 1 16.04 0.76
-3 19 2 44.43 1.09
-3 19 3 4.52 0.28
-3 19 4 3.83 0.22
-3 19 5 0.02 0.13
-3 19 6 63.77 2.61
-3 19 7 1.17 0.19
-3 19 8 4.36 0.27
-3 19 9 2.98 0.22
-3 19 10 6.86 0.31
-3 19 11 -0.1 0.19
-3 19 12 1.13 0.22
-3 19 13 5.22 0.25
-3 20 1 11.9 0.33
-3 20 2 9.69 0.36
-3 20 3 2.76 0.18
-3 20 4 0.05 0.13
-3 20 5 6.38 0.3
-3 20 6 7.41 0.32
-3 20 7 1.36 0.19
-3 20 8 18.77 1
-3 20 9 -0.06 0.19
-3 20 10 0.24 0.14
-3 20 11 0 0.13
-3 20 12 9.6 0.49
-3 21 1 44.34 0.95
-3 21 2 19.14 0.76
-3 21 3 1.9 0.2
-3 21 4 0.36 0.17
-3 21 5 2.25 0.21
-3 21 6 -0.07 0.22
-3 21 7 9.54 0.66
-3 21 8 1.03 0.18
-3 21 9 0.63 0.27
-3 21 10 -0.08 0.24
-3 22 1 0.2 0.13
-3 22 2 5.23 0.38
-3 22 3 0.84 0.14
-3 22 4 0.46 0.17
-3 22 5 10.31 0.33
-3 22 6 0.1 0.16
-3 22 7 8.47 0.3
-3 23 1 1.09 0.14
-3 23 2 3.98 0.36
-3 23 3 4.81 0.26
-2 0 2 11.59 0.26
-2 0 4 375.68 5.04
-2 0 6 520.04 5.79
-2 0 8 264.56 3.08
-2 0 10 62.81 0.93
-2 0 12 22.24 0.39
-2 0 14 28.31 0.44
-2 0 16 21.01 0.64
-2 0 18 332.1 5.19
-2 0 20 14 0.4
-2 0 22 41.73 0.75
-2 1 1 2356.92 27.26
-2 1 2 337.43 3.87
-2 1 3 1019.64 9.98
-2 1 4 408.94 3.85
-2 1 5 268.19 2.87
-2 1 6 69.96 0.68
-2 1 7 297.53 2.74
-2 1 8 10.44 0.18
-2 1 9 45.63 0.47
-2 1 10 25.91 0.31
-2 1 11 12.11 0.2
-2 1 12 32.77 0.41
-2 1 13 27.77 0.32
-2 1 14 1.05 0.08
-2 1 15 57.13 0.83
-2 1 16 350.52 4.4
-2 1 17 10.94 0.22
-2 1 18 0.61 0.11
-2 1 19 0.11 0.09
-2 1 20 3.31 0.18
-2 1 21 26.74 0.45
-2 1 22 0.06 0.11
-2 1 23 2.82 0.18
-2 2 1 624.12 6.31
-2 2 2 1496.06 16.16
-2 2 3 68.67 0.78
-2 2 4 253.46 2.46
-2 2 5 301.96 3.53
-2 2 6 87.45 1.01
-2 2 7 61.17 0.6
-2 2 8 63.35 0.65
-2 2 9 301.79 2.78
-2 2 10 146.41 1.49
-2 2 11 76.75 0.75
-2 2 12 2.42 0.11
-2 2 13 26.69 0.33
-2 2 14 0.16 0.07
-2 2 15 0.03 0.07
-2 2 16 44.81 0.76
-2 2 17 29.78 0.45
-2 2 18 43.78 0.74
-2 2 19 7.72 0.35
-2 2 20 9.21 0.25
-2 2 21 10.73 0.28
-2 2 22 0.43 0.13
-2 2 23 0.89 0.13
-2 3 1 8.2 0.21
-2 3 2 1793.32 19.49
-2 3 3 38.72 0.47
-2 3 4 36.67 0.52
-2 3 5 13.81 0.2
-2 3 6 795.63 8.02
-2 3 7 233.59 2.39
-2 3 8 0.11 0.07
-2 3 9 214.33 2.02
-2 3 10 14.52 0.22
-2 3 11 104.84 1
-2 3 12 0.44 0.08
-2 3 13 1.12 0.08
-2 3 14 0.35 0.07
-2 3 15 14.24 0.26
-2 3 16 16.64 0.36
-2 3 17 21.27 0.47
-2 3 18 4.47 0.18
-2 3 19 0.15 0.12
-2 3 20 10.65 0.33
-2 3 21 11.68 0.34
-2 3 22 1.54 0.2
-2 3 23 1.39 0.19
-2 4 1 138.76 1.38
-2 4 2 50.87 0.59
-2 4 3 57.19 0.62
-2 4 4 29.19 0.37
-2 4 5 92.15 0.86
-2 4 6 9.33 0.17
-2 4 7 95.9 1.09
-2 4 8 803.46 8.91
-2 4 9 465.84 4.74
-2 4 10 170.76 1.65
-2 4 11 12.7 0.23
-2 4 12 19.36 0.4
-2 4 13 30.51 0.63
-2 4 14 1.35 0.1
-2 4 15 1.47 0.11
-2 4 16 88.42 1.18
-2 4 17 0.43 0.13
-2 4 18 31.35 0.51
-2 4 19 5.83 0.31
-2 4 20 -0.13 0.23
-2 4 21 -0.04 0.23
-2 4 22 3.39 0.28
-2 4 23 0.32 0.16
-2 5 1 63.47 0.7
-2 5 2 382.05 3.81
-2 5 3 175.13 1.72
-2 5 4 35.37 0.38
-2 5 5 18.59 0.25
-2 5 6 0.07 0.07
-2 5 7 191.93 2.07
-2 5 8 598.19 6.71
-2 5 9 0.75 0.11
-2 5 10 68.93 0.76
-2 5 11 32.02 0.44
-2 5 12 144.73 1.7
-2 5 13 44.55 0.55
-2 5 14 46.42 0.55
-2 5 15 45.1 0.75
-2 5 16 2.34 0.13
-2 5 17 6.95 0.23
-2 5 18 9.6 0.28
-2 5 19 3.38 0.29
-2 5 20 6.72 0.31
-2 5 21 5.18 0.28
-2 5 22 31.86 0.61
-2 5 23 1.81 0.19
-2 6 1 157.78 1.56
-2 6 2 2 0.1
-2 6 3 138.92 1.26
-2 6 4 303.22 2.8
-2 6 5 47.59 0.51
-2 6 6 6.26 0.16
-2 6 7 29.46 0.46
-2 6 8 29.62 0.4
-2 6 9 4.76 0.17
-2 6 10 62.32 0.91
-2 6 11 2.64 0.29
-2 6 12 70.41 0.84
-2 6 13 7.81 0.21
-2 6 14 24.12 0.42
-2 6 15 1.41 0.11
-2 6 16 2.11 0.13
-2 6 17 0.18 0.1
-2 6 18 7.7 0.33
-2 6 19 26.61 0.56
-2 6 20 0.9 0.19
-2 6 21 17.68 0.43
-2 6 22 1.26 0.24
-2 6 23 5.99 0.28
-2 7 1 24.1 0.31
-2 7 2 4.96 0.14
-2 7 3 2.44 0.11
-2 7 4 352.24 3.25
-2 7 5 1377.99 18.2
-2 7 6 243.61 2.3
-2 7 7 0 0.24
-2 7 8 13.02 0.25
-2 7 9 26.34 0.5
-2 7 10 23.84 0.42
-2 7 11 114.76 1.79
-2 7 12 70.67 0.9
-2 7 13 17.98 0.37
-2 7 14 9.88 0.22
-2 7 15 41.48 0.7
-2 7 16 -0.03 0.23
-2 7 17 8.28 0.21
-2 7 18 0.27 0.13
-2 7 19 17.24 0.44
-2 7 20 4.95 0.42
-2 7 21 0.11 0.23
-2 7 22 -0.02 0.21
-2 8 1 136.18 1.28
-2 8 2 36.14 0.41
-2 8 3 29.43 0.36
-2 8 4 10.21 0.2
-2 8 5 148.35 1.66
-2 8 6 787.41 9.14
-2 8 7 100.47 1.24
-2 8 8 105.31 1.22
-2 8 9 0.06 0.09
-2 8 10 22.02 0.42
-2 8 11 0.79 0.09
-2 8 12 13.28 0.27
-2 8 13 29.95 0.54
-2 8 14 0.21 0.08
-2 8 15 14.84 0.28
-2 8 16 0.27 0.1
-2 8 17 3.33 0.16
-2 8 18 0.21 0.13
-2 8 19 2.24 0.26
-2 8 20 1.37 0.19
-2 8 21 4.65 0.28
-2 8 22 1.73 0.19
-2 9 1 52.31 0.56
-2 9 2 23.47 0.31
-2 9 3 97.18 0.95
-2 9 4 211.13 2.1
-2 9 5 52.76 0.82
-2 9 6 13.88 0.26
-2 9 7 13.24 0.26
-2 9 8 2.08 0.15
-2 9 9 1.48 0.13
-2 9 10 0.39 0.16
-2 9 11 28.16 0.51
-2 9 12 110.58 1.4
-2 9 13 47.26 0.84
-2 9 14 81.65 1.11
-2 9 15 0.9 0.11
-2 9 16 0.03 0.1
-2 9 17 29.24 2.03
-2 9 18 3.08 0.18
-2 9 19 4.43 0.24
-2 9 20 5.53 0.28
-2 9 21 2.24 0.2
-2 9 22 10.46 0.32
-2 10 1 1.05 0.09
-2 10 2 46.11 0.51
-2 10 3 0.27 0.08
-2 10 4 15.45 0.29
-2 10 5 21.03 0.37
-2 10 6 10.95 0.24
-2 10 7 79 1
-2 10 8 5.08 0.28
-2 10 9 2.2 0.18
-2 10 10 0.06 0.1
-2 10 11 45.94 0.98
-2 10 12 72.85 1.42
-2 10 13 17.73 0.46
-2 10 14 2.23 0.2
-2 10 15 4.78 0.24
-2 10 16 -0.14 0.25
-2 10 17 -0.22 0.2
-2 10 18 0.14 0.13
-2 10 19 44.6 1.11
-2 10 20 69.92 1.13
-2 10 21 0.37 0.16
-2 11 1 10.35 0.22
-2 11 2 2.85 0.13
-2 11 3 8.29 0.19
-2 11 4 159.65 1.72
-2 11 5 58.04 0.78
-2 11 6 19.19 0.32
-2 11 7 17.65 0.29
-2 11 8 0.36 0.1
-2 11 9 2.9 0.23
-2 11 10 39.07 0.96
-2 11 11 0.1 0.13
-2 11 12 0.4 0.12
-2 11 13 24.92 0.78
-2 11 14 199.9 3.97
-2 11 15 55.58 1.87
-2 11 16 0.09 0.17
-2 11 17 0.3 0.35
-2 11 18 106.29 4.65
-2 11 19 3.69 0.43
-2 11 20 6.52 0.3
-2 11 21 0.12 0.32
-2 12 1 148.37 1.7
-2 12 2 1.62 0.11
-2 12 3 28.36 0.4
-2 12 4 0.58 0.09
-2 12 5 54.96 0.68
-2 12 6 0.88 0.1
-2 12 7 6.1 0.17
-2 12 8 66.95 1.12
-2 12 9 5.6 0.22
-2 12 10 4.14 0.22
-2 12 11 0.02 0.11
-2 12 12 44.85 1.07
-2 12 13 3.11 0.18
-2 12 14 19.04 0.69
-2 12 15 24.33 0.76
-2 12 16 29.32 1.95
-2 12 17 17.67 1.11
-2 12 18 4.39 0.27
-2 12 19 0.73 0.17
-2 12 20 24.22 1.36
-2 13 1 135.99 1.96
-2 13 2 95.97 1.3
-2 13 3 37.79 0.45
-2 13 4 267.03 2.96
-2 13 5 57.33 0.65
-2 13 6 34.87 0.4
-2 13 7 29.07 0.39
-2 13 8 1.11 0.12
-2 13 9 2.81 0.24
-2 13 10 10.33 0.37
-2 13 11 2.23 0.17
-2 13 12 0.05 0.12
-2 13 13 79.3 1.36
-2 13 14 9.34 0.34
-2 13 15 0.02 0.16
-2 13 16 2 0.22
-2 13 17 2.35 0.29
-2 13 18 -0.1 0.22
-2 13 19 3.84 0.25
-2 13 20 0.98 0.21
-2 14 1 5.91 0.16
-2 14 2 28.64 0.42
-2 14 3 166.05 1.9
-2 14 4 28.15 0.38
-2 14 5 0.02 0.08
-2 14 6 1.47 0.11
-2 14 7 37.71 0.47
-2 14 8 35.63 0.84
-2 14 9 56.21 1.43
-2 14 10 100.95 1.76
-2 14 11 80.69 2.06
-2 14 12 15.08 0.59
-2 14 13 6.68 0.31
-2 14 14 11.73 0.37
-2 14 15 -0.08 0.23
-2 14 16 2.15 0.21
-2 14 17 1.13 0.37
-2 14 18 0.82 0.18
-2 14 19 0.53 0.16
-2 15 1 -0.04 0.2
-2 15 2 0.18 0.08
-2 15 3 9.39 0.19
-2 15 4 26.48 0.38
-2 15 5 20.38 0.29
-2 15 6 10.59 0.22
-2 15 7 16.64 0.29
-2 15 8 55.15 0.73
-2 15 9 77.64 2.07
-2 15 10 12.95 0.48
-2 15 11 17.98 0.41
-2 15 12 102.68 3.06
-2 15 13 1.03 0.21
-2 15 14 31.21 0.6
-2 15 15 0.28 0.16
-2 15 16 8.7 0.79
-2 15 17 0.24 0.16
-2 15 18 1.47 0.35
-2 16 1 15.46 0.33
-2 16 2 0.87 0.1
-2 16 3 0.21 0.13
-2 16 4 7.91 0.22
-2 16 5 1.31 0.11
-2 16 6 4.04 0.16
-2 16 7 5.33 0.18
-2 16 8 4.65 0.17
-2 16 9 13.11 0.31
-2 16 10 13.17 0.4
-2 16 11 113.01 2.35
-2 16 12 8.44 0.33
-2 16 13 10.08 0.34
-2 16 14 3.34 0.33
-2 16 15 20.42 0.47
-2 16 16 -0.14 0.23
-2 16 17 0.06 0.16
-2 17 1 3.64 0.14
-2 17 2 34.56 0.48
-2 17 3 12.62 0.26
-2 17 4 37.52 0.64
-2 17 5 11.17 0.23
-2 17 6 0.55 0.1
-2 17 7 0.03 0.09
-2 17 8 37.91 0.58
-2 17 9 0.27 0.15
-2 17 10 41.28 0.96
-2 17 11 4.15 0.27
-2 17 12 0.12 0.16
-2 17 13 1.86 0.2
-2 17 14 17 0.42
-2 17 15 13.54 0.54
-2 17 16 9.33 0.55
-2 18 1 2.71 0.12
-2 18 2 122.97 1.28
-2 18 3 3.74 0.17
-2 18 4 7.61 0.26
-2 18 5 11.82 0.39
-2 18 6 5.8 0.33
-2 18 7 18.27 0.68
-2 18 8 9.98 0.37
-2 18 9 20.13 0.45
-2 18 10 6.74 0.29
-2 18 11 0.47 0.16
-2 18 12 2.16 0.2
-2 18 13 11.22 0.34
-2 18 14 2.76 0.2
-2 18 15 -0.07 0.21
-2 19 1 19.35 0.37
-2 19 3 1.63 0.18
-2 19 4 80.49 1.71
-2 19 5 -0.38 0.22
-2 19 6 10.14 0.27
-2 19 7 -0.05 0.21
-2 19 8 1.06 0.14
-2 19 9 12.1 0.35
-2 19 10 2.99 0.22
-2 19 11 1.67 0.18
-2 19 12 3.49 0.33
-2 19 13 0.88 0.16
-2 19 14 4.09 0.24
-2 20 1 38.46 0.86
-2 20 2 65.84 1.52
-2 20 3 79.45 3.87
-2 20 4 12.92 0.62
-2 20 5 2.4 0.21
-2 20 6 1.76 0.2
-2 20 7 0.07 0.12
-2 20 8 1.05 0.14
-2 20 9 30.86 0.58
-2 20 10 -0.03 0.2
-2 20 11 8.74 0.3
-2 20 12 0.26 0.14
-2 20 13 2.28 0.21
-2 21 1 10.49 0.38
-2 21 2 2.59 0.17
-2 21 3 8.99 0.49
-2 21 4 1.42 0.34
-2 21 5 2.64 0.36
-2 21 6 0.43 0.17
-2 21 7 0.8 0.17
-2 21 8 25.03 0.9
-2 21 9 3.6 0.23
-2 21 10 0.72 0.15
-2 21 11 8.82 0.29
-2 22 1 0.76 0.13
-2 22 2 3.46 0.25
-2 22 3 5.32 0.5
-2 22 4 0.13 0.16
-2 22 5 9.99 0.72
-2 22 6 2.13 0.23
-2 22 7 -0.13 0.2
-2 22 8 -0.16 0.2
-2 23 1 7.84 0.47
-2 23 2 2.74 0.31
-2 23 3 -0.05 0.21
-2 23 4 1.29 0.17
-2 23 5 1.35 0.18
-2 23 6 -0.18 0.24
-1 0 2 174.54 1.81
-1 0 4 1614.26 27.75
-1 0 6 2248.35 39.82
-1 0 8 32.41 0.44
-1 0 10 39.18 0.52
-1 0 12 528.44 7.35
-1 0 14 3.78 0.2
-1 0 16 29.57 0.47
-1 0 18 295.47 4.34
-1 0 20 41.3 0.75
-1 0 22 3.39 0.25
-1 0 24 -0.03 0.2
-1 1 1 3.05 0.11
-1 1 2 580.66 5.42
-1 1 3 792.65 7.14
-1 1 4 1737.99 18.88
-1 1 5 0.51 0.08
-1 1 6 595.22 6.28
-1 1 7 0.21 0.06
-1 1 8 47.77 0.49
-1 1 9 51.51 0.52
-1 1 10 0.41 0.07
-1 1 11 94.11 1
-1 1 12 175.06 2
-1 1 13 7.05 0.22
-1 1 14 4.17 0.15
-1 1 15 9.45 0.19
-1 1 16 10.72 0.21
-1 1 17 100.83 1.03
-1 1 18 13.62 0.29
-1 1 19 10.2 0.21
-1 1 20 43.49 0.59
-1 1 21 0.22 0.14
-1 1 22 0.74 0.13
-1 1 23 5.57 0.2
-1 1 24 1.11 0.13
-1 2 1 252.86 2.89
-1 2 2 2.9 0.12
-1 2 3 595.8 5.91
-1 2 4 372.71 3.7
-1 2 5 493.91 4.79
-1 2 6 5.21 0.17
-1 2 7 172.87 2
-1 2 8 17.7 0.23
-1 2 9 280.77 2.54
-1 2 10 45.68 0.56
-1 2 11 8.59 0.21
-1 2 12 1.24 0.11
-1 2 13 8.63 0.21
-1 2 14 10.82 0.2
-1 2 15 9.23 0.19
-1 2 16 5.6 0.16
-1 2 17 2.36 0.12
-1 2 18 0.71 0.1
-1 2 19 159.77 2.18
-1 2 20 10.21 0.26
-1 2 21 8.96 0.25
-1 2 22 0.1 0.12
-1 2 23 3.61 0.2
-1 2 24 14.31 0.37
-1 3 1 161.78 1.61
-1 3 2 446.62 4.41
-1 3 3 2913.43 31.53
-1 3 4 2.16 0.12
-1 3 5 68.85 0.83
-1 3 6 37.13 0.45
-1 3 7 10.77 0.18
-1 3 8 32.96 0.42
-1 3 9 124.71 1.3
-1 3 10 7.16 0.16
-1 3 11 8.62 0.2
-1 3 12 24.67 0.34
-1 3 13 0.03 0.08
-1 3 14 42.76 0.62
-1 3 15 8.69 0.19
-1 3 16 2.31 0.12
-1 3 17 2.42 0.12
-1 3 18 38.98 0.47
-1 3 19 2.21 0.12
-1 3 20 2.62 0.18
-1 3 21 3.17 0.18
-1 3 22 18.39 0.38
-1 3 23 8.09 0.4
-1 3 24 2.55 0.2
-1 4 1 28.48 0.38
-1 4 2 3066.52 66.86
-1 4 3 477.66 4.46
-1 4 4 315.47 3.49
-1 4 5 296.16 3.2
-1 4 6 1.57 0.1
-1 4 7 7.35 0.16
-1 4 8 3.78 0.13
-1 4 9 309.62 3.11
-1 4 10 358.41 3.89
-1 4 11 0.7 0.09
-1 4 12 15.58 0.26
-1 4 13 80.75 1.16
-1 4 14 0.86 0.09
-1 4 15 0.71 0.1
-1 4 16 10.16 0.22
-1 4 17 1.59 0.13
-1 4 18 0.59 0.12
-1 4 19 2.18 0.26
-1 4 20 7.94 0.28
-1 4 21 4.54 0.24
-1 4 22 16.64 0.36
-1 4 23 3.02 0.23
-1 5 1 38.65 0.48
-1 5 2 104.34 1.02
-1 5 3 95.37 0.99
-1 5 4 552.91 5.93
-1 5 5 137.89 1.7
-1 5 6 726.32 7.6
-1 5 7 1146.57 12.85
-1 5 8 96.08 0.98
-1 5 9 46.5 0.53
-1 5 10 84 1.12
-1 5 11 49.66 0.62
-1 5 12 41.82 0.58
-1 5 13 152.58 1.8
-1 5 14 36.79 0.61
-1 5 15 53.31 0.72
-1 5 16 5.8 0.19
-1 5 17 3.42 0.16
-1 5 18 0.01 0.11
-1 5 19 5.01 0.33
-1 5 20 4.03 0.26
-1 5 21 16.72 0.5
-1 5 22 0.22 0.14
-1 5 23 4.23 0.23
-1 6 1 573.81 5.76
-1 6 2 6.15 0.18
-1 6 3 1.36 0.09
-1 6 4 0.09 0.06
-1 6 5 34.4 0.47
-1 6 6 28.51 0.34
-1 6 7 592.74 6.14
-1 6 8 777.76 8.9
-1 6 9 804.72 10.07
-1 6 10 376.8 4.22
-1 6 11 418.74 4.96
-1 6 12 1.96 0.13
-1 6 13 0.42 0.08
-1 6 14 108.59 1.2
-1 6 15 0.81 0.09
-1 6 16 0.22 0.1
-1 6 17 59.84 0.81
-1 6 18 8.94 0.22
-1 6 19 2.33 0.23
-1 6 20 9.75 0.29
-1 6 21 -0.1 0.23
-1 6 22 4.95 0.28
-1 6 23 1.15 0.18
-1 7 1 229.89 2.09
-1 7 2 139 1.4
-1 7 3 36.84 0.41
-1 7 4 4.75 0.15
-1 7 5 92.7 0.97
-1 7 6 348.47 3.41
-1 7 7 15.29 0.26
-1 7 8 102.47 1.29
-1 7 9 17.14 0.32
-1 7 10 34.53 0.54
-1 7 11 8.78 0.22
-1 7 12 7.16 0.17
-1 7 13 58.33 0.61
-1 7 14 1.86 0.1
-1 7 15 0.24 0.08
-1 7 16 65.83 0.88
-1 7 17 6.16 0.21
-1 7 18 -0.12 0.25
-1 7 19 14.48 0.5
-1 7 20 2.16 0.21
-1 7 21 0.38 0.17
-1 7 22 -0.06 0.21
-1 7 23 13.71 0.37
-1 8 1 -0.02 0.21
-1 8 2 9.94 0.18
-1 8 3 25.96 0.34
-1 8 4 111.91 1.06
-1 8 5 56.7 0.6
-1 8 6 1.5 0.09
-1 8 7 101.72 1.44
-1 8 8 10.66 0.24
-1 8 9 0.26 0.09
-1 8 10 1.26 0.11
-1 8 11 0.06 0.07
-1 8 12 41.13 0.59
-1 8 13 9.27 0.21
-1 8 14 12.72 0.25
-1 8 15 7 0.19
-1 8 16 -0.01 0.23
-1 8 17 1.15 0.15
-1 8 18 7.04 0.32
-1 8 19 4.05 0.27
-1 8 20 13.44 0.39
-1 8 21 1.04 0.18
-1 8 22 0.49 0.18
-1 9 1 128.29 1.23
-1 9 2 367.74 3.38
-1 9 3 210.26 1.9
-1 9 4 1.13 0.08
-1 9 5 100.7 1.15
-1 9 6 71.09 0.95
-1 9 7 4.64 0.17
-1 9 8 -0.02 0.23
-1 9 9 0.63 0.13
-1 9 10 3.15 0.17
-1 9 11 18.7 0.43
-1 9 12 17.33 0.37
-1 9 13 2.47 0.15
-1 9 14 6.84 0.2
-1 9 15 53.27 1.02
-1 9 16 80.75 1.53
-1 9 17 5.38 0.33
-1 9 18 0.62 0.18
-1 9 19 5.53 0.29
-1 9 20 13.76 0.38
-1 9 21 -0.11 0.21
-1 9 22 3.22 0.41
-1 10 1 992.19 11.69
-1 10 2 784.04 8.68
-1 10 3 29.07 0.36
-1 10 4 14.37 0.23
-1 10 5 -0.02 0.24
-1 10 6 83.56 0.96
-1 10 7 168.43 2.71
-1 10 8 13.4 0.3
-1 10 9 75.99 1.71
-1 10 10 0.35 0.21
-1 10 11 9.59 0.29
-1 10 12 4.05 0.2
-1 10 13 1.37 0.13
-1 10 14 18.41 0.65
-1 10 15 8.93 0.38
-1 10 16 119.13 3.97
-1 10 17 40.97 1.05
-1 10 18 17.05 0.43
-1 10 19 4.12 0.24
-1 10 20 7.96 0.32
-1 10 21 9.63 0.32
-1 10 22 0.44 0.32
-1 11 1 19.05 0.28
-1 11 2 263.67 2.59
-1 11 3 82.36 0.84
-1 11 4 10.93 0.21
-1 11 5 37.94 0.56
-1 11 6 74.64 1.01
-1 11 7 105.82 1.88
-1 11 8 4.5 0.17
-1 11 9 4.59 0.2
-1 11 10 1.8 0.14
-1 11 11 11.72 0.28
-1 11 12 12.35 0.34
-1 11 13 3.87 0.2
-1 11 14 159.74 3.36
-1 11 15 0.3 0.13
-1 11 16 37.33 1.02
-1 11 17 1.86 0.36
-1 11 18 0.13 0.18
-1 11 19 6.34 0.53
-1 11 20 -0.05 0.32
-1 11 21 2.29 0.39
-1 12 1 116.05 1.16
-1 12 2 7.89 0.19
-1 12 3 1.02 0.1
-1 12 4 114.47 1.15
-1 12 5 9.61 0.25
-1 12 6 2.96 0.15
-1 12 7 1.45 0.1
-1 12 8 0.9 0.1
-1 12 9 225.33 3.09
-1 12 10 19.1 0.41
-1 12 11 0.15 0.11
-1 12 12 3.37 0.19
-1 12 13 2.63 0.16
-1 12 14 18.41 0.55
-1 12 15 39.39 1.85
-1 12 16 22.29 1.56
-1 12 17 1.61 0.2
-1 12 18 1.93 0.2
-1 12 19 0.26 0.32
-1 12 20 14.41 0.64
-1 12 21 35.79 0.92
-1 13 1 22.82 0.33
-1 13 2 20.5 0.3
-1 13 3 17.3 0.37
-1 13 4 2.17 0.15
-1 13 5 27.31 0.4
-1 13 6 0.07 0.08
-1 13 7 1.62 0.11
-1 13 8 22.52 0.33
-1 13 9 22.18 0.63
-1 13 10 17.08 0.38
-1 13 11 2.07 0.15
-1 13 12 6.22 0.28
-1 13 13 1.45 0.14
-1 13 14 5.23 0.23
-1 13 15 36.85 3.25
-1 13 16 5.67 0.52
-1 13 17 0.15 0.17
-1 13 18 3.48 0.4
-1 13 19 5.04 0.27
-1 13 20 24.4 0.75
-1 14 1 6.42 0.15
-1 14 2 55.23 0.57
-1 14 3 0.31 0.07
-1 14 4 0.34 0.08
-1 14 5 7.57 0.19
-1 14 6 37.01 0.46
-1 14 7 30.48 0.41
-1 14 8 3.18 0.15
-1 14 9 14.32 0.33
-1 14 10 1.97 0.14
-1 14 11 0.8 0.13
-1 14 12 11.42 0.43
-1 14 13 -0.08 0.24
-1 14 14 6.8 0.31
-1 14 15 9.52 1
-1 14 16 10.64 0.74
-1 14 17 12.36 0.69
-1 14 18 2.4 0.21
-1 14 19 0.22 0.15
-1 15 1 9.81 0.19
-1 15 2 29.1 0.36
-1 15 3 12.66 0.2
-1 15 4 0.01 0.08
-1 15 5 235.61 2.82
-1 15 6 112.23 1.23
-1 15 7 0.4 0.1
-1 15 8 0.16 0.09
-1 15 9 12.62 0.26
-1 15 10 -0.02 0.22
-1 15 11 8.27 0.26
-1 15 12 0.42 0.17
-1 15 13 53.37 0.88
-1 15 14 8.05 0.33
-1 15 15 12.2 1.29
-1 15 16 -0.01 0.23
-1 15 17 -0.07 0.23
-1 15 18 4.78 0.27
-1 16 1 5.1 0.15
-1 16 2 0.05 0.07
-1 16 3 46.51 0.73
-1 16 4 13.17 0.25
-1 16 5 7.96 0.21
-1 16 6 63.46 0.89
-1 16 7 16.38 0.29
-1 16 8 8.61 0.21
-1 16 9 3.47 0.17
-1 16 10 19.81 0.71
-1 16 12 83.41 1.31
-1 16 13 12.96 0.38
-1 16 14 -0.12 0.22
-1 16 15 3.3 0.25
-1 16 16 0.66 0.18
-1 16 17 2.81 0.21
-1 16 18 7.1 1.03
-1 17 1 0.52 0.09
-1 17 2 0.29 0.1
-1 17 3 124.24 1.64
-1 17 4 192.85 2.45
-1 17 5 107.84 1.32
-1 17 6 -0.16 0.23
-1 17 7 9.77 0.23
-1 17 8 6.38 0.19
-1 17 9 0.38 0.11
-1 17 11 0.09 0.15
-1 17 12 5 0.28
-1 17 13 70.5 1.14
-1 17 14 14.25 0.4
-1 17 15 5.16 0.46
-1 17 16 2.01 0.2
-1 17 17 2.21 0.2
-1 18 1 3.58 0.14
-1 18 2 6.34 0.19
-1 18 3 4.3 0.17
-1 18 4 19.76 0.36
-1 18 5 78.44 1.33
-1 18 6 41.64 0.71
-1 18 7 3.25 0.29
-1 18 8 0.35 0.13
-1 18 9 0.16 0.12
-1 18 10 0.09 0.15
-1 18 11 1.71 0.19
-1 18 12 50.89 0.86
-1 18 13 9.79 0.33
-1 18 14 3.03 0.23
-1 18 15 -0.05 0.22
-1 18 16 -0.1 0.23
-1 19 1 -0.19 0.23
-1 19 2 0.08 0.1
-1 19 3 0.56 0.12
-1 19 4 16.45 0.48
-1 19 5 28.12 0.78
-1 19 6 1.34 0.15
-1 19 7 3.53 0.21
-1 19 8 9.49 0.49
-1 19 9 1.1 0.14
-1 19 10 25.63 0.68
-1 19 11 9.37 0.32
-1 19 12 2.97 0.22
-1 19 13 6.24 0.28
-1 19 14 6.52 0.28
-1 19 15 3.07 0.36
-1 20 1 4.82 0.23
-1 20 2 35.66 1.21
-1 20 3 58.14 1.82
-1 20 4 7.36 0.31
-1 20 5 9.64 0.36
-1 20 6 1.37 0.15
-1 20 7 1.28 0.15
-1 20 8 3.99 0.24
-1 20 9 0 0.12
-1 20 10 -0.05 0.2
-1 20 11 0.27 0.15
-1 20 12 0.07 0.16
-1 20 13 4.24 0.25
-1 21 1 4 0.26
-1 21 2 13.42 0.39
-1 21 3 38.82 0.98
-1 21 4 28.03 0.79
-1 21 5 59.25 4.83
-1 21 6 4.07 0.21
-1 21 7 0.83 0.14
-1 21 8 5.53 0.26
-1 21 9 0.05 0.12
-1 21 10 0.03 0.18
-1 21 11 0.37 0.15
-1 22 1 5.41 0.28
-1 22 2 9.45 0.33
-1 22 3 19.56 0.67
-1 22 4 32.86 0.86
-1 22 5 0.46 0.27
-1 22 6 0.03 0.14
-1 22 7 1.11 0.23
-1 22 8 4.44 0.24
-1 22 9 0.1 0.13
-1 23 1 4.62 0.25
-1 23 2 2.83 0.21
-1 23 3 7.89 0.47
-1 23 4 0.57 0.28
-1 23 5 3.1 0.38
-1 23 6 11.31 0.52
-1 23 7 0.73 0.27
-1 24 1 0.4 0.15
-1 24 2 3.21 0.37
0 0 2 749.23 9.74
0 0 4 967.3 12.31
0 0 6 1181.62 15.12
0 0 8 296.32 3.26
0 0 10 204.9 3.12
0 0 12 12.79 0.37
0 0 14 70.13 1.44
0 0 16 2.35 0.16
0 0 18 1.3 0.15
0 0 20 32.47 0.9
0 0 22 11.29 0.37
0 0 24 0.13 0.15
0 1 1 1310.53 20.29
0 1 3 0.41 0.07
0 1 4 164.35 1.82
0 1 5 615.04 6.54
0 1 6 313.51 2.94
0 1 7 456.43 5.48
0 1 8 0.13 0.08
0 1 9 3.63 0.14
0 1 10 0.05 0.07
0 1 11 17.99 0.31
0 1 12 12.23 0.26
0 1 13 58.38 0.7
0 1 14 86.24 1.08
0 1 15 19.71 0.3
0 1 16 9.65 0.2
0 1 17 -0.05 0.24
0 1 18 1.37 0.11
0 1 19 0.52 0.1
0 1 20 1.72 0.14
0 1 21 28.01 0.43
0 1 22 4.67 0.2
0 1 23 8.4 0.23
0 1 24 0.89 0.12
0 2 0 412.49 4.7
0 2 1 368.79 4
0 2 2 23.7 0.42
0 2 3 1628.41 18.98
0 2 4 209.06 2.06
0 2 5 9.9 0.18
0 2 6 597.79 5.79
0 2 7 631.82 6.33
0 2 8 233.3 2.32
0 2 9 45.73 0.51
0 2 10 7.24 0.18
0 2 11 6.63 0.19
0 2 12 13.17 0.27
0 2 13 134.49 1.73
0 2 14 101.16 1.24
0 2 15 22.68 0.3
0 2 16 7.9 0.19
0 2 17 29.66 0.44
0 2 18 0.27 0.09
0 2 19 38.51 0.46
0 2 20 67.39 1.51
0 2 21 37.55 0.53
0 2 22 1.97 0.15
0 2 23 4.85 0.2
0 2 24 0.48 0.15
0 3 1 46.43 0.6
0 3 2 58.41 0.65
0 3 3 73.1 0.76
0 3 4 42.38 0.56
0 3 5 95.48 0.98
0 3 6 57.07 0.62
0 3 7 284.51 2.67
0 3 8 101.14 0.94
0 3 9 228.3 2.14
0 3 10 21.46 0.3
0 3 11 4.05 0.16
0 3 12 0.2 0.11
0 3 13 29.38 0.49
0 3 14 39.88 0.48
0 3 15 34.01 0.45
0 3 16 33.12 0.43
0 3 17 17.58 0.27
0 3 18 21.11 0.3
0 3 19 26.22 0.45
0 3 20 3.32 0.24
0 3 21 7.44 0.23
0 3 22 4.38 0.2
0 3 23 21.13 0.44
0 3 24 1.25 0.15
0 4 0 926.24 11.91
0 4 1 336.7 4.45
0 4 2 975.61 9.58
0 4 3 147.03 1.67
0 4 4 42.33 0.53
0 4 5 546.95 5.26
0 4 6 138.76 1.53
0 4 7 51.49 0.58
0 4 8 597.62 5.97
0 4 9 677.49 7.18
0 4 10 933.32 11.37
0 4 11 1.13 0.1
0 4 12 40.58 0.51
0 4 13 22.34 0.36
0 4 14 16.46 0.25
0 4 15 6.72 0.17
0 4 16 80.8 0.95
0 4 17 6.82 0.21
0 4 18 6.76 0.21
0 4 19 3.25 0.25
0 4 20 31.8 0.53
0 4 21 52.88 0.77
0 4 22 1.41 0.17
0 4 23 1.23 0.16
0 5 1 56.17 0.7
0 5 2 13.21 0.24
0 5 3 1079.1 11.25
0 5 4 326.29 3.08
0 5 5 674.4 6.87
0 5 6 68.07 0.74
0 5 7 165.9 1.81
0 5 8 184 2.23
0 5 9 19.49 0.34
0 5 10 133.56 1.61
0 5 11 190.69 1.98
0 5 12 13.32 0.29
0 5 13 31.23 0.43
0 5 14 0.26 0.1
0 5 15 0.45 0.11
0 5 16 4.13 0.18
0 5 17 0.38 0.11
0 5 18 4.3 0.18
0 5 19 2.29 0.27
0 5 20 6.65 0.26
0 5 21 3.7 0.21
0 5 22 -0.03 0.27
0 5 23 0.03 0.14
0 6 0 352.49 4.38
0 6 1 1348.34 15.92
0 6 2 755.87 7.79
0 6 3 350.5 4.56
0 6 4 1171.94 13.59
0 6 5 187.41 1.99
0 6 6 122.32 1.18
0 6 7 111.44 1.2
0 6 8 166.84 2.06
0 6 9 49.88 0.76
0 6 10 129.91 1.72
0 6 11 281.9 3
0 6 12 43.16 0.59
0 6 13 4.13 0.16
0 6 14 8.43 0.21
0 6 15 10.96 0.24
0 6 16 2.21 0.14
0 6 17 2.63 0.19
0 6 18 1.47 0.13
0 6 19 4.68 0.25
0 6 20 -0.3 0.24
0 6 21 6.39 0.26
0 6 22 3.89 0.22
0 6 23 0.27 0.14
0 7 1 412.11 4.52
0 7 2 162.16 1.61
0 7 3 157.74 1.6
0 7 4 10.36 0.19
0 7 5 11.95 0.2
0 7 6 159.67 1.67
0 7 7 22.17 0.3
0 7 8 29.5 0.41
0 7 9 26.78 0.4
0 7 10 108.06 1.5
0 7 11 3.83 0.17
0 7 12 188.55 2.47
0 7 13 90.14 0.99
0 7 14 57.35 0.94
0 7 15 3.15 0.16
0 7 16 26.9 0.38
0 7 17 5.04 0.2
0 7 18 24.45 0.67
0 7 19 0.76 0.16
0 7 20 5.01 0.24
0 7 21 8.11 0.27
0 7 22 2.56 0.18
0 7 23 0.13 0.13
0 8 0 145.14 1.6
0 8 1 1.19 0.08
0 8 2 254.49 2.34
0 8 3 1.07 0.08
0 8 4 94.95 1.03
0 8 5 74.15 1.04
0 8 6 15.68 0.26
0 8 7 22.12 0.38
0 8 8 159.91 1.79
0 8 9 88.34 1.13
0 8 10 42.11 0.64
0 8 11 120.93 1.75
0 8 12 262.55 3
0 8 13 52.48 0.64
0 8 14 13.25 0.22
0 8 15 1.24 0.12
0 8 16 34.88 0.59
0 8 17 22.44 0.43
0 8 18 155.03 3.21
0 8 19 6 0.25
0 8 20 23.84 0.55
0 8 21 0.06 0.15
0 8 22 14.69 0.34
0 9 1 9.97 0.18
0 9 2 14.07 0.21
0 9 3 9.46 0.18
0 9 4 263.11 2.72
0 9 5 81.33 0.96
0 9 6 79.3 0.99
0 9 7 2.02 0.12
0 9 8 61.07 0.83
0 9 9 9.84 0.26
0 9 10 13.93 0.44
0 9 11 12.08 0.23
0 9 12 14.2 0.29
0 9 13 0.45 0.09
0 9 14 6.62 0.16
0 9 15 30.53 0.49
0 9 16 16.64 0.29
0 9 17 12.05 0.33
0 9 18 17.68 0.49
0 9 19 16.64 0.57
0 9 20 4.26 0.27
0 9 21 0.89 0.14
0 9 22 0.65 0.14
0 10 0 0.21 0.1
0 10 1 178.3 1.62
0 10 2 563.83 5.6
0 10 3 13.84 0.21
0 10 4 20.21 0.28
0 10 5 91.91 1.24
0 10 6 19.01 0.34
0 10 7 39.49 0.64
0 10 8 0.05 0.11
0 10 9 2.11 0.14
0 10 10 78.45 1.43
0 10 11 116.68 1.24
0 10 12 2.76 0.14
0 10 13 1.63 0.11
0 10 14 3.86 0.16
0 10 15 29.55 0.47
0 10 16 6.47 0.29
0 10 17 38.75 0.82
0 10 18 21.24 0.5
0 10 19 -0.05 0.26
0 10 20 1.29 0.2
0 10 21 2 0.21
0 10 22 0.25 0.31
0 11 1 42.5 0.46
0 11 2 95.88 0.95
0 11 3 120.02 1.15
0 11 4 850.44 10.6
0 11 5 27.85 0.37
0 11 6 16.55 0.29
0 11 7 0.31 0.1
0 11 8 5.39 0.16
0 11 9 0.65 0.08
0 11 10 4.37 0.16
0 11 11 60.3 1.03
0 11 12 12.05 0.23
0 11 13 5.63 0.28
0 11 14 0.01 0.09
0 11 15 2.75 0.14
0 11 16 0.13 0.11
0 11 17 12.47 0.7
0 11 18 9.77 0.64
0 11 19 0.68 0.19
0 11 20 1.13 0.34
0 11 21 0.12 0.31
0 12 0 0.92 0.13
0 12 1 43.21 0.47
0 12 2 499.13 5.2
0 12 3 562.97 6.6
0 12 4 4.72 0.16
0 12 5 1.74 0.12
0 12 6 0 0.23
0 12 7 30.75 0.51
0 12 8 7.96 0.24
0 12 9 54.01 0.65
0 12 10 57.52 0.93
0 12 11 1.13 0.1
0 12 12 10.25 0.39
0 12 13 5.42 0.18
0 12 14 8.89 0.29
0 12 15 1.5 0.13
0 12 16 0.75 0.17
0 12 17 66.63 3.46
0 12 18 0.68 0.33
0 12 19 7.19 0.52
0 12 20 1.21 0.35
0 13 1 4.53 0.14
0 13 2 99.05 1.01
0 13 3 27.88 0.39
0 13 4 2.03 0.11
0 13 5 12.07 0.24
0 13 6 46.52 0.54
0 13 7 0.01 0.07
0 13 8 53.98 0.75
0 13 9 3.59 0.14
0 13 10 1.15 0.11
0 13 11 0.01 0.09
0 13 12 3.77 0.17
0 13 13 16.35 0.36
0 13 14 13.12 0.45
0 13 15 1.51 0.19
0 13 16 36.53 2.6
0 13 17 8.36 0.79
0 13 18 5.36 0.5
0 13 19 -0.13 0.29
0 13 20 2.25 0.37
0 14 0 4.69 0.19
0 14 1 15.66 0.25
0 14 2 0.47 0.09
0 14 3 36.9 0.42
0 14 4 0.58 0.08
0 14 5 5.44 0.16
0 14 6 0.4 0.09
0 14 7 27.8 0.4
0 14 8 49.36 0.68
0 14 9 0.03 0.09
0 14 10 29.7 0.45
0 14 11 32.1 0.54
0 14 12 41.65 0.59
0 14 13 1.45 0.19
0 14 14 1.37 0.19
0 14 15 9.8 0.96
0 14 16 2.87 0.48
0 14 17 0.9 0.18
0 14 18 1.92 0.35
0 14 19 1.77 0.35
0 15 1 8.98 0.18
0 15 2 2.57 0.11
0 15 3 0.57 0.08
0 15 4 48.51 0.65
0 15 5 104.13 1.54
0 15 6 206.38 2.46
0 15 7 35.16 0.86
0 15 8 0.1 0.09
0 15 9 0.45 0.1
0 15 10 3.33 0.2
0 15 11 0.22 0.12
0 15 12 40.38 0.95
0 15 13 13.42 0.57
0 15 14 21.85 1.55
0 15 15 2.42 0.3
0 15 16 3.61 0.27
0 15 17 0.77 0.17
0 15 18 0.58 0.17
0 16 0 137.63 1.93
0 16 1 6.03 0.27
0 16 2 1.13 0.11
0 16 3 1.03 0.1
0 16 4 31.21 0.49
0 16 5 1.14 0.11
0 16 6 129.65 2.02
0 16 7 283.5 3.74
0 16 8 0.1 0.1
0 16 9 43.69 0.73
0 16 10 5 0.26
0 16 11 0.63 0.14
0 16 12 2.15 0.2
0 16 13 8.96 0.33
0 16 14 3.8 0.27
0 16 15 5.67 0.3
0 16 16 0.08 0.2
0 16 17 0.74 0.17
0 16 18 0.68 0.25
0 17 1 3.02 0.15
0 17 2 16.68 0.33
0 17 3 11.38 0.32
0 17 4 7.17 0.23
0 17 5 33.3 0.72
0 17 6 20.88 0.39
0 17 7 33.33 0.52
0 17 8 83.76 1.15
0 17 9 1.49 0.13
0 17 10 2.52 0.42
0 17 11 5.69 0.31
0 17 12 1.58 0.19
0 17 13 1.7 0.19
0 17 14 55.7 3.65
0 17 15 7.83 0.37
0 17 16 17 1.12
0 17 17 1.58 0.28
0 18 0 25.25 0.6
0 18 1 42.17 0.93
0 18 2 5.33 0.18
0 18 3 0.86 0.11
0 18 4 0.52 0.11
0 18 5 0.07 0.12
0 18 6 7.39 0.24
0 18 7 22.07 1.52
0 18 8 5.75 0.28
0 18 9 2.86 0.37
0 18 10 1.17 0.17
0 18 11 0.02 0.22
0 18 12 3.05 0.38
0 18 13 61.37 1.33
0 18 14 25.27 0.71
0 18 15 2.04 0.31
0 18 16 13.8 0.54
0 19 1 1.16 0.15
0 19 2 7.38 0.27
0 19 3 -0.05 0.24
0 19 4 17.64 0.93
0 19 5 4.84 0.26
0 19 6 4.83 0.26
0 19 7 -0.01 0.21
0 19 8 0.04 0.15
0 19 9 2.24 0.2
0 19 10 7.79 0.33
0 19 11 5.52 0.4
0 19 12 2.9 0.36
0 19 13 6.48 0.42
0 19 14 39.58 0.93
0 19 15 0.23 0.24
0 20 0 12.01 0.54
0 20 1 31.82 0.63
0 20 2 7.71 0.25
0 20 3 2.03 0.16
0 20 4 1.99 0.24
0 20 5 4.82 0.27
0 20 6 5.69 0.41
0 20 7 3.21 0.24
0 20 8 0.19 0.15
0 20 9 4.5 0.53
0 20 10 0 0.14
0 20 11 0.02 0.23
0 20 12 0.18 0.22
0 20 13 1.41 0.27
0 21 1 4.68 0.27
0 21 2 35.15 0.67
0 21 3 24.68 0.72
0 21 4 17.89 0.85
0 21 5 11.63 1.25
0 21 6 16.07 0.52
0 21 7 22.99 1.82
0 21 8 0.45 0.16
0 21 9 2.13 0.24
0 21 10 4.42 0.24
0 21 11 5.72 0.39
0 21 12 0.31 0.22
0 22 0 45.52 1.1
0 22 1 0.07 0.16
0 22 2 0.55 0.17
0 22 3 26.28 0.67
0 22 4 16.03 1.19
0 22 5 23.18 1.31
0 22 6 2.03 0.27
0 22 7 21.06 1.69
0 22 8 3.13 0.22
0 22 9 5.95 0.29
0 22 10 0.25 0.22
0 23 1 2.98 0.21
0 23 2 0.15 0.15
0 23 3 1.77 0.19
0 23 4 0.35 0.26
0 23 5 15.24 1.22
0 23 6 38.37 3.44
0 23 7 8.5 0.59
0 24 0 5.82 0.43
0 24 1 0.6 0.16
0 24 2 2.51 0.2
0 24 3 0.13 0.25
1 0 0 1080.77 15.85
1 0 2 713.8 9.96
1 0 4 78.13 1.08
1 0 6 426.85 6.07
1 0 8 474.41 5.5
1 0 10 1.44 0.18
1 0 12 1.24 0.19
1 0 14 113.53 1.72
1 0 16 29.61 0.54
1 0 18 19.99 0.39
1 0 20 1.12 0.19
1 0 22 0.11 0.17
1 0 24 7.4 0.54
1 1 0 1200.67 21.18
1 1 1 46.8 0.49
1 1 3 4391.51 48.83
1 1 4 522.06 4.92
1 1 5 53.06 0.61
1 1 6 52.5 0.59
1 1 7 4.67 0.13
1 1 8 1.54 0.1
1 1 9 5.91 0.21
1 1 10 75.11 0.82
1 1 11 5.69 0.2
1 1 12 5.28 0.2
1 1 13 3.44 0.14
1 1 14 5.66 0.17
1 1 15 14.07 0.23
1 1 16 12.49 0.23
1 1 17 44.31 0.5
1 1 18 18.15 0.31
1 1 19 0.11 0.1
1 1 20 -0.01 0.23
1 1 21 0 0.23
1 1 22 1.94 0.15
1 1 23 0.53 0.12
1 1 24 9.42 0.56
1 2 0 36.81 0.53
1 2 2 4589.34 101.14
1 2 3 1407.84 13.2
1 2 4 111.23 1.17
1 2 5 19.31 0.29
1 2 6 188.41 2
1 2 7 60.59 0.62
1 2 8 323.47 3.07
1 2 9 325.35 3.46
1 2 10 155.85 1.72
1 2 11 869.09 11.65
1 2 12 58.8 0.7
1 2 13 0.35 0.09
1 2 14 17.63 0.26
1 2 15 38.75 0.44
1 2 16 14.44 0.25
1 2 17 1.61 0.11
1 2 18 42.6 0.57
1 2 19 14.72 0.62
1 2 20 8.18 0.24
1 2 21 5.95 0.21
1 2 22 2.64 0.16
1 2 23 0.04 0.11
1 3 0 289.71 2.8
1 3 1 204.36 2.15
1 3 2 78.99 0.86
1 3 3 271.86 2.91
1 3 4 1.71 0.12
1 3 5 111.98 1.17
1 3 6 63.52 0.69
1 3 7 90.42 1.11
1 3 8 121.65 1.17
1 3 9 333.33 3.2
1 3 10 60.67 0.71
1 3 11 236.26 2.83
1 3 12 222.88 2.65
1 3 13 69.96 0.76
1 3 14 22.31 0.31
1 3 15 21.83 0.3
1 3 16 116.24 1.37
1 3 17 7.71 0.19
1 3 18 4.42 0.16
1 3 19 7.74 0.48
1 3 20 0.38 0.12
1 3 21 0.01 0.11
1 3 22 12.39 0.27
1 3 23 28.93 0.49
1 4 0 66.38 0.71
1 4 1 68.64 0.7
1 4 2 420.79 4.12
1 4 3 1270.52 16.25
1 4 4 855.76 10.11
1 4 5 198.18 2.33
1 4 6 120.72 1.33
1 4 7 122.85 1.13
1 4 8 8.21 0.16
1 4 9 374.82 3.96
1 4 10 34.81 0.49
1 4 11 62.73 0.79
1 4 12 0.59 0.12
1 4 13 0.59 0.09
1 4 14 14.74 0.23
1 4 15 9.53 0.2
1 4 16 4.38 0.16
1 4 17 15.62 0.25
1 4 18 0.96 0.11
1 4 19 0.31 0.15
1 4 20 0.11 0.2
1 4 21 41.71 0.65
1 4 22 47.3 0.71
1 4 23 0.03 0.14
1 5 0 94.63 0.94
1 5 1 57.48 0.76
1 5 2 17.08 0.37
1 5 3 204.71 2.49
1 5 4 1374.83 15.23
1 5 5 79.68 0.86
1 5 6 1.39 0.1
1 5 7 50.76 0.56
1 5 8 1.21 0.08
1 5 9 2.4 0.11
1 5 10 63.56 0.8
1 5 11 1.01 0.11
1 5 12 19.59 0.39
1 5 13 29.01 0.5
1 5 14 3.27 0.16
1 5 15 8.26 0.22
1 5 16 2.87 0.15
1 5 17 1.07 0.13
1 5 18 7.19 0.23
1 5 19 2.64 0.2
1 5 20 1.62 0.18
1 5 21 2.79 0.2
1 5 22 0 0.15
1 5 23 4.22 0.23
1 6 0 2.35 0.13
1 6 1 336.56 3.63
1 6 2 16.1 0.25
1 6 3 372.21 3.62
1 6 4 46.92 0.58
1 6 5 3.31 0.13
1 6 6 209.85 2.01
1 6 7 42.07 0.51
1 6 8 135.29 1.58
1 6 9 112.67 1.26
1 6 10 36.13 0.48
1 6 11 67.27 1
1 6 12 2.46 0.12
1 6 13 14.13 0.28
1 6 14 5.9 0.19
1 6 15 4.17 0.18
1 6 16 10.53 0.25
1 6 17 0.97 0.12
1 6 18 0.81 0.12
1 6 19 36.42 0.93
1 6 20 54.85 1.07
1 6 21 27.67 0.48
1 6 22 7.79 0.27
1 6 23 14.31 0.36
1 7 0 2.61 0.14
1 7 1 259.46 2.82
1 7 2 27.89 0.34
1 7 3 10.49 0.18
1 7 4 98.35 1.07
1 7 5 145.65 1.33
1 7 6 65.59 0.79
1 7 7 727.49 8.03
1 7 8 0.82 0.09
1 7 9 0.36 0.08
1 7 10 22.07 0.34
1 7 11 24.48 0.37
1 7 12 6.28 0.22
1 7 13 23.24 0.41
1 7 14 116.95 1.75
1 7 15 11.12 0.3
1 7 16 -0.01 0.25
1 7 17 1.59 0.13
1 7 18 39.53 1.01
1 7 19 4.95 0.24
1 7 20 3.04 0.2
1 7 21 11.69 0.34
1 7 22 6.03 0.29
1 8 0 1301.34 15.71
1 8 1 125.3 1.42
1 8 2 6.6 0.16
1 8 3 0.78 0.08
1 8 4 48.36 0.52
1 8 5 193.32 1.98
1 8 6 292.96 2.85
1 8 7 126.63 1.66
1 8 8 0.54 0.09
1 8 9 30.63 0.42
1 8 10 5.77 0.2
1 8 11 1.92 0.15
1 8 12 392 5.57
1 8 13 24.6 0.39
1 8 14 9.88 0.22
1 8 15 3.04 0.15
1 8 16 0.14 0.1
1 8 17 2.16 0.15
1 8 18 14.98 0.35
1 8 19 29.49 0.52
1 8 20 20.46 0.49
1 8 21 0.4 0.14
1 8 22 0.22 0.17
1 9 0 65.96 0.71
1 9 1 392.14 3.77
1 9 2 0.28 0.07
1 9 3 21.95 0.3
1 9 4 0.09 0.07
1 9 5 261.17 3
1 9 6 36.29 0.45
1 9 7 22.51 0.36
1 9 8 11.15 0.27
1 9 9 0.42 0.1
1 9 10 1.51 0.13
1 9 11 17.31 0.41
1 9 12 0.06 0.09
1 9 13 8.3 0.28
1 9 14 259.84 7.26
1 9 15 64.47 1.43
1 9 16 6.49 0.26
1 9 17 0.06 0.12
1 9 18 3.23 0.19
1 9 19 27.89 0.83
1 9 20 7.66 0.34
1 9 21 -0.14 0.21
1 9 22 3.61 0.19
1 10 0 347.12 3.37
1 10 1 134.9 1.54
1 10 2 17.16 0.26
1 10 3 33.49 0.49
1 10 4 2.72 0.13
1 10 5 38.05 0.58
1 10 6 33.91 0.53
1 10 7 4.89 0.17
1 10 8 3.84 0.23
1 10 9 26.55 0.55
1 10 10 3.57 0.21
1 10 11 2.23 0.12
1 10 12 9.93 0.31
1 10 13 125.88 1.43
1 10 14 17.16 0.66
1 10 15 0.16 0.14
1 10 16 -0.05 0.33
1 10 17 1.32 0.21
1 10 18 24.34 1.33
1 10 19 17.85 1
1 10 20 -0.02 0.26
1 10 21 17.94 0.77
1 11 0 358.39 3.61
1 11 1 17.61 0.29
1 11 2 31.21 0.41
1 11 3 25.78 0.4
1 11 4 20.78 0.41
1 11 5 149.51 1.88
1 11 6 0.15 0.09
1 11 7 20.46 0.36
1 11 8 9.22 0.21
1 11 9 8.28 0.22
1 11 10 29.24 0.59
1 11 11 0.11 0.1
1 11 12 -0.12 0.22
1 11 13 0.38 0.14
1 11 14 0.2 0.11
1 11 15 6.77 0.36
1 11 16 0.19 0.18
1 11 17 11.98 0.94
1 11 18 0.07 0.18
1 11 19 0.19 0.18
1 11 20 10.08 0.86
1 11 21 0.33 0.18
1 12 0 9.75 0.2
1 12 1 0.04 0.09
1 12 2 69.83 0.92
1 12 3 60.86 0.99
1 12 4 256.31 2.85
1 12 5 35.74 0.56
1 12 6 4.39 0.19
1 12 7 30.36 0.48
1 12 8 14.75 0.27
1 12 9 21.95 0.48
1 12 10 2.43 0.12
1 12 11 8.26 0.23
1 12 12 5.04 0.19
1 12 13 25.24 0.49
1 12 14 6.91 0.3
1 12 15 0.41 0.17
1 12 16 16.63 1.16
1 12 17 0.03 0.18
1 12 18 0.26 0.19
1 12 19 0.2 0.18
1 12 20 0.18 0.18
1 13 0 13.88 0.28
1 13 1 11.09 0.28
1 13 2 24.53 0.46
1 13 3 1.72 0.1
1 13 4 93.4 1.05
1 13 5 404.33 4.84
1 13 6 71.54 0.83
1 13 7 216.21 2.67
1 13 8 73.9 1.22
1 13 9 16.74 0.28
1 13 10 27.38 0.51
1 13 11 1.56 0.14
1 13 12 19 0.35
1 13 13 17.66 0.41
1 13 14 19.35 0.55
1 13 15 44.05 1.09
1 13 16 7.57 0.6
1 13 17 0.5 0.19
1 13 18 3.88 0.35
1 13 19 0.13 0.18
1 13 20 2.49 0.34
1 14 0 7.38 0.21
1 14 1 18.99 0.42
1 14 2 12.17 0.21
1 14 3 46.95 0.51
1 14 4 213.02 2.59
1 14 5 96.48 1.09
1 14 6 3.23 0.17
1 14 7 101.44 1.49
1 14 8 302.56 4.38
1 14 9 128.16 1.99
1 14 10 5.5 0.18
1 14 11 68.63 1.08
1 14 12 1.32 0.15
1 14 13 9.17 0.28
1 14 14 8.07 0.31
1 14 15 18.81 0.43
1 14 16 1.39 0.31
1 14 17 6.93 0.5
1 14 18 16.35 0.62
1 14 19 9.41 0.52
1 15 0 61.82 0.89
1 15 1 16.2 0.25
1 15 2 10.67 0.2
1 15 3 9.52 0.22
1 15 4 2.57 0.12
1 15 5 0.01 0.08
1 15 6 25.07 0.57
1 15 7 11.45 0.32
1 15 8 4.22 0.17
1 15 9 31.89 0.44
1 15 10 52.49 0.97
1 15 11 2.77 0.17
1 15 12 1.18 0.16
1 15 13 3.02 0.22
1 15 14 5.81 0.27
1 15 15 9.16 0.32
1 15 16 1.53 0.18
1 15 17 12.97 0.54
1 15 18 6.66 0.43
1 16 0 30.74 0.48
1 16 1 49.79 0.64
1 16 2 7.98 0.17
1 16 3 23.36 0.42
1 16 4 7.55 0.17
1 16 5 0.07 0.08
1 16 6 1.18 0.11
1 16 7 13.11 0.34
1 16 8 0.02 0.09
1 16 9 3.75 0.18
1 16 10 0.29 0.1
1 16 11 1.35 0.21
1 16 12 1 0.17
1 16 13 1.73 0.18
1 16 14 6.09 0.27
1 16 15 3.87 0.24
1 16 16 1.49 0.17
1 17 0 -0.01 0.22
1 17 1 28.21 0.41
1 17 2 11.36 0.23
1 17 3 6.21 0.16
1 17 4 0.22 0.08
1 17 5 14.94 0.4
1 17 6 0.07 0.14
1 17 7 14.15 0.63
1 17 8 4.65 0.17
1 17 9 1.06 0.12
1 17 10 11.72 0.4
1 17 11 0.05 0.12
1 17 12 6.41 0.28
1 17 13 6.09 0.27
1 17 14 0.07 0.14
1 17 15 4.59 0.39
1 17 16 8.52 0.46
1 18 0 4.48 0.15
1 18 1 18.6 0.34
1 18 2 44.89 0.83
1 18 3 1.75 0.11
1 18 4 13.11 0.25
1 18 5 1.27 0.11
1 18 6 4.51 0.17
1 18 7 26.28 1.49
1 18 8 20.62 0.57
1 18 9 7.92 0.25
1 18 10 45.57 1.13
1 18 11 2.17 0.2
1 18 12 0.78 0.26
1 18 13 2.29 0.3
1 18 14 1.35 0.27
1 18 15 0.34 0.23
1 19 0 0.04 0.09
1 19 1 0.43 0.09
1 19 2 0.07 0.1
1 19 3 8.11 0.34
1 19 4 103.03 4.98
1 19 5 7.95 0.49
1 19 6 0.32 0.14
1 19 7 9.31 0.66
1 19 8 17.89 0.77
1 19 9 14.99 0.7
1 19 10 15.46 0.78
1 19 11 0.27 0.34
1 19 12 2.07 0.29
1 19 13 -0.13 0.21
1 19 14 0.12 0.22
1 20 0 0 0.22
1 20 1 10 0.26
1 20 2 35.92 1.3
1 20 3 7.21 0.35
1 20 4 5.23 0.23
1 20 5 12.44 0.79
1 20 6 4.6 0.26
1 20 7 1.5 0.18
1 20 8 1.61 0.19
1 20 9 12.07 0.64
1 20 10 25.23 0.82
1 20 11 0.59 0.27
1 20 12 0.08 0.22
1 20 13 0.23 0.22
1 21 0 1.65 0.26
1 21 1 0.5 0.13
1 21 2 12.23 0.37
1 21 3 17.38 0.72
1 21 4 0.13 0.15
1 21 5 1.64 0.28
1 21 6 0.29 0.18
1 21 7 0.24 0.15
1 21 8 0.01 0.14
1 21 9 0.49 0.15
1 21 10 4.45 0.46
1 21 11 2.42 0.18
1 22 0 14.83 0.57
1 22 1 17.24 0.47
1 22 2 0.04 0.12
1 22 3 0.47 0.13
1 22 4 0.56 0.13
1 22 5 0.14 0.15
1 22 6 0.6 0.16
1 22 7 0.73 0.16
1 22 8 0.57 0.15
1 22 9 1.33 0.26
1 23 0 39.09 0.71
1 23 1 0.93 0.17
1 23 2 1.94 0.15
1 23 3 18.42 0.53
1 23 4 5.98 0.26
1 23 5 6.75 0.53
1 23 6 4.06 0.23
1 23 7 18.14 1.25
1 24 0 0.13 0.14
1 24 1 0.65 0.17
1 24 2 7.41 0.44
2 0 0 804.47 8.84
2 0 2 981.71 16.2
2 0 4 8.79 0.33
2 0 6 2.28 0.16
2 0 8 57.73 0.77
2 0 10 1.52 0.19
2 0 12 948.33 26.49
2 0 14 40.86 0.59
2 0 16 12.8 0.32
2 0 18 2.6 0.25
2 0 20 86.91 2.4
2 0 22 10.88 0.36
2 1 0 201.68 1.92
2 1 1 31.76 0.39
2 1 2 150.17 1.71
2 1 3 564.43 5.33
2 1 4 7.81 0.23
2 1 5 5.98 0.16
2 1 6 23.07 0.28
2 1 7 209.24 2.23
2 1 8 22.29 0.29
2 1 9 2.36 0.16
2 1 10 4.85 0.19
2 1 11 52.65 0.69
2 1 12 6.01 0.22
2 1 13 210.71 2.25
2 1 14 257.36 2.7
2 1 15 29.79 0.38
2 1 16 3.78 0.15
2 1 17 22.49 0.32
2 1 18 36.37 0.44
2 1 19 19.21 0.39
2 1 20 1.25 0.14
2 1 21 1.86 0.15
2 1 22 1.56 0.14
2 1 23 2.4 0.14
2 2 0 1143.78 12.78
2 2 1 229.03 2.29
2 2 2 636.86 6.86
2 2 3 694.22 6.9
2 2 4 165.12 1.84
2 2 5 72.76 0.81
2 2 6 73.1 0.78
2 2 7 15.83 0.23
2 2 8 97.7 0.91
2 2 9 32.38 0.42
2 2 10 26.86 0.4
2 2 11 103.33 1.19
2 2 12 156.43 1.68
2 2 13 23.43 0.33
2 2 14 16.9 0.29
2 2 15 0.66 0.13
2 2 16 6.51 0.18
2 2 17 0.21 0.09
2 2 18 0.68 0.1
2 2 19 0.32 0.13
2 2 20 0.47 0.13
2 2 21 0.95 0.14
2 2 22 1.7 0.14
2 2 23 0.09 0.11
2 3 0 856.14 8.46
2 3 1 150.04 1.43
2 3 2 95.09 1.07
2 3 3 728.17 8.04
2 3 4 1948.13 24.66
2 3 5 3526.56 67.62
2 3 6 214.57 2.08
2 3 7 44.03 0.45
2 3 8 83.37 0.79
2 3 9 1.52 0.1
2 3 10 25.96 0.39
2 3 11 41.27 0.53
2 3 12 10.58 0.21
2 3 13 51.75 0.65
2 3 14 0.52 0.09
2 3 15 0.39 0.09
2 3 16 3.13 0.14
2 3 17 1.12 0.11
2 3 18 0.11 0.09
2 3 19 0.78 0.13
2 3 20 0.28 0.12
2 3 21 0.64 0.13
2 3 22 0.15 0.13
2 3 23 0.27 0.14
2 4 0 94.28 0.93
2 4 1 6.02 0.16
2 4 2 1414.82 15.68
2 4 3 1214.43 13.36
2 4 4 1285.09 14.35
2 4 5 4.1 0.14
2 4 6 17.63 0.22
2 4 7 11.66 0.18
2 4 8 0.12 0.07
2 4 9 0.26 0.08
2 4 10 313.19 3.5
2 4 11 12.71 0.27
2 4 12 102.5 1.54
2 4 13 0.42 0.09
2 4 14 1.89 0.11
2 4 15 1.34 0.1
2 4 16 8.62 0.19
2 4 17 29.27 0.37
2 4 18 6.49 0.19
2 4 19 10.67 0.26
2 4 20 2.96 0.2
2 4 21 22.29 0.47
2 4 22 12.42 0.49
2 4 23 1.95 0.17
2 5 0 30.6 0.38
2 5 1 81.21 0.98
2 5 2 4.89 0.14
2 5 3 137 1.52
2 5 4 6.27 0.16
2 5 5 4.68 0.14
2 5 6 23.39 0.3
2 5 7 11.32 0.18
2 5 8 76.09 0.77
2 5 9 226.63 2.45
2 5 10 30.44 0.43
2 5 11 9.35 0.24
2 5 12 103.93 1.28
2 5 13 4.09 0.16
2 5 14 3.34 0.16
2 5 15 9.29 0.22
2 5 16 1.41 0.13
2 5 17 25.17 0.57
2 5 18 28.95 0.58
2 5 19 5.4 0.45
2 5 20 13.35 0.34
2 5 21 1.97 0.18
2 5 22 22.94 0.57
2 5 23 27.64 0.99
2 6 0 7.43 0.15
2 6 1 92.7 1.06
2 6 2 52.4 0.63
2 6 3 40.33 0.44
2 6 4 1.29 0.09
2 6 5 2.01 0.1
2 6 6 121.23 1.18
2 6 7 0.18 0.09
2 6 8 127.95 1.38
2 6 9 47.9 0.71
2 6 10 2.66 0.17
2 6 11 33.25 0.53
2 6 12 5.63 0.21
2 6 13 8.13 0.21
2 6 14 20.44 0.39
2 6 15 4.11 0.18
2 6 16 5.5 0.21
2 6 17 -0.09 0.26
2 6 18 5.99 0.66
2 6 19 4.01 0.22
2 6 20 22.67 0.58
2 6 21 22.91 0.44
2 6 22 0.23 0.14
2 7 0 320.64 3.12
2 7 1 130.65 1.26
2 7 2 203.7 2.51
2 7 3 113.43 1.22
2 7 4 17.1 0.28
2 7 5 74.23 0.88
2 7 6 173.34 1.64
2 7 7 159.57 1.53
2 7 8 27.52 0.37
2 7 9 27.27 0.37
2 7 10 1.24 0.16
2 7 11 0.08 0.11
2 7 12 11.43 0.23
2 7 13 6.3 0.19
2 7 14 5.98 0.19
2 7 15 100.79 1.41
2 7 16 1.82 0.13
2 7 17 0.72 0.12
2 7 18 0.02 0.14
2 7 19 1.16 0.16
2 7 20 0.11 0.19
2 7 21 11.98 0.31
2 7 22 17.63 0.36
2 8 0 1303.23 18.54
2 8 1 461.59 4.97
2 8 2 850.23 10.49
2 8 3 7.83 0.2
2 8 4 0.93 0.1
2 8 5 0.48 0.09
2 8 6 5.08 0.17
2 8 7 94.31 1.08
2 8 8 0.74 0.12
2 8 9 215.95 3.07
2 8 10 1.35 0.12
2 8 11 3.58 0.48
2 8 12 6.31 0.27
2 8 13 2.33 0.15
2 8 14 0.88 0.11
2 8 15 2.41 0.15
2 8 16 19.06 0.42
2 8 17 2.37 0.15
2 8 18 -0.05 0.23
2 8 19 -0.29 0.23
2 8 20 4.76 0.23
2 8 21 6.11 0.25
2 8 22 4.34 0.27
2 9 0 87.71 1
2 9 1 462.28 4.94
2 9 2 743.26 9.33
2 9 3 11.27 0.24
2 9 4 4.07 0.16
2 9 5 0.88 0.11
2 9 6 14.08 0.27
2 9 7 21.88 0.37
2 9 8 271.22 3.45
2 9 9 51.76 0.98
2 9 10 0.75 0.12
2 9 11 6.94 0.44
2 9 12 0.16 0.18
2 9 13 6.07 0.33
2 9 14 22.54 0.56
2 9 15 81.67 1.31
2 9 16 42.81 0.96
2 9 17 0.15 0.14
2 9 18 2.75 0.19
2 9 19 0.21 0.14
2 9 20 1.9 0.17
2 9 21 2.61 0.28
2 10 0 12.54 0.25
2 10 1 22.22 0.34
2 10 2 84.45 1
2 10 3 33.07 0.48
2 10 4 30.82 0.46
2 10 5 43.7 0.59
2 10 6 27.12 0.42
2 10 7 78.1 1.27
2 10 8 7.38 0.22
2 10 9 0 0.19
2 10 10 58.9 0.88
2 10 11 0.76 0.12
2 10 12 1.26 0.21
2 10 13 78.74 1.32
2 10 14 66.51 1.16
2 10 15 7.36 0.39
2 10 16 0.49 0.29
2 10 17 6.02 0.49
2 10 18 19.08 0.67
2 10 19 -0.09 0.3
2 10 20 0.19 0.3
2 10 21 0.62 0.31
2 11 0 4.41 0.17
2 11 1 0.48 0.1
2 11 2 89.91 1.09
2 11 3 2.51 0.14
2 11 4 16.73 0.36
2 11 5 15.85 0.37
2 11 6 14.57 0.27
2 11 7 1.7 0.11
2 11 8 16.83 0.4
2 11 9 25.32 0.54
2 11 10 13.39 0.29
2 11 11 1.28 0.13
2 11 12 10.96 0.4
2 11 13 2.6 0.25
2 11 14 1.88 0.24
2 11 15 6.78 0.37
2 11 17 -0.07 0.3
2 11 18 1.47 0.34
2 11 19 0.21 0.3
2 11 20 6.39 0.5
2 12 0 3.26 0.18
2 12 1 39.34 0.52
2 12 2 33.93 0.47
2 12 3 1.83 0.13
2 12 4 2.09 0.12
2 12 5 3.69 0.14
2 12 6 3.41 0.16
2 12 7 1.34 0.1
2 12 8 1.43 0.11
2 12 9 156.11 1.96
2 12 10 268.79 3.35
2 12 11 105.08 1.53
2 12 12 2.14 0.15
2 12 13 2.54 0.29
2 12 14 27.62 0.64
2 12 15 9.6 0.56
2 12 16 3.4 0.38
2 12 17 12.92 0.61
2 12 18 9.23 0.56
2 12 19 16.35 0.65
2 12 20 -0.09 0.28
2 13 0 34.76 0.57
2 13 1 13.09 0.27
2 13 2 32.62 0.47
2 13 3 7.8 0.24
2 13 4 54.09 0.82
2 13 5 76.59 1.07
2 13 6 111.13 1.44
2 13 7 78.51 0.91
2 13 8 18.27 0.49
2 13 9 22.31 0.52
2 13 10 54.6 0.98
2 13 11 39.96 0.67
2 13 12 40.65 0.89
2 13 13 0.18 0.13
2 13 14 0.35 0.29
2 13 15 2.16 0.35
2 13 16 2.87 0.37
2 13 17 2.21 0.36
2 13 18 11.68 0.58
2 13 19 0.75 0.31
2 14 0 26.38 0.37
2 14 1 116.52 1.48
2 14 2 26.74 0.42
2 14 3 63.09 0.89
2 14 4 35.2 0.65
2 14 5 35.74 0.47
2 14 6 10.78 0.23
2 14 7 9.5 0.22
2 14 8 30.1 0.55
2 14 9 75.96 1.21
2 14 10 3.32 0.16
2 14 11 -0.02 0.23
2 14 12 4.42 0.22
2 14 13 2.55 0.33
2 14 14 -0.07 0.27
2 14 15 2.73 0.36
2 14 16 3.4 0.38
2 14 17 5.41 0.49
2 14 18 0.95 0.31
2 15 0 14.32 0.23
2 15 1 3.37 0.14
2 15 2 7.35 0.2
2 15 3 49.61 0.67
2 15 4 19.52 0.32
2 15 5 2.77 0.14
2 15 6 182.36 2.05
2 15 7 147.49 1.73
2 15 8 62.5 0.98
2 15 9 3.77 0.18
2 15 10 1.48 0.12
2 15 11 14.29 0.38
2 15 12 1.49 0.18
2 15 13 0.28 0.15
2 15 14 18.91 0.43
2 15 15 0.46 0.28
2 15 16 3.49 0.41
2 15 17 0.01 0.26
2 15 18 0.68 0.27
2 16 0 0.33 0.08
2 16 1 14.58 0.29
2 16 2 0.36 0.09
2 16 3 7.42 0.17
2 16 4 0.11 0.08
2 16 5 49.32 0.8
2 16 6 8.46 0.2
2 16 7 20.4 0.42
2 16 8 28.23 0.41
2 16 9 18.95 0.35
2 16 10 2.98 0.19
2 16 11 3.63 0.25
2 16 12 9.86 0.32
2 16 13 16.77 0.52
2 16 14 -0.02 0.2
2 16 15 3.5 0.39
2 16 16 0.34 0.26
2 16 17 0.14 0.25
2 17 0 3.83 0.15
2 17 1 21.13 0.37
2 17 2 13.63 0.29
2 17 3 0.39 0.09
2 17 4 2.05 0.11
2 17 5 32.02 0.54
2 17 6 69.84 1.13
2 17 7 1.33 0.12
2 17 8 3.94 0.33
2 17 9 -0.15 0.19
2 17 10 8.92 0.32
2 17 11 0.03 0.12
2 17 12 1.98 0.19
2 17 13 3.53 0.24
2 17 14 2.96 0.21
2 17 15 2.9 0.34
2 17 16 0.34 0.27
2 18 0 51.48 0.86
2 18 1 -0.05 0.24
2 18 2 0.39 0.09
2 18 3 4.18 0.15
2 18 4 20.03 0.33
2 18 5 15.09 0.33
2 18 6 17.94 0.44
2 18 7 27.1 0.56
2 18 8 4.6 0.28
2 18 9 1.66 0.15
2 18 10 1.07 0.14
2 18 11 10.29 0.38
2 18 12 14.09 0.37
2 18 13 1.21 0.17
2 18 14 0.09 0.14
2 18 15 0.95 0.15
2 19 0 34.24 0.65
2 19 1 8.8 0.27
2 19 2 0.15 0.11
2 19 3 4.35 0.19
2 19 4 57.15 1.59
2 19 5 2.23 0.14
2 19 6 4.99 0.22
2 19 7 3.89 0.23
2 19 8 0.89 0.14
2 19 9 0.06 0.12
2 19 10 2.61 0.17
2 19 11 0.74 0.13
2 19 12 27.93 0.54
2 19 13 0.52 0.15
2 20 0 20.68 0.56
2 20 1 0.24 0.11
2 20 2 0.12 0.11
2 20 3 6.76 0.21
2 20 4 1.82 0.14
2 20 5 10.1 0.4
2 20 6 2.51 0.17
2 20 7 0.3 0.13
2 20 8 0.99 0.14
2 20 9 0.08 0.12
2 20 10 4.69 0.21
2 20 11 17.59 0.34
2 20 12 5.84 0.52
2 21 0 2.24 0.15
2 21 1 6.81 0.29
2 21 2 8.12 0.36
2 21 3 0.81 0.12
2 21 4 5.3 0.28
2 21 5 29.42 0.68
2 21 6 0.13 0.12
2 21 7 0.81 0.14
2 21 8 1.05 0.14
2 21 9 5.51 0.21
2 21 10 1.29 0.14
2 21 11 9.49 0.46
2 22 0 2.82 0.15
2 22 1 0.95 0.12
2 22 2 1.85 0.14
2 22 3 3.13 0.17
2 22 4 8.33 0.28
2 22 5 0.14 0.15
2 22 6 3.82 0.25
2 22 7 2.62 0.16
2 22 8 10.32 0.44
2 23 0 0.34 0.11
2 23 1 0.67 0.11
2 23 2 0.07 0.1
2 23 3 6.55 0.26
2 23 4 -0.08 0.2
2 23 5 1.41 0.16
3 0 0 759.4 10.36
3 0 2 1706.73 23.94
3 0 4 2.07 0.15
3 0 6 109.48 1.28
3 0 8 15.71 0.31
3 0 10 32.76 0.6
3 0 12 83.05 1.27
3 0 14 270.64 3.68
3 0 16 96.06 1.23
3 0 18 0.83 0.19
3 0 20 5.73 0.3
3 0 22 0.15 0.16
3 1 0 409.31 4.38
3 1 1 756.79 7.65
3 1 2 82.85 0.76
3 1 3 174.95 1.57
3 1 4 104.2 1.01
3 1 5 88.74 0.93
3 1 6 195.19 1.82
3 1 7 247.44 2.31
3 1 8 283.15 2.88
3 1 9 1.76 0.1
3 1 10 37.54 0.54
3 1 11 2.21 0.13
3 1 12 23.58 0.31
3 1 13 18.55 0.27
3 1 14 259.04 2.77
3 1 15 51.37 0.57
3 1 16 96.17 0.99
3 1 17 2.67 0.13
3 1 18 2.4 0.15
3 1 19 5.6 0.21
3 1 20 3.37 0.18
3 1 21 1.63 0.14
3 1 22 4.84 0.19
3 2 0 438.33 4.09
3 2 1 612.46 5.93
3 2 2 42.12 0.45
3 2 3 94.16 0.91
3 2 4 15.27 0.22
3 2 5 34.08 0.38
3 2 6 0.23 0.08
3 2 7 23.48 0.3
3 2 8 145.35 1.46
3 2 9 9.85 0.19
3 2 10 0.58 0.12
3 2 11 20.51 0.37
3 2 12 1.1 0.09
3 2 13 61.05 0.64
3 2 14 25.28 0.33
3 2 15 44.31 0.51
3 2 16 1.13 0.11
3 2 17 2.57 0.13
3 2 18 10.03 0.25
3 2 19 0 0.23
3 2 20 0.23 0.12
3 2 21 19.9 0.5
3 2 22 1.07 0.13
3 3 0 90.76 0.89
3 3 1 58.49 0.6
3 3 2 1.33 0.09
3 3 3 40.99 0.45
3 3 4 103.86 0.99
3 3 5 38.06 0.42
3 3 6 78.81 1
3 3 7 0.14 0.08
3 3 8 19.98 0.29
3 3 9 25.98 0.37
3 3 10 0.66 0.11
3 3 11 38.91 0.98
3 3 12 0.45 0.11
3 3 13 23.49 0.38
3 3 14 27.8 0.47
3 3 15 16.39 0.27
3 3 16 1.55 0.11
3 3 17 0.09 0.09
3 3 18 8.19 0.34
3 3 19 2.56 0.16
3 3 20 9.08 0.24
3 3 21 6.96 0.22
3 3 22 1.27 0.13
3 4 0 102.77 1.04
3 4 1 156.81 1.6
3 4 2 9.98 0.19
3 4 3 27.89 0.34
3 4 4 290.37 2.61
3 4 5 51.25 0.57
3 4 6 22.28 0.3
3 4 7 111.84 1.12
3 4 8 98.07 0.98
3 4 9 0.54 0.11
3 4 10 65.88 0.95
3 4 11 45.82 0.56
3 4 12 1.66 0.12
3 4 13 0.04 0.09
3 4 14 -0.04 0.24
3 4 15 -0.01 0.24
3 4 16 5.66 0.18
3 4 17 1.78 0.12
3 4 18 0.27 0.12
3 4 19 0.72 0.13
3 4 20 0.68 0.16
3 4 21 3.13 0.37
3 4 22 13.65 0.53
3 5 0 89.82 1.02
3 5 1 0.05 0.07
3 5 2 130.42 1.36
3 5 3 0.09 0.07
3 5 4 27.36 0.32
3 5 5 931.55 10.31
3 5 6 1152.17 14.61
3 5 7 288.65 2.92
3 5 8 45.27 0.51
3 5 9 93.76 1.13
3 5 10 10.06 0.24
3 5 11 10.36 0.3
3 5 12 1.01 0.12
3 5 13 33.45 0.56
3 5 14 7.71 0.23
3 5 15 0.29 0.13
3 5 16 49.88 0.89
3 5 17 26.17 1.36
3 5 18 0.28 0.17
3 5 19 0.11 0.17
3 5 20 3.71 0.25
3 5 21 -0.04 0.22
3 5 22 1.57 0.23
3 6 0 90.3 1.11
3 6 1 194.45 2.14
3 6 2 797.22 8.62
3 6 3 998.75 11.38
3 6 4 17.07 0.25
3 6 5 145.99 1.49
3 6 6 128.1 1.41
3 6 7 2.04 0.12
3 6 8 0.1 0.09
3 6 9 84.81 1.2
3 6 10 101.51 1.46
3 6 11 93.99 2.02
3 6 12 41.9 0.58
3 6 13 51.32 0.76
3 6 14 3.79 0.21
3 6 15 1.63 0.15
3 6 16 3.01 0.21
3 6 17 5.75 0.5
3 6 18 3.54 0.25
3 6 19 8.46 0.52
3 6 20 14.2 1.08
3 6 21 1.92 0.2
3 6 22 0.43 0.25
3 7 0 91.57 0.95
3 7 1 6.03 0.19
3 7 2 13.41 0.26
3 7 3 862.32 11.89
3 7 4 504.23 5.76
3 7 5 17.9 0.27
3 7 6 0.44 0.09
3 7 7 5.69 0.17
3 7 8 11.73 0.25
3 7 9 44.57 0.64
3 7 10 25.04 0.42
3 7 11 13.3 0.31
3 7 12 11.49 0.36
3 7 13 13.08 0.34
3 7 14 6.57 0.26
3 7 15 0.66 0.13
3 7 16 0.09 0.12
3 7 17 0.49 0.17
3 7 18 6.26 0.3
3 7 19 16.77 0.48
3 7 20 0.62 0.17
3 7 21 -0.03 0.21
3 8 0 75.62 0.9
3 8 1 40.64 0.6
3 8 2 95.21 1.38
3 8 3 0.81 0.1
3 8 4 8.9 0.22
3 8 5 14.34 0.27
3 8 6 47.41 0.84
3 8 7 17.32 0.37
3 8 8 16.5 0.36
3 8 9 18.42 0.37
3 8 10 7.94 0.34
3 8 11 6.2 0.3
3 8 12 4.64 0.21
3 8 13 4.93 0.21
3 8 14 1.86 0.15
3 8 15 5.72 0.3
3 8 16 -0.03 0.22
3 8 17 0.34 0.16
3 8 18 0.2 0.16
3 8 19 3.7 0.24
3 8 20 -0.09 0.22
3 8 21 0.31 0.16
3 9 0 1.79 0.13
3 9 1 0.11 0.1
3 9 2 -0.03 0.25
3 9 3 39.95 0.74
3 9 4 5.62 0.19
3 9 5 20.19 0.46
3 9 6 28.51 0.44
3 9 7 6.98 0.19
3 9 8 6.82 0.19
3 9 9 6.46 0.3
3 9 10 -0.03 0.22
3 9 11 25.06 0.97
3 9 12 7.18 0.34
3 9 13 14.91 0.75
3 9 14 0.29 0.2
3 9 15 0.27 0.2
3 9 17 17.48 0.9
3 9 18 11.09 0.35
3 9 19 6.22 0.28
3 9 20 0.19 0.16
3 9 21 -0.22 0.28
3 10 0 6.49 0.2
3 10 1 24.94 0.38
3 10 2 2.24 0.14
3 10 3 156.26 2.05
3 10 4 29.54 0.51
3 10 5 2.7 0.15
3 10 6 1.27 0.11
3 10 7 9.78 0.24
3 10 8 5.28 0.19
3 10 9 0.82 0.15
3 10 10 169.94 3.13
3 10 11 18.86 0.54
3 10 12 218.88 3.86
3 10 13 38.56 0.78
3 10 14 0.07 0.24
3 10 15 0.16 0.28
3 10 16 4.32 0.46
3 10 17 2.24 0.37
3 10 18 49.13 1.17
3 10 19 5.65 0.49
3 10 20 8.49 0.53
3 11 0 2.4 0.14
3 11 1 0.56 0.11
3 11 2 69.47 1.26
3 11 3 6.6 0.16
3 11 4 24.04 0.39
3 11 5 106.83 1.2
3 11 6 17.4 0.34
3 11 7 0.38 0.08
3 11 8 4.09 0.15
3 11 9 8.85 0.22
3 11 10 144.26 1.81
3 11 11 12.27 0.55
3 11 12 133.17 2.23
3 11 13 65.44 1.17
3 11 14 9.76 2.26
3 11 15 -0.15 0.28
3 11 16 58.22 1.34
3 11 17 27.47 0.81
3 11 18 6.27 0.52
3 11 19 6.27 0.51
3 11 20 3.26 0.38
3 12 0 28.03 0.35
3 12 1 2.11 0.12
3 12 2 1.62 0.11
3 12 3 72.68 1.05
3 12 4 6.39 0.17
3 12 5 46.19 0.65
3 12 6 8.89 0.21
3 12 7 6.32 0.19
3 12 8 0.01 0.08
3 12 9 0.19 0.09
3 12 10 29.38 0.56
3 12 11 16.53 0.59
3 12 12 19.12 0.71
3 12 13 2.74 0.6
3 12 14 -0.52 0.27
3 12 15 13.01 0.63
3 12 16 30.56 0.87
3 12 17 -0.23 0.3
3 12 18 3.09 0.39
3 12 19 24.46 0.74
3 13 0 13.09 0.26
3 13 1 2.83 0.13
3 13 2 10.33 0.19
3 13 3 1.4 0.1
3 13 4 81.74 1.1
3 13 5 25.28 0.49
3 13 6 29.87 0.48
3 13 7 16.9 0.47
3 13 8 0.15 0.09
3 13 9 0.05 0.09
3 13 10 0.16 0.09
3 13 11 6.78 0.24
3 13 12 2.83 0.25
3 13 13 3.12 0.36
3 13 14 1.71 0.33
3 13 15 -0.14 0.29
3 13 16 0.47 0.32
3 13 17 24.13 0.75
3 13 18 14.79 0.62
3 14 0 26.86 0.34
3 14 1 14.37 0.29
3 14 2 109.79 1.33
3 14 3 0.15 0.08
3 14 4 2.43 0.11
3 14 5 14.1 0.35
3 14 6 4.26 0.14
3 14 7 6.06 0.21
3 14 8 25.6 0.54
3 14 9 0.06 0.1
3 14 10 35.1 0.6
3 14 11 11.4 0.39
3 14 13 0.04 0.27
3 14 14 -0.27 0.27
3 14 15 2.29 0.35
3 14 16 10.12 0.54
3 14 17 0.31 0.29
3 14 18 1.13 0.31
3 15 0 44.91 0.55
3 15 1 33.59 0.42
3 15 2 0.59 0.09
3 15 3 18.07 0.29
3 15 4 19.38 0.38
3 15 5 0.71 0.09
3 15 6 0.7 0.09
3 15 7 166.77 2.46
3 15 8 11.67 0.3
3 15 9 29.77 0.62
3 15 10 2.36 0.16
3 15 11 6.89 0.79
3 15 12 2.39 0.16
3 15 13 3.01 0.35
3 15 14 0.17 0.28
3 15 15 1.13 0.31
3 15 16 0.07 0.27
3 15 17 2.28 0.34
3 16 0 30.16 0.4
3 16 1 47.67 0.69
3 16 2 4.8 0.16
3 16 3 6.43 0.17
3 16 4 1.29 0.1
3 16 5 19.03 0.34
3 16 6 10.03 0.28
3 16 7 0.18 0.09
3 16 8 25.92 0.65
3 16 9 117.5 4.16
3 16 10 23.67 0.68
3 16 11 7.73 0.26
3 16 12 2.22 0.16
3 16 13 2.79 0.35
3 16 14 15.17 0.6
3 16 15 0.18 0.27
3 16 16 0.15 0.26
3 17 0 8.08 0.19
3 17 1 15.37 0.27
3 17 2 67.36 0.89
3 17 3 5.66 0.17
3 17 4 -0.12 0.25
3 17 5 15.15 0.34
3 17 6 33.87 0.69
3 17 7 49.25 1
3 17 8 72.38 1.98
3 17 9 24.46 0.76
3 17 10 6.23 0.25
3 17 11 2.77 0.17
3 17 12 0.91 0.13
3 17 13 12.7 0.57
3 17 14 16.81 0.62
3 17 15 -0.16 0.27
3 18 0 235.46 3.48
3 18 1 32.96 1.19
3 18 2 7.42 0.38
3 18 3 11.24 0.5
3 18 4 3.91 0.27
3 18 5 2.42 0.15
3 18 6 9.8 0.32
3 18 7 2.89 0.33
3 18 8 14.6 0.53
3 18 9 0 0.12
3 18 10 0.25 0.17
3 18 11 -0.01 0.2
3 18 12 0.67 0.13
3 18 13 0.13 0.14
3 18 14 0.27 0.27
3 19 0 2.06 0.14
3 19 1 33.62 0.98
3 19 2 1.44 0.13
3 19 3 0.04 0.11
3 19 4 8.01 0.33
3 19 5 0.62 0.12
3 19 6 3.36 0.17
3 19 7 16.11 0.84
3 19 8 0.45 0.13
3 19 9 1.49 0.15
3 19 10 2.12 0.15
3 19 11 0.03 0.12
3 19 12 3.27 0.28
3 20 0 32.76 0.91
3 20 1 47.28 1.19
3 20 2 1.58 0.14
3 20 3 3.57 0.18
3 20 4 13.83 0.46
3 20 5 2.1 0.14
3 20 6 12.73 0.43
3 20 7 6.57 0.42
3 20 8 6.49 0.52
3 20 9 6.6 0.3
3 20 10 2.47 0.16
3 20 11 0.04 0.11
3 21 0 43.07 1.26
3 21 1 2 0.14
3 21 2 0.47 0.12
3 21 3 1.43 0.13
3 21 4 0.97 0.12
3 21 5 2.31 0.14
3 21 6 3.2 0.24
3 21 7 12.79 0.5
3 21 8 4.96 0.32
3 21 9 8.34 0.43
3 22 0 4.01 0.21
3 22 1 3.81 0.18
3 22 2 0.09 0.11
3 22 3 0 0.21
3 22 4 0.34 0.11
3 22 5 1.05 0.12
3 22 6 1.8 0.15
3 22 7 0.6 0.15
3 23 0 1.7 0.13
3 23 1 0.59 0.11
3 23 2 -0.12 0.2
4 0 0 0.35 0.1
4 0 2 1037.58 19.72
4 0 4 0.02 0.11
4 0 6 17.11 0.57
4 0 8 5.2 0.26
4 0 10 339.05 6.08
4 0 12 18.99 0.53
4 0 14 -0.11 0.22
4 0 16 21.64 0.55
4 0 18 2.77 0.32
4 0 20 2.09 0.3
4 1 0 9.43 0.19
4 1 1 48.22 0.63
4 1 2 17.47 0.29
4 1 3 30.02 0.4
4 1 4 239.88 2.61
4 1 5 0.49 0.1
4 1 6 22.81 0.34
4 1 7 37.12 0.66
4 1 8 58.36 0.95
4 1 9 125.14 1.83
4 1 10 8.91 0.26
4 1 11 2.67 0.17
4 1 12 0.54 0.12
4 1 13 2.7 0.18
4 1 14 5.59 0.21
4 1 15 72.97 0.92
4 1 16 18.03 0.48
4 1 17 38.28 0.95
4 1 18 0.09 0.13
4 1 19 -0.02 0.22
4 1 20 0.69 0.14
4 1 21 1.16 0.14
4 2 0 66.37 0.83
4 2 1 5.84 0.16
4 2 2 39.87 0.59
4 2 3 271.98 2.88
4 2 4 91.87 1.1
4 2 5 1.42 0.11
4 2 6 1.84 0.13
4 2 7 0.17 0.1
4 2 8 0.1 0.09
4 2 9 3.27 0.15
4 2 10 3.98 0.15
4 2 11 4.02 0.18
4 2 12 31.64 0.47
4 2 13 5.44 0.19
4 2 14 25.92 0.38
4 2 15 46.95 0.58
4 2 16 12.75 0.28
4 2 17 18.33 0.38
4 2 18 20.64 0.43
4 2 19 10.51 0.28
4 2 20 0.48 0.13
4 2 21 1.2 0.14
4 3 0 23.7 0.33
4 3 1 48.14 0.56
4 3 2 48.96 0.62
4 3 3 46.23 0.55
4 3 4 36.45 0.47
4 3 5 3.08 0.14
4 3 6 140.56 1.41
4 3 7 21.26 0.31
4 3 8 0.72 0.1
4 3 9 0.61 0.09
4 3 10 50.62 0.6
4 3 11 28.01 0.49
4 3 12 18.73 0.34
4 3 13 11.8 0.28
4 3 14 1 0.12
4 3 15 5.87 0.21
4 3 16 49.12 0.61
4 3 17 102.17 2.68
4 3 18 0.25 0.13
4 3 19 6.49 0.3
4 3 20 1.26 0.15
4 3 21 2.29 0.16
4 4 0 90.51 1.16
4 4 1 244.07 2.59
4 4 2 21.58 0.35
4 4 3 34.15 0.43
4 4 4 630.39 7.38
4 4 5 184.49 1.89
4 4 6 2.85 0.14
4 4 7 70.39 0.83
4 4 8 0.2 0.09
4 4 9 0.19 0.08
4 4 10 37.08 0.7
4 4 11 95.13 1.39
4 4 12 46.67 0.67
4 4 13 4.48 0.18
4 4 14 1.9 0.14
4 4 15 6.74 0.23
4 4 16 4.2 0.18
4 4 17 1.86 0.16
4 4 18 0.93 0.15
4 4 19 10.66 0.37
4 4 20 8.94 0.33
4 4 21 0.43 0.16
4 5 0 217.22 2.17
4 5 1 -0.02 0.23
4 5 2 59.21 0.78
4 5 3 82.51 0.91
4 5 4 333.18 3.3
4 5 5 677.03 7.85
4 5 6 80.42 0.99
4 5 7 226.22 2.31
4 5 8 37.57 0.46
4 5 9 5.39 0.15
4 5 10 0.37 0.08
4 5 11 3.43 0.15
4 5 12 43.63 0.59
4 5 13 1.97 0.13
4 5 14 6.29 0.19
4 5 15 2.72 0.15
4 5 16 -0.03 0.25
4 5 17 1.18 0.19
4 5 18 1.34 0.19
4 5 19 3.9 0.26
4 5 20 0.65 0.17
4 5 21 0.03 0.15
4 6 0 10.28 0.19
4 6 1 22.26 0.28
4 6 2 105.67 1.2
4 6 3 150.37 1.77
4 6 4 70.4 0.84
4 6 5 8.73 0.2
4 6 6 324.39 3.35
4 6 7 7.18 0.2
4 6 8 194.05 2.63
4 6 9 87.3 1.59
4 6 10 31.19 0.54
4 6 11 3.25 0.15
4 6 12 12.41 0.29
4 6 13 1.44 0.15
4 6 14 0.21 0.12
4 6 15 0.03 0.13
4 6 16 1.84 0.32
4 6 17 1.66 0.19
4 6 18 0.2 0.16
4 6 19 -0.08 0.28
4 6 20 0.46 0.24
4 6 21 2.91 0.21
4 7 0 74.6 1.02
4 7 1 5.48 0.16
4 7 2 15.81 0.26
4 7 3 2.43 0.13
4 7 4 1.34 0.12
4 7 5 9.91 0.24
4 7 6 84.39 1.18
4 7 7 333.28 4.03
4 7 8 193.74 2.38
4 7 9 82.63 1.51
4 7 10 11.19 0.23
4 7 11 6.15 0.23
4 7 12 1.61 0.15
4 7 13 0.14 0.12
4 7 14 34.97 0.53
4 7 15 4.98 0.22
4 7 16 6.44 0.45
4 7 17 10.69 0.34
4 7 18 0.27 0.22
4 7 19 10.82 0.35
4 7 20 1.15 0.18
4 8 0 15.06 0.3
4 8 1 68.2 1.05
4 8 2 0.32 0.1
4 8 3 20.37 0.42
4 8 4 4.46 0.18
4 8 5 3.16 0.14
4 8 6 7.73 0.27
4 8 7 82.48 2.07
4 8 8 1.34 0.11
4 8 9 0.22 0.2
4 8 10 13.02 0.49
4 8 11 16.37 0.49
4 8 12 29.49 0.75
4 8 13 13.48 0.31
4 8 14 134.28 1.75
4 8 15 1.39 0.32
4 8 16 2.1 0.33
4 8 17 1.03 0.18
4 8 18 0.69 0.18
4 8 19 2.01 0.2
4 8 20 7.14 0.29
4 9 0 109.65 1.72
4 9 1 7.36 0.21
4 9 2 41.26 0.78
4 9 3 0.36 0.08
4 9 4 61.93 0.94
4 9 5 9.56 0.19
4 9 6 1.8 0.1
4 9 7 21.06 0.52
4 9 8 1.35 0.15
4 9 9 0.13 0.12
4 9 10 11.82 0.31
4 9 11 12.78 0.4
4 9 12 7.48 0.38
4 9 13 60.75 1.11
4 9 14 94.8 17.3
4 9 15 36.13 0.93
4 9 16 13.9 0.6
4 9 17 2.09 0.35
4 9 18 1.54 0.34
4 9 19 3.49 0.39
4 9 20 6.73 0.5
4 10 0 658.57 9.24
4 10 1 92.2 0.95
4 10 2 5.62 0.2
4 10 3 5.12 0.15
4 10 4 0.39 0.08
4 10 5 19.53 0.37
4 10 6 16.53 0.39
4 10 7 1.85 0.12
4 10 8 17.25 0.48
4 10 9 13.28 0.4
4 10 10 2.18 0.16
4 10 11 1.78 0.16
4 10 12 47.47 1.16
4 10 13 35.74 0.77
4 10 14 0.25 0.3
4 10 15 13.34 0.62
4 10 16 2.02 0.36
4 10 17 0.01 0.3
4 10 18 0.45 0.32
4 10 19 0.66 0.32
4 11 0 3.22 0.14
4 11 1 18.09 0.31
4 11 2 39.85 0.65
4 11 3 5.49 0.15
4 11 4 3.61 0.14
4 11 5 72.25 1.26
4 11 6 7.53 0.21
4 11 7 117.43 1.59
4 11 8 0.95 0.11
4 11 9 0.74 0.13
4 11 10 0.07 0.13
4 11 11 -0.14 0.24
4 11 12 6.68 0.33
4 11 13 0.03 0.29
4 11 14 16.51 0.65
4 11 15 -0.1 0.29
4 11 16 1.86 0.36
4 11 17 0.03 0.3
4 11 18 0.1 0.3
4 11 19 0.37 0.3
4 12 0 118.85 1.49
4 12 1 4.78 0.16
4 12 2 1.98 0.1
4 12 3 6.85 0.2
4 12 4 60.96 0.95
4 12 5 31.35 0.53
4 12 6 6.86 0.18
4 12 7 35.24 0.75
4 12 8 0.29 0.09
4 12 9 3.17 0.19
4 12 10 4.25 0.21
4 12 11 31.25 0.84
4 12 12 8.41 0.39
4 12 13 55.52 1.28
4 12 14 0.31 0.3
4 12 15 1.82 0.35
4 12 16 3.36 0.39
4 12 17 -0.02 0.3
4 12 18 1.08 0.32
4 13 0 1.18 0.1
4 13 1 0.66 0.09
4 13 2 -0.05 0.22
4 13 3 6.1 0.16
4 13 4 0.15 0.08
4 13 5 0.32 0.08
4 13 6 25.98 0.6
4 13 7 5.69 0.22
4 13 8 5.48 0.16
4 13 9 6.19 0.23
4 13 10 26.76 0.77
4 13 11 1.4 0.19
4 13 12 25.29 0.76
4 13 13 14.58 0.61
4 13 14 0.83 0.31
4 13 15 3.18 0.38
4 13 16 1.12 0.32
4 13 17 5.74 0.47
4 14 0 51.41 0.8
4 14 1 1.83 0.11
4 14 2 14.18 0.26
4 14 3 2.89 0.12
4 14 4 0.63 0.09
4 14 5 -0.02 0.23
4 14 6 3.04 0.13
4 14 7 12.7 0.35
4 14 8 2.96 0.15
4 14 9 17.11 0.59
4 14 10 45.99 1.08
4 14 11 3.82 0.27
4 14 12 1.17 0.19
4 14 13 0.65 0.3
4 14 14 -0.13 0.28
4 14 15 1.9 0.34
4 14 16 0.06 0.28
4 14 17 2.84 0.35
4 15 0 32.95 0.66
4 15 1 3.51 0.14
4 15 2 1.75 0.11
4 15 3 85.14 1.36
4 15 4 6.56 0.17
4 15 5 4.26 0.15
4 15 6 5.25 0.17
4 15 7 6.02 0.22
4 15 8 36.44 1.27
4 15 9 1.13 0.19
4 15 10 6.59 0.3
4 15 11 6.25 0.3
4 15 12 0.74 0.18
4 15 13 0.95 0.31
4 15 14 -0.16 0.27
4 15 15 8.77 0.51
4 15 16 11.44 0.54
4 16 0 17.63 0.33
4 16 1 203.38 3.07
4 16 2 70.58 0.92
4 16 3 137.49 1.64
4 16 4 36.75 0.79
4 16 5 5.97 0.17
4 16 6 4.75 0.29
4 16 7 2.15 0.21
4 16 8 35.23 1.3
4 16 9 34.15 0.84
4 16 10 2.48 0.17
4 16 11 18.88 0.46
4 16 12 0.82 0.19
4 16 13 0.37 0.29
4 16 14 1.74 0.33
4 16 15 1.04 0.31
4 17 0 -0.12 0.25
4 17 1 0.9 0.16
4 17 2 127.4 8.77
4 17 3 37.97 3.3
4 17 4 1.36 0.15
4 17 5 6.34 0.21
4 17 6 5.01 0.2
4 17 7 0.11 0.11
4 17 8 27.42 0.93
4 17 9 12.51 0.66
4 17 10 29.75 0.68
4 17 11 0.57 0.18
4 17 12 2.49 0.22
4 17 13 0.3 0.28
4 17 14 0.46 0.28
4 18 0 0.32 0.12
4 18 1 5.1 0.34
4 18 2 0.18 0.12
4 18 3 0.36 0.12
4 18 4 4.3 0.19
4 18 5 17.34 0.61
4 18 6 7.14 0.28
4 18 7 13.24 0.44
4 18 8 0.8 0.14
4 18 9 16.57 0.36
4 18 10 30.06 1.1
4 18 11 14.02 0.64
4 18 12 15.92 1.18
4 19 0 3.03 0.16
4 19 1 0.35 0.11
4 19 2 2.45 0.23
4 19 3 9.35 0.41
4 19 4 1.01 0.12
4 19 5 0.23 0.12
4 19 6 -0.03 0.22
4 19 7 -0.23 0.23
4 19 8 -0.03 0.25
4 19 9 3.59 0.27
4 19 10 23.37 0.82
4 19 11 4.53 0.2
4 20 0 0.02 0.11
4 20 1 25.07 0.74
4 20 2 1.72 0.14
4 20 3 2.85 0.16
4 20 4 3.79 0.17
4 20 5 1.25 0.13
4 20 6 5.86 0.25
4 20 7 0.21 0.17
4 20 8 0.44 0.12
4 20 9 8.15 0.33
4 21 0 10.04 0.32
4 21 1 6.33 0.22
4 21 2 0 0.1
4 21 3 2.05 0.17
4 21 4 0.35 0.11
4 21 5 1.97 0.13
4 21 6 1.09 0.12
4 21 7 -0.05 0.28
4 22 0 2.44 0.17
4 22 1 18 0.5
4 22 2 12.1 0.6
4 22 3 35.88 1.42
4 22 4 3.4 0.27
5 0 0 6.74 0.32
5 0 2 6.04 0.26
5 0 4 1.29 0.16
5 0 6 4.34 0.25
5 0 8 0.51 0.12
5 0 10 0.13 0.11
5 0 12 -0.12 0.22
5 0 14 18.38 0.5
5 0 16 0.34 0.25
5 0 18 6.26 0.42
5 0 20 2.16 0.29
5 1 0 1 0.11
5 1 1 124.97 1.61
5 1 2 59.88 0.95
5 1 3 30.54 0.52
5 1 4 20.86 0.35
5 1 5 67.01 0.95
5 1 6 7.02 0.24
5 1 7 25.49 0.34
5 1 8 5.67 0.17
5 1 9 0.61 0.08
5 1 10 0.46 0.08
5 1 11 6.07 0.21
5 1 12 1.34 0.14
5 1 13 5.34 0.22
5 1 14 2.09 0.19
5 1 15 18.22 1.71
5 1 16 0.97 0.17
5 1 17 0.67 0.16
5 1 18 4.54 0.25
5 1 19 0.17 0.14
5 1 20 4.75 0.27
5 2 0 102.76 1.48
5 2 1 0.11 0.1
5 2 2 1.16 0.12
5 2 3 110.16 1.49
5 2 4 39.15 0.6
5 2 5 123.66 1.51
5 2 6 143.74 1.55
5 2 7 1.39 0.12
5 2 8 19.34 0.28
5 2 9 18.07 0.38
5 2 10 6.41 0.19
5 2 11 36.91 0.65
5 2 12 135.6 1.72
5 2 13 36.48 0.55
5 2 14 3.09 0.19
5 2 15 0.15 0.13
5 2 16 0.02 0.15
5 2 17 0.04 0.15
5 2 18 9.96 0.32
5 2 19 7.7 0.28
5 2 20 1.43 0.16
5 3 0 6.63 0.17
5 3 1 0.1 0.09
5 3 2 23.51 0.43
5 3 3 0.42 0.1
5 3 4 0.33 0.12
5 3 5 267.82 3.14
5 3 6 111.93 1.36
5 3 7 452.33 6.47
5 3 8 118.61 1.45
5 3 9 8.92 0.21
5 3 10 17.85 0.37
5 3 11 8.47 0.23
5 3 12 -0.04 0.22
5 3 13 3.03 0.19
5 3 14 37.12 0.57
5 3 16 12.42 0.38
5 3 17 18.89 0.44
5 3 18 22.18 0.47
5 3 19 9.08 0.29
5 3 20 0.66 0.14
5 4 0 80.6 1.31
5 4 1 42.47 0.58
5 4 2 12.95 0.29
5 4 3 0.45 0.11
5 4 4 4.53 0.18
5 4 5 235.69 2.4
5 4 6 1.27 0.11
5 4 7 53.26 0.73
5 4 8 140.67 1.44
5 4 9 1.37 0.09
5 4 10 0.57 0.09
5 4 11 2.28 0.13
5 4 12 9.15 0.25
5 4 13 6.05 0.22
5 4 14 1.7 0.15
5 4 15 1.25 0.17
5 4 16 10.99 0.33
5 4 17 8.43 0.3
5 4 18 0.4 0.15
5 4 19 23.38 0.48
5 4 20 7.93 0.44
5 5 0 85.79 1.28
5 5 1 19.1 0.3
5 5 2 16.4 0.3
5 5 3 3.25 0.16
5 5 4 9.79 0.19
5 5 5 2.38 0.12
5 5 6 135.24 1.39
5 5 7 -0.02 0.28
5 5 8 3.51 0.13
5 5 9 2.2 0.11
5 5 10 8.04 0.17
5 5 11 7.06 0.24
5 5 12 1.61 0.13
5 5 13 8.51 0.25
5 5 14 -0.06 0.22
5 5 15 1.5 0.18
5 5 16 0.1 0.14
5 5 17 9.89 0.49
5 5 18 29.62 0.78
5 5 19 4.78 0.4
5 5 20 0.33 0.25
5 6 0 17.49 0.44
5 6 1 32.17 0.63
5 6 2 242.62 3.64
5 6 3 7.64 0.18
5 6 4 -0.05 0.23
5 6 5 25.32 0.35
5 6 6 0.23 0.08
5 6 7 5.56 0.15
5 6 8 7.01 0.19
5 6 9 1.56 0.11
5 6 10 23.92 0.56
5 6 11 -0.05 0.22
5 6 12 1.62 0.25
5 6 13 1.32 0.16
5 6 14 13 0.65
5 6 16 1.98 0.2
5 6 17 -0.06 0.22
5 6 18 3.26 0.25
5 6 19 0.15 0.16
5 7 0 8.66 0.2
5 7 1 115.66 1.57
5 7 2 0.85 0.09
5 7 3 10.17 0.24
5 7 4 101.19 1.22
5 7 5 0.6 0.18
5 7 6 25.84 0.52
5 7 7 0.01 0.1
5 7 8 99.01 1.36
5 7 9 61.05 0.76
5 7 10 2.74 0.14
5 7 11 0.11 0.1
5 7 12 6.24 0.27
5 7 13 -0.03 0.24
5 7 14 1.5 0.3
5 7 15 42.05 1.01
5 7 16 70.23 1.38
5 7 17 16.41 0.65
5 7 18 1.75 0.2
5 7 19 0.16 0.16
5 8 0 1.32 0.1
5 8 1 86.23 1.09
5 8 2 83.23 1.28
5 8 3 179.82 2.46
5 8 4 8.49 0.23
5 8 5 0.39 0.11
5 8 6 0.57 0.12
5 8 7 10.65 0.28
5 8 8 14.13 0.34
5 8 9 10.99 0.27
5 8 10 217.33 3.46
5 8 11 44.77 1.08
5 8 12 4.6 0.33
5 8 13 5.45 0.5
5 8 14 55.58 1.27
5 8 15 1.88 0.21
5 8 16 5.54 0.36
5 8 17 8.24 0.32
5 8 18 6.78 0.29
5 8 19 0.14 0.15
5 9 0 13.53 0.43
5 9 1 8.44 0.19
5 9 2 40.94 0.67
5 9 3 78.98 1.02
5 9 4 16.47 0.26
5 9 5 4.69 0.18
5 9 6 5.48 0.18
5 9 7 4 0.17
5 9 8 210.47 3.91
5 9 9 25.12 0.7
5 9 10 46.51 1.29
5 9 11 8.44 0.27
5 9 12 0.77 0.14
5 9 13 -0.13 0.27
5 9 14 2.02 0.34
5 9 15 8.14 0.53
5 9 16 37.78 0.96
5 9 17 8.8 0.55
5 9 18 1.39 0.32
5 10 0 48.05 0.85
5 10 1 23.95 0.36
5 10 2 55.61 0.99
5 10 3 2.4 0.12
5 10 4 8.64 0.18
5 10 5 0.06 0.09
5 10 6 1.31 0.12
5 10 7 0.2 0.11
5 10 8 0.51 0.11
5 10 9 47.55 1.04
5 10 10 4.6 0.22
5 10 11 9.4 0.27
5 10 12 6.5 0.31
5 10 13 -0.04 0.28
5 10 14 0.21 0.29
5 10 15 23.69 0.75
5 10 16 2.24 0.36
5 10 17 -0.03 0.29
5 10 18 0.37 0.29
5 11 0 56.26 1.01
5 11 1 8.38 0.24
5 11 2 24.6 0.54
5 11 3 0.19 0.08
5 11 4 2.28 0.11
5 11 5 15.39 0.27
5 11 6 4.73 0.17
5 11 7 0.08 0.1
5 11 8 2.05 0.13
5 11 9 1.24 0.12
5 11 10 -0.04 0.26
5 11 11 12.1 0.46
5 11 12 1.78 0.21
5 11 13 4.78 0.31
5 11 14 11.32 0.57
5 11 15 6.28 0.31
5 11 16 2.96 0.36
5 11 17 2.44 0.34
5 12 0 28.48 0.44
5 12 1 250.51 4.07
5 12 2 24.43 0.47
5 12 3 8.36 0.19
5 12 4 0.47 0.09
5 12 5 1.39 0.1
5 12 6 7.41 0.25
5 12 7 1.43 0.12
5 12 8 2.26 0.14
5 12 9 -0.11 0.24
5 12 10 0.75 0.18
5 12 11 34.57 0.65
5 12 12 12.83 0.54
5 12 13 0.12 0.17
5 12 14 0.89 0.31
5 12 15 1.16 0.31
5 12 16 -0.03 0.27
5 13 0 166.45 2.01
5 13 1 34.38 0.59
5 13 2 0.27 0.09
5 13 3 16.47 0.4
5 13 4 10.02 0.3
5 13 5 30.03 0.52
5 13 6 0.08 0.09
5 13 7 20.04 0.68
5 13 8 6.53 0.25
5 13 9 33.95 0.92
5 13 10 8.91 0.34
5 13 11 1.09 0.19
5 13 12 6.2 0.29
5 13 13 5.06 0.28
5 13 14 7.1 0.48
5 13 15 5.19 0.44
5 13 16 -0.03 0.26
5 14 0 20.76 0.4
5 14 1 17.79 0.31
5 14 2 20.43 0.48
5 14 3 144.56 1.95
5 14 4 81.88 1.33
5 14 5 3.47 0.17
5 14 6 53.75 0.77
5 14 7 -0.01 0.22
5 14 8 0.32 0.14
5 14 9 24.44 0.53
5 14 10 26.26 0.72
5 14 11 15.42 0.66
5 14 12 7.35 0.31
5 14 13 5.98 0.29
5 14 14 12.88 0.56
5 14 15 5.4 0.44
5 15 0 -0.03 0.25
5 15 1 -0.09 0.25
5 15 2 -0.05 0.26
5 15 3 32.91 0.6
5 15 4 117.83 2.82
5 15 5 67.22 1.84
5 15 6 5.74 0.24
5 15 7 0.42 0.12
5 15 8 2.99 0.24
5 15 9 0.74 0.18
5 15 10 3.38 0.23
5 15 11 11.32 0.36
5 15 12 -0.11 0.22
5 15 13 1.95 0.2
5 15 14 0.03 0.27
5 16 0 0.92 0.13
5 16 1 14.16 0.53
5 16 2 21.94 0.63
5 16 3 2.75 0.35
5 16 4 0.62 0.13
5 16 5 7.84 0.36
5 16 6 -0.01 0.22
5 16 7 5.82 0.35
5 16 8 1.71 0.13
5 16 9 9.93 0.34
5 16 10 2.56 0.21
5 16 11 10.31 0.34
5 16 12 1.29 0.19
5 16 13 0.32 0.16
5 17 0 0.76 0.13
5 17 1 0.87 0.13
5 17 2 8.07 0.24
5 17 3 0.06 0.12
5 17 4 4 0.19
5 17 5 0.75 0.12
5 17 6 13.73 0.53
5 17 7 1.96 0.18
5 17 8 5.53 0.21
5 17 9 -0.07 0.22
5 17 10 0.54 0.17
5 17 11 1.63 0.19
5 17 12 0.79 0.24
5 18 0 -0.04 0.23
5 18 1 0.91 0.13
5 18 2 7.9 0.23
5 18 3 0.3 0.15
5 18 4 14.68 0.42
5 18 5 29.05 0.7
5 18 6 0.12 0.11
5 18 7 -0.01 0.22
5 18 8 6.85 0.23
5 18 9 2.15 0.2
5 18 10 2.22 0.2
5 19 0 14.86 0.73
5 19 1 0.73 0.12
5 19 2 0.72 0.13
5 19 3 7.07 0.34
5 19 4 0.03 0.11
5 19 5 0.87 0.12
5 19 6 7.18 0.27
5 19 7 0.39 0.11
5 19 8 1.2 0.14
5 19 9 1.96 0.19
5 20 0 24.97 1.09
5 20 1 8.34 0.29
5 20 2 0.07 0.1
5 20 3 0.54 0.11
5 20 4 3.24 0.16
5 20 5 4.16 0.27
5 20 6 4.38 0.24
5 20 7 1.16 0.24
5 21 0 9.98 0.27
5 21 1 8.31 0.41
5 21 2 -0.06 0.19
5 21 3 -0.06 0.21
6 0 0 2.72 0.16
6 0 2 2.51 0.17
6 0 4 6.67 0.25
6 0 6 12.57 0.35
6 0 8 30.4 0.6
6 0 10 46.06 1.21
6 0 12 1.65 0.27
6 0 14 70.31 1.51
6 0 16 3.84 0.38
6 0 18 1.05 0.27
6 1 0 0.03 0.07
6 1 1 2.58 0.14
6 1 2 1.88 0.09
6 1 3 11.1 0.2
6 1 4 42.75 0.54
6 1 5 0.95 0.09
6 1 6 17.79 0.26
6 1 7 66.76 0.71
6 1 8 192.11 2.28
6 1 9 129.96 1.57
6 1 10 3.26 0.14
6 1 11 0.29 0.09
6 1 12 0.46 0.11
6 1 13 0.05 0.15
6 1 14 -0.09 0.21
6 1 15 14.83 0.39
6 1 16 28.53 0.56
6 1 17 0.57 0.16
6 1 18 0.46 0.15
6 1 19 0.3 0.13
6 2 0 205.96 2.09
6 2 1 197.57 2.27
6 2 2 16.37 0.34
6 2 3 9.11 0.19
6 2 4 0.05 0.08
6 2 5 1.19 0.09
6 2 6 17.94 0.26
6 2 7 7.85 0.18
6 2 8 9.97 0.21
6 2 9 131.19 1.63
6 2 10 55.63 0.96
6 2 11 11.35 0.29
6 2 12 -0.03 0.23
6 2 13 0.19 0.15
6 2 14 0.88 0.22
6 2 15 0.83 0.17
6 2 16 0.21 0.15
6 2 17 2 0.26
6 2 18 0.09 0.14
6 2 19 1.13 0.15
6 3 0 50.42 0.73
6 3 1 52.96 0.56
6 3 2 47.45 0.51
6 3 3 64.47 0.82
6 3 4 17.32 0.25
6 3 5 5 0.15
6 3 6 56.31 0.66
6 3 7 145.69 1.63
6 3 8 20.08 0.35
6 3 9 13.74 0.23
6 3 10 6.66 0.17
6 3 11 1.5 0.1
6 3 12 3.74 0.16
6 3 13 8.24 0.46
6 3 14 3.47 0.24
6 3 15 3.07 0.23
6 3 16 2.15 0.19
6 3 17 0.34 0.15
6 3 18 0.05 0.14
6 3 19 0.27 0.22
6 4 0 1.88 0.1
6 4 1 195.54 2.26
6 4 2 4.91 0.16
6 4 3 0.09 0.08
6 4 4 49.1 0.69
6 4 5 17.59 0.28
6 4 6 13.93 0.23
6 4 7 -0.05 0.23
6 4 8 3.61 0.14
6 4 9 5.23 0.16
6 4 10 0.81 0.09
6 4 11 4.41 0.15
6 4 12 7.63 0.24
6 4 14 7.68 0.45
6 4 15 0.16 0.15
6 4 16 5.51 0.26
6 4 17 2.3 0.19
6 4 18 0.34 0.15
6 5 0 0.97 0.09
6 5 1 2.25 0.11
6 5 2 0.03 0.08
6 5 3 3.23 0.13
6 5 4 6.76 0.17
6 5 5 31.03 0.4
6 5 6 41.37 0.63
6 5 7 4.21 0.15
6 5 8 39.19 0.53
6 5 9 1.6 0.1
6 5 10 2.72 0.13
6 5 11 0.17 0.09
6 5 12 12 0.51
6 5 13 0.59 0.16
6 5 14 0.07 0.14
6 5 15 6.99 0.41
6 5 16 4.58 0.24
6 5 17 29.19 0.76
6 5 18 4.58 0.38
6 6 0 3.28 0.15
6 6 1 17.55 0.27
6 6 2 27.18 0.43
6 6 3 34.43 0.45
6 6 4 61.56 0.69
6 6 5 29.12 0.37
6 6 6 2.5 0.12
6 6 7 12.2 0.23
6 6 8 0.54 0.09
6 6 9 7.48 0.2
6 6 10 0.83 0.1
6 6 11 14.47 0.42
6 6 12 0.71 0.15
6 6 13 1.35 0.19
6 6 14 0.52 0.25
6 6 15 7.3 0.44
6 6 16 11.75 0.52
6 6 17 0.16 0.24
6 6 18 23.85 0.68
6 7 0 2.49 0.11
6 7 1 5.97 0.18
6 7 2 17.17 0.28
6 7 3 1.99 0.12
6 7 4 26.15 0.42
6 7 5 140.76 1.76
6 7 6 6.23 0.24
6 7 7 13.52 0.31
6 7 8 0.64 0.11
6 7 9 22.92 0.45
6 7 10 21.06 0.5
6 7 11 6.28 0.23
6 7 12 5.08 0.43
6 7 13 1.3 0.28
6 7 14 0.88 0.26
6 7 15 1.97 0.3
6 7 16 8.87 0.47
6 7 17 16.97 0.58
6 8 0 10.05 0.26
6 8 1 5.59 0.21
6 8 2 7.96 0.25
6 8 3 184.73 3.7
6 8 4 16.74 0.35
6 8 5 4.03 0.21
6 8 6 0.57 0.14
6 8 7 9.45 0.27
6 8 8 0.26 0.15
6 8 9 2.6 0.18
6 8 10 39.56 1.2
6 8 11 0.73 0.28
6 8 12 20.71 0.67
6 8 13 6.58 0.45
6 8 14 0.62 0.25
6 8 15 0.23 0.24
6 8 16 0.03 0.23
6 8 17 3.55 0.37
6 9 0 18.95 0.35
6 9 1 9.64 0.22
6 9 2 7.16 0.25
6 9 3 1.89 0.16
6 9 4 23.25 0.5
6 9 5 23.81 0.68
6 9 6 8.55 0.3
6 9 7 22.18 0.75
6 9 8 0.24 0.13
6 9 9 13.22 0.56
6 9 10 46.17 1.09
6 9 11 23.92 0.72
6 9 12 1.9 0.33
6 9 13 23.35 0.71
6 10 0 24.81 0.66
6 10 1 1.21 0.12
6 10 2 6.44 0.22
6 10 3 -0.02 0.25
6 10 4 13.7 0.39
6 10 5 4.42 0.22
6 10 6 -0.05 0.25
6 10 7 -0.08 0.26
6 10 8 0 0.26
6 10 9 2.66 0.2
6 10 10 0.69 0.18
6 10 11 36.48 0.92
6 10 12 86.74 1.91
6 10 13 0.88 0.3
6 11 0 23.34 0.62
6 11 1 12.61 0.32
6 11 2 6.52 0.2
6 11 3 6.21 0.24
6 11 4 3.04 0.22
6 11 5 5.58 0.34
6 11 6 12.6 0.31
6 11 7 5.12 0.23
6 11 8 0.83 0.18
6 11 9 7.32 0.59
6 11 10 25.5 1.84
6 11 11 3.22 0.4
6 11 12 11.83 0.55
6 11 13 1.99 0.33
6 12 0 4.02 0.17
6 12 1 9.23 0.31
6 12 2 7.4 0.2
6 12 3 44.01 0.92
6 12 4 20.44 0.85
6 12 5 71.94 2.77
6 12 6 1.68 0.26
6 12 7 1.49 0.2
6 12 8 22.9 0.69
6 12 9 2.69 0.18
6 12 10 0.07 0.17
6 12 11 20.81 1
6 12 12 26.67 0.9
6 12 13 9.41 0.33
6 12 14 -0.04 0.25
6 13 0 1.89 0.14
6 13 1 14.65 0.34
6 13 2 17.59 0.48
6 13 3 10.28 0.3
6 13 4 0.41 0.12
6 13 5 115.37 1.82
6 13 6 164.9 4.01
6 13 7 48.03 1.36
6 13 8 0.17 0.14
6 13 9 0.08 0.14
6 13 10 0.17 0.17
6 13 11 0.05 0.17
6 13 12 11.18 0.35
6 13 13 7.59 0.32
6 13 14 2.32 0.32
6 14 0 12.05 0.65
6 14 1 25.24 1.46
6 14 2 98.32 1.54
6 14 3 85.74 1.35
6 14 4 0.2 0.12
6 14 5 3.44 0.3
6 14 6 8.44 0.49
6 14 7 11.02 0.3
6 14 8 2.51 0.18
6 14 9 -0.12 0.25
6 14 10 8.28 0.32
6 14 11 0 0.23
6 14 12 6.18 0.33
6 14 13 1.49 0.18
6 15 0 13.72 0.4
6 15 1 6.53 0.3
6 15 2 21.05 0.65
6 15 3 21.94 0.63
6 15 4 5.36 0.24
6 15 5 9.2 0.36
6 15 6 -0.13 0.22
6 15 7 0.33 0.14
6 15 8 7.01 0.4
6 15 9 21.92 0.66
6 15 10 0.14 0.16
6 15 11 2.65 0.2
6 15 12 3 0.22
6 16 0 1.55 0.16
6 16 1 13.28 0.39
6 16 2 0.68 0.13
6 16 3 0.2 0.13
6 16 4 1.21 0.13
6 16 5 0.19 0.11
6 16 6 0.78 0.15
6 16 7 10.21 0.35
6 16 8 0.16 0.13
6 16 9 3.23 0.25
6 16 10 4.15 0.27
6 16 11 -0.28 0.23
6 17 0 19.31 0.55
6 17 1 5.4 0.28
6 17 2 9.45 0.51
6 17 3 0.41 0.12
6 17 4 0.63 0.12
6 17 5 7.38 0.21
6 17 6 1.75 0.13
6 17 7 0.46 0.13
6 17 8 0.04 0.12
6 17 9 0.06 0.14
6 18 0 21.8 0.85
6 18 1 27.4 0.95
6 18 2 41.93 0.63
6 18 3 -0.07 0.22
6 18 4 0.3 0.11
6 18 5 0.87 0.12
6 18 6 1.81 0.13
6 18 7 2.32 0.16
6 19 0 10.77 0.4
6 19 1 11.16 0.46
6 19 2 18 0.63
6 19 3 8.96 0.29
6 19 4 0.02 0.11
6 19 5 -0.01 0.2
7 0 0 4.74 0.21
7 0 2 22.06 0.39
7 0 4 38.57 0.89
7 0 6 1.21 0.15
7 0 8 13.88 0.42
7 0 10 164.67 2.6
7 0 12 125.72 5.05
7 0 14 0.06 0.24
7 0 16 1.14 0.28
7 1 0 11.39 0.21
7 1 1 6.26 0.17
7 1 2 12.75 0.28
7 1 3 10.23 0.21
7 1 4 10.66 0.24
7 1 5 11.5 0.29
7 1 6 16.76 0.38
7 1 7 4.5 0.15
7 1 8 34.26 0.45
7 1 9 0.17 0.09
7 1 10 140.18 2.63
7 1 11 23.07 0.7
7 1 12 11.26 0.33
7 1 13 0.09 0.16
7 1 14 0.14 0.15
7 1 15 0.08 0.15
7 1 16 4.55 0.24
7 1 17 9.45 0.29
7 2 0 2.92 0.13
7 2 1 21.34 0.29
7 2 2 1.57 0.11
7 2 3 52.4 0.71
7 2 4 10.93 0.22
7 2 5 0.19 0.09
7 2 6 29 0.49
7 2 7 0.02 0.09
7 2 8 4.34 0.15
7 2 9 2.67 0.13
7 2 10 4.72 0.39
7 2 11 0.33 0.12
7 2 12 1.17 0.13
7 2 13 0 0.22
7 2 14 0.15 0.15
7 2 15 0.57 0.16
7 2 16 6.3 0.26
7 2 17 3.11 0.21
7 3 0 115.64 1.44
7 3 1 8.14 0.19
7 3 2 6.57 0.17
7 3 3 20.8 0.33
7 3 4 1.97 0.11
7 3 5 7.16 0.18
7 3 6 4.56 0.16
7 3 7 11.42 0.24
7 3 8 4.97 0.16
7 3 9 1.27 0.12
7 3 10 1.86 0.2
7 3 11 0.14 0.15
7 3 12 0.01 0.11
7 3 13 2.71 0.17
7 3 14 2.03 0.19
7 3 15 0.48 0.15
7 3 16 1.18 0.17
7 3 17 2.15 0.3
7 4 0 36.23 0.42
7 4 1 72.91 0.75
7 4 2 214.28 2.26
7 4 3 63.52 0.94
7 4 4 5.5 0.16
7 4 5 8.43 0.19
7 4 6 11 0.23
7 4 7 11.66 0.22
7 4 8 7.92 0.21
7 4 9 0.19 0.09
7 4 10 12.31 0.37
7 4 11 0.02 0.11
7 4 12 4.68 0.19
7 4 13 0.89 0.14
7 4 14 -0.05 0.2
7 4 15 -0.14 0.2
7 4 16 0.34 0.14
7 4 17 1.31 0.27
7 5 0 53.15 0.58
7 5 1 107.17 1.13
7 5 2 28.83 0.38
7 5 3 3.5 0.14
7 5 4 32.12 0.44
7 5 5 19.68 0.28
7 5 6 35.26 0.5
7 5 7 87.4 0.93
7 5 8 22.84 0.41
7 5 9 4.36 0.26
7 5 10 5.54 0.25
7 5 11 4.46 0.19
7 5 12 2.62 0.24
7 5 13 0.2 0.13
7 5 14 1.54 0.18
7 5 15 6.68 0.26
7 5 16 3.37 0.35
7 6 0 105.51 1.47
7 6 1 35.44 0.46
7 6 2 2.88 0.13
7 6 3 22.03 0.33
7 6 4 20.15 0.32
7 6 5 26.47 0.58
7 6 6 4.1 0.15
7 6 7 0.46 0.09
7 6 8 12.19 0.26
7 6 9 5.25 0.29
7 6 10 6.1 0.2
7 6 11 1.33 0.13
7 6 12 10.19 0.57
7 6 13 20.02 1
7 6 14 5.14 0.4
7 6 15 2.02 0.3
7 6 16 0.73 0.25
7 7 0 5.45 0.23
7 7 1 29.9 0.46
7 7 2 8.81 0.22
7 7 3 0.39 0.11
7 7 4 6.85 0.2
7 7 5 22.8 0.48
7 7 6 27.94 0.64
7 7 7 4.63 0.23
7 7 8 0.52 0.14
7 7 9 16.27 0.48
7 7 10 1.37 0.16
7 7 11 0.68 0.14
7 7 12 0.86 0.17
7 7 13 1.32 0.18
7 7 14 0.59 0.25
7 7 15 0.77 0.25
7 8 0 91.85 1.83
7 8 1 3.23 0.2
7 8 2 -0.15 0.24
7 8 3 14.23 0.46
7 8 4 2.57 0.18
7 8 5 0.5 0.14
7 8 6 2.38 0.18
7 8 7 -0.26 0.23
7 8 8 -0.09 0.23
7 8 9 1.43 0.31
7 8 10 4.54 0.38
7 8 11 1.98 0.25
7 8 12 0.75 0.29
7 8 13 0.93 0.29
7 9 0 5.24 0.23
7 9 1 1.11 0.15
7 9 2 28.5 0.8
7 9 3 8.09 0.5
7 9 4 6.53 0.36
7 9 5 0.64 0.15
7 9 6 29.23 1.58
7 9 7 1.41 0.2
7 9 8 1.4 0.22
7 9 9 5.76 0.29
7 9 10 2.72 0.34
7 9 11 1.28 0.19
7 9 12 0.94 0.3
7 9 13 5.1 0.42
7 10 0 2.29 0.16
7 10 1 12.98 0.38
7 10 2 0.27 0.14
7 10 3 3.48 0.37
7 10 4 12.11 1.08
7 10 5 3.9 1
7 10 6 50.71 3.26
7 10 7 4.46 0.83
7 10 8 7.41 0.93
7 10 9 2.59 0.71
7 10 10 6.15 0.29
7 10 11 0.3 0.28
7 10 12 18.17 0.63
7 10 13 0.32 0.27
7 11 0 10.13 0.33
7 11 1 3.17 0.38
7 11 2 0.04 0.16
7 11 3 8.22 0.97
7 11 4 1.48 0.2
7 11 5 6.22 0.3
7 11 6 38.46 1.54
7 11 7 48.63 3.61
7 11 8 127.6 8.22
7 11 9 4.77 0.36
7 11 10 -0.13 0.23
7 11 11 16.13 0.62
7 11 12 12.56 0.56
7 11 13 3.44 0.39
7 12 0 10.98 0.54
7 12 1 1.21 0.15
7 12 2 18.33 1.12
7 12 3 -0.06 0.23
7 12 4 0.03 0.16
7 12 5 0.69 0.18
7 12 6 12.15 0.77
7 12 7 2.01 0.23
7 12 8 30.45 1.97
7 12 9 22.93 1.87
7 12 10 1.23 0.19
7 12 11 0.4 0.28
7 12 12 3.48 0.4
7 13 0 42.73 0.76
7 13 1 1.63 0.16
7 13 2 9.93 0.57
7 13 3 1.86 0.23
7 13 4 3.25 0.24
7 13 5 0.32 0.17
7 13 6 0.41 0.18
7 13 7 8.62 0.54
7 13 8 0.2 0.17
7 13 9 0.52 0.18
7 13 10 -0.05 0.22
7 13 11 -0.3 0.25
7 14 0 0.19 0.17
7 14 1 7.1 0.25
7 14 2 0.05 0.13
7 14 3 0.96 0.24
7 14 4 30.16 1.71
7 14 5 6.21 0.29
7 14 6 0.15 0.17
7 14 7 0.16 0.17
7 14 8 -0.07 0.22
7 14 9 5.82 0.51
7 14 10 1.95 0.33
7 15 0 0.13 0.17
7 15 1 2.06 0.18
7 15 2 0.25 0.14
7 15 3 23.93 1.7
7 15 4 8.24 0.39
7 15 5 5.08 0.28
7 15 6 25.19 1.76
7 15 7 1.28 0.19
7 15 8 0.83 0.17
7 15 9 0.47 0.16
7 16 0 0.13 0.17
7 16 1 5.8 0.29
7 16 2 7.41 0.28
7 16 3 75.7 1.26
7 16 4 4.83 0.3
7 16 5 24.78 1.63
7 16 6 2.66 0.21
7 16 7 0.31 0.18
7 17 0 0.1 0.18
7 17 1 3.35 0.23
7 17 2 3.69 0.2
7 17 3 2.21 0.16
7 17 4 46.57 3.45
7 17 5 4.49 0.26
7 18 0 -0.09 0.22
7 18 1 1.89 0.33
8 0 0 83.06 1.71
8 0 2 7.14 0.34
8 0 4 67.3 0.93
8 0 6 10.56 0.36
8 0 8 18.47 0.67
8 0 10 0.57 0.17
8 0 12 42.28 2.08
8 0 14 -0.1 0.23
8 1 0 19.12 0.4
8 1 1 5.73 0.22
8 1 2 0.04 0.09
8 1 3 2.21 0.12
8 1 4 0.75 0.1
8 1 5 1.85 0.12
8 1 6 27.25 0.42
8 1 7 11.69 0.37
8 1 8 1.98 0.15
8 1 9 6.83 0.34
8 1 10 6.92 0.23
8 1 11 17 0.56
8 1 12 0.71 0.13
8 1 13 4.17 0.18
8 1 14 5.19 0.26
8 2 0 1.44 0.11
8 2 1 8.69 0.21
8 2 2 2.02 0.11
8 2 3 13.62 0.28
8 2 4 2.18 0.12
8 2 5 -0.09 0.25
8 2 6 4.12 0.2
8 2 7 4.16 0.2
8 2 8 2.52 0.17
8 2 9 5.11 0.27
8 2 10 2.25 0.15
8 2 11 17.04 0.49
8 2 12 17.72 0.32
8 2 13 41.17 0.65
8 2 14 3.42 0.23
8 3 0 8.56 0.19
8 3 1 2.5 0.12
8 3 2 0.26 0.09
8 3 3 -0.05 0.26
8 3 4 -0.03 0.25
8 3 5 1.42 0.19
8 3 6 1.44 0.14
8 3 7 5.7 0.22
8 3 8 24.31 0.6
8 3 9 2.03 0.16
8 3 10 5.37 0.2
8 3 11 16.73 0.63
8 3 12 6.39 0.21
8 3 13 1.84 0.16
8 3 14 1.4 0.17
8 4 0 4.77 0.16
8 4 1 7.15 0.18
8 4 2 10.09 0.25
8 4 3 45.96 0.86
8 4 4 3.7 0.19
8 4 5 3.79 0.19
8 4 6 11.79 0.27
8 4 7 13.7 0.29
8 4 8 9.38 0.26
8 4 9 6.79 0.35
8 4 10 1.44 0.14
8 4 11 0.01 0.11
8 4 12 0.73 0.12
8 4 13 5.09 0.21
8 4 14 6.35 0.26
8 5 0 132.13 1.5
8 5 1 65.92 0.85
8 5 2 38.45 0.81
8 5 3 20.68 0.56
8 5 4 5.93 0.23
8 5 5 26.98 0.59
8 5 6 5.65 0.22
8 5 7 18.39 0.63
8 5 8 11.73 0.38
8 5 9 3 0.16
8 5 10 -0.07 0.22
8 5 11 0 0.24
8 5 12 0.29 0.11
8 5 13 -0.01 0.2
8 5 14 1.21 0.27
8 6 0 24.94 0.69
8 6 1 145.89 2.96
8 6 2 0.47 0.22
8 6 3 84.52 1.35
8 6 4 115.87 1.71
8 6 5 8.85 0.37
8 6 6 2.06 0.17
8 6 7 4.13 0.24
8 6 8 4.86 0.22
8 6 9 1.05 0.13
8 6 10 2.74 0.15
8 6 11 8.73 0.29
8 6 12 1.02 0.14
8 6 13 0.13 0.15
8 7 0 1.61 0.27
8 7 1 11.39 0.31
8 7 2 50.98 1.16
8 7 3 27.36 0.57
8 7 4 8.23 0.29
8 7 5 0.31 0.15
8 7 6 13.41 0.5
8 7 7 0.36 0.18
8 7 8 6.14 0.3
8 7 9 7.63 0.32
8 7 10 10.97 0.44
8 7 11 3.35 0.24
8 7 12 0.58 0.28
8 7 13 0.16 0.14
8 8 0 0.07 0.16
8 8 1 0.45 0.17
8 8 2 -0.15 0.23
8 8 3 -0.01 0.34
8 8 4 0.07 0.17
8 8 5 4.39 0.29
8 8 6 0.06 0.18
8 8 7 0.13 0.18
8 8 8 5.78 0.3
8 8 9 2.59 0.34
8 8 10 2.43 0.3
8 8 11 0.37 0.17
8 8 12 4.87 0.41
8 9 0 0.26 0.27
8 9 1 0.85 0.18
8 9 2 1.28 0.19
8 9 3 0.86 0.19
8 9 4 0.89 0.19
8 9 5 6.72 0.31
8 9 6 1.21 0.2
8 9 7 9.43 0.39
8 9 8 28.21 0.66
8 9 9 41.65 1.41
8 9 10 30.56 1.86
8 9 11 0.61 0.18
8 9 12 0.74 0.28
8 10 0 0.15 0.27
8 10 1 14.3 0.89
8 10 2 0.65 0.36
8 10 3 17.11 1.65
8 10 4 -0.18 0.23
8 10 5 1.14 0.2
8 10 6 0.26 0.18
8 10 7 0.44 0.26
8 10 8 0 0.24
8 10 9 7.41 0.49
8 10 10 36.86 1.74
8 10 11 27.55 0.69
8 11 0 0.33 0.27
8 11 1 34.75 2.11
8 11 2 3.17 0.31
8 11 3 -0.04 0.23
8 11 4 5.55 0.29
8 11 5 0.79 0.19
8 11 6 -0.08 0.23
8 11 7 2.69 0.39
8 11 8 29.64 2.57
8 11 9 0.88 0.18
8 11 10 -0.04 0.22
8 12 0 1.32 0.31
8 12 1 5.57 0.45
8 12 2 0.62 0.26
8 12 3 19.27 1.33
8 12 4 -0.03 0.23
8 12 5 12.12 0.91
8 12 6 2.36 0.21
8 12 7 1.04 0.19
8 12 8 2.87 0.22
8 12 9 -0.04 0.27
8 13 0 6.3 0.45
8 13 1 5.12 0.43
8 13 2 2.71 0.21
8 13 3 0.87 0.18
8 13 4 0.69 0.18
8 13 5 3.77 0.25
8 13 6 4.19 0.25
8 13 7 2.73 0.21
8 13 8 -0.04 0.22
8 14 0 0.55 0.28
8 14 1 0.45 0.28
8 14 2 5.21 0.3
8 14 3 0.13 0.16
8 14 4 11.64 1.25
8 14 5 13.55 1.12
8 14 6 4.2 0.3
8 15 0 0.58 0.16
8 15 1 3.26 0.36
8 15 2 2.3 0.2
8 15 3 0.2 0.16
8 15 4 6.12 0.45
9 0 0 21.53 1.84
9 0 2 10.54 0.36
9 0 4 15.74 0.54
9 0 6 1.68 0.21
9 0 8 -0.08 0.21
9 0 10 8.91 0.87
9 1 0 15.46 0.59
9 1 1 4.93 0.21
9 1 2 0.09 0.14
9 1 3 -0.26 0.24
9 1 4 -0.26 0.24
9 1 5 0.57 0.13
9 1 6 0.37 0.13
9 1 7 5.7 0.21
9 1 8 7.19 0.4
9 1 9 6.14 0.24
9 1 10 0.41 0.11
9 1 11 3.3 0.22
9 2 0 3.26 0.21
9 2 1 17.93 0.62
9 2 2 2.3 0.16
9 2 3 8.04 0.24
9 2 4 14.6 0.42
9 2 5 2.64 0.16
9 2 6 9.14 0.24
9 2 7 0.4 0.15
9 2 8 3.12 0.16
9 2 9 4 0.22
9 2 10 9.51 0.4
9 2 11 3.83 0.29
9 3 0 0.5 0.27
9 3 1 103.65 1.77
9 3 2 14.88 0.3
9 3 3 0.24 0.13
9 3 4 9.09 0.28
9 3 5 12.55 0.28
9 3 6 2.95 0.17
9 3 7 -0.04 0.23
9 3 8 26.23 1.41
9 3 9 5.15 0.19
9 3 10 4.51 0.28
9 3 11 0.79 0.12
9 4 0 10.65 0.29
9 4 1 1.96 0.15
9 4 2 111.2 1.4
9 4 3 61.04 0.98
9 4 4 15.75 0.46
9 4 5 3.67 0.21
9 4 6 0.59 0.14
9 4 7 -0.14 0.22
9 4 8 0.31 0.11
9 4 9 1.61 0.13
9 4 10 6.39 0.25
9 4 11 0.21 0.15
9 5 0 3.69 0.22
9 5 1 0.75 0.13
9 5 2 3.26 0.18
9 5 3 2.1 0.23
9 5 4 13.12 0.29
9 5 5 0.33 0.13
9 5 6 6.64 0.21
9 5 7 0.87 0.13
9 5 8 0.03 0.11
9 5 9 0.09 0.11
9 5 10 0.35 0.11
9 6 0 35.66 0.67
9 6 1 1.46 0.16
9 6 2 5.81 0.25
9 6 3 2.15 0.18
9 6 4 11.76 0.43
9 6 5 16.19 0.75
9 6 6 0.34 0.12
9 6 7 0.48 0.12
9 6 8 0.35 0.11
9 6 9 0.86 0.12
9 6 10 0.1 0.19
9 7 0 3.26 0.24
9 7 1 0.42 0.14
9 7 2 0.03 0.14
9 7 3 4.76 0.32
9 7 4 0.06 0.14
9 7 5 1.51 0.21
9 7 6 35.79 1.34
9 7 7 6.25 0.3
9 7 8 3.84 0.26
9 7 9 7.15 0.66
9 8 0 0.7 0.18
9 8 1 0.98 0.3
9 8 2 10.26 1.02
9 8 3 1.02 0.19
9 8 4 34.33 2.87
9 8 5 27.15 2.49
9 8 6 17.33 0.75
9 8 7 1.05 0.19
9 8 8 2.5 0.22
9 9 0 0.32 0.28
9 9 1 2.95 0.36
9 9 2 7.67 0.57
9 9 3 0.34 0.17
9 9 4 8.73 0.74
9 9 5 6.53 0.9
9 9 6 7.96 0.39
9 9 7 0.79 0.18
9 10 0 0.04 0.27
9 10 1 0.03 0.27
9 10 2 0.44 0.17
9 10 3 9.18 0.95
9 10 4 7.17 0.31
9 10 5 4.25 0.26
9 10 6 0.5 0.17
9 11 0 0.29 0.27
9 11 1 0.56 0.28
9 11 2 2.13 0.2
9 11 3 0.3 0.16
9 11 4 -0.2 0.2
9 11 5 1.42 0.18
9 12 0 0.73 0.28
9 12 1 0.93 0.29
9 12 2 4.59 0.41
10 0 0 5.72 0.46
10 0 2 -0.16 0.23
10 0 4 2.91 0.23
10 0 6 1.41 0.19
10 1 0 0.12 0.18
10 1 1 5.36 0.22
10 1 2 7.72 0.53
10 1 3 6.34 0.32
10 1 4 3.34 0.18
10 1 5 1.94 0.15
10 1 6 3.29 0.18
10 2 0 3.76 0.27
10 2 1 8.71 0.27
10 2 2 0.09 0.12
10 2 3 50.4 1.42
10 2 4 28.78 0.77
10 2 5 34.72 0.59
10 2 6 -0.03 0.22
10 3 0 1.62 0.21
10 3 1 3.26 0.2
10 3 2 1.13 0.14
10 3 3 2.18 0.15
10 3 4 -0.02 0.24
10 3 5 19.41 0.33
10 3 6 8.62 0.85
10 4 0 1.92 0.21
10 4 1 1.43 0.16
10 4 2 9.31 0.25
10 4 3 17.74 0.35
10 4 4 0.38 0.13
10 4 5 0.17 0.11
10 5 0 10.9 0.55
10 5 1 1.3 0.16
10 5 2 1.22 0.14
10 5 3 8.64 0.23
10 5 4 0.58 0.14
10 6 0 3.57 0.38
10 6 1 1.66 0.2
10 6 2 -0.01 0.23
10 6 3 6 0.29
10 7 0 5.04 0.47
10 7 1 4.98 0.47
