#------------------------------------------------------------------------------
#$Date: 2022-11-08 21:40:22 +0200 (Tue, 08 Nov 2022) $
#$Revision: 279112 $
#$URL: file:///home/coder/svn-repositories/cod/cif/2/02/26/2022675.cif $
#------------------------------------------------------------------------------
#
# This file is available in the Crystallography Open Database (COD),
# http://www.crystallography.net/. The original data for this entry
# were provided by IUCr Journals, http://journals.iucr.org/.
#
# The file may be used within the scientific community so long as
# proper attribution is given to the journal article from which the
# data were obtained.
#
data_2022675
loop_
_publ_author_name
'Bosch, Eric'
'Bowling, Nathan P.'
'Speetzen, Erin D.'
_publ_section_title
;
 A structural and computational comparison of close contacts and related
 intermolecular energies of interaction in the structures of
 1,3-diiodo-5-nitrobenzene, 1,3-dibromo-5-nitrobenzene, and
 1,3-dichloro-5-nitrobenzene
;
_journal_coeditor_code           DV3019
_journal_issue                   10
_journal_name_full               'Acta Crystallographica Section C'
_journal_page_first              552
_journal_page_last               558
_journal_paper_doi               10.1107/S2053229622009275
_journal_volume                  78
_journal_year                    2022
_chemical_formula_iupac          'C6 H3 I2 N O2'
_chemical_formula_sum            'C6 H3 I2 N O2'
_chemical_formula_weight         374.89
_chemical_name_systematic
;
1,3-Diiodo-5-nitrobenzene
;
_space_group_crystal_system      monoclinic
_space_group_IT_number           11
_space_group_name_Hall           '-P 2yb'
_space_group_name_H-M_alt        'P 1 21/m 1'
_atom_sites_solution_hydrogens   geom
_atom_sites_solution_primary     dual
_audit_creation_method           SHELXL-2018/3
_cell_angle_alpha                90
_cell_angle_beta                 96.506(2)
_cell_angle_gamma                90
_cell_formula_units_Z            2
_cell_length_a                   4.1810(5)
_cell_length_b                   15.0336(17)
_cell_length_c                   6.7970(8)
_cell_measurement_reflns_used    4388
_cell_measurement_temperature    100(2)
_cell_measurement_theta_max      27.20
_cell_measurement_theta_min      2.71
_cell_volume                     424.48(9)
_computing_cell_refinement
;
SMART (Bruker, 2014)
;
_computing_data_collection
;
SMART (Bruker, 2014)
;
_computing_data_reduction
;
SAINT (Bruker, 2014)
;
_computing_molecular_graphics
;
X-SEED (Barbour, 2020)
;
_computing_publication_material
;
X-SEED (Barbour, 2020)
;
_computing_structure_refinement
;
SHELXL2018 (Sheldrick, 2015b)
;
_computing_structure_solution
;
SHELXT2018 (Sheldrick, 2015a)
;
_diffrn_ambient_temperature      100(2)
_diffrn_detector_area_resol_mean 8.3660
_diffrn_measured_fraction_theta_full 0.999
_diffrn_measured_fraction_theta_max 0.998
_diffrn_measurement_device_type  'Bruker APEX-I CCD'
_diffrn_measurement_method       'phi and omega scans'
_diffrn_radiation_monochromator  graphite
_diffrn_radiation_source         'fine-focus sealed tube'
_diffrn_radiation_type           MoK\a
_diffrn_radiation_wavelength     0.71073
_diffrn_reflns_av_R_equivalents  0.0190
_diffrn_reflns_av_unetI/netI     0.0131
_diffrn_reflns_limit_h_max       5
_diffrn_reflns_limit_h_min       -5
_diffrn_reflns_limit_k_max       19
_diffrn_reflns_limit_k_min       -19
_diffrn_reflns_limit_l_max       8
_diffrn_reflns_limit_l_min       -8
_diffrn_reflns_number            5377
_diffrn_reflns_theta_full        25.242
_diffrn_reflns_theta_max         27.198
_diffrn_reflns_theta_min         2.710
_exptl_absorpt_coefficient_mu    7.358
_exptl_absorpt_correction_T_max  0.7455
_exptl_absorpt_correction_T_min  0.4056
_exptl_absorpt_correction_type   multi-scan
_exptl_absorpt_process_details
;
(SADABS; Bruker, 2014)
;
_exptl_crystal_colour            colourless
_exptl_crystal_density_diffrn    2.933
_exptl_crystal_description       trapezoidal
_exptl_crystal_F_000             336
_exptl_crystal_size_max          0.20
_exptl_crystal_size_mid          0.20
_exptl_crystal_size_min          0.20
_refine_diff_density_max         0.770
_refine_diff_density_min         -0.751
_refine_ls_extinction_method     none
_refine_ls_goodness_of_fit_ref   1.345
_refine_ls_hydrogen_treatment    constr
_refine_ls_matrix_type           full
_refine_ls_number_parameters     55
_refine_ls_number_reflns         982
_refine_ls_number_restraints     0
_refine_ls_restrained_S_all      1.345
_refine_ls_R_factor_all          0.0196
_refine_ls_R_factor_gt           0.0191
_refine_ls_shift/su_max          0.001
_refine_ls_shift/su_mean         0.000
_refine_ls_structure_factor_coef Fsqd
_refine_ls_weighting_details
'w=1/[\s^2^(Fo^2^)+1.4021P] where P=(Fo^2^+2Fc^2^)/3'
_refine_ls_weighting_scheme      calc
_refine_ls_wR_factor_gt          0.0402
_refine_ls_wR_factor_ref         0.0404
_reflns_number_gt                974
_reflns_number_total             982
_reflns_threshold_expression     'I > 2\s(I)'
_cod_data_source_file            dv3019sup1.cif
_cod_data_source_block           1
_cod_depositor_comments
'Adding full bibliography for 2022675--2022677.cif.'
_cod_original_sg_symbol_H-M      'P 21/m'
_cod_database_code               2022675
_cod_database_fobs_code          2022675
_shelx_space_group_comment
;
The symmetry employed for this shelxl refinement is uniquely defined
by the following loop, which should always be used as a source of
symmetry information in preference to the above space-group names.
They are only intended as comments.
;
_shelx_hkl_file
;
  -1   0   0  545.85   11.30
   1   0   0  523.35   11.50
   2   0   0 1501.15   31.40
  -2   0   0 1489.55   30.90
   3   0   0 1972.10   41.40
  -3   0   0 1941.81   42.00
   3   0   0 1942.91   40.60
   4   0   0  151.68    5.70
  -4   0   0  152.98    6.20
   4   0   0  143.69    4.80
  -5   0   0  104.89    5.90
   5   0   0  106.29    5.20
   5   0   0  101.89    4.40
   0   1   0   -1.30    0.10
   0   1   0   -1.20    0.10
  -1  -1   0  432.86    9.20
  -1  -1   0  442.76    9.70
   1  -1   0  456.45    9.80
  -1   1   0  443.76    9.80
   1   1   0  438.06    9.40
  -1   1   0  444.56    9.40
   1   1   0  446.26    9.50
  -2  -1   0  269.77    6.00
  -2  -1   0  278.57    7.20
   2  -1   0  273.87    7.10
  -2   1   0  277.87    7.30
   2   1   0  276.57    6.50
   2   1   0  283.77    6.90
  -2   1   0  275.27    6.60
   3  -1   0   10.10    1.80
  -3  -1   0   10.30    1.80
  -3   1   0    9.20    1.30
   3   1   0    9.80    1.70
   3   1   0    8.80    1.40
  -3   1   0   14.30    1.70
   4  -1   0  138.89    4.70
   4  -1   0  138.69    5.50
  -4  -1   0  141.79    6.00
   4   1   0  135.09    4.70
   4   1   0  139.99    5.30
  -4   1   0  137.39    5.90
   5  -1   0   16.80    2.40
  -5  -1   0   18.40    3.50
   5  -1   0   16.30    3.20
   5   1   0   12.80    2.20
  -5   1   0   16.00    3.20
   0  -2   0 1178.18   23.80
   0   2   0 1077.19   23.90
   0   2   0 1210.28   24.10
   1  -2   0 1566.04   32.20
  -1  -2   0 1487.15   31.60
  -1  -2   0 1559.44   32.00
  -1   2   0 1541.55   31.70
   1   2   0 1578.14   31.70
  -1   2   0 1599.54   32.10
   1   2   0 1565.84   31.70
  -2  -2   0  302.17    7.00
   2  -2   0  326.07    8.10
  -2  -2   0  311.07    8.00
  -2   2   0  316.27    7.40
   2   2   0  330.37    7.70
  -2   2   0  319.97    8.10
   2   2   0  314.97    7.40
  -3  -2   0 1200.28   25.70
   3  -2   0 1260.77   27.70
  -3  -2   0 1243.88   27.90
  -3   2   0 1269.17   28.00
   3   2   0 1270.97   27.20
   3   2   0 1266.37   26.70
  -3   2   0 1257.47   26.70
   4  -2   0  218.78    7.40
  -4  -2   0  199.58    7.50
   4   2   0  220.68    6.40
   4   2   0  216.68    6.90
  -4   2   0  220.18    7.80
   5  -2   0   91.19    5.10
   5  -2   0   92.69    4.30
  -5  -2   0   86.29    5.40
  -5   2   0   90.69    5.50
   5   2   0   86.99    4.10
   0  -3   0    0.50    0.30
   0   3   0    1.30    0.50
   0   3   0    1.30    0.50
  -1  -3   0 2622.04   56.29
   1  -3   0 2776.02   57.59
   1  -3   0 2741.53   55.79
  -1  -3   0 2831.52   56.29
   1   3   0 2774.92   56.09
   1   3   0 2800.42   56.09
  -1   3   0 2759.02   56.09
  -1   3   0 2876.81   57.49
  -2  -3   0 1266.07   26.50
  -2  -3   0 1275.17   27.50
   2  -3   0 1290.57   27.80
  -2   3   0 1287.47   26.90
   2   3   0 1289.17   26.80
   2   3   0 1291.47   27.00
  -2   3   0 1307.57   27.70
   3  -3   0    5.20    1.60
  -3  -3   0    2.70    1.10
  -3   3   0    1.50    0.70
   3   3   0    3.20    1.20
  -3   3   0    6.10    1.40
   3   3   0    1.50    0.80
  -4  -3   0  380.56   11.50
   4  -3   0  400.66   11.40
   4   3   0  392.26   10.70
   4   3   0  400.66   10.20
  -4   3   0  388.46   10.10
  -4   3   0  417.96   11.90
   5  -3   0  263.37    8.10
  -5  -3   0  241.98    9.40
   5  -3   0  260.87    9.30
   5   3   0  264.37    8.00
  -5   3   0  252.97    9.80
   0  -4   0  656.83   14.00
   0   4   0  664.73   14.30
  -1  -4   0  112.39    3.10
   1  -4   0  107.59    3.60
   1  -4   0  115.09    2.80
  -1  -4   0  117.09    3.20
   1   4   0  116.29    3.20
  -1   4   0  117.69    3.30
   1   4   0  113.59    3.10
  -1   4   0  110.79    3.10
  -2  -4   0   59.99    2.10
   2  -4   0   63.99    2.90
  -2  -4   0   61.49    2.60
   2   4   0   59.19    2.20
  -2   4   0   61.29    2.30
  -2   4   0   58.59    2.60
   2   4   0   61.39    2.30
   3  -4   0  190.78    6.50
  -3  -4   0  180.18    6.10
  -3  -4   0  186.58    4.90
   3   4   0  194.48    5.70
  -3   4   0  192.38    5.50
  -3   4   0  200.18    6.40
   3   4   0  191.58    5.40
  -4  -4   0   23.20    2.60
   4  -4   0   26.80    2.90
   4   4   0   23.50    2.70
   4   4   0   24.90    2.10
  -4   4   0   25.80    2.10
  -4   4   0   32.00    2.90
   5  -4   0   20.60    3.60
  -5  -4   0   13.70    3.00
   5  -4   0   12.70    2.30
   5   4   0   14.00    2.20
  -5   4   0   17.10    3.30
   0   5   0   -2.10    0.70
   0   5   0    0.00    1.00
  -1  -5   0 3008.10   61.69
   1  -5   0 3005.50   61.19
  -1  -5   0 3066.39   61.59
  -1   5   0 3024.10   61.79
   1   5   0 3062.89   61.79
  -1   5   0 3041.50   61.79
   1   5   0 3047.30   61.79
  -2  -5   0 2851.81   57.99
  -2  -5   0 2747.82   57.29
   2  -5   0 2859.51   58.69
  -2   5   0 2809.32   57.49
  -2   5   0 2834.52   58.09
   2   5   0 2732.73   57.49
   2   5   0 2824.52   57.39
   3  -5   0   10.20    2.20
  -3  -5   0    8.80    1.60
  -3  -5   0   11.70    1.30
   3   5   0   10.50    1.30
  -3   5   0    8.00    1.20
  -3   5   0    7.70    1.50
   3   5   0    9.20    1.30
  -4  -5   0  708.03   18.50
   4  -5   0  748.73   19.00
  -4   5   0  742.13   17.30
   4   5   0  744.03   17.20
  -4   5   0  740.03   18.80
   5  -5   0  373.36   12.20
  -5  -5   0  360.56   12.00
  -5   5   0  367.26   10.40
   5   5   0  368.76   10.30
  -5   5   0  365.56   12.20
   0  -6   0  146.89    3.80
   0   6   0  130.99    4.00
   0   6   0  120.19    4.40
   1  -6   0  173.68    5.20
  -1  -6   0  164.68    4.50
   1  -6   0  159.38    4.10
  -1  -6   0  166.18    4.30
  -1   6   0  166.28    4.40
   1   6   0  161.18    4.50
   1   6   0  162.98    4.60
  -1   6   0  161.78    4.60
   2  -6   0   14.10    1.70
  -2  -6   0    8.30    1.10
  -2  -6   0    8.70    1.30
  -2   6   0    8.50    1.20
   2   6   0    8.40    1.10
   2   6   0    8.40    1.30
  -2   6   0    9.10    1.10
  -3  -6   0  218.58    6.00
   3  -6   0  225.58    7.60
  -3  -6   0  228.18    7.00
  -3   6   0  221.98    7.00
  -3   6   0  230.68    6.40
   3   6   0  227.18    6.30
   3   6   0  230.48    6.50
  -4  -6   0   44.20    3.30
   4  -6   0   48.30    3.80
  -4   6   0   42.00    2.70
   4   6   0   46.50    2.70
  -4   6   0   41.50    3.20
   5  -6   0   16.50    3.60
  -5  -6   0   14.90    3.00
  -5   6   0   13.60    2.10
  -5   6   0   16.50    3.30
   5   6   0   14.70    2.20
   0  -7   0    1.20    0.60
   0   7   0    1.20    0.90
  -1  -7   0 1619.94   33.40
   1  -7   0 1665.63   34.90
   1  -7   0 1609.24   33.20
  -1  -7   0 1634.54   33.80
  -1   7   0 1580.44   33.40
   1   7   0 1605.34   34.00
   1   7   0 1580.44   33.80
   2  -7   0  798.32   19.00
  -2  -7   0  797.72   17.60
   2  -7   0  761.02   16.50
  -2  -7   0  807.92   17.80
  -2   7   0  798.32   17.70
   2   7   0  798.62   17.60
   2   7   0  798.12   17.60
  -2   7   0  793.92   17.80
   3  -7   0   11.10    2.50
  -3  -7   0    9.90    1.40
  -3  -7   0   10.50    1.90
  -3   7   0   10.80    1.80
  -3   7   0   11.10    1.60
   3   7   0   10.80    1.50
   3   7   0   13.10    1.40
  -4  -7   0  378.96   11.10
   4  -7   0  371.56   11.80
  -4   7   0  368.86   10.00
  -4   7   0  354.36   10.90
   4   7   0  374.06    9.90
   0  -8   0 2731.33   55.69
   0   8   0 2725.83   56.29
   0   8   0 2682.53   56.89
   1  -8   0  484.65   11.00
  -1  -8   0  513.05   11.10
   1  -8   0  502.05   12.60
  -1  -8   0  498.95   11.50
   1   8   0  483.75   11.60
   1   8   0  479.35   11.80
  -1   8   0  488.65   12.00
  -1   8   0  472.75   11.00
  -2  -8   0  527.85   12.50
   2  -8   0  539.75   13.80
  -2  -8   0  540.15   12.50
   2  -8   0  510.95   11.40
   2   8   0  545.15   12.60
  -2   8   0  515.35   12.40
   2   8   0  525.85   12.50
  -2   8   0  522.85   12.60
  -3  -8   0  795.32   18.30
   3  -8   0  781.82   19.60
  -3  -8   0  758.02   17.60
   3   8   0  767.12   17.70
  -3   8   0  766.92   17.80
  -3   8   0  766.82   18.30
  -4  -8   0  100.19    4.80
   4  -8   0   97.19    5.60
  -4   8   0   98.09    4.30
  -4   8   0   98.29    4.80
   4   8   0   99.49    4.20
   0  -9   0    0.40    0.60
   0   9   0    0.10    0.80
   1  -9   0  239.48    6.00
  -1  -9   0  235.98    5.90
  -1  -9   0  238.88    6.50
   1  -9   0  215.48    7.30
   1   9   0  235.58    6.90
  -1   9   0  229.78    7.10
  -1   9   0  242.88    5.90
   1   9   0  237.28    6.60
  -2  -9   0  179.28    5.40
  -2  -9   0  185.58    5.60
   2  -9   0  178.58    4.60
  -2   9   0  184.68    5.40
   2   9   0  179.38    5.60
  -2   9   0  188.48    5.80
  -3  -9   0    7.70    1.60
  -3  -9   0    9.30    1.50
   3  -9   0    9.00    2.40
  -3   9   0    6.30    1.40
  -3   9   0    8.90    1.60
   3   9   0    8.40    1.40
  -4  -9   0   65.89    3.40
   4  -9   0   68.79    5.10
  -4  -9   0   68.19    4.00
   4   9   0   68.59    3.50
  -4   9   0   73.89    4.00
  -4   9   0   64.89    3.60
   0 -10   0 3392.46   69.89
   0  10   0 3422.96   71.29
   1 -10   0  440.36   10.20
  -1 -10   0  426.66    9.90
   1 -10   0  422.66   11.80
  -1 -10   0  447.96   10.70
  -1  10   0  418.36   11.50
   1  10   0  424.16   11.40
   1  10   0  440.66   10.90
   2 -10   0  412.86   12.00
  -2 -10   0  421.96   10.70
   2 -10   0  414.56    9.70
  -2 -10   0  421.86   10.30
  -2  10   0  429.76   11.10
   2  10   0  419.86   10.90
  -2  10   0  436.66   10.30
   2  10   0  426.86   10.60
  -3 -10   0 1162.08   26.00
  -3 -10   0 1216.08   26.30
   3 -10   0 1154.58   28.30
  -3  10   0 1154.18   26.20
  -3  10   0 1161.78   26.10
   3  10   0 1150.98   26.10
  -4 -10   0  134.39    5.70
   4 -10   0  132.29    7.10
  -4 -10   0  131.29    5.10
  -4  10   0  143.69    5.80
  -4  10   0  137.99    5.50
   4  10   0  142.39    5.40
   0 -11   0    7.70    1.30
   0 -11   0    5.20    1.50
   0  11   0    4.00    1.20
   1 -11   0  204.78    5.70
   1 -11   0  231.68    7.50
  -1 -11   0  203.88    6.10
  -1 -11   0  186.18    5.30
   1  11   0  193.68    6.80
  -1  11   0  196.78    7.00
   1  11   0  206.08    6.30
   2 -11   0  118.09    3.80
   2 -11   0  130.89    5.80
  -2 -11   0  119.99    4.20
  -2 -11   0  124.79    4.60
  -2  11   0  123.79    5.00
   2  11   0  122.49    4.80
  -2  11   0  126.69    4.10
   3 -11   0    4.80    2.20
  -3 -11   0    4.30    1.40
  -3 -11   0    4.50    1.40
  -3  11   0    4.20    1.20
   3  11   0    4.80    1.40
  -3  11   0    2.90    1.30
  -4 -11   0   69.59    3.80
  -4 -11   0   76.79    4.20
   4 -11   0   74.19    5.60
  -4  11   0   72.19    4.20
   4  11   0   76.09    4.00
  -4  11   0   75.19    4.10
   0 -12   0  523.25   14.30
   0 -12   0  537.95   12.90
   0  12   0  550.74   14.10
   1 -12   0  445.46   10.50
   1 -12   0  415.96   12.30
  -1  12   0  410.06   12.00
   1  12   0  428.46   11.10
   1  12   0  439.36   12.10
   2 -12   0  139.89    6.30
  -2 -12   0  141.69    5.10
   2 -12   0  141.99    4.80
  -2 -12   0  136.99    4.70
  -2  12   0  147.69    5.80
   2  12   0  139.49    5.50
  -3 -12   0  582.94   14.60
   3 -12   0  555.94   16.70
  -3 -12   0  570.94   14.20
  -3  12   0  580.64   15.00
   3  12   0  577.14   14.80
   4 -12   0  102.69    6.70
  -4 -12   0  107.59    4.90
  -4 -12   0  104.09    5.00
  -4  12   0  101.39    5.00
   4  12   0  117.59    5.20
   0 -13   0    1.00    1.00
   0 -13   0   10.30    2.20
   0  13   0    1.20    1.10
  -1 -13   0  748.13   17.60
   1 -13   0  753.22   19.30
   1 -13   0  763.82   17.10
   1  13   0  725.03   17.80
   1  13   0  746.73   18.90
  -2 -13   0  617.14   15.20
   2  13   0  609.04   16.10
  -2  13   0  610.94   16.30
   3 -13   0    2.80    2.30
  -3 -13   0    1.60    1.30
  -3  13   0    3.20    1.60
   3  13   0    1.60    1.30
   0 -14   0  364.86   11.60
   0 -14   0  427.06   10.70
   0  14   0  432.76   11.80
  -1 -14   0    5.20    1.40
   1 -14   0    4.60    1.20
   1 -14   0    2.40    1.70
  -1  14   0    3.80    1.60
   1  14   0    5.80    1.70
   2 -14   0   59.49    4.50
  -2 -14   0   64.29    3.50
  -2  14   0   55.99    4.00
   2  14   0   63.19    4.10
  -3 -14   0   54.09    3.60
   3 -14   0   45.10    4.80
   3  14   0   55.99    3.80
  -3  14   0   57.49    4.00
   0 -15   0    2.90    1.80
   0 -15   0    1.10    1.20
   0  15   0    1.80    1.30
  -1 -15   0  782.72   18.80
   1 -15   0  764.92   20.70
   1 -15   0  815.42   18.40
  -1  15   0  816.52   20.40
   1  15   0  761.12   20.00
   2 -15   0  721.53   20.50
  -2 -15   0  752.12   18.40
   2  15   0  760.32   19.90
   3 -15   0    3.40    2.90
  -3 -15   0   -1.30    1.50
   3  15   0    2.10    1.60
  -3  15   0    0.50    1.50
   0 -16   0  214.78    8.00
   0 -16   0  195.38    6.70
   0  16   0  190.48    7.30
   1 -16   0   23.70    2.30
  -1 -16   0   19.70    2.50
   1 -16   0   28.20    3.20
  -1  16   0   23.20    3.30
   1  16   0   26.30    2.80
   2 -16   0   36.00    4.10
  -2 -16   0   29.80    2.80
  -2  16   0   29.00    3.90
   2  16   0   33.60    3.50
   3 -16   0   61.79    5.70
   0 -17   0    0.40    1.60
   0 -17   0    3.50    1.60
   0  17   0    1.80    1.50
  -1 -17   0  496.15   13.20
   1 -17   0  437.96   14.50
   1 -17   0  494.95   12.70
   1  17   0  491.05   14.20
  -1  17   0  511.85   14.40
   2 -17   0  203.08    9.40
  -2 -17   0  222.38    7.70
   2  17   0  215.88    8.80
  -2  17   0  209.18    8.80
   0 -18   0  581.04   14.90
   0  18   0  572.44   15.80
   1 -18   0   88.09    5.70
   1 -18   0   94.89    4.50
  -1 -18   0   90.39    4.70
   1  18   0   92.99    5.20
  -1  18   0   97.09    5.40
   0 -19   0    6.60    1.90
   0  19   0    5.30    1.90
  -5   0   1  459.35   14.00
   5   0  -1  459.35   12.20
   4   0  -1  513.35   12.40
   4   0  -1  509.45   13.00
  -4   0   1  499.25   13.70
  -2   0   1 3610.14   74.89
  -2   0   1 3739.63   75.59
  -2   0   1 3787.32   76.29
   2   0  -1 3787.42   75.89
  -1   0   1 4632.24   98.99
   1   0  -1 5425.56  101.39
  -1   0   1 4770.82  101.29
  -1   0   1 4743.13  100.19
   0   0   1   29.40    1.20
   0   0  -1   22.50    1.30
   0   0   1   23.20    0.90
  -1   0  -1 9999.00  187.88
  -1   0  -1 8716.33  190.68
  -1   0  -1 9152.48  187.58
   1   0   1 9273.77  190.58
   2   0   1 1181.68   25.30
  -2   0  -1 1167.38   24.10
  -2   0  -1 1169.98   25.70
   3   0   1  127.09    3.80
   3   0   1  122.09    4.60
  -3   0  -1  114.89    4.80
  -4   0  -1  731.23   19.30
   4   0   1  760.52   17.10
   4   0   1  765.82   18.70
   5   0   1  237.68    8.60
  -5   0  -1  221.38    9.30
   5   0   1  236.98    7.20
  -5  -1   1   11.50    2.80
   5  -1  -1    4.30    1.60
   5   1  -1    8.80    1.90
  -5   1   1   10.90    2.50
  -4  -1   1   35.80    2.80
   4  -1  -1   33.40    2.20
   4  -1  -1   30.90    2.60
   4   1  -1   33.50    2.20
  -4   1   1   29.80    2.70
   4   1  -1   35.70    2.60
   3  -1  -1  216.88    6.40
  -3  -1   1  205.18    4.80
   3   1  -1  217.68    6.00
  -3   1   1  203.88    6.50
  -3   1   1  215.08    5.80
   3   1  -1  213.58    5.80
   2  -1  -1    3.30    0.90
  -2  -1   1    3.00    0.50
  -2   1   1    3.50    0.90
   2   1  -1    2.60    0.80
   2   1  -1    0.50    0.50
  -2   1   1    0.90    0.50
  -1  -1   1   75.59    2.00
   1  -1  -1   91.69    2.70
  -1  -1   1   74.99    2.40
  -1   1   1   77.59    2.30
  -1   1   1   75.69    1.90
  -1   1   1   81.89    2.20
   0  -1  -1  314.47    7.10
   0  -1   1  321.27    6.90
   0  -1   1  313.77    6.70
   0   1   1  323.17    6.80
   0   1   1  334.17    6.70
   0   1   1  311.27    7.30
   0   1  -1  313.07    7.40
   1  -1   1  799.12   16.00
  -1  -1  -1  781.72   16.30
  -1  -1  -1  769.22   16.90
   1  -1   1  763.02   16.80
   1   1   1  768.22   16.70
  -1   1  -1  783.92   17.10
   1   1   1  788.42   16.10
  -1   1  -1  797.42   16.10
  -2  -1  -1  329.57    7.40
  -2  -1  -1  315.07    8.40
   2  -1   1  322.17    8.30
  -2   1  -1  326.37    7.50
   2   1   1  332.17    7.40
  -2   1  -1  319.87    8.60
   2   1   1  325.77    8.20
  -3  -1  -1  213.38    7.00
   3  -1   1  212.48    6.70
  -3   1  -1  210.58    7.10
   3   1   1  222.98    6.70
   3   1   1  218.28    5.70
  -4  -1  -1   15.00    2.60
   4  -1   1   15.80    2.40
   4  -1   1   13.70    1.80
   4   1   1   15.30    1.90
  -4   1  -1   16.50    2.70
   4   1   1   18.30    2.40
   5  -1   1   42.30    2.90
  -5  -1  -1   45.20    4.20
   5  -1   1   49.10    4.00
  -5   1  -1   53.09    4.50
   5   1   1   49.80    3.90
   5   1   1   43.60    3.00
   5  -2  -1  301.77    9.90
  -5  -2   1  294.57   10.50
   5  -2  -1  312.27    9.00
   5   2  -1  296.07    8.80
  -5   2   1  287.27   10.30
   4  -2  -1  481.45   12.80
  -4  -2   1  466.45   13.10
  -4   2   1  468.65   13.10
   4   2  -1  486.05   12.10
   4   2  -1  481.05   11.80
   3  -2  -1  142.79    5.00
  -3  -2   1  140.19    3.60
   3   2  -1  146.19    4.50
   3   2  -1  143.99    4.40
  -3   2   1  142.69    5.00
  -3   2   1  142.59    4.40
   2  -2  -1 1742.73   37.20
  -2  -2   1 1743.63   36.10
  -2  -2   1 1801.52   37.40
  -2   2   1 1771.82   37.10
   2   2  -1 1818.72   36.50
   2   2  -1 1788.92   36.60
  -2   2   1 1766.42   36.70
  -1  -2   1 1286.87   26.60
  -1  -2   1 1358.26   27.30
   1   2  -1 1284.77   26.80
  -1   2   1 1309.57   26.80
  -1   2   1 1332.97   27.00
  -1   2   1 1283.97   26.50
   0  -2  -1  271.57    5.80
   0  -2   1  271.97    5.70
   0  -2   1  274.47    5.80
   0   2  -1  249.18    6.40
   0   2   1  263.07    5.90
   0   2  -1  271.27    6.00
   0   2   1  261.77    6.40
  -1  -2  -1 1132.79   23.70
   1  -2   1 1141.89   23.20
  -1  -2  -1 1147.19   24.00
   1   2   1 1154.88   23.40
  -1   2  -1 1101.19   24.50
  -1   2  -1 1183.18   23.40
   1   2   1 1156.08   24.10
  -2  -2  -1 1515.95   32.60
   2  -2   1 1528.35   32.50
  -2  -2  -1 1525.45   31.60
  -2   2  -1 1515.15   32.90
  -2   2  -1 1515.85   31.50
   2   2   1 1521.65   32.30
   2   2   1 1559.94   31.50
  -3  -2  -1   23.40    2.10
  -3  -2  -1   23.90    1.30
   3  -2   1   23.90    2.20
   3   2   1   22.60    2.00
  -3   2  -1   26.20    2.30
   3   2   1   22.20    1.50
  -3   2  -1   21.40    1.50
  -4  -2  -1  505.25   14.50
   4  -2   1  537.55   12.70
   4  -2   1  528.95   14.20
   4   2   1  529.75   12.60
  -4   2  -1  513.45   14.70
   4   2   1  524.95   13.80
   5  -2   1  155.78    7.00
   5  -2   1  153.48    5.60
  -5  -2  -1  144.89    7.20
   5   2   1  167.38    8.70
  -5   2  -1  158.38    7.70
   5   2   1  162.28    5.70
   5  -3  -1   18.20    2.80
   5  -3  -1   22.80    3.10
  -5  -3   1   24.00    3.70
   5   3  -1   18.90    2.70
  -5   3   1   24.70    3.70
   4  -3  -1  282.77    8.90
  -4  -3   1  279.67    9.10
   4   3  -1  287.27    7.90
  -4   3   1  284.37    9.00
  -4   3   1  281.47    7.90
  -3  -3   1 1103.19   25.10
   3  -3  -1 1140.79   25.20
  -3  -3   1 1100.59   23.30
  -3   3   1 1115.49   25.00
  -3   3   1 1087.49   24.10
   3   3  -1 1136.89   24.00
   3   3  -1 1146.79   24.20
  -2  -3   1  222.68    5.50
  -2  -3   1  241.78    6.50
   2  -3  -1  256.57    6.80
  -2   3   1  234.98    6.00
   2   3  -1  241.28    6.00
  -2   3   1  243.78    6.30
  -1  -3   1 1298.67   26.40
  -1  -3   1 1255.77   25.80
   1  -3  -1 1228.28   25.70
  -1   3   1 1270.17   26.00
   1   3  -1 1257.27   25.90
  -1   3   1 1224.68   26.70
  -1   3   1 1295.67   26.00
   0  -3   1 4084.19   82.99
   0  -3  -1 3973.40   82.79
   0  -3   1 4260.37   83.69
   0   3  -1 3959.00   82.89
   0   3   1 4017.70   84.29
   0   3  -1 3925.81   83.19
   0   3   1 4102.39   81.79
   1  -3   1  102.69    2.50
  -1  -3  -1  105.39    3.10
   1  -3   1  105.89    3.30
  -1  -3  -1  110.79    3.10
   1   3   1  108.79    2.80
  -1   3  -1   97.39    3.50
   1   3   1  106.49    3.30
  -1   3  -1  109.39    2.80
  -2  -3  -1  753.52   16.80
  -2  -3  -1  750.22   16.10
   2  -3   1  734.83   17.00
  -2   3  -1  735.63   15.90
   2   3   1  731.93   15.90
  -2   3  -1  753.82   17.30
   2   3   1  725.03   16.60
  -3  -3  -1  857.71   19.00
   3  -3   1  889.91   20.90
  -3  -3  -1  896.31   20.80
   3   3   1  913.91   19.40
  -3   3  -1  890.21   19.40
   3   3   1  900.61   20.40
  -3   3  -1  889.01   21.30
  -4  -3  -1   65.69    4.00
   4  -3   1   67.59    4.10
   4   3   1   62.59    3.60
   4   3   1   55.99    3.00
  -4   3  -1   65.59    3.00
  -4   3  -1   60.79    4.10
   5  -3   1   79.89    4.00
   5  -3   1   84.99    5.20
  -5  -3  -1   80.69    5.20
   5   3   1   75.89    3.90
  -5   3  -1   87.39    5.70
   5  -4  -1   67.99    4.70
  -5  -4   1   59.09    4.50
  -5   4   1   69.49    4.60
   5   4  -1   64.29    3.70
  -4  -4   1   51.79    3.50
   4  -4  -1   53.39    3.70
  -4   4   1   55.19    3.40
  -4   4   1   57.09    2.90
   4   4  -1   46.00    2.70
  -3  -4   1    4.50    0.70
   3  -4  -1    5.20    1.50
  -3  -4   1    5.20    1.40
  -3   4   1    7.60    1.40
  -3   4   1    5.30    1.10
  -2  -4   1  248.98    6.00
   2  -4  -1  253.27    7.20
  -2  -4   1  258.87    6.80
  -2   4   1  251.27    6.30
   2   4  -1  248.38    6.30
  -2   4   1  247.78    6.50
  -1  -4   1  387.26    8.70
   1  -4  -1  387.16    8.70
  -1  -4   1  414.06    9.20
   1   4  -1  404.86    8.90
  -1   4   1  409.06    8.70
  -1   4   1  399.16    8.90
  -1   4   1  389.86    9.70
   0  -4  -1   35.90    1.50
   0  -4   1   38.10    1.40
   0  -4   1   37.20    1.30
   0   4  -1   33.80    1.80
   0   4   1   35.20    1.80
   0   4  -1   35.20    1.80
   0   4   1   36.30    1.90
  -1  -4  -1  411.96    9.00
   1  -4   1  390.66    8.40
  -1  -4  -1  396.36    9.20
   1   4   1  398.66    9.50
  -1   4  -1  396.86    8.80
   1   4   1  387.96    8.80
  -1   4  -1  402.76    9.80
  -2  -4  -1  122.99    4.10
   2  -4   1  122.59    4.40
  -2  -4  -1  126.39    3.80
  -2   4  -1  126.49    4.60
   2   4   1  121.19    4.10
   2   4   1  123.09    3.50
  -2   4  -1  123.39    3.60
   3  -4   1    4.50    1.60
  -3  -4  -1    4.80    1.40
  -3  -4  -1    4.70    1.00
   3   4   1    4.30    1.40
  -3   4  -1    3.20    0.90
   3   4   1    2.60    0.80
   4  -4   1   95.59    5.00
  -4  -4  -1   89.79    4.80
  -4   4  -1   98.69    3.80
   4   4   1   96.59    3.80
   4   4   1   94.29    4.40
  -4   4  -1   92.89    5.00
  -5  -4  -1   31.40    4.40
   5  -4   1   24.30    2.60
   5  -4   1   29.10    3.60
   5   4   1   25.40    2.50
  -5   4  -1   33.90    3.90
  -5  -5   1  117.39    6.10
   5  -5  -1  129.79    6.50
   5   5  -1  129.19    5.20
  -5   5   1  127.59    6.20
  -5   5   1  128.99    5.20
   4  -5  -1  459.65   12.90
  -4  -5   1  423.06   12.30
  -4   5   1  434.36   12.20
   4   5  -1  444.36   11.30
  -4   5   1  435.86   11.40
  -3  -5   1 1910.01   39.10
   3  -5  -1 1892.21   41.20
  -3  -5   1 1859.21   40.60
   3   5  -1 1923.91   39.80
  -3   5   1 1862.61   39.80
  -3   5   1 1901.01   40.40
  -2  -5   1  493.25   11.30
   2  -5  -1  491.15   10.90
  -2  -5   1  520.45   12.20
   2  -5  -1  545.25   13.00
   2   5  -1  501.95   11.60
  -2   5   1  500.45   11.70
  -2   5   1  520.05   11.70
  -1  -5   1 2827.12   58.09
  -1  -5   1 2975.90   58.59
   1  -5  -1 2731.53   57.99
  -1   5   1 2845.82   59.29
  -1   5   1 2911.31   57.79
   1   5  -1 2890.81   58.29
  -1   5   1 2849.11   58.39
   0  -5   1 4420.96   88.79
   0  -5  -1 4241.08   87.79
   0  -5   1 4665.93   90.19
   0   5   1 4232.08   88.49
   0   5   1 4283.87   89.99
   0   5  -1 4398.96   88.49
   0   5  -1 4140.19   88.59
  -1  -5  -1  301.27    6.80
  -1  -5  -1  293.17    7.30
   1  -5   1  290.97    6.40
  -1   5  -1  287.67    7.70
   1   5   1  289.27    7.00
   1   5   1  291.97    7.50
  -1   5  -1  288.57    6.90
   2  -5   1  997.90   22.30
  -2  -5  -1  996.10   21.60
  -2  -5  -1 1002.00   21.50
  -2   5  -1  980.10   22.30
   2   5   1  950.50   21.70
  -2   5  -1  993.10   21.00
   2   5   1  971.90   21.00
   3  -5   1 1657.33   36.60
  -3  -5  -1 1615.64   34.80
  -3  -5  -1 1661.13   36.00
   3   5   1 1665.53   34.90
   3   5   1 1666.43   35.80
  -3   5  -1 1658.53   36.70
  -3   5  -1 1654.53   34.90
   4  -5   1   74.79    4.60
  -4  -5  -1   74.89    4.20
  -4   5  -1   71.59    4.40
   4   5   1   74.69    4.00
  -4   5  -1   77.59    3.40
   4   5   1   72.09    3.30
   5  -5   1  179.58    8.00
  -5  -5  -1  174.88    7.70
  -5   5  -1  176.08    8.20
   5   5   1  184.78    6.30
   5  -6  -1   83.19    5.50
  -5  -6   1   80.39    5.10
  -5   6   1   89.19    4.30
   5   6  -1   95.69    4.40
  -5   6   1   84.39    5.00
   4  -6  -1   52.29    3.90
  -4  -6   1   50.59    3.50
  -4   6   1   55.89    3.40
   4   6  -1   54.49    2.90
  -4   6   1   49.99    2.90
   3  -6  -1   31.20    2.70
  -3  -6   1   31.70    1.70
  -3  -6   1   28.20    2.20
  -3   6   1   30.60    2.10
  -3   6   1   28.80    2.00
   3   6  -1   28.20    1.90
  -2  -6   1  223.18    6.30
   2  -6  -1  220.08    5.30
  -2  -6   1  226.68    5.80
   2  -6  -1  245.58    7.30
   2   6  -1  224.18    5.90
  -2   6   1  225.88    6.10
  -2   6   1  215.68    5.90
  -1  -6   1  161.78    4.50
  -1  -6   1  161.08    4.20
   1  -6  -1  148.59    4.10
   1   6  -1  157.08    4.40
  -1   6   1  158.08    4.50
  -1   6   1  158.18    5.20
   0  -6  -1   43.60    1.90
   0  -6   1   54.39    2.00
   0  -6   1   45.30    1.70
   0   6   1   38.80    2.20
   0   6  -1   42.50    2.40
   0   6   1   45.30    2.40
   0   6  -1   43.30    2.20
   1  -6   1  132.59    3.40
  -1  -6  -1  138.99    4.20
  -1  -6  -1  140.69    3.60
   1   6   1  132.29    4.00
  -1   6  -1  131.59    4.40
   1   6   1  133.79    4.40
  -1   6  -1  134.19    4.00
   2  -6   1  167.58    5.70
  -2  -6  -1  171.78    5.10
  -2  -6  -1  179.18    5.20
  -2   6  -1  166.28    5.60
   2   6   1  171.28    4.80
  -2   6  -1  163.88    4.70
   2   6   1  170.98    5.30
   3  -6   1   14.40    2.60
  -3  -6  -1    9.70    1.40
  -3  -6  -1   11.10    1.90
   3   6   1   16.20    1.90
  -3   6  -1    9.30    1.80
  -3   6  -1   14.40    1.50
   3   6   1   13.90    1.40
  -4  -6  -1  118.29    5.40
   4  -6   1  113.59    5.70
  -4   6  -1  113.09    5.60
   4   6   1  119.19    4.40
  -4   6  -1  112.59    4.30
  -5  -7   1    5.80    2.20
   5  -7  -1    7.10    3.20
  -5   7   1    7.10    2.10
   5   7  -1    6.10    1.60
  -5   7   1    5.90    1.70
   4  -7  -1  186.18    7.80
  -4  -7   1  189.38    7.10
  -4   7   1  197.28    6.90
   4   7  -1  210.28    6.50
  -4   7   1  207.08    6.60
  -3  -7   1  808.92   17.70
  -3  -7   1  822.02   18.90
   3  -7  -1  788.72   19.90
  -3   7   1  802.62   18.30
  -3   7   1  783.72   18.40
   3   7  -1  791.62   18.10
  -2  -7   1   58.79    2.40
   2  -7  -1   58.29    2.10
  -2  -7   1   56.89    2.60
   2  -7  -1   65.79    3.50
   2   7  -1   56.89    2.50
  -2   7   1   57.19    2.30
  -2   7   1   60.09    2.60
   1  -7  -1  332.77    8.00
  -1  -7   1  336.57    8.30
  -1  -7   1  346.17    8.10
  -1   7   1  343.87    8.60
   1   7  -1  341.57    8.40
   0  -7   1 2254.07   45.90
   0  -7   1 2334.47   46.40
   0  -7  -1 2224.98   46.30
   0   7  -1 2225.58   46.80
   0   7  -1 2170.28   47.30
   0   7   1 2263.07   47.20
   0   7   1 2222.48   47.30
  -1  -7  -1  359.86    8.00
   1  -7   1  357.26    9.10
   1  -7   1  349.67    7.90
  -1  -7  -1  366.76    8.90
  -1   7  -1  347.17    8.70
   1   7   1  360.96    9.20
   1   7   1  342.37    8.70
  -1   7  -1  331.27    9.00
  -2  -7  -1  660.73   15.00
   2  -7   1  650.03   15.90
   2  -7   1  610.04   13.50
  -2  -7  -1  663.13   14.70
  -2   7  -1  628.64   15.50
   2   7   1  646.64   15.30
  -2   7  -1  646.24   14.60
   2   7   1  648.64   14.60
  -3  -7  -1  757.92   17.70
   3  -7   1  729.13   18.60
  -3  -7  -1  749.92   17.20
  -3   7  -1  707.13   18.20
   3   7   1  743.63   17.70
   3   7   1  737.83   16.90
  -3   7  -1  763.92   17.00
   4  -7   1   52.19    4.20
  -4  -7  -1   51.49    3.60
   4   7   1   54.09    2.90
  -4   7  -1   50.79    3.70
  -4   7  -1   52.69    2.90
  -4  -8   1  301.27    8.00
  -4  -8   1  297.87    9.40
   4  -8  -1  304.77   10.60
   4   8  -1  300.97    8.60
  -4   8   1  291.07    8.80
  -4   8   1  297.97    9.10
  -3  -8   1   20.00    1.70
  -3  -8   1   21.50    2.10
   3  -8  -1   23.40    2.80
   3   8  -1   20.10    1.70
  -3   8   1   20.00    1.90
  -3   8   1   19.80    1.70
  -2  -8   1 1359.26   29.20
   2  -8  -1 1359.66   28.20
  -2  -8   1 1349.16   28.80
   2  -8  -1 1351.16   31.00
  -2   8   1 1345.07   28.50
   2   8  -1 1357.26   29.10
  -2   8   1 1358.56   29.30
   1  -8  -1 1227.18   26.10
  -1  -8   1 1247.28   26.30
  -1  -8   1 1229.78   26.10
  -1   8   1 1216.48   26.90
   1   8  -1 1237.48   26.70
   0  -8   1  100.19    3.10
   0  -8  -1   95.29    3.40
   0  -8   1   99.29    3.40
   0   8   1   92.99    3.90
   0   8  -1   95.59    4.00
   0   8  -1   96.99    3.50
   0   8   1   92.99    3.80
  -1  -8  -1 1853.11   38.90
   1  -8   1 1922.91   39.40
  -1  -8  -1 1839.02   37.70
   1  -8   1 1828.62   37.80
  -1   8  -1 1784.52   38.90
   1   8   1 1811.42   39.00
  -1   8  -1 1844.32   39.10
   1   8   1 1844.82   39.30
   2  -8   1  708.83   17.30
  -2  -8  -1  727.63   16.40
  -2  -8  -1  714.53   15.90
   2  -8   1  666.83   14.70
  -2   8  -1  700.53   15.90
  -2   8  -1  683.73   16.60
   2   8   1  698.23   16.00
   2   8   1  709.53   16.60
  -3  -8  -1   77.49    3.60
  -3  -8  -1   71.59    3.40
   3  -8   1   71.19    4.30
  -3   8  -1   77.69    4.00
   3   8   1   73.39    3.70
  -3   8  -1   72.09    3.20
   3   8   1   75.89    3.20
  -4  -8  -1  314.77    9.70
   4  -8   1  303.77   10.70
  -4   8  -1  301.27   10.10
  -4   8  -1  307.27    8.80
   4   8   1  325.57    8.90
  -4  -9   1   21.60    3.10
   4  -9  -1   21.50    4.00
  -4  -9   1   21.10    1.90
  -4   9   1   25.30    2.40
   4   9  -1   23.60    2.20
  -4   9   1   19.10    2.10
  -3  -9   1  156.88    5.50
   3  -9  -1  147.49    6.70
  -3  -9   1  156.18    5.00
  -3   9   1  153.88    5.40
   3   9  -1  153.08    5.20
  -3   9   1  154.48    5.10
  -2  -9   1   58.29    2.80
  -2  -9   1   60.49    2.70
   2  -9  -1   58.79    3.80
   2  -9  -1   58.99    2.30
  -2   9   1   60.09    2.30
   2   9  -1   57.69    2.80
  -2   9   1   56.49    2.90
  -1  -9   1  192.88    5.50
  -1  -9   1  202.78    5.50
   1  -9  -1  196.18    5.50
  -1   9   1  191.98    6.20
   1   9  -1  198.38    6.10
   0  -9   1  232.78    6.90
   0  -9  -1  266.87    7.00
   0  -9   1  258.77    6.60
   0   9  -1  261.57    7.10
   0   9   1  261.17    7.70
   0   9   1  270.07    7.70
   0   9  -1  255.37    7.80
   1  -9   1   31.30    2.20
  -1  -9  -1   31.20    2.00
   1  -9   1   32.50    1.60
  -1   9  -1   31.30    1.90
  -1   9  -1   30.00    2.10
   1   9   1   32.20    2.20
   1   9   1   30.60    2.20
  -2  -9  -1  100.49    4.00
  -2  -9  -1  102.59    3.60
   2  -9   1   94.99    2.80
  -2   9  -1  102.29    4.10
   2   9   1   99.09    3.80
  -2   9  -1   98.69    3.70
   2   9   1  101.49    4.20
  -3  -9  -1  104.39    4.30
  -3  -9  -1  104.19    4.30
   3  -9   1   99.39    5.30
  -3   9  -1  103.09    4.00
  -3   9  -1   96.99    4.50
   3   9   1  101.39    4.00
   3   9   1  102.79    5.20
  -4  -9  -1    9.00    2.10
   4  -9   1    9.90    3.10
   4   9   1    8.20    1.60
  -4   9  -1    8.70    1.70
  -4   9  -1   11.50    2.40
  -4 -10   1  336.37   10.20
   4 -10  -1  332.27   12.00
  -4 -10   1  327.67    9.10
   4  10  -1  337.47    9.70
  -4  10   1  333.37    9.90
  -4  10   1  341.27    9.90
  -3 -10   1   19.30    2.00
  -3 -10   1   18.40    1.90
   3 -10  -1   20.00    3.70
   3  10  -1   21.60    1.90
  -3  10   1   21.80    2.40
  -3  10   1   18.40    2.40
   2 -10  -1 1537.25   36.40
  -2 -10   1 1597.04   34.20
  -2 -10   1 1554.34   34.00
   2 -10  -1 1646.14   33.40
  -2  10   1 1636.64   34.90
   2  10  -1 1596.84   34.50
  -2  10   1 1594.04   33.30
   1 -10  -1 1394.96   29.70
  -1 -10   1 1370.36   29.80
  -1 -10   1 1369.76   29.80
   1 -10  -1 1521.75   32.80
  -1  10   1 1332.07   30.90
   1  10  -1 1390.06   30.90
   0 -10   1   35.70    1.90
   0 -10  -1   30.60    2.00
   0 -10   1   35.00    2.10
   0  10   1   33.20    2.40
   0  10  -1   34.00    2.00
   0  10  -1   36.60    2.60
   0  10   1   33.00    2.40
   1 -10   1 2389.36   49.00
  -1 -10  -1 2389.36   50.09
   1 -10   1 2448.75   50.89
   1  10   1 2437.16   50.69
  -1  10  -1 2304.27   50.69
   1  10   1 2311.37   50.69
  -1  10  -1 2393.16   49.80
  -2 -10  -1  870.41   19.70
  -2 -10  -1  844.82   18.70
   2 -10   1  834.52   18.00
   2 -10   1  834.72   20.70
  -2  10  -1  838.22   19.40
   2  10   1  856.31   19.60
  -2  10  -1  829.92   19.50
   2  10   1  849.22   19.90
   3 -10   1   30.00    3.30
  -3 -10  -1   28.20    2.60
  -3 -10  -1   27.80    2.30
  -3  10  -1   31.70    2.50
   3  10   1   33.20    2.30
  -3  10  -1   31.40    2.30
   4 -10   1  542.25   16.30
  -4 -10  -1  519.85   14.50
  -4 -10  -1  536.85   14.40
   4  10   1  551.04   14.00
  -4  10  -1  554.84   15.10
  -4  10  -1  539.05   13.90
   4 -11  -1   35.50    5.50
  -4 -11   1   24.10    3.10
  -4 -11   1   24.10    2.30
  -4  11   1   25.40    2.70
   4  11  -1   18.60    2.60
   3 -11  -1  130.29    6.70
  -3 -11   1  121.89    4.70
  -3 -11   1  127.29    5.00
   3  11  -1  129.59    5.00
  -3  11   1  117.69    5.10
  -2 -11   1    9.30    1.50
   2 -11  -1    8.80    1.30
  -2 -11   1   11.00    1.60
   2 -11  -1   13.60    2.80
  -2  11   1    7.30    1.70
   2  11  -1   10.70    1.90
  -1 -11   1  101.99    3.50
  -1 -11   1   79.69    3.30
   1 -11  -1   75.89    3.20
   1  11  -1   79.39    4.00
  -1  11   1   82.59    4.10
   0 -11   1  190.08    5.60
   0 -11  -1  193.08    5.90
   0 -11   1  216.68    6.40
   0  11  -1  186.88    5.70
   0  11   1  193.08    6.70
   0  11  -1  187.08    6.60
   0  11   1  191.58    6.50
  -1 -11  -1   95.29    3.90
   1 -11   1   90.59    4.20
   1 -11   1   87.99    3.20
   1  11   1   86.19    4.00
  -1  11  -1   85.99    3.40
  -1  11  -1   78.69    4.00
   1  11   1   91.49    4.20
   2 -11   1  137.49    4.50
  -2 -11  -1  142.89    4.60
  -2 -11  -1  148.39    5.40
   2 -11   1  143.49    6.10
  -2  11  -1  141.29    5.00
  -2  11  -1  140.39    5.30
   2  11   1  143.89    5.50
   2  11   1  145.59    5.40
   3 -11   1   92.59    5.50
  -3 -11  -1   99.19    4.10
  -3 -11  -1   97.59    4.50
  -3  11  -1   94.09    4.30
  -3  11  -1   89.49    4.10
   3  11   1   93.99    4.20
  -4 -11  -1   10.50    2.10
  -4 -11  -1   12.70    2.30
   4 -11   1   10.60    3.40
  -4  11  -1   10.70    2.00
  -4  11  -1   11.30    2.20
   4  11   1   10.30    2.00
  -4 -12   1  261.77    8.20
  -4 -12   1  266.37    8.80
   4 -12  -1  269.47   11.10
  -4  12   1  261.97    8.90
   4  12  -1  272.97    8.80
   3 -12  -1   49.20    4.60
  -3 -12   1   58.69    3.30
  -3 -12   1   60.29    3.30
  -3  12   1   57.09    3.60
   3  12  -1   63.49    3.50
  -2 -12   1  735.43   17.20
   2 -12  -1  746.43   16.50
   2 -12  -1  680.93   19.40
  -2 -12   1  723.93   17.00
   2  12  -1  726.13   17.90
  -2  12   1  747.73   18.40
   1 -12  -1  512.75   12.30
   1 -12  -1  537.85   15.20
  -1 -12   1  506.85   12.40
  -1 -12   1  490.35   12.30
   1  12  -1  513.95   12.40
   1  12  -1  515.85   13.90
  -1  12   1  479.35   13.60
   0 -12   1   81.19    3.70
   0 -12  -1   83.49    3.60
   0 -12   1   82.89    3.40
   0  12   1   83.79    4.20
   0  12  -1   82.79    4.10
   0  12   1   86.79    4.00
   0  12  -1   81.69    3.20
  -1 -12  -1  477.35   12.10
   1 -12   1  454.15   12.80
   1 -12   1  473.35   11.20
  -1  12  -1  475.95   11.40
   1  12   1  481.65   12.70
   1  12   1  478.55   12.80
  -1  12  -1  435.66   12.70
   2 -12   1  549.85   15.70
  -2 -12  -1  580.24   14.60
  -2  12  -1  568.34   14.10
  -2  12  -1  581.94   14.80
   2  12   1  577.24   14.70
   2  12   1  585.54   15.00
  -3 -12  -1    8.50    1.90
   3 -12   1    9.60    3.00
   3  12   1    8.80    1.90
  -3  12  -1    8.30    1.80
  -3  12  -1   13.00    2.00
   4 -12   1  247.68   10.70
  -4 -12  -1  293.77    9.20
  -4  12  -1  280.37    8.80
   4  12   1  291.17    9.10
   3 -13  -1  493.45   15.80
  -3 -13   1  479.65   12.80
  -3 -13   1  490.05   12.90
   3  13  -1  488.55   13.40
  -3  13   1  510.15   14.00
  -2 -13   1  109.29    4.40
   2 -13  -1  105.09    4.30
   2 -13  -1  106.69    6.00
  -2 -13   1  105.19    4.40
   2  13  -1  103.59    5.00
   1 -13  -1  555.94   13.50
  -1 -13   1  552.84   13.70
   1 -13  -1  575.74   16.30
   1  13  -1  535.45   15.00
   1  13  -1  562.34   13.70
   0 -13   1 1164.78   26.80
   0 -13   1 1203.28   26.00
   0 -13  -1 1194.38   26.40
   0  13   1 1172.58   27.60
   0  13   1 1178.68   27.10
   0  13  -1 1181.38   27.40
   1 -13   1   13.70    1.70
  -1 -13  -1   13.80    2.10
   1 -13   1   14.50    2.20
   1  13   1   12.30    1.80
   1  13   1   12.80    2.20
  -1  13  -1   12.10    2.30
   2 -13   1  194.38    7.80
  -2 -13  -1  188.58    6.70
  -2  13  -1  195.38    7.10
   2  13   1  197.18    7.30
   3 -13   1  420.06   13.80
  -3 -13  -1  437.56   12.20
  -3  13  -1  428.86   12.10
   3  13   1  439.96   12.40
  -3 -14   1   14.80    2.30
   3 -14  -1   19.40    4.30
  -3  14   1   11.70    2.40
   3  14  -1   11.50    2.20
   2 -14  -1   76.29    5.40
  -2 -14   1   88.99    4.10
   2  14  -1   94.59    4.90
   1 -14  -1  113.89    6.20
  -1 -14   1  136.99    5.00
   1 -14  -1  145.29    5.00
   1  14  -1  131.79    5.90
  -1  14   1  136.89    5.90
   0 -14   1    1.60    1.10
   0 -14   1    2.30    1.20
   0 -14  -1    0.50    1.00
   0  14  -1    1.70    1.00
   0  14   1    2.90    1.20
   0  14   1    3.20    1.50
  -1 -14  -1  276.57    8.30
   1 -14   1  273.97    7.60
   1 -14   1  253.07    9.00
   1  14   1  274.37    8.90
  -1  14  -1  266.07    9.10
   1  14   1  281.07    8.80
  -2 -14  -1   20.40    2.60
   2 -14   1   22.20    3.90
   2  14   1   21.40    3.10
  -2  14  -1   15.10    2.60
  -3 -14  -1   12.80    2.30
   3 -14   1   15.20    3.60
   3  14   1   13.60    2.50
  -3  14  -1   13.40    2.40
   3 -15  -1  625.44   19.70
  -3 -15   1  636.84   16.50
   3  15  -1  657.93   17.60
  -3  15   1  634.04   17.80
  -2 -15   1   80.59    4.10
   2 -15  -1   84.49    5.90
   2  15  -1   76.59    4.80
  -2  15   1   78.19    4.90
  -1 -15   1  458.75   12.00
   1 -15  -1  435.16   14.20
   1 -15  -1  459.35   11.80
   1  15  -1  451.35   13.30
  -1  15   1  459.35   13.20
   0 -15   1  987.60   24.10
   0 -15  -1 1020.70   23.50
   0 -15   1 1047.10   23.30
   0  15   1 1027.00   24.30
   0  15  -1 1033.50   24.60
   1 -15   1  216.88    6.50
  -1 -15  -1  196.18    7.00
   1 -15   1  198.48    7.90
   1  15   1  207.98    7.40
   1  15   1  206.88    7.50
  -2 -15  -1  377.06   11.10
   2 -15   1  392.36   12.70
  -2  15  -1  359.56   11.70
   2  15   1  385.16   12.00
   3 -15   1  583.24   18.30
  -3 -15  -1  615.74   16.30
  -3  15  -1  602.34   16.60
   3  15   1  641.84   17.20
   3 -16  -1    6.10    3.20
  -2 -16   1   96.89    4.60
   2 -16  -1  106.89    6.50
  -2  16   1   84.39    5.40
   2  16  -1   85.59    5.30
  -1 -16   1   92.19    4.30
   1 -16  -1   88.89    4.10
   1 -16  -1   98.09    5.90
  -1  16   1   95.09    5.00
   1  16  -1   90.49    5.10
   0 -16  -1   17.50    3.50
   0 -16   1   14.70    2.00
   0 -16   1   19.50    2.50
   0 -16  -1   16.60    2.40
   0  16   1   16.40    2.50
   0  16  -1   16.80    2.60
  -1 -16  -1  125.39    5.50
   1 -16   1  135.39    5.00
   1 -16   1  141.39    6.50
   1  16   1  134.59    5.90
  -1  16  -1  142.79    6.40
  -2 -16  -1   24.40    2.80
   2 -16   1   26.30    3.80
  -2  16  -1   27.00    3.80
   2  16   1   29.60    4.00
   2 -17  -1   41.60    4.70
  -2 -17   1   38.50    3.30
   2  17  -1   45.90    4.10
  -2  17   1   37.40    3.90
   1 -17  -1  111.59    6.80
   1 -17  -1  147.59    5.50
  -1 -17   1  146.79    5.70
  -1  17   1  147.49    6.50
   1  17  -1  146.19    6.60
   0 -17  -1  489.95   16.60
   0 -17   1  630.14   15.10
   0 -17  -1  600.24   15.10
   0  17  -1  605.84   16.10
   0  17   1  612.14   15.80
   1 -17   1   43.20    4.10
  -1 -17  -1   52.29    3.60
   1 -17   1   45.60    3.10
   1  17   1   54.89    3.80
  -1  17  -1   47.00    3.90
   2 -17   1  193.78    8.90
  -2 -17  -1  189.28    7.30
   2  17   1  214.78    8.50
  -2  17  -1  192.38    8.20
   1 -18  -1  208.48    9.50
   1 -18  -1  218.78    7.40
  -1 -18   1  228.48    7.80
  -1  18   1  234.68    8.60
   1  18  -1  240.28    8.90
   0 -18  -1   10.60    3.10
   0 -18  -1    8.70    2.00
   0 -18   1    9.40    2.00
   0  18  -1   10.00    2.30
   0  18   1   10.70    2.20
  -1 -18  -1  430.26   12.60
   1 -18   1  466.25   12.20
   1 -18   1  440.36   14.00
   1  18   1  450.05   13.30
  -1  18  -1  463.65   13.80
   0 -19  -1   37.40    3.20
   0 -19  -1   26.80    4.60
   0 -19   1   37.70    3.10
   0  19  -1   37.40    3.40
  -5   0   2   11.80    2.70
   5   0  -2    7.20    1.80
  -4   0   2  639.34   16.50
   4   0  -2  648.94   15.30
   4   0  -2  641.24   15.60
   3   0  -2 1551.64   32.90
  -3   0   2 1487.75   31.50
   3   0  -2 1570.74   32.60
  -3   0   2 1556.14   33.60
   2   0  -2  451.65   10.00
  -2   0   2  406.86    9.20
  -2   0   2  412.96    9.70
  -2   0   2  422.36   10.30
  -1   0   2 4116.89   85.49
  -1   0   2 4068.99   84.59
  -1   0   2 4153.28   85.59
  -1   0   2 4199.28   85.49
   0   0   2 5157.18  105.79
   0   0   2 5019.70  103.79
   0   0  -2 4948.50  103.49
   1   0   2   99.89    2.70
  -1   0  -2   89.99    3.50
   1   0   2   91.49    3.20
   2   0   2 2097.09   41.70
  -2   0  -2 2043.90   43.70
  -2   0  -2 2001.10   41.80
   2   0   2 2036.40   43.20
  -3   0  -2 1223.18   28.50
   3   0   2 1229.98   27.90
   3   0   2 1262.77   26.20
  -4   0  -2    9.20    2.50
   4   0   2    4.90    1.40
   4   0   2    6.80    2.20
   5   0   2  211.68    6.60
  -5   0  -2  203.68    9.10
   5   0   2  217.08    8.50
   5  -1  -2   61.59    3.60
  -5  -1   2   67.29    4.50
  -5   1   2   63.69    4.40
   5   1  -2   62.29    3.60
  -4  -1   2   22.50    2.40
   4  -1  -2   24.30    2.30
   4  -1  -2   19.20    1.90
  -4   1   2   18.80    2.20
   4   1  -2   23.70    1.90
  -3  -1   2   38.00    1.50
  -3  -1   2   42.80    2.50
   3  -1  -2   41.20    2.40
  -3   1   2   43.60    2.50
   3   1  -2   42.30    2.10
  -3   1   2   39.70    2.10
   3   1  -2   41.10    2.20
  -3   1   2   39.30    1.40
   2  -1  -2  116.49    3.80
  -2  -1   2  110.09    2.90
  -2  -1   2  107.69    3.80
  -2   1   2  107.39    3.30
   2   1  -2  106.39    3.20
   2   1  -2  112.59    3.30
  -2   1   2  114.59    3.70
  -2   1   2  105.39    2.90
  -1  -1   2  159.58    4.40
  -1  -1   2  155.78    3.80
  -1  -1   2  156.78    4.10
  -1   1   2  161.38    4.20
  -1   1   2  155.48    3.80
   1   1  -2  158.58    3.80
  -1   1   2  161.68    3.80
  -1   1   2  156.28    4.60
   0  -1  -2    7.50    0.90
   0  -1   2    8.30    0.60
   0  -1   2    8.10    0.80
   0   1  -2    8.50    1.10
   0   1   2    5.40    0.80
   0   1   2    8.90    0.70
   1  -1   2  217.58    5.00
   1  -1   2  207.18    5.70
  -1  -1  -2  213.38    5.90
  -1   1  -2  210.28    6.20
   1   1   2  216.08    5.90
  -2  -1  -2  685.43   15.10
  -2  -1  -2  708.33   16.50
   2  -1   2  689.13   16.10
  -2   1  -2  691.83   16.70
  -2   1  -2  672.13   14.70
   2   1   2  695.53   14.70
  -2   1  -2  718.33   14.80
   2   1   2  689.93   16.10
  -3  -1  -2  123.89    5.20
   3  -1   2  121.79    5.00
  -3  -1  -2  123.79    3.80
   3  -1   2  122.29    3.80
  -3   1  -2  123.59    5.40
   3   1   2  119.19    3.80
   3   1   2  125.99    5.00
   4  -1   2   84.69    3.40
   4  -1   2   85.59    4.60
  -4  -1  -2   79.79    4.70
  -4   1  -2   81.19    5.00
   4   1   2   90.09    4.60
   4   1   2   84.59    3.40
   5  -1   2   14.60    2.00
  -5  -1  -2   18.10    3.50
   5  -1   2   21.10    3.70
   5   1   2   19.90    3.50
   5   1   2   14.10    2.10
  -5   1  -2   15.30    3.40
  -5  -2   2   14.50    3.00
   5  -2  -2   12.70    2.30
  -5   2   2   25.00    3.70
   5   2  -2   13.30    2.30
  -4  -2   2  435.16   12.20
   4  -2  -2  430.46   11.80
  -4   2   2  428.66   12.10
   4   2  -2  444.56   11.10
  -3  -2   2 1242.28   27.30
   3  -2  -2 1232.98   27.10
  -3  -2   2 1184.48   25.30
   3   2  -2 1227.68   26.00
   3   2  -2 1231.58   26.30
  -3   2   2 1227.58   27.10
  -3   2   2 1208.88   26.30
   2  -2  -2    1.20    0.80
  -2  -2   2    2.80    0.90
  -2  -2   2    1.00    0.40
  -2   2   2    2.00    0.70
  -2   2   2    1.60    0.60
  -1  -2   2 1279.47   26.30
  -1  -2   2 1324.07   27.10
   1   2  -2 1277.57   26.20
  -1   2   2 1241.68   26.20
  -1   2   2 1261.97   27.50
  -1   2   2 1264.37   26.60
  -1   2   2 1300.37   26.30
   0  -2   2 2319.67   47.40
   0  -2   2 2245.68   46.20
   0  -2  -2 2249.18   46.20
   0   2  -2 2249.27   47.10
   0   2   2 2259.97   47.80
   0   2   2 2173.78   46.80
   0   2   2 2300.87   45.70
   1  -2   2   75.89    2.10
   1  -2   2   71.29    2.70
  -1  -2  -2   70.99    2.30
  -1  -2  -2   72.99    2.70
  -1   2  -2   73.19    3.20
   1   2   2   70.29    1.90
   1   2   2   70.69    2.90
  -1   2  -2   76.39    1.90
   2  -2   2  788.42   18.00
   2  -2   2  755.22   16.30
  -2  -2  -2  784.22   18.00
  -2  -2  -2  766.02   17.00
   2   2   2  781.82   17.90
   2   2   2  782.12   16.50
  -2   2  -2  801.82   16.50
  -2   2  -2  765.12   18.60
   3  -2   2  826.82   19.80
  -3  -2  -2  824.92   18.30
  -3  -2  -2  818.52   20.00
  -3   2  -2  841.02   18.00
  -3   2  -2  818.52   20.50
   3   2   2  837.12   18.00
   3   2   2  828.82   19.60
   4  -2   2   15.10    2.90
   4  -2   2    7.80    1.70
  -4  -2  -2   18.40    2.90
   4   2   2   16.50    2.40
   4   2   2   13.90    2.00
  -4   2  -2   11.80    2.50
   5  -2   2  138.49    6.70
  -5  -2  -2  124.09    6.70
   5  -2   2  127.39    4.90
   5   2   2  137.99    6.50
  -5   2  -2  129.49    7.10
   5   2   2  131.69    5.00
  -5  -3   2  369.86   12.20
   5  -3  -2  404.46   14.60
   5  -3  -2  393.36   11.10
  -5   3   2  387.36   12.20
   5   3  -2  388.36   10.90
   4  -3  -2  192.68    6.80
  -4  -3   2  183.08    6.90
  -4   3   2  183.98    6.00
  -4   3   2  178.38    6.60
   4   3  -2  187.88    5.90
  -3  -3   2  133.59    3.60
   3  -3  -2  130.79    5.00
  -3  -3   2  133.99    5.00
   3   3  -2  128.59    4.20
  -3   3   2  135.29    4.80
  -3   3   2  134.69    4.30
   2  -3  -2 2244.08   44.50
  -2  -3   2 2105.89   43.80
  -2  -3   2 2031.80   42.60
   2   3  -2 2092.29   43.00
  -2   3   2 2033.50   42.40
  -2   3   2 2036.50   43.00
  -2   3   2 2057.79   43.30
  -1  -3   2 1078.09   22.30
  -1  -3   2 1025.30   21.40
  -1   3   2 1008.30   22.80
   1   3  -2 1024.00   21.40
  -1   3   2 1033.00   21.40
  -1   3   2 1004.80   21.50
  -1   3   2 1041.70   21.50
   0  -3  -2  498.65   10.90
   0  -3   2  520.95   10.90
   0  -3  -2  493.95   10.90
   0  -3   2  498.05   10.60
   0   3   2  511.75   10.70
   0   3  -2  490.75   11.00
   0   3  -2  467.85   11.90
   0   3   2  488.45   11.80
   1  -3   2 2518.05   52.09
   1  -3   2 2519.35   50.99
  -1  -3  -2 2596.44   51.89
  -1  -3  -2 2520.55   51.69
  -1   3  -2 2424.06   52.99
   1   3   2 2523.55   52.49
   1   3   2 2466.55   51.09
  -1   3  -2 2620.34   50.99
  -2  -3  -2  330.07    8.60
   2  -3   2  310.37    8.60
  -2  -3  -2  310.17    7.90
   2  -3   2  316.07    7.00
   2   3   2  320.07    7.30
   2   3   2  318.77    8.60
  -2   3  -2  313.97    9.20
  -2   3  -2  317.17    7.30
   3  -3   2   68.29    3.80
  -3  -3  -2   71.89    3.70
  -3  -3  -2   72.39    3.00
  -3   3  -2   76.59    2.70
   3   3   2   73.89    3.70
   3   3   2   69.19    2.70
  -3   3  -2   76.19    4.20
  -4  -3  -2  425.06   12.70
   4  -3   2  429.16   12.70
   4  -3   2  443.56   10.80
   4   3   2  433.26   10.70
   4   3   2  439.16   12.50
   5  -4  -2   13.70    3.20
  -5  -4   2   15.40    3.00
   5   4  -2    7.80    1.90
  -5   4   2   12.50    2.70
  -4  -4   2   49.20    3.40
   4  -4  -2   50.19    3.60
  -4   4   2   51.09    3.30
  -4   4   2   50.79    2.90
   4   4  -2   55.19    3.00
   3  -4  -2  143.09    5.50
  -3  -4   2  147.99    4.10
  -3  -4   2  149.99    5.40
   3   4  -2  150.08    4.70
  -3   4   2  151.48    4.70
  -3   4   2  145.19    5.00
  -2  -4   2   20.70    1.20
  -2  -4   2   25.00    1.70
   2  -4  -2   23.20    1.10
   2   4  -2   21.20    1.30
  -2   4   2   21.00    1.40
  -2   4   2   22.50    1.40
  -1  -4   2  183.88    5.10
   1  -4  -2  170.48    4.40
  -1  -4   2  173.78    4.30
   1   4  -2  174.08    4.40
  -1   4   2  170.48    4.40
  -1   4   2  168.38    5.50
  -1   4   2  167.28    4.30
   0  -4  -2  671.83   14.60
   0  -4   2  698.43   14.50
   0  -4   2  677.93   14.20
   0  -4  -2  686.93   14.20
   0   4  -2  649.04   14.90
   0   4   2  661.93   14.50
   0   4  -2  667.63   15.70
   0   4   2  651.63   15.60
  -1  -4  -2    1.70    0.70
   1  -4   2    0.20    0.40
  -1  -4  -2    1.60    0.70
   1  -4   2    0.70    0.70
  -1   4  -2    0.50    0.40
   1   4   2    2.00    0.60
  -1   4  -2    2.20    1.00
   1   4   2    0.60    0.80
   2  -4   2  131.79    3.30
  -2  -4  -2  126.79    4.10
   2  -4   2  125.89    4.70
  -2  -4  -2  131.49    4.40
   2   4   2  128.49    3.60
  -2   4  -2  133.99    3.60
   2   4   2  125.49    4.60
  -2   4  -2  127.49    5.10
   3  -4   2   83.59    4.30
  -3  -4  -2   82.59    4.00
  -3  -4  -2   87.89    3.50
   3   4   2   88.19    3.10
  -3   4  -2   90.49    4.70
   3   4   2   87.39    4.10
  -3   4  -2   93.59    3.10
   4  -4   2   20.70    2.90
  -4  -4  -2   19.70    3.00
   4   4   2   23.60    2.80
   4   4   2   21.20    1.90
  -4   4  -2   19.60    1.90
  -4   4  -2   16.00    3.00
   5  -5  -2  346.37   11.60
  -5  -5   2  328.37   11.30
  -5   5   2  347.47   11.10
   5   5  -2  364.46   10.20
  -5   5   2  350.16   10.20
   4  -5  -2  729.93   18.60
  -4  -5   2  675.43   17.90
  -4   5   2  695.33   17.00
  -4   5   2  714.23   17.70
   4   5  -2  745.63   17.00
   3  -5  -2  241.08    8.10
  -3  -5   2  256.97    7.80
  -3  -5   2  259.77    6.40
  -3   5   2  255.67    7.40
  -3   5   2  261.47    7.10
   3   5  -2  268.87    7.10
   2  -5  -2 3102.39   65.19
   2  -5  -2 3520.45   68.29
  -2  -5   2 3212.08   66.59
  -2  -5   2 3162.08   65.39
  -2   5   2 3203.58   65.89
  -2   5   2 3165.98   65.79
   2   5  -2 3156.78   65.69
   1  -5  -2 1643.34   34.60
  -1  -5   2 1715.53   34.60
  -1  -5   2 1738.63   35.50
  -1   5   2 1684.23   34.70
  -1   5   2 1644.14   34.20
   1   5  -2 1657.93   34.70
  -1   5   2 1657.43   36.30
   0  -5  -2  994.00   20.90
   0  -5   2  997.40   20.40
   0  -5   2 1003.20   20.60
   0   5  -2  967.00   22.00
   0   5  -2  906.11   21.30
   0   5   2  987.40   21.10
   0   5   2  972.30   22.00
   1  -5   2 3137.89   63.99
  -1  -5  -2 3192.88   64.89
   1  -5   2 3209.88   65.19
  -1  -5  -2 3263.87   64.49
   1   5   2 3239.08   65.79
  -1   5  -2 3013.20   66.09
   1   5   2 3102.89   64.49
  -1   5  -2 3165.98   64.19
  -2  -5  -2  727.13   16.00
   2  -5   2  651.83   16.30
  -2  -5  -2  688.63   15.80
   2  -5   2  702.43   14.50
  -2   5  -2  681.73   17.20
  -2   5  -2  698.33   15.00
   2   5   2  687.93   15.10
   2   5   2  682.23   16.40
   3  -5   2  131.79    5.60
  -3  -5  -2  136.19    4.80
  -3  -5  -2  143.09    5.20
   3   5   2  133.09    4.20
  -3   5  -2  136.49    5.90
  -3   5  -2  134.89    4.20
   3   5   2  135.09    5.30
  -4  -5  -2  683.83   17.70
   4  -5   2  674.03   18.10
   4   5   2  675.43   15.80
  -4   5  -2  685.23   15.80
   4   5   2  671.83   17.60
  -4   5  -2  675.23   18.90
  -5  -6   2   13.50    2.90
   5  -6  -2   12.90    3.30
  -5   6   2   10.30    2.00
   5   6  -2   10.10    1.90
  -5   6   2   11.70    2.50
  -4  -6   2   58.39    3.80
   4  -6  -2   65.69    4.40
   4   6  -2   63.59    3.20
  -4   6   2   64.59    3.30
  -4   6   2   59.69    3.50
  -3  -6   2  141.29    4.20
   3  -6  -2  147.59    6.00
  -3  -6   2  139.99    5.20
  -3   6   2  135.99    4.70
   3   6  -2  131.49    4.50
  -3   6   2  138.09    4.70
  -2  -6   2    2.30    0.60
   2  -6  -2    1.80    0.60
   2  -6  -2    5.00    1.70
  -2  -6   2    1.80    0.80
  -2   6   2    1.30    0.60
   2   6  -2    1.10    0.60
  -2   6   2    2.00    0.60
   1  -6  -2   91.09    3.00
  -1  -6   2   95.49    2.90
  -1  -6   2  100.69    3.60
  -1   6   2   95.69    4.10
   1   6  -2   94.09    3.10
  -1   6   2   97.59    3.20
   0  -6   2  551.24   12.00
   0  -6   2  549.35   11.80
   0  -6  -2  560.14   12.40
   0   6  -2  530.45   13.30
   0   6  -2  505.55   12.90
   0   6   2  547.65   12.60
   0   6   2  532.65   13.40
   1  -6   2    0.40    0.40
  -1  -6  -2    1.10    0.70
   1  -6   2    0.30    0.80
  -1  -6  -2    0.90    0.60
   1   6   2    4.40    1.30
  -1   6  -2    1.10    0.90
  -1   6  -2    1.70    0.60
   1   6   2    2.00    0.70
   2  -6   2   98.29    2.70
  -2  -6  -2   94.19    3.70
  -2  -6  -2  107.49    3.70
   2  -6   2  100.79    4.20
  -2   6  -2   94.19    3.10
  -2   6  -2   98.89    4.60
   2   6   2   98.69    4.10
   2   6   2  101.99    3.30
  -3  -6  -2   88.99    3.80
   3  -6   2   81.69    4.40
  -3  -6  -2   89.69    4.00
   3   6   2   91.29    3.30
   3   6   2   88.29    4.20
  -3   6  -2   93.09    3.30
  -3   6  -2   87.99    4.70
  -4  -6  -2   29.10    2.90
   4  -6   2   30.90    3.60
   4   6   2   30.00    2.20
   4   6   2   28.60    3.00
  -4   6  -2   27.90    2.20
  -4   6  -2   27.70    3.30
  -4  -7   2   53.69    3.60
   4  -7  -2   56.09    4.30
  -4  -7   2   54.29    2.60
   4   7  -2   53.59    3.10
  -4   7   2   55.89    3.30
  -4   7   2   52.79    3.10
  -3  -7   2   90.79    3.20
  -3  -7   2   87.49    4.00
   3  -7  -2   73.09    4.50
   3   7  -2   92.19    3.60
  -3   7   2   90.19    3.60
  -3   7   2   88.29    3.60
   2  -7  -2 1114.09   25.80
   2  -7  -2 1032.30   22.50
  -2  -7   2 1050.89   22.70
  -2  -7   2 1054.09   23.60
  -2   7   2 1055.49   23.20
  -2   7   2 1078.99   22.60
   2   7  -2 1038.10   23.00
  -1  -7   2  578.84   12.80
  -1  -7   2  574.44   13.60
   1  -7  -2  570.34   13.00
  -1   7   2  572.34   14.60
  -1   7   2  577.34   13.30
   1   7  -2  567.04   13.20
   0  -7   2   28.20    1.50
   0  -7  -2   29.40    1.70
   0  -7   2   31.50    1.50
   0   7  -2   32.70    2.20
   0   7   2   30.20    2.20
   0   7  -2   32.50    2.10
   0   7   2   28.10    1.90
  -1  -7  -2 1671.03   35.50
  -1  -7  -2 1679.73   34.40
   1  -7   2 1692.73   34.40
   1  -7   2 1705.23   35.70
   1   7   2 1681.53   36.40
  -1   7  -2 1677.33   35.00
  -1   7  -2 1610.74   36.50
   1   7   2 1647.04   35.40
  -2  -7  -2  644.34   14.50
   2  -7   2  623.84   13.40
   2  -7   2  632.04   15.70
  -2  -7  -2  620.24   15.00
  -2   7  -2  632.44   16.20
  -2   7  -2  638.44   14.20
   2   7   2  625.34   15.60
   2   7   2  627.34   14.40
  -3  -7  -2  122.89    4.70
   3  -7   2  122.99    5.50
  -3  -7  -2  121.29    4.70
  -3   7  -2  111.49    5.50
   3   7   2  118.49    4.10
   3   7   2  113.39    5.00
  -3   7  -2  125.09    4.10
  -4  -7  -2  384.76   11.60
   4  -7   2  401.46   12.70
  -4   7  -2  383.96   12.70
   4   7   2  410.56   12.10
   4   7   2  392.66   10.40
  -4   7  -2  403.76   10.30
  -4  -8   2  306.17    9.80
   4  -8  -2  314.47   11.00
  -4  -8   2  318.37    8.30
  -4   8   2  309.77    9.20
  -4   8   2  318.07    9.30
   4   8  -2  320.27    9.10
   3  -8  -2  837.32   21.50
  -3  -8   2  852.01   18.70
  -3  -8   2  830.82   19.80
  -3   8   2  820.92   19.30
  -3   8   2  841.12   19.00
   3   8  -2  828.62   19.10
   2  -8  -2   25.50    2.80
  -2  -8   2   19.50    1.40
  -2  -8   2   19.60    1.70
   2  -8  -2   19.10    1.40
  -2   8   2   20.40    1.70
   2   8  -2   19.00    1.50
  -2   8   2   25.20    1.30
   1  -8  -2 1415.26   29.60
  -1  -8   2 1424.06   29.40
  -1  -8   2 1369.26   30.20
  -1   8   2 1387.56   30.10
   1   8  -2 1392.26   30.00
  -1   8   2 1369.86   31.40
   0  -8   2 1355.26   28.00
   0  -8   2 1368.36   27.80
   0  -8  -2 1360.16   28.50
   0   8  -2 1272.17   29.20
   0   8   2 1279.27   28.80
   0   8  -2 1321.37   29.30
   0   8   2 1296.37   29.60
   1  -8   2   25.30    1.30
  -1  -8  -2   26.50    1.90
   1  -8   2   27.00    2.00
   1   8   2   24.80    1.90
   1   8   2   26.30    2.20
  -1   8  -2   23.30    1.70
  -1   8  -2   26.40    2.10
   2  -8   2  694.13   15.00
  -2  -8  -2  730.23   16.00
  -2  -8  -2  698.93   16.80
   2  -8   2  726.63   17.50
  -2   8  -2  697.33   15.80
   2   8   2  696.73   17.30
   2   8   2  706.63   16.20
  -2   8  -2  685.03   17.60
   3  -8   2  568.44   15.70
  -3  -8  -2  597.94   14.50
  -3  -8  -2  575.44   14.60
  -3   8  -2  555.74   15.60
   3   8   2  590.64   15.30
  -3   8  -2  578.14   13.70
   3   8   2  587.44   13.90
   4  -8   2    3.30    2.50
  -4  -8  -2    3.20    1.60
   4   8   2    3.90    1.20
  -4   8  -2    5.10    2.10
  -4   8  -2    2.50    1.20
  -4  -9   2   83.39    4.50
   4  -9  -2   93.89    5.90
  -4  -9   2   89.19    3.60
   4   9  -2   91.29    4.20
  -4   9   2   91.59    4.40
  -4   9   2   88.69    4.10
   3  -9  -2   10.90    2.80
  -3  -9   2    9.60    1.40
  -3  -9   2   12.70    2.10
  -3   9   2   13.90    2.00
  -3   9   2   13.30    1.40
   3   9  -2   10.20    1.70
  -2  -9   2  230.48    6.90
   2  -9  -2  227.98    6.10
  -2  -9   2  236.28    6.30
   2  -9  -2  199.28    8.40
  -2   9   2  235.38    6.90
  -2   9   2  229.28    5.70
   2   9  -2  234.38    6.70
   1  -9  -2  132.59    4.30
  -1  -9   2  131.59    4.10
  -1   9   2  136.59    5.50
   1   9  -2  130.69    4.70
  -1   9   2  128.39    4.70
   0  -9   2   72.79    2.90
   0  -9   2   76.79    2.70
   0  -9  -2   74.79    3.10
   0   9  -2   72.09    3.60
   0   9   2   70.59    3.30
   0   9  -2   73.89    3.50
   0   9   2   75.09    3.80
   1  -9   2  149.99    5.20
   1  -9   2  150.68    4.20
  -1  -9  -2  153.98    5.10
  -1   9  -2  156.48    5.60
   1   9   2  145.69    5.20
   1   9   2  145.09    5.60
  -1   9  -2  152.48    5.10
  -2  -9  -2   82.79    3.10
   2  -9   2   81.79    4.20
   2  -9   2   72.69    2.50
  -2  -9  -2   75.59    3.70
  -2   9  -2   83.19    4.10
   2   9   2   75.59    3.40
   2   9   2   78.09    4.00
  -2   9  -2   75.39    3.10
  -3  -9  -2   28.30    2.70
   3  -9   2   29.10    3.20
  -3  -9  -2   24.20    2.20
   3   9   2   26.20    2.70
   3   9   2   27.30    2.20
  -3   9  -2   26.10    2.00
  -3   9  -2   25.30    2.70
  -4  -9  -2   38.30    3.10
   4  -9   2   38.50    4.20
   4   9   2   39.70    2.70
  -4   9  -2   40.30    2.70
  -4   9  -2   41.20    3.70
   4 -10  -2  404.96   14.00
  -4 -10   2  424.46   12.30
  -4 -10   2  427.86   10.90
  -4  10   2  417.76   11.90
   4  10  -2  424.66   11.60
  -3 -10   2  870.21   20.50
   3 -10  -2  845.82   22.90
  -3 -10   2  867.21   19.60
  -3  10   2  858.41   20.40
   3  10  -2  871.31   20.10
   2 -10  -2   71.69    3.10
   2 -10  -2   93.89    5.40
  -2 -10   2   77.99    3.20
  -2 -10   2   75.89    3.50
   2  10  -2   75.79    3.50
  -2  10   2   83.99    3.80
   1 -10  -2 1264.17   27.40
  -1 -10   2 1300.27   27.20
  -1  10   2 1281.77   29.50
   1  10  -2 1289.87   28.00
  -1  10   2 1203.18   28.20
   1  10  -2 1231.88   28.20
   0 -10   2 2087.79   44.30
   0 -10   2 2115.29   43.90
   0 -10  -2 2148.19   44.70
   0  10   2 2173.18   45.20
   0  10  -2 2040.00   45.50
   0  10  -2 2096.39   45.30
   0  10   2 2133.79   46.20
  -1 -10  -2   63.89    3.20
   1 -10   2   63.39    2.40
   1 -10   2   61.49    3.20
  -1  10  -2   56.59    3.10
  -1  10  -2   63.49    3.30
   1  10   2   63.59    3.60
   1  10   2   63.19    3.30
   2 -10   2  945.81   20.50
   2 -10   2  974.20   23.00
  -2 -10  -2  961.20   20.90
  -2 -10  -2  929.61   22.10
   2  10   2  932.81   21.80
  -2  10  -2  948.61   22.60
   2  10   2  962.30   22.90
  -2  10  -2  949.51   21.40
  -3 -10  -2  805.02   18.60
   3 -10   2  797.92   20.70
  -3 -10  -2  797.42   19.30
  -3  10  -2  773.02   18.30
   3  10   2  800.72   18.70
   3  10   2  781.12   19.80
  -3  10  -2  786.32   20.00
  -4 -10  -2   11.20    2.40
   4 -10   2   12.10    3.50
   4  10   2   15.00    2.20
  -4  10  -2   11.60    2.00
  -4  10  -2   15.00    3.10
  -4 -11   2   18.80    2.10
   4 -11  -2   21.20    4.30
  -4 -11   2   22.00    3.10
  -4  11   2   21.90    3.10
   4  11  -2   17.60    2.60
   3 -11  -2   27.30    3.70
  -3 -11   2   24.40    2.30
  -3 -11   2   22.20    2.00
  -3  11   2   21.60    2.40
   3  11  -2   23.20    2.30
   2 -11  -2  127.69    4.40
  -2 -11   2  131.49    4.60
  -2 -11   2  128.29    4.90
   2  11  -2  131.99    5.00
  -2  11   2  129.69    5.20
  -1 -11   2   51.39    2.60
   1 -11  -2   49.50    2.70
  -1  11   2   53.59    3.60
   1  11  -2   57.69    3.00
   1  11  -2   50.59    3.20
  -1  11   2   51.59    3.10
   0 -11   2   19.50    1.60
   0 -11   2   15.30    1.40
   0 -11  -2   15.90    2.00
   0  11  -2   17.90    2.40
   0  11  -2   16.40    1.70
   0  11   2   16.00    2.10
   0  11   2   15.50    2.00
  -1 -11  -2  128.29    4.90
   1 -11   2  127.29    4.10
   1 -11   2  138.29    5.20
   1  11   2  125.99    5.00
  -1  11  -2  128.19    5.00
  -1  11  -2  122.19    5.00
   1  11   2  134.09    5.50
   2 -11   2  180.88    7.00
  -2 -11  -2  169.28    6.20
  -2  11  -2  170.38    5.80
   2  11   2  177.18    6.30
  -2  11  -2  172.88    6.30
   2  11   2  180.98    6.80
  -3 -11  -2   62.49    3.90
   3 -11   2   64.79    4.70
   3  11   2   63.59    3.60
  -3  11  -2   60.19    3.20
  -3  11  -2   62.29    3.80
  -4 -11  -2   46.50    4.60
  -4  11  -2   50.89    3.90
   4  11   2   46.00    3.20
  -4  11  -2   51.79    3.20
  -4 -12   2  205.48    6.80
  -4 -12   2  198.38    7.40
   4 -12  -2  179.88    9.40
  -4  12   2  202.28    7.60
   4  12  -2  202.98    7.30
  -3 -12   2  611.04   15.10
  -3 -12   2  598.04   15.50
   3 -12  -2  613.14   18.60
  -3  12   2  628.14   16.20
   3  12  -2  617.34   15.70
   2 -12  -2    2.20    1.10
  -2 -12   2    0.50    0.90
  -2 -12   2    3.90    1.30
   2 -12  -2    4.30    2.30
  -2  12   2    1.30    1.20
   2  12  -2    1.70    1.20
  -1 -12   2  495.65   12.20
   1 -12  -2  500.15   12.40
  -1  12   2  478.65   13.30
  -1  12   2  494.15   14.20
   1  12  -2  508.75   12.90
   1  12  -2  488.95   13.60
   0 -12  -2  907.21   20.50
   0 -12   2  875.01   19.70
   0 -12   2  849.52   20.10
   0  12   2  871.61   21.80
   0  12  -2  881.61   20.60
   0  12  -2  901.21   21.40
   0  12   2  890.01   20.80
  -1 -12  -2   12.60    1.90
   1 -12   2   16.20    2.50
   1 -12   2   12.00    1.50
  -1  12  -2   12.90    2.00
   1  12   2   12.40    2.00
  -1  12  -2   12.10    2.10
   1  12   2   15.50    2.10
  -2 -12  -2  298.97    9.20
   2 -12   2  304.87   10.10
  -2  12  -2  321.77    9.10
  -2  12  -2  314.07    9.20
   2  12   2  305.47    9.80
   2  12   2  305.97    9.50
   3 -12   2  353.06   12.00
  -3 -12  -2  345.67   10.60
  -3  12  -2  362.46   10.00
   3  12   2  353.66   10.50
  -3  12  -2  349.67   10.60
  -3 -13   2   69.99    3.80
   3 -13  -2   69.99    5.80
  -3 -13   2   69.59    3.70
  -3  13   2   66.09    4.20
   3  13  -2   66.39    4.00
  -2 -13   2  921.41   21.70
  -2 -13   2  889.61   21.20
   2 -13  -2  922.81   20.90
   2 -13  -2  960.90   25.30
   2  13  -2  950.80   22.60
  -2  13   2  906.41   22.70
  -1 -13   2  346.87    9.50
   1 -13  -2  358.46    9.70
   1  13  -2  368.86   10.20
   1  13  -2  350.36   10.90
  -1  13   2  358.16   11.40
  -1  13   2  351.06   10.60
   0 -13   2  238.38    7.30
   0 -13   2  246.38    7.00
   0 -13  -2  242.98    7.50
   0  13   2  250.27    8.70
   0  13  -2  234.88    8.00
   0  13  -2  241.18    7.40
   0  13   2  242.48    7.70
   1 -13   2  946.01   22.80
   1 -13   2  953.50   21.10
  -1 -13  -2  949.31   22.30
   1  13   2  939.61   22.50
   1  13   2  979.40   23.40
  -1  13  -2  941.91   22.00
  -2 -13  -2   51.59    3.40
   2 -13   2   52.89    4.10
   2  13   2   52.99    3.60
  -2  13  -2   54.39    3.30
   2  13   2   49.70    3.60
  -2  13  -2   53.59    3.20
  -3 -13  -2   12.90    2.50
   3 -13   2   13.50    3.50
  -3  13  -2   12.40    2.30
  -3  13  -2   12.50    2.10
   3  13   2   13.70    2.50
  -3 -14   2   40.30    3.00
   3 -14  -2   40.90    4.80
  -3 -14   2   45.30    3.90
  -3  14   2   48.30    3.80
   3  14  -2   44.80    3.50
  -2 -14   2   35.00    2.60
   2 -14  -2   36.70    2.90
   2 -14  -2   40.20    4.30
  -2  14   2   33.50    3.20
   2  14  -2   39.10    3.30
   1 -14  -2   86.59    4.00
  -1 -14   2   84.59    3.90
  -1  14   2   86.59    4.60
   1  14  -2   98.59    4.50
   1  14  -2   82.99    4.70
   0 -14   2  117.89    4.90
   0 -14  -2  139.39    5.20
   0 -14   2  137.09    4.80
   0  14  -2  127.49    5.60
   0  14   2  135.29    5.30
   0  14   2  130.09    6.00
  -1 -14  -2    4.50    1.60
   1 -14   2    6.10    1.30
   1 -14   2    6.40    2.10
   1  14   2    6.10    1.60
  -1  14  -2    6.00    1.80
   1  14   2    6.40    2.10
  -2 -14  -2   62.99    3.90
   2 -14   2   62.89    4.70
   2  14   2   72.19    4.30
  -2  14  -2   64.19    3.90
   2  14   2   67.79    5.50
   3 -14   2   35.20    4.40
  -3 -14  -2   37.70    3.40
  -3  14  -2   42.50    3.20
   3  14   2   40.20    3.50
  -3 -15   2   94.09    4.60
   3 -15  -2   73.59    6.40
   3  15  -2  102.29    5.30
  -2 -15   2  743.03   18.00
   2 -15  -2  695.03   21.40
  -2  15   2  746.43   19.70
   2  15  -2  754.22   19.70
   1 -15  -2  425.16   11.40
  -1 -15   2  420.06   11.30
   1 -15  -2  416.36   14.50
   1  15  -2  412.86   12.80
  -1  15   2  438.36   12.60
   0 -15   2   92.69    4.00
   0 -15  -2   90.19    4.40
   0  15  -2   92.69    4.80
   0  15   2   96.69    5.20
   0  15   2   87.89    4.40
   1 -15   2  875.01   22.30
  -1 -15  -2  906.81   21.70
   1 -15   2  912.51   20.60
   1  15   2  892.91   21.80
   1  15   2  923.71   22.90
   2 -15   2  445.86   14.10
  -2 -15  -2  460.85   12.90
  -2  15  -2  436.26   13.00
   2  15   2  464.45   13.50
   3 -15   2   98.09    6.50
   2 -16  -2    5.90    3.10
  -2 -16   2    3.20    1.40
  -2  16   2    3.90    2.10
   2  16  -2    3.60    2.00
   1 -16  -2  109.49    6.90
   1 -16  -2   88.29    4.30
  -1 -16   2   92.59    4.30
  -1  16   2   90.29    4.90
   1  16  -2   89.89    5.20
   0 -16  -2  117.79    5.20
   0 -16   2  126.49    5.00
   0  16   2  126.49    5.40
   0  16   2  125.39    6.20
   0  16  -2  123.99    5.70
   1 -16   2    4.50    2.20
   1 -16   2    4.80    1.40
  -1 -16  -2    5.40    1.80
   1  16   2    3.20    2.00
   1  16   2    2.40    1.40
  -1  16  -2    4.90    1.80
  -2 -16  -2   43.00    3.60
   2 -16   2   44.70    4.50
  -2  16  -2   48.50    3.90
   2  16   2   56.19    4.10
  -2 -17   2  387.26   11.00
   2 -17  -2  333.77   13.70
   2  17  -2  390.46   12.80
  -2  17   2  381.16   12.60
   1 -17  -2  149.99    8.30
   1 -17  -2  169.38    6.30
  -1 -17   2  172.38    6.30
   1  17  -2  183.68    7.50
  -1  17   2  174.78    7.10
   0 -17   2   43.50    3.10
   0 -17  -2   42.20    3.20
   0  17   2   44.80    3.90
   0  17   2   42.80    3.20
   0  17  -2   42.80    3.40
  -1 -17  -2  447.66   12.60
   1 -17   2  443.06   11.70
   1 -17   2  421.06   13.30
   1  17   2  440.16   12.60
  -1  17  -2  435.56   13.20
   1  17   2  454.05   14.10
  -2 -17  -2  131.09    6.00
   2 -17   2  126.19    7.10
  -2  17  -2  125.09    6.30
   2  17   2  138.29    6.40
   1 -18  -2  299.87    9.20
   1 -18  -2  255.17   11.40
  -1 -18   2  294.87    9.20
   1  18  -2  297.17   10.40
  -1  18   2  307.57   10.10
   0 -18  -2  304.67    9.50
   0 -18   2  293.37    9.10
   0  18  -2  290.97   10.00
   0  18   2  310.77    9.80
   1 -18   2   24.00    2.60
  -1 -18  -2   24.60    3.20
  -1  18  -2   23.60    3.40
   1  18   2   28.30    3.00
   5   0  -3  685.23   16.80
  -5   0   3  652.43   18.00
   4   0  -3  250.87    7.40
  -4   0   3  253.57    8.30
  -3   0   3  567.04   14.00
  -3   0   3  553.94   12.40
   3   0  -3  553.94   13.40
   3   0  -3  582.64   13.20
  -2   0   3 2811.92   57.99
  -2   0   3 2772.42   56.79
  -1   0   3 1075.29   22.30
  -1   0   3 1056.29   23.50
  -1   0   3 1070.59   23.20
   0   0  -3 1670.63   35.30
   0   0   3 1630.84   35.10
   0   0   3 1666.33   34.10
   1   0   3 2798.32   58.89
  -1   0  -3 2841.72   59.39
   1   0   3 2866.41   57.79
   2   0   3  404.96    8.80
   2   0   3  397.06   10.70
  -2   0  -3  396.46    9.30
  -2   0  -3  405.66   11.10
  -3   0  -3  225.18    7.90
   3   0   3  213.28    5.60
   3   0   3  220.78    7.50
  -4   0  -3  809.92   21.70
   4   0   3  840.92   21.20
  -5  -1   3    8.50    2.40
   5  -1  -3    5.70    1.60
   5   1  -3    6.80    1.70
  -5   1   3    5.60    2.10
  -4  -1   3  106.99    5.00
   4  -1  -3  110.19    4.30
   4  -1  -3  111.89    6.00
  -4   1   3  112.19    5.00
   4   1  -3  107.69    4.20
  -3  -1   3   58.69    2.10
  -3  -1   3   60.49    3.10
   3  -1  -3   63.99    3.00
  -3   1   3   56.89    2.10
   3   1  -3   62.69    2.60
   3   1  -3   61.99    2.70
  -3   1   3   58.99    3.10
  -2  -1   3   15.10    1.40
  -2  -1   3    7.70    0.80
  -2   1   3    8.00    0.90
  -2   1   3   11.40    1.20
   2   1  -3   11.20    1.20
   2   1  -3   10.50    1.00
  -2   1   3    7.70    0.80
  -2   1   3    9.60    1.10
  -1  -1   3    8.50    0.70
  -1  -1   3   10.70    1.10
  -1  -1   3   11.00    1.20
  -1   1   3    8.00    0.60
   1   1  -3    8.50    0.70
  -1   1   3    9.70    1.00
  -1   1   3    8.10    1.10
  -1   1   3    8.00    0.70
   0  -1   3  490.85   10.90
   0  -1  -3  504.05   11.90
   0  -1   3  485.05   11.60
   0   1  -3  498.55   12.30
   0   1   3  504.75   11.00
   0   1   3  494.85   12.00
   1  -1   3   32.10    2.10
   1  -1   3   31.40    1.50
  -1  -1  -3   33.20    2.20
   1   1   3   34.30    2.20
  -1   1  -3   32.20    2.30
   1   1   3   32.60    1.60
   2  -1   3  113.99    3.10
   2  -1   3  114.19    4.50
  -2  -1  -3  117.49    3.60
  -2  -1  -3  130.49    4.90
   2   1   3  113.49    4.60
  -2   1  -3  115.79    5.00
   2   1   3  118.09    3.10
  -3  -1  -3  303.87    8.10
   3  -1   3  290.87    7.20
  -3  -1  -3  305.27    9.50
   3  -1   3  297.67    9.30
   3   1   3  297.67    7.30
   3   1   3  302.57    9.30
  -3   1  -3  290.47    9.80
  -4  -1  -3   30.70    3.40
   4  -1   3   34.20    3.50
   4   1   3   29.70    3.30
  -4   1  -3   22.80    3.70
  -5  -2   3  298.47   10.30
   5  -2  -3  292.47    9.00
  -5   2   3  295.17   10.10
   5   2  -3  293.67    8.90
   4  -2  -3  143.69    5.70
   4  -2  -3  144.09    5.10
  -4  -2   3  139.29    5.80
   4   2  -3  146.09    5.10
  -4   2   3  148.39    5.80
  -3  -2   3  325.57    9.20
  -3  -2   3  320.97    7.60
   3  -2  -3  318.77    9.10
  -3   2   3  332.97    9.00
   3   2  -3  323.97    8.30
  -3   2   3  315.37    8.30
  -3   2   3  318.77    7.50
  -2  -2   3 1752.12   36.10
  -2  -2   3 1779.82   37.40
  -2   2   3 1748.03   37.50
  -2   2   3 1742.53   36.90
  -2   2   3 1726.13   36.30
  -2   2   3 1707.73   36.00
   2   2  -3 1790.32   36.30
  -1  -2   3  374.56    9.20
  -1  -2   3  358.46    8.10
  -1   2   3  351.06    8.10
  -1   2   3  347.07    8.60
  -1   2   3  361.56    7.90
  -1   2   3  347.87    9.50
   1   2  -3  350.46    7.90
   0  -2  -3  424.26   10.40
   0  -2   3  437.66   10.30
   0  -2   3  440.46    9.70
   0   2  -3  429.96   11.20
   0   2   3  433.56   11.00
   0   2   3  449.56    9.90
   1  -2   3 1895.51   40.60
  -1  -2  -3 2005.60   40.90
   1  -2   3 1956.80   39.50
  -1  -2  -3 1875.81   39.80
   1   2   3 1883.91   41.00
  -1   2  -3 1953.10   41.80
  -2  -2  -3  306.07    7.80
  -2  -2  -3  317.47    8.90
   2  -2   3  305.27    8.80
   2  -2   3  316.67    7.40
  -2   2  -3  324.67    7.10
  -2   2  -3  313.67    9.70
   2   2   3  306.17    7.10
   2   2   3  308.97    9.00
   3  -2   3  271.77    6.80
  -3  -2  -3  275.47    7.50
  -3  -2  -3  272.87    8.80
   3  -2   3  279.87    8.80
   3   2   3  267.67    6.80
  -3   2  -3  273.17    9.40
   3   2   3  269.77    8.70
   4  -2   3  305.67   10.30
  -4  -2  -3  309.47   10.40
  -4   2  -3  296.57   10.90
   4   2   3  305.97   10.20
  -5  -3   3    6.10    2.10
   5  -3  -3    0.20    1.40
  -5   3   3    5.20    2.00
   5   3  -3    1.70    1.50
  -4  -3   3  564.24   15.10
   4  -3  -3  570.54   15.00
  -4   3   3  552.34   13.90
   4   3  -3  585.94   14.00
  -4   3   3  565.94   14.80
  -3  -3   3  712.43   16.90
   3  -3  -3  708.13   17.20
  -3  -3   3  684.73   15.20
  -3   3   3  683.03   15.90
  -3   3   3  676.43   15.00
   3   3  -3  707.33   15.90
  -3   3   3  689.53   16.50
  -2  -3   3    3.00    0.90
  -2  -3   3    2.30    0.60
  -2   3   3    1.80    0.90
  -2   3   3    0.00    0.30
  -2   3   3    0.80    0.60
   2   3  -3    0.10    0.50
  -2   3   3    1.00    0.50
  -1  -3   3 2199.18   44.60
  -1  -3   3 2129.89   43.20
  -1   3   3 2068.19   43.50
  -1   3   3 2155.78   43.00
  -1   3   3 2053.49   45.00
   1   3  -3 2092.49   43.00
  -1   3   3 2047.80   43.20
   0  -3   3 1439.96   30.40
   0  -3  -3 1388.46   30.40
   0  -3   3 1436.96   29.80
   0   3  -3 1466.65   31.80
   0   3   3 1412.56   31.50
   0   3   3 1518.05   30.20
  -1  -3  -3   25.40    1.50
   1  -3   3   25.00    1.30
  -1  -3  -3   28.30    1.80
   1  -3   3   28.60    1.80
  -1   3  -3   24.30    2.10
   1   3   3   25.60    2.00
  -2  -3  -3  939.31   20.60
   2  -3   3  913.81   21.60
  -2  -3  -3  946.61   21.40
   2  -3   3  952.60   19.90
   2   3   3  936.21   21.80
   2   3   3  934.71   19.70
  -2   3  -3  926.11   22.70
  -2   3  -3  939.41   19.60
   3  -3   3  349.67   10.70
  -3  -3  -3  360.06    9.50
  -3  -3  -3  367.56   10.60
  -3   3  -3  369.76   11.70
  -3   3  -3  369.26    8.70
   3   3   3  371.06   10.80
   3   3   3  357.86    8.70
  -4  -3  -3    5.20    2.00
   4  -3   3    2.70    2.00
  -4   3  -3    6.00    2.30
   4   3   3    3.70    1.90
   5  -4  -3   34.30    3.00
  -5  -4   3   34.10    3.50
   5   4  -3   32.30    2.90
  -5   4   3   37.50    3.40
  -4  -4   3   20.60    2.40
   4  -4  -3   21.30    2.60
  -4   4   3   18.90    2.20
  -4   4   3   20.60    1.90
   4   4  -3   21.40    2.40
  -3  -4   3    9.40    1.80
  -3  -4   3    5.80    0.90
   3  -4  -3    4.20    1.50
  -3   4   3    5.30    1.10
  -3   4   3    6.30    1.30
   3   4  -3    6.10    1.20
  -2  -4   3  276.87    6.70
  -2  -4   3  284.87    7.90
  -2   4   3  278.97    6.70
  -2   4   3  277.47    7.00
  -2   4   3  271.97    8.30
  -2   4   3  263.07    7.10
   2   4  -3  277.17    6.90
  -1  -4   3  132.09    3.70
  -1  -4   3  135.09    4.70
  -1   4   3  138.09    3.70
  -1   4   3  136.59    3.80
  -1   4   3  127.39    3.80
   1   4  -3  131.19    3.60
  -1   4   3  133.79    5.10
   0  -4   3   51.09    2.10
   0  -4  -3   53.09    2.10
   0  -4  -3   51.09    2.10
   0  -4   3   52.59    1.90
   0   4  -3   48.80    2.20
   0   4   3   51.29    1.80
   0   4   3   54.79    2.90
   0   4  -3   51.69    2.90
  -1  -4  -3  448.76   10.60
  -1  -4  -3  431.16   10.30
   1  -4   3  441.56   10.80
   1  -4   3  439.16    9.80
  -1   4  -3  428.96   12.10
   1   4   3  416.66   10.00
   1   4   3  438.96   11.50
  -1   4  -3  451.85    9.40
  -2  -4  -3   19.50    1.70
   2  -4   3   20.70    2.00
  -2  -4  -3   23.30    1.90
   2  -4   3   18.60    1.20
  -2   4  -3   20.60    1.20
   2   4   3   20.70    1.30
   2   4   3   22.90    2.20
  -2   4  -3   20.00    2.90
   3  -4   3   21.60    2.50
  -3  -4  -3   25.90    2.40
  -3  -4  -3   23.30    2.10
  -3   4  -3   28.10    3.10
  -3   4  -3   25.20    1.60
   3   4   3   25.50    2.60
   3   4   3   23.10    1.60
   4  -4   3   44.70    3.90
  -4  -4  -3   43.70    3.50
   4   4   3   45.60    3.80
   4   4   3   42.50    3.70
  -4   4  -3   48.90    4.30
   5  -5  -3    0.90    2.40
  -5  -5   3    1.90    1.80
  -5   5   3    0.90    1.40
   5   5  -3   -0.40    1.40
  -5   5   3    0.50    1.10
   4  -5  -3  486.85   14.10
  -4  -5   3  484.55   13.60
   4   5  -3  505.75   12.60
  -4   5   3  496.85   13.10
  -4   5   3  492.65   12.70
  -3  -5   3 1729.63   36.70
   3  -5  -3 1845.72   39.70
   3   5  -3 1748.72   37.30
  -3   5   3 1737.43   37.60
  -3   5   3 1725.73   37.40
  -2  -5   3   11.00    1.00
  -2  -5   3   15.10    2.00
   2  -5  -3   10.60    1.00
  -2   5   3   14.30    1.70
  -2   5   3   11.40    1.10
   2   5  -3   14.00    1.10
   1  -5  -3 2767.12   56.99
  -1  -5   3 2799.32   56.79
  -1  -5   3 2809.62   58.29
   1   5  -3 2775.02   56.79
  -1   5   3 2799.02   56.79
  -1   5   3 2748.93   59.09
   0  -5  -3 2159.08   44.50
   0  -5   3 2153.78   44.30
   0  -5  -3 2136.89   44.10
   0  -5   3 2187.48   44.00
   0   5   3 2106.99   46.10
   0   5   3 2153.38   44.10
   0   5  -3 2145.69   46.20
   0   5  -3 2119.99   44.80
   1  -5   3   11.90    0.90
  -1  -5  -3   10.70    1.10
  -1  -5  -3   10.80    1.20
   1  -5   3   10.90    1.30
  -1   5  -3   17.10    2.70
   1   5   3   13.60    1.70
  -1   5  -3   12.20    0.80
   1   5   3   12.50    1.20
   2  -5   3 1433.06   32.30
  -2  -5  -3 1471.35   31.70
   2  -5   3 1500.35   30.40
  -2  -5  -3 1489.45   31.60
   2   5   3 1461.95   32.80
  -2   5  -3 1432.36   33.80
   2   5   3 1447.36   30.60
  -2   5  -3 1476.25   30.40
  -3  -5  -3  659.63   16.30
  -3  -5  -3  643.04   15.70
   3  -5   3  646.54   16.90
  -3   5  -3  658.33   14.50
   3   5   3  640.64   16.80
   3   5   3  644.34   14.70
  -3   5  -3  650.73   18.10
   4  -5   3    0.30    1.90
  -4  -5  -3    0.10    1.40
   4   5   3    4.80    2.20
  -4   5  -3    2.50    2.00
  -4  -6   3    7.40    1.20
   4  -6  -3    8.80    2.50
  -4  -6   3    9.20    2.20
   4   6  -3    6.70    1.50
  -4   6   3    7.70    1.80
  -4   6   3    6.40    1.50
  -3  -6   3    9.90    1.90
  -3  -6   3    4.30    0.90
   3  -6  -3    6.20    2.10
   3   6  -3    4.60    1.10
  -3   6   3    4.40    1.10
  -3   6   3    7.20    1.30
  -2  -6   3  254.17    6.40
   2  -6  -3  246.58    6.40
  -2  -6   3  252.07    7.50
  -2   6   3  259.37    8.40
  -2   6   3  252.47    6.70
  -2   6   3  247.28    6.50
   2   6  -3  243.68    6.60
   1  -6  -3   83.89    3.00
  -1  -6   3   88.19    2.90
  -1   6   3   89.79    3.00
   1   6  -3   89.39    3.00
  -1   6   3   86.79    4.30
   0  -6   3   27.20    1.40
   0  -6   3   28.50    1.60
   0  -6  -3   29.50    1.70
   0   6  -3   27.90    1.90
   0   6   3   28.60    2.30
   0   6  -3   26.50    2.20
   0   6   3   25.50    1.60
  -1  -6  -3  544.55   12.10
  -1  -6  -3  534.95   12.60
   1  -6   3  537.25   11.70
   1  -6   3  520.65   12.80
   1   6   3  529.65   12.50
  -1   6  -3  523.95   11.70
  -1   6  -3  511.95   14.30
   1   6   3  530.25   13.80
  -2  -6  -3   16.30    1.60
   2  -6   3   12.90    1.90
  -2  -6  -3   13.10    1.80
   2  -6   3   11.90    1.10
   2   6   3   13.60    1.30
  -2   6  -3   13.30    1.10
  -2   6  -3   12.30    2.50
   2   6   3   14.50    2.00
  -3  -6  -3   41.40    2.90
   3  -6   3   37.10    3.20
  -3  -6  -3   39.40    2.80
  -3   6  -3   36.70    3.60
  -3   6  -3   37.00    2.00
   3   6   3   40.90    2.20
   3   6   3   41.90    3.30
  -4  -6  -3   34.00    3.10
   4  -6   3   29.80    3.50
   4   6   3   34.80    3.40
  -4   6  -3   33.10    3.80
   4  -7  -3  583.04   17.00
  -4  -7   3  590.74   13.80
  -4  -7   3  584.74   15.90
   4   7  -3  600.64   14.80
  -4   7   3  587.64   14.90
  -4   7   3  579.94   14.80
   3  -7  -3  265.37    9.80
  -3  -7   3  277.67    7.20
  -3  -7   3  271.07    8.50
  -3   7   3  285.37    7.70
  -3   7   3  275.87    7.80
   3   7  -3  272.87    7.70
  -2  -7   3    6.80    1.60
   2  -7  -3    6.10    1.00
  -2  -7   3    4.60    0.90
  -2   7   3    5.30    1.10
   2   7  -3    4.90    1.00
  -2   7   3    5.10    1.70
  -2   7   3    4.00    0.80
   1  -7  -3  886.41   19.30
  -1  -7   3  888.91   19.00
   1   7  -3  864.81   19.30
   1   7  -3  866.51   20.50
  -1   7   3  897.21   19.30
  -1   7   3  845.42   21.30
   0  -7   3 1264.57   26.50
   0  -7  -3 1242.18   26.90
   0  -7   3 1232.18   26.20
   0   7   3 1233.38   28.50
   0   7  -3 1243.88   27.40
   0   7   3 1273.97   26.90
   0   7  -3 1225.48   28.40
   1  -7   3    8.40    1.60
  -1  -7  -3   10.40    1.50
   1  -7   3    6.60    0.90
  -1  -7  -3    8.90    1.20
   1   7   3    7.40    1.30
   1   7   3    8.90    2.00
  -1   7  -3    9.20    1.00
  -1   7  -3    6.90    1.80
   2  -7   3  691.43   17.30
  -2  -7  -3  712.13   16.20
   2  -7   3  701.43   15.10
  -2  -7  -3  736.93   16.70
   2   7   3  677.23   15.90
  -2   7  -3  657.43   18.40
  -2   7  -3  706.83   15.40
   2   7   3  706.53   17.70
   3  -7   3  490.25   14.00
  -3  -7  -3  489.95   12.80
  -3  -7  -3  503.05   13.00
   3   7   3  493.05   13.90
  -3   7  -3  493.25   14.90
   3   7   3  504.35   12.00
  -3   7  -3  494.85   11.70
   4  -7   3    6.30    2.60
  -4  -7  -3    6.50    2.10
  -4   7  -3    8.10    2.80
   4   7   3    8.20    2.50
  -4  -8   3  134.59    4.50
  -4  -8   3  120.09    5.70
   4  -8  -3  127.69    6.90
  -4   8   3  128.79    5.00
  -4   8   3  127.39    5.20
   4   8  -3  128.59    5.10
  -3  -8   3  406.26   10.00
   3  -8  -3  406.76   13.20
  -3  -8   3  388.96   11.20
  -3   8   3  389.16   10.50
  -3   8   3  400.56   10.10
   3   8  -3  405.36   10.40
  -2  -8   3 1226.38   27.70
   2  -8  -3 1247.98   26.50
  -2  -8   3 1230.48   26.40
  -2   8   3 1186.88   25.80
  -2   8   3 1242.48   29.20
  -2   8   3 1258.07   26.90
   2   8  -3 1209.58   26.70
   1  -8  -3  193.98    5.60
  -1  -8   3  185.48    5.20
  -1   8   3  201.78    5.80
  -1   8   3  188.58    7.10
   1   8  -3  183.38    5.70
   1   8  -3  184.38    6.30
   0  -8   3  623.14   14.20
   0  -8  -3  624.24   14.60
   0  -8   3  624.84   13.90
   0   8  -3  601.14   15.10
   0   8  -3  620.44   15.90
   0   8   3  633.44   14.60
   0   8   3  623.84   16.20
   1  -8   3  870.01   19.00
  -1  -8  -3  889.91   19.00
  -1  -8  -3  906.01   20.30
   1  -8   3  875.81   20.30
  -1   8  -3  891.11   19.50
   1   8   3  891.11   20.10
   1   8   3  885.21   21.60
  -1   8  -3  898.11   22.00
   2  -8   3  203.18    7.20
  -2  -8  -3  211.58    6.70
  -2  -8  -3  216.28    6.10
   2  -8   3  198.68    5.30
   2   8   3  214.08    7.50
  -2   8  -3  196.78    7.80
  -2   8  -3  209.68    5.70
   2   8   3  209.18    6.20
  -3  -8  -3  154.38    5.90
   3  -8   3  157.78    6.80
  -3  -8  -3  151.88    5.60
   3   8   3  154.78    6.60
  -3   8  -3  154.28    7.10
  -3   8  -3  153.68    4.80
   3   8   3  156.88    5.20
  -4  -8  -3  299.57    9.70
   4  -8   3  304.77   11.00
   4   8   3  310.07   10.60
  -4   8  -3  286.67   11.20
  -4  -9   3   24.80    2.00
  -4  -9   3   27.80    2.90
   4  -9  -3   28.90    4.80
  -4   9   3   22.80    2.40
   4   9  -3   23.60    2.40
  -3  -9   3  185.08    5.50
   3  -9  -3  167.98    8.10
  -3  -9   3  170.78    6.40
  -3   9   3  176.18    6.10
   3   9  -3  178.78    5.90
  -2  -9   3    1.40    0.70
  -2  -9   3    2.40    1.20
   2  -9  -3    1.40    0.80
  -2   9   3    1.40    0.90
   2   9  -3    1.40    0.90
  -1  -9   3  155.28    4.60
   1  -9  -3  153.68    4.90
   1   9  -3  160.48    5.70
  -1   9   3  151.88    5.20
  -1   9   3  142.49    6.20
   1   9  -3  155.58    5.30
   0  -9   3  141.39    4.30
   0  -9   3  142.99    4.50
   0  -9  -3  141.39    4.80
   0   9   3  140.99    4.90
   0   9  -3  141.79    5.30
   0   9   3  144.49    5.90
   0   9  -3  139.99    5.60
   1  -9   3    1.50    0.60
  -1  -9  -3    4.30    1.20
   1  -9   3    2.10    1.10
  -1   9  -3    2.90    1.00
  -1   9  -3    3.30    1.30
   1   9   3    4.10    1.60
   1   9   3    2.30    0.90
  -2  -9  -3   62.79    2.80
   2  -9   3   64.19    3.90
  -2  -9  -3   64.89    3.40
   2  -9   3   60.89    2.40
  -2   9  -3   71.99    4.30
  -2   9  -3   61.19    2.70
   2   9   3   63.79    3.90
   2   9   3   62.59    3.20
  -3  -9  -3   67.69    3.50
  -3  -9  -3   71.29    4.00
   3  -9   3   69.69    4.60
  -3   9  -3   72.39    4.80
   3   9   3   72.49    4.50
  -3   9  -3   74.59    3.20
   3   9   3   72.39    3.50
  -4  -9  -3    7.60    2.10
   4  -9   3    9.70    3.00
  -4   9  -3    9.00    2.70
  -4 -10   3  117.19    4.50
  -4 -10   3  112.39    5.50
   4 -10  -3  111.89    7.00
   4  10  -3  117.59    5.00
  -4  10   3  114.39    5.20
  -3 -10   3  247.88    7.10
   3 -10  -3  231.68   10.10
  -3 -10   3  244.88    8.00
  -3  10   3  243.38    7.70
   3  10  -3  242.88    7.50
  -2 -10   3 1407.16   31.40
   2 -10  -3 1406.56   30.10
  -2 -10   3 1379.46   30.00
   2  10  -3 1389.46   30.60
  -2  10   3 1385.46   30.90
   1 -10  -3  547.65   12.90
  -1 -10   3  526.15   12.50
  -1  10   3  519.35   14.80
  -1  10   3  511.55   13.30
   1  10  -3  534.55   13.90
   1  10  -3  518.85   13.50
   0 -10  -3  510.65   12.60
   0 -10   3  501.05   12.10
   0 -10   3  514.05   11.90
   0  10  -3  507.75   13.70
   0  10   3  509.05   14.20
   0  10   3  499.55   12.70
   0  10  -3  491.65   13.10
  -1 -10  -3 1736.83   37.20
   1 -10   3 1695.23   35.70
   1 -10   3 1694.53   37.20
   1  10   3 1697.33   38.60
   1  10   3 1709.93   37.00
  -1  10  -3 1711.23   38.40
  -1  10  -3 1723.93   36.80
  -2 -10  -3  250.67    7.80
   2 -10   3  245.08    8.40
   2  10   3  240.18    7.60
   2  10   3  241.18    8.60
  -2  10  -3  241.08    8.70
  -2  10  -3  249.18    6.90
  -3 -10  -3  162.68    6.40
   3 -10   3  165.68    7.40
  -3  10  -3  171.18    7.40
   3  10   3  167.58    7.10
   3  10   3  163.08    5.90
  -3  10  -3  166.38    5.40
  -4 -11   3   75.09    3.70
   4 -11  -3   78.79    6.20
  -4 -11   3   74.29    4.40
   4  11  -3   80.59    4.20
  -4  11   3   71.29    4.30
  -3 -11   3   44.40    3.20
  -3 -11   3   53.19    2.80
   3 -11  -3   55.19    5.10
   3  11  -3   47.20    3.10
  -3  11   3   53.29    3.40
  -2 -11   3    9.70    1.50
  -2 -11   3   16.40    2.50
   2 -11  -3   24.40    4.60
   2 -11  -3   12.10    1.70
   2  11  -3   10.40    1.90
  -2  11   3   12.20    2.00
   1 -11  -3   78.79    3.50
  -1 -11   3   77.59    3.20
   1  11  -3   73.79    3.90
   1  11  -3   83.09    4.10
  -1  11   3   76.99    3.80
  -1  11   3   76.29    4.60
   0 -11  -3  120.29    4.70
   0 -11   3  122.09    4.10
   0 -11   3  120.49    4.30
   0  11  -3  121.39    5.10
   0  11   3  120.39    5.70
   0  11   3  125.79    4.80
   0  11  -3  127.79    5.30
   1 -11   3    3.00    1.50
   1 -11   3    2.20    0.90
  -1 -11  -3    2.80    1.20
   1  11   3    3.10    1.60
   1  11   3    2.40    1.10
  -1  11  -3    1.20    1.00
  -1  11  -3    4.10    1.20
  -2 -11  -3   56.39    3.50
   2 -11   3   62.69    4.00
  -2  11  -3   57.29    3.80
  -2  11  -3   59.69    2.90
   2  11   3   53.99    3.40
   2  11   3   60.29    4.10
  -3 -11  -3  129.49    5.70
   3 -11   3  134.19    6.70
  -3  11  -3  123.29    4.70
   3  11   3  128.39    5.40
  -3  11  -3  130.59    6.30
   3  11   3  130.89    6.40
  -3 -12   3  110.49    5.10
   3 -12  -3   92.99    6.70
  -3 -12   3  109.89    4.40
  -3  12   3  110.79    5.20
   3  12  -3  107.29    4.80
   2 -12  -3  797.62   23.70
  -2 -12   3  838.72   20.30
   2 -12  -3  859.81   19.30
  -2 -12   3  841.52   19.30
   2  12  -3  851.21   20.30
  -2  12   3  810.32   20.40
   1 -12  -3  163.78    5.50
  -1 -12   3  154.18    5.10
   1  12  -3  163.38    6.20
  -1  12   3  148.29    6.80
   1  12  -3  143.49    6.10
  -1  12   3  149.19    5.90
   0 -12   3  172.98    5.40
   0 -12   3  168.28    5.60
   0 -12  -3  182.68    6.10
   0  12  -3  174.88    6.50
   0  12   3  168.48    7.20
   0  12  -3  170.28    6.40
   0  12   3  178.48    6.10
   1 -12   3  828.52   18.60
  -1 -12  -3  807.32   19.80
   1 -12   3  842.92   20.20
  -1  12  -3  798.12   19.80
  -1  12  -3  851.21   20.70
   1  12   3  851.61   19.80
   1  12   3  848.92   21.40
  -2 -12  -3  108.39    5.00
   2 -12   3  111.19    5.60
   2  12   3  119.59    5.20
  -2  12  -3  115.39    5.40
  -2  12  -3  113.39    4.50
   2  12   3  110.99    5.70
  -3 -12  -3  131.89    5.90
   3 -12   3  125.29    6.70
  -3  12  -3  136.89    6.30
   3  12   3  129.19    6.60
   3  12   3  129.59    5.70
  -3  12  -3  125.49    4.90
  -3 -13   3  419.86   11.30
  -3 -13   3  413.76   12.10
   3 -13  -3  415.66   15.30
  -3  13   3  417.26   12.50
   3  13  -3  418.86   12.10
  -2 -13   3    0.90    1.00
   2 -13  -3    3.10    1.30
   2 -13  -3    3.00    2.90
   2  13  -3    1.20    1.10
  -2  13   3    3.20    1.60
   2  13  -3    1.20    1.30
   1 -13  -3 1001.10   22.70
  -1 -13   3  981.80   22.30
  -1  13   3  974.50   23.60
   1  13  -3 1011.00   23.90
  -1  13   3  966.40   25.10
   1  13  -3  982.90   24.20
   0 -13  -3  488.25   12.80
   0 -13   3  492.25   12.10
   0  13  -3  483.55   13.30
   0  13   3  488.95   14.50
   0  13   3  496.85   12.90
   0  13  -3  481.25   13.30
   1 -13   3   20.10    1.80
   1 -13   3   17.70    2.50
  -1 -13  -3   23.30    2.40
  -1  13  -3   19.50    2.30
  -1  13  -3   21.80    2.80
   1  13   3   23.90    2.20
   1  13   3   18.90    2.70
   2 -13   3  477.05   13.90
  -2 -13  -3  467.15   13.10
  -2  13  -3  465.45   13.30
   2  13   3  465.15   13.10
  -2  13  -3  471.95   12.40
   2  13   3  463.15   14.00
  -3 -13  -3   92.89    5.00
   3 -13   3   89.99    5.90
   3  13   3   97.79    5.10
  -3  13  -3   91.19    4.20
  -3  13  -3   88.39    5.00
   3 -14  -3    6.70    3.30
  -3 -14   3   10.70    2.00
  -3 -14   3   13.00    2.50
  -3  14   3   12.20    2.70
   3  14  -3    9.70    2.20
  -2 -14   3   77.09    3.80
   2 -14  -3   82.99    3.90
  -2  14   3   78.79    4.60
   2  14  -3   79.79    4.30
   2  14  -3   76.39    4.60
   1 -14  -3   44.20    3.10
  -1 -14   3   45.50    2.90
   1  14  -3   49.50    3.30
  -1  14   3   45.00    4.00
  -1  14   3   45.90    3.40
   1  14  -3   41.00    3.40
   0 -14  -3   26.00    2.60
   0 -14   3   28.70    2.20
   0  14   3   27.80    2.50
   0  14  -3   28.00    2.70
   0  14   3   33.70    3.30
   0  14  -3   28.40    2.50
   1 -14   3   63.59    3.20
  -1 -14  -3   62.19    3.80
   1 -14   3   61.19    4.10
   1  14   3   65.19    4.50
   1  14   3   68.99    3.60
  -1  14  -3   71.89    3.90
  -1  14  -3   63.19    3.90
   2 -14   3   21.20    3.80
  -2 -14  -3   15.30    2.50
  -2  14  -3   15.30    2.20
   2  14   3   20.70    3.60
  -2  14  -3   21.20    3.00
   2  14   3   19.70    2.80
   3 -15  -3  397.26   15.50
  -3 -15   3  422.86   11.80
   3  15  -3  423.66   12.90
  -3  15   3  412.26   13.20
   2 -15  -3    3.90    3.30
  -2 -15   3    4.70    1.40
   2  15  -3    5.40    1.80
   2  15  -3    4.80    1.90
  -2  15   3    5.70    2.10
   1 -15  -3  564.54   14.70
  -1 -15   3  568.04   14.40
   1  15  -3  593.04   16.20
  -1  15   3  566.34   15.50
   1  15  -3  583.54   17.20
  -1  15   3  559.04   16.90
   0 -15   3  787.42   18.80
   0 -15  -3  793.22   19.60
   0  15  -3  798.82   20.10
   0  15   3  815.12   19.60
   0  15   3  801.92   21.40
  -1 -15  -3    2.50    1.60
   1 -15   3    3.30    2.00
   1 -15   3    3.60    1.20
   1  15   3    2.10    1.30
   1  15   3    2.70    2.00
  -1  15  -3    3.10    1.70
  -2 -15  -3  477.65   13.60
   2 -15   3  466.15   14.60
   2  15   3  508.65   13.90
   2  15   3  492.95   14.80
  -2  15  -3  474.15   13.30
   2 -16  -3  117.49    7.80
  -2 -16   3  111.29    5.00
  -2  16   3  100.79    5.80
   2  16  -3  109.59    6.10
   1 -16  -3   12.70    2.20
  -1 -16   3   10.90    2.00
   1  16  -3   11.40    2.60
  -1  16   3   12.90    3.30
  -1  16   3   12.40    2.40
   0 -16   3   42.10    3.00
   0 -16  -3   40.60    3.20
   0  16   3   45.20    3.20
   0  16   3   48.40    4.10
   0  16  -3   44.30    3.40
   1 -16   3   88.39    6.60
  -1 -16  -3   93.49    4.90
   1 -16   3   92.69    4.10
   1  16   3   95.19    5.60
   1  16   3   98.89    4.60
  -1  16  -3   84.49    4.80
  -2 -16  -3    2.50    1.70
   2 -16   3    4.40    2.70
   2  16   3    5.60    2.00
  -2  16  -3    5.30    1.80
   1 -17  -3  327.97   10.00
  -1 -17   3  329.87    9.90
  -1  17   3  331.47   10.70
   1  17  -3  335.67   11.20
   0 -17   3  301.47    9.10
   0 -17  -3  299.97    9.60
   0  17   3  303.77   11.20
   0  17  -3  306.07   10.10
   0  17   3  320.97    9.80
  -1 -17  -3    1.30    1.60
   1 -17   3    1.60    1.30
  -1  17  -3    3.20    1.80
   1  17   3    3.30    2.10
   1  17   3    2.20    1.50
   0 -18   3  138.99    5.60
   0 -18  -3  133.49    6.00
   0  18   3  135.59    7.20
   0  18  -3  137.59    6.30
   0  18   3  142.19    6.10
   5   0  -4    6.60    1.90
  -5   0   4   14.20    2.90
   4   0  -4 1012.00   23.00
  -4   0   4 1017.60   24.30
  -3   0   4  994.60   23.20
  -3   0   4  991.60   21.50
   3   0  -4 1022.50   22.60
   3   0  -4  995.80   22.00
  -2   0   4  208.78    6.40
  -2   0   4  210.38    6.50
  -2   0   4  218.68    5.60
   2   0  -4  217.68    5.60
  -1   0   4 2529.85   54.09
   1   0  -4 2553.84   51.69
  -1   0   4 2611.84   52.39
   1   0  -4 2510.25   53.59
   0   0   4 1167.28   24.70
   0   0   4 1143.09   25.90
   0   0  -4 1181.98   26.10
  -1   0  -4  111.79    4.60
   1   0   4  108.49    4.40
   1   0   4  107.79    3.50
  -2   0  -4 1199.08   27.50
   2   0   4 1161.28   27.00
  -2   0  -4 1152.08   25.10
   3   0   4  465.25   13.40
  -3   0  -4  468.45   13.70
   4   0   4    4.70    2.40
  -4   0  -4    1.00    1.90
  -5  -1   4   40.20    3.60
   5  -1  -4   35.00    3.00
   5   1  -4   33.40    2.90
  -5   1   4   35.00    3.30
   4  -1  -4   17.30    2.20
  -4  -1   4   21.10    3.00
   4   1  -4   16.00    2.10
  -4   1   4   22.50    2.40
  -3  -1   4   79.79    2.80
   3  -1  -4   75.59    3.10
  -3  -1   4   80.99    3.80
   3  -1  -4   81.29    3.80
  -3   1   4   79.29    3.70
   3   1  -4   78.39    3.10
  -3   1   4   76.69    2.80
  -2  -1   4  128.49    3.80
  -2  -1   4  129.19    4.70
  -2  -1   4  126.49    4.30
  -2   1   4  125.39    3.80
   2   1  -4  131.69    3.80
  -2   1   4  124.19    3.80
  -2   1   4  125.09    4.80
  -2   1   4  128.79    4.50
  -1  -1   4   13.20    1.50
   1  -1  -4   12.90    1.40
  -1  -1   4   10.60    1.00
   1   1  -4   12.10    1.50
  -1   1   4   10.10    1.00
   1   1  -4    8.70    0.80
  -1   1   4   11.60    0.80
  -1   1   4   13.10    1.60
   0  -1  -4    6.80    1.40
   0  -1   4    2.50    0.60
   0  -1   4    2.60    1.00
   0   1   4    5.10    1.40
   0   1  -4    2.50    1.00
   0   1   4    2.50    0.60
   1  -1   4  407.56    9.50
  -1  -1  -4  416.46   11.00
   1  -1   4  395.76   10.70
  -1   1  -4  393.46   11.20
   1   1   4  416.36    9.70
   1   1   4  393.76   10.80
  -2  -1  -4   30.40    2.70
   2  -1   4   27.40    1.80
  -2  -1  -4   30.80    2.00
   2  -1   4   31.30    2.70
   2   1   4   33.00    2.80
  -2   1  -4   32.60    2.90
  -3  -1  -4   34.10    3.10
   3  -1   4   35.20    3.20
  -3  -1  -4   34.60    3.40
   3   1   4   35.00    3.20
  -3   1  -4   34.90    3.40
   4  -1   4   93.49    5.50
  -4  -1  -4   89.89    5.50
   4   1   4   88.39    5.40
  -4   1  -4   93.49    5.90
   4  -2  -4  482.85   12.50
  -4  -2   4  487.55   13.70
  -4   2   4  485.05   13.30
   4   2  -4  499.95   12.50
   3  -2  -4  518.75   13.50
  -3  -2   4  496.25   13.10
  -3  -2   4  496.75   11.50
  -3   2   4  496.55   11.50
  -3   2   4  500.65   12.80
  -3   2   4  489.45   12.00
   3   2  -4  506.75   12.00
  -2  -2   4   50.09    2.80
  -2  -2   4   52.99    2.10
   2   2  -4   52.19    2.10
  -2   2   4   53.29    2.60
  -2   2   4   52.39    2.10
  -2   2   4   53.09    3.00
  -2   2   4   50.49    2.10
  -1  -2   4 1438.06   31.50
  -1  -2   4 1457.75   30.30
   1  -2  -4 1428.26   31.20
   1   2  -4 1412.76   29.80
  -1   2   4 1473.45   32.50
   1   2  -4 1454.75   31.90
  -1   2   4 1440.66   30.40
  -1   2   4 1477.95   29.80
   0  -2  -4 1063.59   23.80
   0  -2   4 1067.49   22.70
   0  -2   4 1069.99   23.70
   0   2   4 1085.09   22.90
   0   2   4 1073.29   24.60
   0   2  -4 1069.69   24.70
   1  -2   4   63.79    2.40
   1  -2   4   67.79    3.30
  -1  -2  -4   68.39    3.30
   1   2   4   63.49    3.40
   1   2   4   65.69    2.60
  -1   2  -4   64.99    3.70
  -2  -2  -4  980.50   22.50
   2  -2   4  915.41   22.30
  -2  -2  -4  929.11   20.90
   2  -2   4  962.40   20.60
   2   2   4  935.91   22.60
  -2   2  -4  966.10   23.70
  -3  -2  -4  297.77    8.40
   3  -2   4  309.47   10.00
  -3  -2  -4  310.77    9.90
   3   2   4  304.17   10.00
  -3   2  -4  315.17   10.90
   4  -2   4   51.09    4.20
  -4  -2  -4   46.70    4.00
   4   2   4   51.79    4.30
  -4   2  -4   53.69    4.80
   4  -3  -4   34.80    3.10
  -4  -3   4   37.00    3.00
  -4   3   4   32.00    2.60
   4   3  -4   28.00    2.40
  -3  -3   4  487.65   12.80
  -3  -3   4  479.35   11.20
   3  -3  -4  476.35   13.30
  -3   3   4  465.85   11.00
  -3   3   4  474.65   11.60
  -3   3   4  474.95   12.30
   3   3  -4  492.95   11.70
  -2  -3   4 1279.97   27.20
  -2  -3   4 1310.97   28.80
  -2   3   4 1282.97   29.40
  -2   3   4 1257.57   27.90
   2   3  -4 1314.07   27.30
  -2   3   4 1286.17   27.30
  -2   3   4 1288.17   27.30
  -1  -3   4  143.29    4.00
   1  -3  -4  133.59    4.50
  -1  -3   4  143.59    4.70
  -1   3   4  143.79    3.70
   1   3  -4  132.89    3.70
   1   3  -4  131.99    5.10
  -1   3   4  138.09    5.60
  -1   3   4  139.29    4.10
   0  -3   4 1036.60   22.60
   0  -3   4 1019.40   21.70
   0  -3  -4 1012.90   22.50
   0   3  -4 1005.60   23.80
   0   3   4 1002.80   23.70
   0   3   4 1037.60   22.00
  -1  -3  -4 1106.49   24.50
  -1  -3  -4 1166.28   25.50
   1  -3   4 1098.19   25.40
   1  -3   4 1141.29   24.20
   1   3   4 1182.88   26.30
  -1   3  -4 1140.99   27.00
   2  -3   4   44.00    3.00
  -2  -3  -4   46.60    2.50
  -2  -3  -4   42.50    2.80
   2  -3   4   44.30    2.10
  -2   3  -4   41.30    3.50
   2   3   4   46.60    3.20
  -3  -3  -4  230.98    8.00
   3  -3   4  221.08    8.10
  -3  -3  -4  230.08    6.90
   3   3   4  223.68    8.30
  -3   3  -4  230.88    9.20
   4  -3   4  233.68    9.10
  -4  -3  -4  218.48    8.60
  -4   3  -4  216.38    9.80
   4   3   4  247.28    9.30
  -4  -4   4   51.29    3.60
   4  -4  -4   54.99    3.80
   4   4  -4   47.90    3.00
  -4   4   4   50.99    2.90
  -4   4   4   55.09    3.30
  -3  -4   4   39.60    2.80
  -3  -4   4   42.20    2.00
   3  -4  -4   43.10    3.40
  -3   4   4   39.80    1.90
  -3   4   4   39.00    2.50
  -3   4   4   38.90    2.20
   3   4  -4   38.70    2.30
  -2  -4   4   22.30    1.40
  -2  -4   4   26.30    2.20
  -2   4   4   24.80    1.50
  -2   4   4   25.30    1.70
  -2   4   4   22.70    1.50
   2   4  -4   23.10    1.50
  -2   4   4   25.10    2.30
   1  -4  -4  271.57    7.60
  -1  -4   4  293.37    7.20
  -1   4   4  291.97    7.30
  -1   4   4  293.87    6.90
   1   4  -4  291.07    8.70
   1   4  -4  294.07    6.90
  -1   4   4  287.77    9.10
   0  -4   4  185.08    5.50
   0  -4  -4  178.88    5.30
   0  -4  -4  182.18    5.20
   0  -4   4  184.48    4.90
   0   4  -4  187.98    6.70
   0   4   4  171.18    6.40
   1  -4   4    5.70    1.00
  -1  -4  -4    4.80    1.20
   1  -4   4    7.50    1.60
  -1  -4  -4    5.70    1.10
  -1   4  -4    6.10    1.80
   1   4   4    7.00    1.80
   2  -4   4  168.38    4.60
  -2  -4  -4  156.38    5.20
   2  -4   4  163.18    6.00
  -2  -4  -4  155.18    5.60
  -2   4  -4  162.08    7.20
   2   4   4  153.58    6.20
   3  -4   4   37.00    3.30
  -3  -4  -4   36.80    2.60
  -3  -4  -4   31.90    2.90
  -3   4  -4   37.00    3.90
   3   4   4   40.70    3.40
  -4  -4  -4    7.50    2.20
   4  -4   4    8.20    2.60
  -4   4  -4    9.50    3.00
   4   4   4    9.20    2.70
  -4  -5   4   78.39    4.50
   4  -5  -4   79.49    4.80
  -4  -5   4   81.49    3.50
  -4   5   4   79.59    3.80
   4   5  -4   74.59    3.70
  -4   5   4   79.59    4.00
   3  -5  -4  490.75   12.90
   3  -5  -4  442.96   14.00
  -3  -5   4  494.85   13.20
  -3  -5   4  497.55   11.60
  -3   5   4  491.55   12.10
   3   5  -4  504.75   12.00
  -3   5   4  505.25   12.40
  -2  -5   4 2257.57   47.10
  -2  -5   4 2219.08   45.30
  -2   5   4 2119.89   45.50
  -2   5   4 2173.78   45.30
   2   5  -4 2158.68   45.30
  -2   5   4 2166.58   48.00
  -1  -5   4  173.28    4.80
   1  -5  -4  166.88    5.10
   1  -5  -4  177.78    5.10
  -1   5   4  174.88    4.70
   1   5  -4  173.18    4.70
  -1   5   4  178.38    6.70
   1   5  -4  172.58    6.20
   0  -5   4 1135.59   24.00
   0  -5   4 1149.89   24.70
   0  -5  -4 1187.88   24.60
   0  -5  -4 1110.99   24.30
   0   5  -4 1074.79   26.30
   0   5   4 1137.39   23.60
   0   5   4 1084.69   26.40
   0   5  -4 1139.49   24.30
  -1  -5  -4 1684.23   35.60
  -1  -5  -4 1733.03   35.70
   1  -5   4 1671.13   34.80
   1  -5   4 1666.23   36.10
  -1   5  -4 1554.44   38.00
   1   5   4 1704.93   37.40
  -2  -5  -4  159.28    5.30
   2  -5   4  156.58    4.50
  -2  -5  -4  151.18    5.40
   2  -5   4  148.79    5.80
   2   5   4  151.98    5.50
   2   5   4  149.09    6.20
  -2   5  -4  148.79    7.00
   3  -5   4  446.96   13.10
  -3  -5  -4  449.26   11.80
  -3  -5  -4  447.36   12.40
   3   5   4  449.56   13.30
  -3   5  -4  436.56   14.50
  -4  -5  -4  352.66   11.40
   4  -5   4  363.76   12.20
  -4   5  -4  347.97   13.30
   4   5   4  380.46   12.40
   4  -6  -4   38.30    3.70
  -4  -6   4   39.70    3.30
  -4  -6   4   36.50    2.20
  -4   6   4   35.50    2.70
  -4   6   4   37.10    2.60
   4   6  -4   40.60    2.70
  -3  -6   4   11.50    2.20
   3  -6  -4   13.10    3.00
  -3  -6   4   11.10    1.40
   3   6  -4   10.90    1.60
  -3   6   4   15.60    2.00
  -3   6   4    8.60    1.50
  -2  -6   4   53.79    3.20
   2  -6  -4   48.10    2.40
  -2  -6   4   52.39    2.30
  -2   6   4   51.99    3.60
  -2   6   4   50.59    2.40
  -2   6   4   47.90    2.20
   2   6  -4   48.70    2.30
   1  -6  -4  320.27    8.10
   1  -6  -4  300.57    7.80
  -1  -6   4  316.87    7.80
   1   6  -4  305.17    7.80
  -1   6   4  309.27   10.00
   1   6  -4  309.67    9.40
  -1   6   4  317.17    7.70
   0  -6  -4  197.78    5.50
   0  -6  -4  208.88    6.00
   0  -6   4  201.98    5.80
   0  -6   4  205.88    5.50
   0   6  -4  201.98    5.90
   0   6   4  201.38    7.40
   0   6  -4  207.38    7.40
   0   6   4  193.68    5.30
  -1  -6  -4    9.50    1.50
   1  -6   4   10.60    1.30
  -1  -6  -4   10.00    1.60
   1  -6   4   11.00    1.60
   1   6   4   14.60    2.60
   1   6   4   11.40    1.20
  -1   6  -4   11.90    2.50
  -1   6  -4   12.20    0.90
  -2  -6  -4  235.78    7.00
   2  -6   4  238.78    6.10
  -2  -6  -4  231.08    7.00
   2  -6   4  231.98    7.80
   2   6   4  221.18    6.50
   2   6   4  226.28    8.20
  -2   6  -4  225.68    9.10
  -3  -6  -4   26.80    2.50
  -3  -6  -4   25.40    2.50
   3  -6   4   24.60    3.00
  -3   6  -4   24.40    4.10
   3   6   4   24.10    3.10
   4  -6   4   12.40    3.20
  -4  -6  -4   12.50    2.60
   4   6   4   16.60    3.40
  -4   6  -4   13.10    3.60
   4  -7  -4   43.80    4.20
  -4  -7   4   31.40    3.10
  -4  -7   4   35.70    2.20
  -4   7   4   35.50    2.70
   4   7  -4   34.70    2.60
  -4   7   4   35.90    2.70
  -3  -7   4  403.96   11.50
  -3  -7   4  402.56    9.80
   3  -7  -4  348.87   12.70
  -3   7   4  380.16   10.20
   3   7  -4  401.06   10.20
  -2  -7   4  754.92   16.90
  -2  -7   4  770.22   18.70
   2  -7  -4  774.02   17.10
  -2   7   4  745.73   17.10
  -2   7   4  741.63   19.70
  -2   7   4  717.63   16.60
   2   7  -4  740.13   17.00
   1  -7  -4  170.88    4.80
  -1  -7   4  166.18    4.90
   1  -7  -4  167.48    5.20
  -1   7   4  171.28    5.00
  -1   7   4  173.98    7.00
   1   7  -4  162.28    6.30
   1   7  -4  174.68    5.20
   0  -7   4  474.15   10.90
   0  -7   4  460.65   11.20
   0  -7  -4  461.55   10.60
   0  -7  -4  462.55   11.50
   0   7  -4  460.75   11.50
   0   7   4  460.15   10.90
   0   7   4  460.65   13.30
   0   7  -4  455.25   13.10
   1  -7   4 1099.99   23.50
   1  -7   4 1102.59   24.90
  -1  -7  -4 1107.49   23.80
  -1  -7  -4 1117.19   24.60
   1   7   4 1121.79   23.90
  -1   7  -4 1125.19   23.20
  -1   7  -4 1039.50   26.90
   1   7   4 1078.29   26.20
  -2  -7  -4   47.00    2.70
   2  -7   4   43.50    2.10
  -2  -7  -4   45.30    2.80
   2  -7   4   43.10    3.10
   2   7   4   44.00    3.40
  -2   7  -4   42.00    3.90
   2   7   4   46.50    2.50
  -3  -7  -4  157.28    5.90
  -3  -7  -4  148.29    5.80
   3  -7   4  149.49    6.70
   3   7   4  146.99    6.80
  -3   7  -4  151.28    7.70
   4  -7   4  237.68    9.70
  -4  -7  -4  253.57    8.80
   4   7   4  262.47   10.00
  -4   7  -4  237.68   10.70
   4  -8  -4  479.45   15.60
  -4  -8   4  478.75   14.10
  -4  -8   4  503.05   12.30
   4   8  -4  513.25   13.10
  -4   8   4  483.95   13.10
  -3  -8   4  506.45   13.90
   3  -8  -4  495.35   16.00
  -3  -8   4  511.55   12.30
   3   8  -4  515.85   12.70
  -3   8   4  494.35   12.80
  -2  -8   4  277.77    8.90
   2  -8  -4  274.97    7.60
  -2  -8   4  276.67    7.40
  -2   8   4  275.07    7.70
   2   8  -4  278.17    7.60
  -2   8   4  268.57    9.80
   1  -8  -4  992.60   21.90
  -1  -8   4  983.50   21.50
  -1   8   4  971.70   24.50
   1   8  -4  985.40   22.00
  -1   8   4  973.60   21.60
   1   8  -4  971.50   23.60
   0  -8   4  406.96   10.40
   0  -8  -4  420.66   10.80
   0  -8   4  419.86   10.10
   0   8   4  422.56   12.60
   0   8  -4  428.26   10.90
   0   8   4  419.16   10.40
   0   8  -4  430.66   12.50
   1  -8   4   78.19    3.60
  -1  -8  -4   69.39    2.90
   1  -8   4   67.39    2.70
  -1  -8  -4   68.69    3.40
   1   8   4   71.39    4.30
  -1   8  -4   73.19    2.70
   1   8   4   71.79    3.00
  -1   8  -4   69.09    4.50
   2  -8   4  452.55   12.70
  -2  -8  -4  462.45   11.40
   2  -8   4  459.85   10.70
  -2  -8  -4  461.35   12.00
  -2   8  -4  445.96   14.40
   2   8   4  462.45   13.50
   2   8   4  434.16   11.50
  -3  -8  -4  242.78    7.70
   3  -8   4  235.08    8.80
  -3  -8  -4  240.68    7.90
   3   8   4  243.48    9.20
  -3   8  -4  224.58    9.80
   4  -9  -4   31.80    4.30
  -4  -9   4   27.70    2.10
  -4  -9   4   27.60    3.70
  -4   9   4   23.70    2.50
   4   9  -4   25.70    2.50
  -3  -9   4   26.40    2.70
   3  -9  -4   21.50    4.40
  -3  -9   4   28.30    2.00
   3   9  -4   29.40    2.30
  -3   9   4   25.50    2.30
  -2  -9   4  166.18    6.50
   2  -9  -4  170.88    5.50
  -2  -9   4  174.68    5.30
  -2   9   4  167.18    7.40
  -2   9   4  175.48    5.70
   2   9  -4  166.58    5.50
  -1  -9   4    8.70    1.40
   1  -9  -4    8.50    1.50
   1   9  -4   12.30    2.30
  -1   9   4    8.40    2.40
  -1   9   4   12.10    1.80
   1   9  -4    6.80    1.40
   0  -9  -4   32.80    2.30
   0  -9   4   36.90    2.00
   0  -9   4   37.00    2.20
   0   9  -4   35.50    3.00
   0   9   4   33.60    3.10
   0   9   4   39.20    2.30
   0   9  -4   35.70    2.40
   1  -9   4  109.69    4.60
  -1  -9  -4   99.39    4.30
   1  -9   4  107.59    3.60
   1   9   4  107.09    5.50
   1   9   4  111.29    4.10
  -1   9  -4  114.89    5.80
  -1   9  -4  112.19    3.70
   2  -9   4   25.40    2.80
  -2  -9  -4   25.80    2.40
   2   9   4   26.20    2.20
  -2   9  -4   27.00    4.10
   2   9   4   25.70    3.00
  -3  -9  -4   26.60    2.80
   3  -9   4   25.90    3.30
  -3   9  -4   35.80    4.90
   3   9   4   29.00    3.40
  -4 -10   4  521.65   15.00
  -4 -10   4  533.35   13.20
   4 -10  -4  464.55   16.80
  -4  10   4  537.35   14.30
   4  10  -4  540.75   14.00
   3 -10  -4  464.65   16.00
  -3 -10   4  478.05   11.80
  -3 -10   4  465.05   13.30
  -3  10   4  456.25   12.50
   3  10  -4  471.65   12.30
  -2 -10   4   28.10    2.00
   2 -10  -4   24.80    2.00
   2  10  -4   32.80    2.30
  -2  10   4   26.00    3.10
  -2  10   4   22.90    2.10
  -1 -10   4 1367.66   29.40
   1 -10  -4 1394.56   30.00
   1  10  -4 1359.66   31.80
  -1  10   4 1344.57   30.10
  -1  10   4 1348.86   32.70
   1  10  -4 1370.76   30.60
   0 -10  -4  892.11   20.70
   0 -10   4  867.11   20.10
   0 -10   4  904.81   19.80
   0  10  -4  905.31   22.40
   0  10  -4  858.71   20.80
   0  10   4  933.31   20.60
   0  10   4  874.41   22.70
   1 -10   4   49.60    3.20
   1 -10   4   48.20    2.40
  -1 -10  -4   56.49    3.10
  -1  10  -4   48.70    3.80
   1  10   4   49.20    3.80
  -1  10  -4   56.29    2.70
   1  10   4   49.80    2.70
  -2 -10  -4  867.71   20.60
   2 -10   4  832.92   21.20
   2  10   4  853.21   20.10
   2  10   4  848.92   22.20
  -2  10  -4  857.01   22.90
   3 -10   4  272.27   10.10
  -3 -10  -4  290.27    9.20
   3  10   4  270.37   10.20
  -3  10  -4  277.57   10.80
  -3 -11   4   83.89    3.70
   3 -11  -4   96.59    6.80
  -3 -11   4   75.39    4.50
  -3  11   4   82.39    4.30
   3  11  -4   76.19    4.00
   2 -11  -4   88.89    3.90
  -2 -11   4   87.99    3.70
   2  11  -4   92.09    4.20
  -2  11   4   84.19    4.10
   2  11  -4   82.89    4.50
  -2  11   4   86.59    5.50
   1 -11  -4   -0.50    1.00
  -1 -11   4    0.70    0.80
   1  11  -4    3.40    1.50
  -1  11   4    0.60    1.40
   1  11  -4    2.20    1.20
  -1  11   4   -0.60    0.90
   0 -11   4   24.00    1.90
   0 -11  -4   25.30    2.30
   0 -11   4   24.10    2.40
   0  11   4   27.00    3.00
   0  11  -4   30.80    2.80
   0  11   4   32.70    2.40
   0  11  -4   33.10    2.50
   1 -11   4  128.59    5.30
  -1 -11  -4  136.49    5.30
   1 -11   4  130.99    4.40
  -1  11  -4  132.19    6.20
   1  11   4  133.29    4.90
   1  11   4  140.59    6.60
  -1  11  -4  129.09    4.70
  -2 -11  -4    8.60    1.90
   2 -11   4   12.80    2.70
   2  11   4   13.20    2.90
   2  11   4   13.50    2.10
  -2  11  -4    9.90    2.60
  -3 -11  -4   21.20    3.00
   3 -11   4   21.70    3.80
   3  11   4   25.10    3.50
  -3  11  -4   24.90    4.20
  -3 -12   4  229.58    8.50
  -3 -12   4  247.78    7.50
   3 -12  -4  220.68   10.90
  -3  12   4  237.48    8.20
   3  12  -4  239.58    8.00
   2 -12  -4    7.10    1.60
  -2 -12   4    9.90    1.60
  -2  12   4    9.90    2.80
   2  12  -4    7.00    1.80
   2  12  -4   10.60    2.30
  -2  12   4    7.90    1.80
  -1 -12   4  691.73   16.40
   1 -12  -4  694.33   16.90
   1  12  -4  690.73   18.00
  -1  12   4  666.13   19.30
   1  12  -4  730.53   18.70
  -1  12   4  713.43   17.50
   0 -12   4  453.45   11.40
   0 -12  -4  465.85   12.30
   0  12  -4  443.76   12.40
   0  12   4  457.35   14.10
   0  12  -4  456.55   13.40
   0  12   4  469.45   12.20
  -1 -12  -4   21.00    2.30
   1 -12   4   21.90    1.80
   1 -12   4   25.60    2.60
  -1  12  -4   27.40    3.70
  -1  12  -4   24.30    2.20
   1  12   4   21.50    3.00
   1  12   4   19.40    2.00
  -2 -12  -4  462.65   12.80
   2 -12   4  446.96   13.50
   2  12   4  444.36   14.30
  -2  12  -4  477.75   14.40
   2  12   4  451.85   12.30
   3 -12   4  163.98    7.70
  -3 -12  -4  151.78    6.60
   3  12   4  152.18    7.60
  -3  12  -4  153.38    7.50
  -3 -13   4  177.88    7.40
  -3 -13   4  185.88    6.40
   3 -13  -4  171.18    9.70
  -3  13   4  177.28    7.20
   3  13  -4  187.18    7.10
   2 -13  -4  639.14   15.70
  -2 -13   4  638.14   15.60
   2  13  -4  638.64   17.20
  -2  13   4  617.64   16.60
   2  13  -4  643.04   16.90
   1 -13  -4   52.49    3.30
  -1 -13   4   48.90    2.90
  -1  13   4   51.89    4.30
   1  13  -4   55.49    3.80
  -1  13   4   57.59    3.50
   1  13  -4   55.79    3.90
   0 -13  -4  527.55   14.00
   0 -13   4  537.45   13.20
   0  13   4  541.35   16.20
   0  13  -4  540.45   15.10
   0  13   4  541.35   13.90
   0  13  -4  528.95   14.20
  -1 -13  -4  402.26   11.70
   1 -13   4  420.56   10.60
   1 -13   4  405.96   11.80
  -1  13  -4  411.66   12.70
  -1  13  -4  405.16   11.20
   1  13   4  415.56   13.40
   1  13   4  430.06   11.20
  -2 -13  -4   19.90    2.80
   2 -13   4   21.20    3.70
  -2  13  -4   22.80    3.70
   2  13   4   20.70    2.70
   2  13   4   21.00    3.90
  -3 -14   4   56.09    3.40
   3 -14  -4   49.40    5.70
   3  14  -4   48.90    3.80
  -3  14   4   51.49    4.00
   2 -14  -4    1.10    1.40
  -2 -14   4    3.10    1.20
   2  14  -4    2.90    1.70
  -2  14   4    1.70    1.60
   2  14  -4    2.30    1.50
   1 -14  -4   62.89    3.70
  -1 -14   4   67.09    3.50
   1  14  -4   65.79    4.30
   1  14  -4   76.99    4.40
  -1  14   4   63.29    4.80
  -1  14   4   64.69    3.90
   0 -14   4   31.10    2.40
   0 -14  -4   30.00    2.80
   0  14  -4   31.70    2.80
   0  14   4   32.30    3.60
   0  14   4   39.00    2.90
   0  14  -4   34.00    3.00
  -1 -14  -4    2.50    1.50
   1 -14   4    2.30    1.60
   1 -14   4    1.70    1.00
   1  14   4    1.20    2.00
  -1  14  -4    3.40    1.50
  -1  14  -4    0.70    1.40
   1  14   4    2.00    1.10
  -2 -14  -4   27.30    3.40
   2 -14   4   23.90    3.40
   2  14   4   23.90    3.40
   2  14   4   26.70    2.70
  -2  14  -4   25.80    3.00
  -2 -15   4  638.84   16.10
   2 -15  -4  646.84   16.80
   2 -15  -4  571.94   20.50
   2  15  -4  663.63   17.80
   2  15  -4  644.34   17.90
  -2  15   4  639.64   17.40
   1 -15  -4   81.19    4.20
  -1 -15   4   72.59    3.80
  -1  15   4   73.59    5.40
   1  15  -4   77.29    4.60
   1  15  -4   70.59    4.50
  -1  15   4   76.89    4.40
   0 -15   4  263.37    8.00
   0 -15  -4  259.87    8.70
   0  15   4  275.97   10.60
   0  15   4  269.17    8.60
   0  15  -4  265.97    8.90
   0  15  -4  265.97    9.30
  -1 -15  -4  737.43   18.90
   1 -15   4  755.22   17.70
  -1  15  -4  719.13   19.50
   1  15   4  741.03   18.20
  -1  15  -4  743.73   18.70
   1  15   4  764.72   21.00
  -2 -15  -4   58.99    4.10
   2 -15   4   58.49    4.60
   2  15   4   58.79    4.10
   2  15   4   59.69    4.80
  -2  15  -4   55.19    4.90
   2 -16  -4    6.10    3.70
   1 -16  -4  116.19    5.30
  -1 -16   4  109.79    4.90
   1  16  -4  118.49    5.90
  -1  16   4  108.89    6.70
  -1  16   4  118.39    5.60
   0 -16   4   21.50    2.60
   0 -16  -4   16.50    2.70
   0  16   4   24.80    4.30
   0  16   4   22.10    2.90
   0  16  -4   20.60    2.90
  -1 -16  -4    8.50    2.20
   1 -16   4   10.70    1.90
  -1  16  -4   10.00    2.30
   1  16   4   11.30    3.20
   1  16   4   10.70    2.00
   0 -17  -4  141.49    6.20
   0 -17   4  143.89    5.70
   0  17  -4  147.29    6.30
   0  17   4  144.79    7.50
   0  17   4  142.19    6.00
   4   0  -5   24.80    2.70
  -4   0   5   20.50    2.40
  -3   0   5  920.61   20.10
  -3   0   5  879.51   21.60
   3   0  -5  922.61   20.30
  -2   0   5 1607.94   36.00
   2   0  -5 1639.24   33.80
  -2   0   5 1621.24   34.20
  -2   0   5 1604.14   35.60
  -1   0   5    3.90    1.50
   1   0  -5    2.80    1.10
   0   0  -5 1292.37   28.80
   0   0   5 1236.78   27.10
   0   0   5 1273.97   28.80
   1   0   5  913.91   22.00
  -1   0  -5  897.31   22.10
   1   0   5  939.31   20.30
  -2   0  -5   42.40    3.40
   2   0   5   38.00    3.10
  -3   0  -5  371.86   12.10
   3   0   5  355.16   11.70
   4   0   5  296.87   11.10
  -4   0  -5  283.97   11.10
  -4  -1   5   40.40    3.20
   4  -1  -5   39.40    2.70
  -4   1   5   42.20    3.20
   4   1  -5   40.20    2.70
  -3  -1   5   74.19    3.90
  -3  -1   5   72.39    3.00
   3  -1  -5   76.19    6.30
   3  -1  -5   77.09    3.20
   3   1  -5   73.49    3.10
  -3   1   5   74.49    3.80
  -3   1   5   71.09    2.90
   2  -1  -5   12.10    1.20
  -2  -1   5   18.20    1.90
  -2  -1   5   18.50    1.80
  -2  -1   5   15.30    1.40
  -2   1   5   16.10    1.40
  -2   1   5   18.60    2.10
  -2   1   5   15.40    1.70
   2   1  -5   14.90    1.30
   1  -1  -5  188.68    6.40
  -1  -1   5  179.78    6.60
  -1  -1   5  183.08    5.20
   1  -1  -5  182.48    4.50
  -1   1   5  178.78    6.80
   1   1  -5  179.98    4.50
  -1   1   5  191.68    5.30
   1   1  -5  178.38    6.50
   0  -1  -5   63.49    3.30
   0  -1   5   53.29    2.40
   0  -1   5   60.59    3.30
   0   1  -5   56.49    3.30
   0   1   5   59.99    2.50
   0   1   5   57.99    3.40
   1  -1   5    6.80    1.90
  -1  -1  -5    4.70    1.50
   1  -1   5    5.40    1.10
   1   1   5    5.70    1.80
   1   1   5    3.90    1.00
  -1   1  -5    4.80    1.60
   2  -1   5  147.39    6.20
  -2  -1  -5  152.48    5.00
  -2  -1  -5  157.88    6.40
   2  -1   5  150.98    4.90
   2   1   5  152.48    6.40
  -2   1  -5  156.18    6.80
   3  -1   5   31.80    3.40
  -3  -1  -5   27.50    3.20
  -3   1  -5   34.40    3.80
   3   1   5   30.10    3.50
  -4  -1  -5    9.50    2.80
   4  -1   5   12.80    3.30
  -4   1  -5   11.10    3.30
   4   1   5   12.80    3.50
   4  -2  -5    1.20    1.30
  -4  -2   5    4.30    1.60
   4   2  -5    1.30    1.20
  -4   2   5    6.80    1.80
  -3  -2   5  476.15   12.90
   3  -2  -5  425.76   13.10
   3  -2  -5  470.45   11.40
  -3  -2   5  467.25   11.20
   3   2  -5  468.25   11.40
  -3   2   5  449.76   12.30
  -3   2   5  480.75   11.20
  -2  -2   5  888.41   20.30
  -2  -2   5  892.21   21.20
  -2  -2   5  887.91   19.50
  -2   2   5  865.81   20.40
   2   2  -5  879.21   19.10
  -2   2   5  868.41   19.10
  -2   2   5  876.91   19.40
  -2   2   5  882.61   21.90
  -1  -2   5   31.50    2.40
   1  -2  -5   27.50    2.20
  -1  -2   5   33.00    1.80
   1   2  -5   26.90    2.40
  -1   2   5   30.70    2.70
   1   2  -5   27.70    1.30
  -1   2   5   29.40    1.70
  -1   2   5   28.40    1.30
   0  -2   5  710.33   16.20
   0  -2  -5  742.03   17.40
   0  -2   5  734.23   17.60
   0   2  -5  731.63   18.30
   0   2   5  711.43   16.40
   0   2   5  720.73   18.30
  -1  -2  -5 1039.00   24.40
   1  -2   5 1045.70   24.60
   1  -2   5 1057.19   22.90
   1   2   5 1052.79   23.20
   1   2   5 1041.00   25.00
  -1   2  -5 1074.19   25.50
   2  -2   5    4.70    1.80
  -2  -2  -5    4.20    1.60
   2  -2   5    4.60    1.10
  -2  -2  -5    3.30    1.10
  -2   2  -5    3.00    1.80
   2   2   5    6.60    2.10
   3  -2   5  288.17   10.00
  -3  -2  -5  280.27    9.80
  -3  -2  -5  283.87    9.80
   3   2   5  272.57   10.00
  -3   2  -5  297.37   10.90
  -4  -3   5  508.05   14.40
   4  -3  -5  502.65   13.10
   4   3  -5  520.35   13.10
  -4   3   5  515.25   13.90
  -3  -3   5  224.58    7.80
   3  -3  -5  217.48    8.50
  -3  -3   5  225.98    6.30
  -3   3   5  217.48    6.40
  -3   3   5  209.18    7.00
  -3   3   5  226.88    6.20
   3   3  -5  230.28    6.50
  -2  -3   5  186.48    6.70
  -2  -3   5  173.48    5.20
  -2   3   5  177.68    7.10
   2   3  -5  174.68    5.00
  -2   3   5  178.98    5.30
  -2   3   5  179.68    5.90
  -2   3   5  178.88    5.00
  -1  -3   5 1339.47   29.80
   1  -3  -5 1339.27   29.60
  -1  -3   5 1356.76   28.40
   1   3  -5 1295.57   30.50
  -1   3   5 1305.47   31.00
   1   3  -5 1306.47   27.60
  -1   3   5 1357.26   27.60
  -1   3   5 1331.57   28.50
   0  -3   5  346.57    8.60
   0  -3   5  344.27    9.60
   0  -3  -5  345.77    9.40
   0   3   5  341.77   10.50
   0   3  -5  353.56   10.60
   0   3   5  348.67    8.90
  -1  -3  -5  210.38    6.20
   1  -3   5  208.28    7.10
   1  -3   5  218.78    6.00
  -1  -3  -5  214.98    7.00
  -1   3  -5  214.18    8.10
   1   3   5  212.88    7.70
   2  -3   5  626.94   14.30
  -2  -3  -5  626.04   16.00
  -2  -3  -5  614.24   14.80
   2  -3   5  586.24   16.00
  -2   3  -5  629.04   17.80
   2   3   5  588.84   16.50
   3  -3   5  104.39    5.60
  -3  -3  -5  105.89    5.40
  -3  -3  -5  103.29    4.50
   3   3   5  108.49    5.90
  -3   3  -5  107.79    6.50
  -4  -4   5    4.70    2.00
  -4  -4   5    8.30    2.10
  -4   4   5    7.80    1.80
   4   4  -5    6.30    1.50
  -3  -4   5   38.70    3.00
   3  -4  -5   21.80    3.10
  -3  -4   5   33.80    2.00
  -3   4   5   35.50    2.40
  -3   4   5   30.60    2.00
  -3   4   5   31.50    1.90
   3   4  -5   33.10    2.20
  -2  -4   5   72.09    4.00
  -2  -4   5   76.09    3.00
  -2   4   5   70.19    4.40
  -2   4   5   75.19    2.80
  -2   4   5   72.49    3.00
   2   4  -5   69.99    2.70
  -2   4   5   70.69    3.30
  -1  -4   5   86.79    3.80
   1  -4  -5   79.49    3.60
  -1  -4   5   81.69    3.10
   1   4  -5   76.49    2.70
   1   4  -5   81.09    4.30
  -1   4   5   82.39    2.60
  -1   4   5   79.89    4.60
  -1   4   5   78.99    3.20
   0  -4  -5  147.39    5.10
   0  -4   5  150.48    4.50
   0  -4   5  151.88    5.30
   0   4   5  149.39    6.30
   0   4  -5  147.49    6.20
  -1  -4  -5  146.49    5.20
   1  -4   5  127.79    5.20
   1  -4   5  132.09    4.20
  -1  -4  -5  129.59    4.60
  -1   4  -5  137.19    6.40
   1   4   5  122.49    5.70
   2  -4   5    6.00    1.20
  -2  -4  -5    8.50    1.90
  -2  -4  -5    8.20    1.60
   2  -4   5   10.90    2.40
  -2   4  -5    7.80    2.40
   2   4   5    8.90    2.30
   3  -4   5   38.00    3.60
  -3  -4  -5   39.80    2.80
  -3  -4  -5   35.10    3.20
  -3   4  -5   41.60    4.40
   3   4   5   39.70    3.90
   4  -5  -5  691.23   19.80
  -4  -5   5  736.33   19.40
  -4  -5   5  763.42   17.20
  -4   5   5  741.13   17.90
  -4   5   5  738.13   18.30
   4   5  -5  765.42   17.90
   3  -5  -5  374.96    9.40
   3  -5  -5  352.26   12.50
  -3  -5   5  370.96    9.40
  -3  -5   5  361.26   11.10
  -3   5   5  366.66    9.60
   3   5  -5  378.26    9.60
  -3   5   5  358.76    9.90
  -2  -5   5  255.07    8.50
  -2  -5   5  244.28    6.80
  -2   5   5  248.68    6.90
   2   5  -5  241.78    6.60
  -2   5   5  248.18    9.20
  -2   5   5  252.17    6.70
   1  -5  -5 1484.25   32.10
  -1  -5   5 1471.35   31.50
  -1   5   5 1482.75   34.60
  -1   5   5 1496.65   30.90
   1   5  -5 1451.15   31.10
   1   5  -5 1495.55   34.10
   0  -5   5  687.63   16.60
   0  -5  -5  697.73   16.20
   0  -5   5  692.83   15.60
   0  -5  -5  701.83   16.10
   0   5   5  687.73   18.40
   0   5  -5  689.33   18.30
  -1  -5  -5  203.28    6.40
  -1  -5  -5  200.18    6.20
   1  -5   5  189.08    5.60
   1  -5   5  206.78    6.90
   1   5   5  195.48    7.60
  -1   5  -5  195.28    8.10
   2  -5   5  901.21   22.50
  -2  -5  -5  919.01   21.50
  -2  -5  -5  924.81   21.90
   2  -5   5  961.30   20.60
   2   5   5  923.81   23.40
  -2   5  -5  928.61   24.90
  -3  -5  -5  269.07    8.40
  -3  -5  -5  259.27    8.90
   3  -5   5  264.87    9.60
   3   5   5  270.27   10.00
  -3   5  -5  275.17   11.30
   4  -6  -5    3.40    2.20
  -4  -6   5    3.40    1.80
  -4  -6   5   -0.50    0.80
  -4   6   5    1.90    1.20
   4   6  -5    1.00    1.10
  -4   6   5    2.40    1.30
   3  -6  -5   31.10    2.70
  -3  -6   5   29.40    2.90
   3  -6  -5   33.00    4.00
  -3  -6   5   30.50    2.00
  -3   6   5   29.90    2.20
   3   6  -5   32.40    2.20
  -3   6   5   32.50    2.20
   2  -6  -5   34.60    2.20
  -2  -6   5   35.40    2.00
  -2   6   5   37.70    2.00
  -2   6   5   35.00    3.40
   2   6  -5   34.50    2.00
  -1  -6   5  133.89    4.30
   1  -6  -5  128.29    4.50
   1  -6  -5  131.89    4.60
  -1   6   5  126.19    6.10
  -1   6   5  134.29    4.00
   1   6  -5  129.39    5.90
   1   6  -5  134.39    4.20
   0  -6  -5  220.08    6.50
   0  -6   5  216.18    6.00
   0  -6   5  216.28    6.70
   0  -6  -5  212.68    6.30
   0   6  -5  213.78    8.10
   0   6   5  210.38    8.20
   1  -6   5  160.68    4.90
   1  -6   5  161.98    6.00
  -1  -6  -5  168.58    5.60
  -1  -6  -5  163.38    5.40
   1   6   5  158.68    6.90
  -1   6  -5  167.98    7.50
   2  -6   5    2.70    1.00
  -2  -6  -5    5.60    1.60
  -2  -6  -5    5.80    1.50
   2  -6   5    4.80    1.80
  -2   6  -5    4.20    2.30
   2   6   5    7.00    2.30
   3  -6   5   61.69    4.40
  -3  -6  -5   56.69    3.50
  -3  -6  -5   58.29    3.70
   3   6   5   57.49    4.60
  -3   6  -5   62.89    5.40
  -4  -7   5  333.87   11.10
  -4  -7   5  338.67    9.00
   4  -7  -5  284.67   11.60
   4   7  -5  346.67    9.70
  -4   7   5  330.17    9.70
  -3  -7   5  265.07    7.30
   3  -7  -5  232.58   10.50
  -3  -7   5  255.57    8.90
  -3   7   5  253.67    7.50
   3   7  -5  249.58    7.40
   2  -7  -5   89.79    3.70
  -2  -7   5   86.19    3.40
  -2   7   5   79.69    3.30
   2   7  -5   83.29    4.60
  -2   7   5   79.49    5.10
   2   7  -5   86.89    3.40
  -1  -7   5 1154.58   25.10
   1  -7  -5 1174.88   25.70
  -1   7   5 1157.88   24.80
  -1   7   5 1142.09   28.40
   1   7  -5 1144.69   28.00
   1   7  -5 1148.99   25.30
   0  -7   5  299.07    7.70
   0  -7  -5  284.97    9.10
   0  -7   5  289.07    8.30
   0  -7  -5  301.77    8.40
   0   7   5  289.97   10.20
   0   7  -5  300.67   10.10
   0   7   5  286.07    7.20
   1  -7   5  116.29    3.90
  -1  -7  -5  116.19    4.30
   1  -7   5  113.59    4.90
  -1  -7  -5  117.39    4.60
  -1   7  -5  119.19    6.30
   1   7   5  112.59    5.80
  -2  -7  -5  549.65   13.90
  -2  -7  -5  555.74   14.20
   2  -7   5  550.74   12.90
   2  -7   5  549.65   15.00
   2   7   5  547.25   16.00
  -2   7  -5  533.95   17.20
   3  -7   5   73.19    4.90
  -3  -7  -5   72.69    4.10
  -3  -7  -5   71.89    4.00
   3   7   5   73.39    5.20
  -3   7  -5   66.29    5.70
  -4  -8   5    5.60    2.10
   4  -8  -5    5.20    2.90
  -4  -8   5    1.80    1.10
  -4   8   5    1.30    1.20
   4   8  -5    4.20    1.50
  -3  -8   5  532.75   15.10
  -3  -8   5  550.64   13.10
   3  -8  -5  484.15   17.10
  -3   8   5  531.05   13.40
   3   8  -5  540.05   13.40
  -2  -8   5  799.62   18.30
   2  -8  -5  819.42   18.60
  -2   8   5  795.02   21.80
   2   8  -5  790.92   18.40
   2   8  -5  790.32   20.60
  -2   8   5  790.12   18.30
   1  -8  -5   40.40    2.60
  -1  -8   5   38.70    2.20
  -1   8   5   40.40    2.10
   1   8  -5   38.10    2.40
   1   8  -5   42.70    3.50
  -1   8   5   36.10    3.40
   0  -8   5  422.76   11.10
   0  -8  -5  437.36   11.40
   0  -8   5  438.26   10.60
   0   8  -5  435.66   13.20
   0   8   5  435.86   13.50
   0   8   5  419.16   10.40
   1  -8   5  473.65   12.90
  -1  -8  -5  484.15   12.60
   1  -8   5  484.25   11.60
  -1   8  -5  480.85   15.00
   1   8   5  480.75   14.60
   2  -8   5    6.60    2.20
  -2  -8  -5    5.90    1.50
   2   8   5   10.00    2.80
  -2   8  -5    5.60    2.40
  -3  -8  -5  177.88    6.70
   3  -8   5  168.68    7.60
  -3   8  -5  162.08    8.80
   3   8   5  171.78    8.00
  -3  -9   5   43.90    2.70
   3  -9  -5   51.79    5.40
  -3  -9   5   46.10    3.70
   3   9  -5   44.20    2.90
  -3   9   5   45.80    2.90
   2  -9  -5   12.00    1.90
  -2  -9   5   14.10    1.80
  -2   9   5   18.60    3.80
   2   9  -5   18.30    3.10
  -2   9   5   14.60    2.00
   2   9  -5   16.60    2.10
   1  -9  -5   69.09    3.40
  -1  -9   5   73.29    3.10
  -1   9   5   64.99    3.00
   1   9  -5   72.99    3.60
  -1   9   5   68.89    4.70
   1   9  -5   65.19    4.40
   0  -9   5   43.90    2.40
   0  -9   5   48.30    2.70
   0  -9  -5   47.30    2.90
   0   9   5   48.40    2.50
   0   9   5   46.50    3.90
   0   9  -5   47.50    3.70
   1  -9   5    2.10    1.40
  -1  -9  -5    3.70    1.30
   1  -9   5    1.70    0.90
   1   9   5    2.40    1.90
  -1   9  -5    2.40    1.80
  -2  -9  -5   59.89    3.60
   2  -9   5   55.69    3.90
   2   9   5   59.29    4.60
  -2   9  -5   61.19    5.00
   3  -9   5   38.80    3.90
  -3  -9  -5   33.80    3.10
   3   9   5   40.60    4.30
  -3   9  -5   38.70    5.80
   3 -10  -5  352.56   14.90
  -3 -10   5  434.26   11.00
  -3 -10   5  411.46   12.80
   3  10  -5  428.26   11.40
  -3  10   5  412.46   11.40
  -2 -10   5  905.01   20.50
   2 -10  -5  909.01   20.90
   2  10  -5  882.21   22.80
  -2  10   5  892.41   24.20
  -2  10   5  892.41   20.80
   2  10  -5  876.01   20.90
  -1 -10   5   28.30    2.10
   1 -10  -5   32.40    2.50
  -1  10   5   34.10    2.30
   1  10  -5   36.60    2.80
  -1  10   5   38.40    3.70
   1  10  -5   34.30    3.20
   0 -10   5  804.92   18.40
   0 -10  -5  799.32   19.30
   0  10  -5  800.72   21.30
   0  10   5  826.52   18.60
   0  10   5  793.42   21.70
   1 -10   5  741.13   18.40
   1 -10   5  735.53   16.90
  -1 -10  -5  731.13   18.10
  -1  10  -5  746.83   20.60
   1  10   5  734.43   20.50
  -2 -10  -5   14.30    2.40
   2 -10   5   14.30    3.00
  -2  10  -5   18.60    4.10
   2  10   5   16.10    3.60
  -3 -10  -5  260.97    8.90
   3 -10   5  252.97   10.00
  -3  10  -5  281.57   11.70
   3  10   5  262.07   10.60
   3 -11  -5   29.70    5.80
  -3 -11   5   31.40    2.40
  -3 -11   5   31.30    3.30
  -3  11   5   30.90    2.80
   3  11  -5   32.40    2.70
   2 -11  -5   41.80    2.90
  -2 -11   5   42.40    2.60
  -2  11   5   44.50    4.30
   2  11  -5   45.20    3.10
   2  11  -5   40.00    3.50
  -2  11   5   41.50    2.90
  -1 -11   5  104.49    4.10
   1 -11  -5   97.99    4.40
  -1  11   5   92.89    4.20
   1  11  -5   97.89    4.80
   1  11  -5  100.69    5.50
  -1  11   5  105.49    6.10
   0 -11  -5    9.70    1.90
   0 -11   5   11.50    1.70
   0  11   5   14.80    2.00
   0  11   5   16.90    3.70
   0  11  -5   14.40    2.90
   1 -11   5    8.40    2.10
  -1 -11  -5    8.40    1.80
   1 -11   5    6.60    1.40
   1  11   5    9.80    2.80
  -1  11  -5    8.10    2.40
  -2 -11  -5   76.39    4.20
   2 -11   5   68.09    4.50
  -2  11  -5   68.49    5.40
   2  11   5   73.89    5.30
   3 -12  -5  171.88   10.20
  -3 -12   5  221.38    7.10
   3  12  -5  225.28    8.90
   3  12  -5  221.88    7.70
  -3  12   5  211.78    7.70
   2 -12  -5  379.86   10.60
  -2 -12   5  372.26   10.30
   2  12  -5  375.46   12.30
  -2  12   5  359.46   10.80
   2  12  -5  381.66   11.20
  -2  12   5  381.06   13.60
  -1 -12   5   37.40    2.50
   1 -12  -5   38.40    2.90
   1  12  -5   40.60    3.50
  -1  12   5   32.80    3.70
   1  12  -5   40.80    3.20
  -1  12   5   36.90    2.80
   0 -12   5  336.67    9.20
   0 -12  -5  325.17   10.00
   0  12   5  348.67    9.60
   0  12  -5  339.37   11.50
   0  12   5  332.67   12.00
   1 -12   5  512.75   12.70
   1 -12   5  513.05   14.10
  -1 -12  -5  494.75   13.80
   1  12   5  526.05   16.10
  -1  12  -5  513.05   15.70
  -2 -12  -5    3.20    1.70
   2 -12   5    4.80    2.30
  -2  12  -5    2.00    2.20
   2  12   5    4.20    2.50
  -2 -13   5   87.29    4.10
   2 -13  -5   91.59    4.40
   2  13  -5   80.49    4.70
  -2  13   5   93.89    6.30
   2  13  -5   89.19    5.30
  -2  13   5   82.49    4.50
  -1 -13   5  541.85   13.70
   1 -13  -5  530.35   14.20
   1  13  -5  535.55   15.00
  -1  13   5  540.65   17.00
   1  13  -5  550.74   16.00
  -1  13   5  553.94   14.40
   0 -13   5  170.38    5.90
   0 -13  -5  166.08    6.50
   0  13   5  177.68    8.30
   0  13  -5  177.18    7.70
   0  13   5  179.08    6.20
  -1 -13  -5  120.29    5.50
   1 -13   5  128.29    4.80
   1  13   5  130.79    7.10
  -1  13  -5  122.19    6.50
  -2 -13  -5  264.27    9.00
   2 -13   5  258.17    9.60
  -2  13  -5  260.97   10.50
   2  13   5  256.17   10.60
   2 -14  -5   66.99    4.00
  -2 -14   5   69.49    3.70
  -2  14   5   71.29    4.30
   2  14  -5   70.29    4.80
   2  14  -5   70.19    4.60
  -2  14   5   71.89    5.60
   1 -14  -5    1.80    1.50
  -1 -14   5    2.60    1.20
   1  14  -5    2.10    1.60
  -1  14   5    3.20    2.20
  -1  14   5    2.60    1.60
   1  14  -5    4.10    1.80
   0 -14  -5   26.70    2.80
   0 -14   5   23.30    2.30
   0  14   5   24.70    3.50
   0  14   5   30.70    2.60
   0  14  -5   25.60    3.00
  -1 -14  -5   21.20    3.00
   1 -14   5   19.40    2.10
  -1  14  -5   30.20    4.40
   1  14   5   23.10    4.20
   1 -15  -5  620.34   16.30
  -1 -15   5  617.84   15.80
   1  15  -5  636.54   17.90
   1  15  -5  639.94   17.20
  -1  15   5  609.44   16.40
  -1  15   5  622.84   19.10
   0 -15  -5  258.97    8.80
   0 -15   5  252.97    7.90
   0  15   5  251.27    8.20
   0  15   5  254.57   10.70
   0  15  -5  248.88    9.60
  -1 -15  -5   52.39    3.90
   1 -15   5   59.79    3.40
  -1  15  -5   54.79    4.50
   1  15   5   63.19    5.20
  -4   0   6  685.53   18.50
   4   0  -6  715.33   17.00
  -3   0   6  172.08    6.80
   3   0  -6  176.48    5.60
  -3   0   6  183.48    5.60
   2   0  -6  388.16   11.60
   2   0  -6  377.56    9.70
  -2   0   6  405.86   10.10
  -2   0   6  390.96   12.10
  -1   0   6 1516.65   32.60
  -1   0   6 1493.35   35.20
   1   0  -6 1552.04   34.80
   0   0   6  166.08    6.60
   0   0   6  161.68    5.10
   0   0  -6  160.38    6.30
   1   0   6  351.36    9.30
  -1   0  -6  362.06   11.10
   1   0   6  348.97   11.10
   2   0   6  513.55   15.00
  -2   0  -6  511.45   15.10
  -2   0  -6  523.25   12.80
  -3   0  -6  126.79    6.80
   3   0   6  138.29    7.10
   4  -1  -6    2.90    1.30
  -4  -1   6    2.50    1.70
   4   1  -6    2.00    1.20
  -4   1   6    2.70    1.50
  -3  -1   6   36.40    2.20
  -3  -1   6   36.20    3.00
   3  -1  -6   30.70    2.20
  -3   1   6   34.70    2.10
   3   1  -6   33.10    2.30
  -3   1   6   41.40    3.00
   2  -1  -6  149.29    6.00
  -2  -1   6  143.29    6.40
  -2  -1   6  149.09    4.80
   2  -1  -6  142.59    4.40
   2   1  -6  131.89    4.50
  -2   1   6  148.29    4.80
   2   1  -6  148.49    6.20
  -2   1   6  144.59    6.60
   1  -1  -6    2.40    1.30
  -1  -1   6    1.20    0.70
  -1  -1   6    1.40    1.20
   1   1  -6    1.80    1.30
  -1   1   6    1.30    0.80
  -1   1   6    1.20    1.40
   0  -1  -6  146.89    5.80
   0  -1   6  148.89    4.80
   0  -1   6  143.19    6.00
   0   1  -6  153.68    6.20
   0   1   6  145.89    6.30
   0   1   6  148.59    4.90
   1  -1   6   56.59    2.80
  -1  -1  -6   61.09    3.80
   1  -1   6   60.99    3.90
   1   1   6   61.89    4.00
  -1   1  -6   61.19    4.00
   1   1   6   63.09    3.00
   2  -1   6    3.20    1.20
   2  -1   6    7.30    2.40
  -2  -1  -6    4.80    1.40
  -2  -1  -6    4.30    1.90
   2   1   6    5.20    2.10
  -2   1  -6    3.00    2.00
  -3  -1  -6   32.40    3.60
   3  -1   6   35.80    3.90
   3   1   6   38.90    4.00
  -3   1  -6   37.20    4.10
  -4  -2   6  389.36   12.50
   4  -2  -6  412.26   11.10
   4   2  -6  423.06   11.20
  -4   2   6  416.46   12.30
   3  -2  -6  106.49    4.10
  -3  -2   6  116.89    4.20
  -3  -2   6  115.69    5.50
   3   2  -6  109.09    4.20
  -3   2   6  115.09    4.20
  -3   2   6  109.89    5.00
  -2  -2   6  266.97    7.30
   2  -2  -6  254.57    8.40
   2  -2  -6  248.38    6.70
  -2   2   6  253.07    9.60
  -2   2   6  252.67    7.20
   2   2  -6  250.77    8.80
   2   2  -6  262.37    7.10
  -1  -2   6  878.71   21.80
  -1  -2   6  862.31   19.60
   1  -2  -6  890.61   21.20
  -1   2   6  871.31   22.50
   1   2  -6  864.31   22.00
  -1   2   6  882.21   19.80
   0  -2   6  179.08    5.50
   0  -2   6  183.08    6.80
   0  -2  -6  175.28    6.40
   0   2  -6  189.88    7.20
   0   2   6  187.68    7.30
   0   2   6  181.08    5.70
   1  -2   6  200.78    6.00
  -1  -2  -6  192.98    7.20
   1  -2   6  195.38    7.40
   1   2   6  206.58    7.90
   1   2   6  195.98    6.20
  -1   2  -6  199.08    7.80
   2  -2   6  624.64   14.70
  -2  -2  -6  584.64   14.80
   2  -2   6  609.04   16.90
  -2  -2  -6  587.74   16.30
   2   2   6  599.24   17.10
  -2   2  -6  615.44   17.70
  -3  -2  -6   29.00    3.40
   3  -2   6   33.50    3.80
  -3   2  -6   24.40    4.20
   3   2   6   37.30    4.00
   4  -3  -6    5.80    1.70
  -4  -3   6    6.80    2.20
   4   3  -6    7.60    1.80
  -4   3   6    8.60    2.20
   3  -3  -6  534.55   13.20
  -3  -3   6  560.24   13.30
  -3  -3   6  541.75   15.20
   3   3  -6  540.15   13.10
  -3   3   6  543.85   13.20
  -3   3   6  524.15   14.20
   2  -3  -6  510.45   13.40
  -2  -3   6  495.35   12.00
   2   3  -6  453.55   11.70
  -2   3   6  486.25   12.00
  -2   3   6  487.05   15.00
   2   3  -6  487.25   14.10
  -1  -3   6    9.80    2.30
  -1  -3   6    6.00    1.10
   1  -3  -6    8.90    1.80
  -1   3   6    6.70    2.20
   1   3  -6    4.70    1.70
  -1   3   6    6.10    1.20
   0  -3   6  801.42   19.90
   0  -3  -6  801.02   19.50
   0  -3   6  808.42   18.40
   0   3  -6  843.52   21.00
   0   3   6  818.22   18.70
   0   3   6  807.42   21.00
  -1  -3  -6  367.86   10.80
  -1  -3  -6  371.56    9.90
   1  -3   6  367.26    9.50
   1  -3   6  360.06   11.10
  -1   3  -6  379.26   12.10
   1   3   6  366.46   11.80
  -2  -3  -6    5.90    1.60
   2  -3   6    9.00    1.50
   2  -3   6   10.00    2.60
  -2  -3  -6    8.00    2.10
  -2   3  -6    5.50    2.40
   2   3   6   10.50    2.90
  -3  -3  -6  214.48    8.50
   3  -3   6  222.18    9.10
   3   3   6  223.18    9.40
  -3   3  -6  239.88   10.30
  -4  -4   6   23.80    3.70
  -4  -4   6   19.50    2.00
   4  -4  -6   18.30    2.50
   4   4  -6   17.00    2.40
  -4   4   6   21.50    2.50
  -3  -4   6   30.60    2.20
  -3  -4   6   29.60    3.00
  -3   4   6   33.90    2.60
   3   4  -6   29.30    2.10
  -3   4   6   30.60    2.10
  -3   4   6   34.30    3.40
  -3   4   6   30.50    2.10
  -2  -4   6   12.90    1.70
   2  -4  -6   14.90    2.40
  -2   4   6   11.80    1.20
  -2   4   6   12.70    3.10
   2   4  -6   14.40    2.00
  -2   4   6   12.50    1.70
   2   4  -6   20.70    3.40
  -1  -4   6   88.99    4.40
   1  -4  -6   90.49    4.10
  -1  -4   6   88.69    3.50
  -1   4   6   87.89    3.60
   1   4  -6   88.59    5.00
  -1   4   6   81.89    5.10
   0  -4   6   72.49    3.10
   0  -4  -6   73.09    3.60
   0  -4   6   73.79    3.90
   0   4  -6   68.19    4.40
   0   4   6   71.79    4.60
   1  -4   6   35.00    3.10
  -1  -4  -6   30.80    2.70
  -1  -4  -6   28.20    2.30
   1  -4   6   32.40    2.10
   1   4   6   34.40    3.30
  -1   4  -6   31.20    3.40
   2  -4   6   65.49    4.30
   2  -4   6   60.99    3.00
  -2  -4  -6   59.39    3.40
  -2  -4  -6   57.59    3.80
   2   4   6   58.29    4.50
  -2   4  -6   61.39    5.00
  -3  -4  -6   15.10    2.50
  -3  -4  -6   20.10    3.40
   3  -4   6   24.90    3.50
  -3   4  -6   27.50    5.10
   3   4   6   29.00    3.80
  -4  -5   6    2.00    1.70
  -4  -5   6    3.70    1.20
   4   5  -6    3.70    1.40
  -4   5   6    5.40    1.80
  -3  -5   6  766.72   17.50
  -3  -5   6  741.33   19.80
  -3   5   6  739.73   20.60
  -3   5   6  741.73   17.40
   3   5  -6  738.73   17.30
  -3   5   6  729.03   18.10
   2  -5  -6  678.83   16.70
  -2  -5   6  672.23   15.60
   2   5  -6  622.64   15.80
  -2   5   6  663.63   15.80
  -2   5   6  670.03   15.10
  -2   5   6  667.13   19.20
   2   5  -6  650.73   17.90
   1  -5  -6   19.90    1.90
  -1  -5   6   17.50    1.50
   1   5  -6   22.10    3.60
  -1   5   6   20.80    3.80
   0  -5   6  565.74   13.60
   0  -5  -6  583.74   14.40
   0  -5   6  554.84   14.80
   0  -5  -6  581.44   14.10
   0   5   6  576.04   16.60
   0   5  -6  568.84   16.30
   1  -5   6  875.61   19.80
  -1  -5  -6  878.21   21.00
   1  -5   6  876.21   21.70
  -1  -5  -6  873.81   20.60
   1   5   6  885.41   23.00
  -1   5  -6  894.91   23.50
   2  -5   6    3.20    1.70
   2  -5   6    2.60    1.00
  -2  -5  -6    3.30    1.40
  -2  -5  -6    5.10    1.80
   2   5   6    5.20    2.50
  -2   5  -6    2.90    2.20
   3  -5   6  316.27   11.40
  -3  -5  -6  319.87   10.50
  -3  -5  -6  326.77    9.90
   3   5   6  335.67   12.10
  -3   5  -6  308.17   12.80
   3  -6  -6   21.10    2.10
  -3  -6   6   27.60    4.00
  -3  -6   6   19.80    1.90
  -3   6   6   21.60    3.20
   3   6  -6   20.00    1.90
  -3   6   6   19.50    1.90
   2  -6  -6   18.50    1.90
  -2  -6   6   18.60    1.70
  -2   6   6   15.90    1.50
   2   6  -6   22.40    3.60
   2   6  -6   19.20    2.70
  -2   6   6   21.00    3.90
   1  -6  -6   71.99    3.40
  -1  -6   6   67.49    3.00
   1  -6  -6   55.59    3.70
   1   6  -6   74.49    4.70
  -1   6   6   71.09    4.80
   0  -6  -6   82.89    3.90
   0  -6  -6   86.99    3.70
   0  -6   6   82.99    3.40
   0  -6   6   80.79    4.00
   0   6   6   86.59    5.30
   0   6  -6   81.89    5.00
   1  -6   6   56.29    3.70
   1  -6   6   52.09    2.70
  -1  -6  -6   54.79    3.30
  -1  -6  -6   58.89    3.30
  -1   6  -6   56.29    4.50
   1   6   6   58.39    4.40
  -2  -6  -6   85.19    4.40
   2  -6   6   81.99    3.50
   2  -6   6   82.59    4.90
  -2  -6  -6   88.29    4.30
  -2   6  -6   73.69    5.70
   2   6   6   78.69    5.30
  -3  -6  -6    9.90    2.20
  -3  -6  -6    8.60    2.40
   3  -6   6   12.60    3.00
  -3   6  -6    5.50    3.00
   3   6   6    9.40    3.20
  -3  -7   6  337.47    9.20
  -3  -7   6  327.07   11.20
   3   7  -6  338.77    9.30
  -3   7   6  326.87    9.20
   2  -7  -6  605.54   14.50
  -2  -7   6  568.24   14.00
  -2   7   6  584.74   13.80
   2   7  -6  583.84   16.70
  -2   7   6  574.04   17.70
   2   7  -6  552.74   15.40
  -1  -7   6    1.40    0.90
   1  -7  -6    2.70    1.20
   1   7  -6    4.10    1.90
  -1   7   6    2.90    1.90
   0  -7  -6  941.01   21.50
   0  -7   6  925.71   20.70
   0  -7   6  880.31   21.60
   0   7  -6  923.01   23.90
   0   7   6  918.21   24.30
   1  -7   6  240.08    8.30
   1  -7   6  237.28    6.90
  -1  -7  -6  244.48    7.70
   1   7   6  225.48    9.30
  -1   7  -6  227.58    9.60
   2  -7   6    7.20    2.20
  -2  -7  -6    4.10    1.60
  -2   7  -6    7.40    2.80
   2   7   6    6.80    2.70
  -3  -8   6   49.60    2.90
   3   8  -6   44.00    2.80
  -3   8   6   45.20    2.90
  -2  -8   6  294.17    8.20
   2  -8  -6  290.37    8.60
  -2   8   6  298.47   11.50
   2   8  -6  286.87   10.50
  -2   8   6  282.37    8.00
   1  -8  -6  715.53   17.30
  -1  -8   6  693.33   16.50
  -1   8   6  702.73   20.10
   1   8  -6  701.93   19.60
   0  -8   6   28.40    2.10
   0  -8  -6   29.20    2.60
   0   8  -6   28.70    3.20
   0   8   6   25.00    3.20
  -1  -8  -6  128.09    5.40
   1  -8   6  128.79    5.70
   1  -8   6  129.59    4.60
   1   8   6  135.19    7.00
  -1   8  -6  130.39    7.10
  -2  -8  -6  336.17   10.10
   2  -8   6  327.47   10.90
   2   8   6  321.37   11.90
  -2   8  -6  318.87   12.90
  -3  -9   6   37.10    2.60
   3   9  -6   34.70    2.70
  -3   9   6   37.20    2.70
   3   9  -6   34.70    3.50
  -2  -9   6   49.00    2.80
   2  -9  -6   51.69    3.20
   2   9  -6   53.29    4.10
  -2   9   6   50.59    2.80
  -2   9   6   45.70    4.50
  -1  -9   6    0.50    0.80
   1  -9  -6   -0.30    1.10
   1   9  -6    2.20    1.80
  -1   9   6    2.70    2.10
   0  -9   6   12.10    1.70
   0  -9  -6   11.70    2.10
   0   9   6   15.40    3.50
   0   9  -6   11.80    2.90
  -1  -9  -6   73.59    4.10
   1  -9   6   75.39    3.40
   1  -9   6   78.79    4.40
   1   9   6   77.89    5.40
  -1   9  -6   83.79    5.60
  -2  -9  -6    6.20    1.80
   2  -9   6    8.20    2.50
  -2   9  -6    6.40    3.10
   2   9   6    6.40    2.70
  -3 -10   6  137.79    5.20
  -3  10   6  128.19    5.40
   3  10  -6  120.99    6.60
   3  10  -6  137.99    5.50
  -2 -10   6  181.48    6.00
   2 -10  -6  174.78    6.40
   2  10  -6  172.68    7.90
  -2  10   6  177.18    8.70
  -2  10   6  173.88    6.00
  -1 -10   6  972.40   22.10
   1 -10  -6  979.80   23.00
   1  10  -6  931.41   25.10
  -1  10   6  973.60   26.10
   0 -10  -6  168.68    6.40
   0 -10   6  163.88    5.50
   0  10  -6  164.28    7.70
   0  10   6  159.18    8.00
   1 -10   6  233.48    8.40
   1 -10   6  239.48    7.10
  -1 -10  -6  236.78    8.10
  -1  10  -6  245.18   10.10
   1  10   6  240.28   10.10
  -2 -10  -6  416.26   12.10
   2 -10   6  404.46   12.90
   2  10   6  393.66   14.10
  -2  10  -6  414.46   15.10
  -2 -11   6   55.29    3.20
   2 -11  -6   50.79    3.50
   2  11  -6   55.69    4.50
  -2  11   6   52.39    3.20
  -2  11   6   56.09    5.00
   1 -11  -6    5.30    1.80
  -1 -11   6    7.00    1.60
   1  11  -6   13.50    3.10
  -1  11   6    9.00    3.20
   0 -11   6   68.19    3.40
   0 -11  -6   74.99    4.20
   0  11  -6   73.39    5.00
   0  11   6   75.49    5.50
   1 -11   6   28.70    5.40
  -1 -11  -6   24.30    2.70
   1 -11   6   22.20    2.10
   1  11   6   28.90    4.90
  -1  11  -6   31.50    4.70
   2 -12  -6  123.49    5.30
  -2 -12   6  116.19    4.90
  -2  12   6  107.19    4.90
   2  12  -6  120.89    6.80
  -2  12   6  125.69    7.40
  -1 -12   6  364.36   10.20
   1 -12  -6  380.26   11.00
   1  12  -6  366.96   12.70
  -1  12   6  357.36   13.40
   0 -12   6  131.59    5.00
   0 -12  -6  130.59    5.70
   0  12   6  125.99    7.20
   0  12  -6  130.29    6.90
   1 -12   6   74.59    3.60
  -1 -12  -6   78.39    4.50
   1  12   6   77.89    5.80
  -1  12  -6   73.39    5.40
   1 -13  -6    9.20    2.10
  -1 -13   6   10.50    1.90
   1  13  -6   13.70    3.20
  -1  13   6   11.20    3.40
   0 -13  -6  273.77    9.30
   0 -13   6  284.07    8.50
   0  13   6  286.97   11.60
   0  13  -6  295.27   11.00
  -1 -13  -6  210.88    8.00
   1 -13   6  220.98    7.00
   1  13   6  219.68   10.00
  -1  13  -6  221.48    9.70
  -3   0   7  667.23   16.10
   3   0  -7  677.13   18.70
   2   0  -7  365.56   11.90
  -2   0   7  376.56   10.00
  -1   0   7   30.30    2.10
   1   0  -7   29.90    3.00
   0   0  -7  914.61   22.50
   0   0   7  887.11   22.90
   0   0   7  888.71   20.60
   1   0   7  335.87    9.40
  -1   0  -7  341.77   11.10
   1   0   7  333.87   11.40
  -2   0  -7   37.80    2.70
   2   0   7   45.70    4.20
  -2   0  -7   41.90    3.90
  -3  -1   7   17.00    2.20
   3  -1  -7   18.20    3.30
   3   1  -7   19.10    3.50
  -3   1   7   17.30    1.90
  -2  -1   7   25.50    2.00
   2  -1  -7   26.40    2.90
  -2   1   7   24.10    2.00
   2   1  -7   29.70    3.10
  -2   1   7   26.60    3.30
  -1  -1   7  132.99    6.50
   1  -1  -7  129.09    5.90
  -1  -1   7  129.19    4.80
  -1   1   7  143.49    6.80
   1   1  -7  138.89    6.30
  -1   1   7  126.69    4.80
   0  -1   7   16.10    3.10
   0  -1   7   11.70    1.70
   0  -1  -7   11.80    2.40
   0   1   7   19.40    3.50
   0   1   7   11.50    1.70
   0   1  -7   13.00    2.60
   1  -1   7   62.99    4.40
   1  -1   7   63.49    3.30
  -1  -1  -7   65.09    4.30
  -1   1  -7   61.19    4.30
   1   1   7   64.59    3.40
   1   1   7   64.89    4.60
   2  -1   7   36.60    3.90
   2  -1   7   36.70    2.80
  -2  -1  -7   37.60    2.80
  -2  -1  -7   38.80    3.70
  -2   1  -7   35.00    3.80
   2   1   7   36.10    3.90
  -3  -2   7  465.05   11.90
   3  -2  -7  459.75   13.90
  -3   2   7  448.96   11.80
   3   2  -7  460.65   14.40
   2  -2  -7  321.57   10.50
  -2  -2   7  325.27    9.00
   2   2  -7  309.57   10.90
  -2   2   7  318.47   11.90
  -2   2   7  326.97    9.00
   1  -2  -7   62.39    3.90
  -1  -2   7   64.69    4.40
  -1  -2   7   60.69    3.00
  -1   2   7   57.99    4.50
   1   2  -7   59.49    4.20
  -1   2   7   60.89    3.10
   0  -2  -7  513.95   14.10
   0  -2   7  504.35   14.60
   0  -2   7  511.35   12.80
   0   2   7  507.15   12.90
   0   2  -7  526.85   15.00
   0   2   7  515.25   15.30
  -1  -2  -7  235.28    8.60
   1  -2   7  236.28    9.00
   1  -2   7  244.18    7.30
  -1   2  -7  254.77    9.40
   1   2   7  235.98    9.40
  -2  -2  -7   23.90    3.80
   2  -2   7   19.10    2.50
  -2  -2  -7   19.30    2.60
   2  -2   7   24.90    3.40
   2   2   7   24.20    3.40
  -2   2  -7   22.30    4.10
  -3  -3   7   24.40    2.10
   3  -3  -7   27.90    3.10
  -3   3   7   25.70    2.10
   3   3  -7   33.30    4.60
  -2  -3   7  329.37    9.20
   2  -3  -7  341.77   10.80
  -2   3   7  332.77    9.30
  -2   3   7  329.57   12.40
   2   3  -7  345.47   11.70
   1  -3  -7  551.74   14.80
  -1  -3   7  542.35   13.60
   1   3  -7  558.84   16.20
  -1   3   7  550.14   13.80
  -1   3   7  558.54   16.70
   0  -3  -7   29.80    2.70
   0  -3   7   34.50    3.00
   0  -3   7   29.20    2.20
   0   3   7   31.90    2.40
   0   3   7   34.50    3.50
   0   3  -7   33.10    3.30
   1  -3   7  301.37    8.50
  -1  -3  -7  301.87    8.90
  -1  -3  -7  309.77    9.90
   1  -3   7  296.67   10.40
   1   3   7  296.67   10.90
  -1   3  -7  298.07   10.80
   2  -3   7  235.38    9.40
   2  -3   7  243.38    7.50
  -2  -3  -7  233.28    7.80
  -2  -3  -7  220.68    8.60
  -2   3  -7  238.38   10.10
   2   3   7  228.98    9.70
  -3  -4   7   22.80    2.00
   3  -4  -7   26.90    3.70
   3   4  -7   31.70    4.50
  -3   4   7   18.50    1.90
  -3   4   7   36.80    8.30
  -2  -4   7   60.79    3.20
   2  -4  -7   63.19    4.10
   2   4  -7   60.39    4.50
  -2   4   7   59.09    3.10
  -2   4   7   58.29    5.00
  -1  -4   7    0.90    0.90
   1  -4  -7    4.70    1.60
  -1   4   7    1.60    0.90
   1   4  -7    2.30    1.70
  -1   4   7    2.00    1.70
   0  -4  -7   60.29    3.60
   0  -4   7   60.19    3.00
   0  -4   7   59.69    3.90
   0  -4  -7   59.29    3.20
   0   4   7   56.39    4.50
   0   4  -7   63.09    4.50
   1  -4   7   33.40    2.40
  -1  -4  -7   34.00    3.00
  -1  -4  -7   35.00    2.70
   1  -4   7   35.80    3.30
  -1   4  -7   35.10    3.70
   1   4   7   39.90    3.90
  -2  -4  -7    4.00    2.00
   2  -4   7    4.60    1.40
   2  -4   7   10.50    2.90
  -2   4  -7    4.90    2.50
   2   4   7    8.60    2.90
   3  -5  -7   16.10    2.20
  -3  -5   7   14.60    2.00
  -3   5   7   15.20    3.70
   3   5  -7   14.40    3.20
  -2  -5   7  365.56   10.00
   2   5  -7  364.66   12.50
  -2   5   7  370.86   13.50
   1  -5  -7  718.23   17.00
  -1  -5   7  703.83   16.70
   1  -5  -7  662.23   17.50
   1   5  -7  678.33   19.40
  -1   5   7  706.03   20.20
   0  -5   7   33.00    2.90
   0  -5  -7   30.50    2.70
   0  -5  -7   37.10    2.70
   0  -5   7   40.10    2.50
   0   5   7   36.60    3.70
   0   5  -7   29.30    3.40
  -1  -5  -7  121.89    5.50
  -1  -5  -7  128.29    5.30
   1  -5   7  127.09    6.10
   1  -5   7  131.99    4.90
   1   5   7  133.69    7.00
  -1   5  -7  138.39    7.10
  -2  -5  -7  565.24   15.20
   2  -5   7  561.04   16.90
   2  -5   7  592.44   14.80
  -2  -5  -7  557.64   15.70
   2   5   7  584.54   17.90
  -2   5  -7  601.24   18.70
  -3  -6   7   18.10    1.90
   3  -6  -7   21.70    2.60
  -3   6   7   30.60    5.30
   3   6  -7   23.30    3.90
   2  -6  -7   57.29    3.40
  -2  -6   7   58.19    3.10
   2   6  -7   55.79    4.50
  -2   6   7   56.29    5.00
  -1  -6   7   12.20    1.90
   1  -6  -7   12.90    2.20
  -1   6   7   17.60    3.90
   1   6  -7   16.70    3.30
   0  -6   7   62.89    3.20
   0  -6   7   62.29    4.20
   0  -6  -7   63.09    3.60
   0   6  -7   60.29    4.60
   0   6   7   67.39    5.00
   1  -6   7   26.80    3.10
  -1  -6  -7   24.50    2.60
   1  -6   7   20.30    2.10
  -1   6  -7   28.80    4.40
   1   6   7   29.70    3.60
  -2  -6  -7    4.60    1.80
   2  -6   7    7.30    2.50
  -2   6  -7    6.60    2.80
   2   6   7    7.40    2.90
  -3  -7   7   88.19    4.00
   3   7  -7   79.19    5.40
  -3   7   7   79.99    6.20
  -2  -7   7  236.18    7.30
   2  -7  -7  233.48    7.70
   2   7  -7  231.68    9.70
  -2   7   7  236.78   10.50
   1  -7  -7  625.24   15.90
  -1  -7   7  623.74   15.30
  -1   7   7  632.54   19.00
   1   7  -7  617.24   18.40
   0  -7   7   56.99    3.10
   0  -7  -7   52.79    3.40
   0   7   7   58.89    4.90
   0   7  -7   56.59    4.60
  -1  -7  -7  383.06   11.40
   1  -7   7  402.36   10.50
   1  -7   7  385.26   12.30
  -1   7  -7  389.56   13.80
   1   7   7  401.56   13.90
   2  -7   7  141.39    7.10
  -2  -7  -7  142.29    6.20
   2   7   7  145.29    7.90
   2  -8  -7  142.59    5.80
  -2  -8   7  144.49    5.40
  -2   8   7  146.59    8.10
   2   8  -7  136.99    7.40
   1  -8  -7   50.49    3.40
  -1  -8   7   47.30    2.90
   1   8  -7   52.99    4.40
  -1   8   7   50.79    4.60
   0  -8   7  411.36   10.90
   0  -8  -7  409.86   11.80
   0   8  -7  402.86   13.80
   0   8   7  410.76   14.30
   1  -8   7  151.88    6.90
  -1  -8  -7  149.88    6.30
   1  -8   7  158.18    5.50
   1   8   7  139.49    7.90
  -1   8  -7  161.38    8.20
  -2  -9   7   10.20    1.90
   2  -9  -7    8.90    2.10
   2   9  -7   13.40    3.20
  -2   9   7   14.30    3.80
  -1  -9   7   38.40    2.60
   1  -9  -7   36.10    3.00
  -1   9   7   34.90    4.20
   1   9  -7   37.70    3.90
   0  -9   7   10.70    1.90
   0  -9  -7   12.00    2.40
   0   9  -7   13.50    3.20
   0   9   7   13.30    3.60
   1  -9   7    1.90    1.20
  -1  -9  -7    2.10    1.50
   1  -9   7    4.40    2.40
  -1   9  -7    5.10    2.30
   1   9   7    2.90    2.40
  -2 -10   7  312.87    9.20
   2 -10  -7  317.67    9.80
   2  10  -7  282.87   11.60
  -2  10   7  311.37   12.70
   1 -10  -7   20.40    2.90
  -1 -10   7   19.10    2.10
   1  10  -7   25.80    4.30
  -1  10   7   32.40    5.40
   0 -10   7  614.94   15.40
   0 -10  -7  611.14   16.40
   0  10  -7  625.34   18.80
   0  10   7  618.94   19.30
  -1 -10  -7  222.58    8.10
   1 -10   7  220.98    7.10
  -1  10  -7  218.48   10.00
   1  10   7  217.08   10.10
   1 -11  -7   51.69    3.70
  -1 -11   7   54.29    3.30
  -1  11   7   53.09    5.10
   1  11  -7   55.49    4.70
   0 -11  -7    2.10    1.70
   0 -11   7    1.70    1.30
   0  11   7    4.20    2.50
   0  11  -7    2.70    1.90
   2   0  -8  379.86   12.90
  -2   0   8  385.16   10.70
  -1   0   8  472.35   15.40
   1   0  -8  486.15   14.50
  -1   0   8  483.95   12.70
   0   0  -8   28.50    3.90
   0   0   8   19.50    2.90
   0   0   8   20.60    2.50
   1   0   8  352.86   10.20
  -1   0  -8  358.86   12.00
   1   0   8  339.97   12.40
  -2  -1   8   34.70    2.60
   2  -1  -8   37.30    3.70
  -2   1   8   31.50    2.50
   2   1  -8   30.40    3.60
  -1  -1   8   13.60    2.00
   1  -1  -8   11.70    2.60
   1   1  -8   12.50    2.90
  -1   1   8   18.70    3.90
  -1   1   8   11.50    1.90
   0  -1  -8   55.69    4.00
   0  -1   8   52.89    4.30
   0  -1   8   51.99    3.10
   0   1   8   50.99    3.10
   0   1  -8   51.79    4.00
   0   1   8   56.49    4.50
   1  -1   8   27.70    3.60
  -1  -1  -8   29.10    4.00
   1  -1   8   24.60    2.40
   1   1   8   22.80    2.40
  -1   1  -8   28.20    4.20
   1   1   8   28.80    3.80
  -2  -2   8  322.87    9.40
   2  -2  -8  321.87   11.10
   2   2  -8  318.87   11.80
  -2   2   8  318.87    9.40
  -1  -2   8  380.66   10.50
   1  -2  -8  381.96   11.90
  -1   2   8  377.76   10.70
   1   2  -8  377.76   12.70
  -1   2   8  391.26   13.50
   0  -2   8    2.20    1.10
   0  -2   8    3.50    2.00
   0  -2  -8    2.10    1.70
   0   2  -8    2.30    1.90
   0   2   8    1.60    1.00
   0   2   8    2.80    1.90
   1  -2   8  185.78    8.40
   1  -2   8  178.88    6.40
  -1  -2  -8  199.58    6.90
  -1  -2  -8  189.38    7.80
   1   2   8  186.28    8.80
  -1   2  -8  193.78    8.50
  -2  -3   8  138.99    5.40
   2  -3  -8  139.89    6.60
  -2   3   8  141.39    5.50
  -2   3   8  139.29    8.10
   2   3  -8  135.39    7.30
   1  -3  -8   97.69    5.10
  -1  -3   8   98.29    4.40
  -1   3   8  105.19    4.60
   1   3  -8   98.69    5.90
  -1   3   8  100.89    6.30
   0  -3   8  383.36   10.70
   0  -3   8  385.86   12.70
   0  -3  -8  400.96   12.10
   0   3   8  396.86   13.70
   0   3  -8  411.76   13.30
   0   3   8  390.96   11.10
  -1  -3  -8   84.19    4.30
   1  -3   8   73.79    3.80
   1  -3   8   79.79    5.30
  -1  -3  -8   84.09    5.00
  -1   3  -8   82.79    5.50
   1   3   8   83.99    5.90
  -2  -4   8   19.90    2.10
  -2   4   8   29.40    5.40
  -2   4   8   20.00    2.10
   2   4  -8   22.10    4.10
  -1  -4   8   55.59    3.20
   1  -4  -8   46.70    4.30
  -1   4   8   51.59    3.20
   1   4  -8   55.49    4.50
  -1   4   8   51.19    4.70
   0  -4   8    5.10    2.10
   0  -4  -8    3.50    1.50
   0  -4   8    4.40    1.40
   0  -4  -8    4.30    1.80
   0   4   8    5.60    2.50
   0   4  -8    2.40    1.90
  -1  -4  -8   28.30    3.20
   1  -4   8   22.30    2.30
   1  -4   8   25.30    3.30
  -1  -4  -8   25.40    2.70
   1   4   8   24.90    3.70
  -1   4  -8   32.90    4.80
  -2  -5   8   89.59    4.20
   2  -5  -8   80.39    4.30
  -2   5   8   93.09    6.70
   2   5  -8   84.09    5.80
   1  -5  -8   63.09    3.80
  -1  -5   8   69.19    3.60
   1   5  -8   67.49    5.10
  -1   5   8   71.09    5.50
   0  -5  -8  473.75   13.20
   0  -5   8  493.45   12.80
   0   5  -8  486.85   15.60
   0   5   8  479.05   16.00
   1  -5   8  106.19    6.10
   1  -5   8  105.69    4.60
  -1  -5  -8  101.89    5.00
   1   5   8  109.79    6.80
  -1   5  -8  109.69    6.70
  -1  -6   8   48.20    3.10
   1  -6  -8   47.30    3.40
  -1   6   8   47.20    4.70
   1   6  -8   53.79    4.60
   0  -6  -8    4.40    1.80
   0  -6   8    6.10    1.50
   0   6  -8    6.90    2.50
   0   6   8    4.70    2.50
   1  -7  -8   92.29    4.70
  -1  -7   8   89.29    4.30
   1   7  -8   85.19    5.90
  -1   7   8   91.59    6.40
   0  -7  -8  374.26   11.30
   0  -7   8  374.06   10.50
   0   7  -8  367.06   13.40
   0   7   8  374.46   13.90
   0   0   0    0.00    0.00
_computing_structure_solution     'SHELXT 2018/2 (Sheldrick, 2018)'
;
_shelx_hkl_checksum              31028
_shelx_res_file
;
TITL eb752_a.res in P2(1)/m
    E:\SOLVED~1\EB751-~1\EB752_~1\eb752_a.res
    created by SHELXL-2018/3 at 12:17:43 on 15-Jul-2022
CELL 0.71073 4.1810 15.0336 6.7970 90.000 96.506 90.000
ZERR 2.0000 0.0005 0.0017 0.0008 0.000 0.002 0.000
LATT 1
SYMM -X, 0.5+Y, -Z
SFAC C H N O I
UNIT 12 6 2 4 4
BOND
BOND $H
RTAB IODIST I1 O1_$1
RTAB IOANG C3 I1 O1_$1
RTAB IIDIST I1 I1_$2
RTAB IIANG C3 I1 I1_$2
EQIV $1 1-X,1-Y,1-Z
EQIV $2 2-X,1-Y,-Z
HTAB C2 I1_$1
ACTA
FMAP 2 1 53
PLAN 20 0 0
HTAB 2.0
LIST 4 1
TEMP -173
L.S. 16
WGHT    0.000000    1.402100
FVAR       0.41149
I1    5    0.833162    0.449772    0.220233    11.00000    0.02045    0.01361 =
         0.01868    0.00277    0.00633   -0.00068
O1    4    0.266961    0.321771    0.856275    11.00000    0.04471    0.01972 =
         0.02635   -0.00617    0.02025    0.00074
N1    3    0.336464    0.250000    0.787910    10.50000    0.01738    0.01704 =
         0.01537    0.00000    0.00188    0.00000
C1    1    0.503233    0.250000    0.606638    10.50000    0.01153    0.01764 =
         0.01202    0.00000    0.00091    0.00000
C2    1    0.575457    0.331248    0.525617    11.00000    0.01418    0.01341 =
         0.01574   -0.00087    0.00086    0.00082
AFIX  43
H2    2    0.524333    0.385788    0.585351    11.00000   -1.20000
AFIX   0
C3    1    0.725515    0.329562    0.353656    11.00000    0.01343    0.01201 =
         0.01612    0.00199    0.00092   -0.00180
C4    1    0.803291    0.250000    0.267185    10.50000    0.01159    0.02126 =
         0.01228    0.00000    0.00189    0.00000
AFIX  43
H4    2    0.908365    0.250000    0.150367    10.50000   -1.20000
AFIX   0
HKLF 4
REM  eb752_a.res in P2(1)/m
REM wR2 = 0.0404, GooF = S = 1.345, Restrained GooF = 1.345 for all data
REM R1 = 0.0191 for 974 Fo > 4sig(Fo) and 0.0196 for all 982 data
REM 55 parameters refined using 0 restraints
END
WGHT      0.0000      1.4021
REM Instructions for potential hydrogen bonds
HTAB C2 I1_$1
REM Highest difference peak  0.770,  deepest hole -0.751,  1-sigma level  0.108
Q1    1   0.4958  0.3503  0.6680  11.00000  0.05    0.77
Q2    1   0.7130  0.4393  0.1021  11.00000  0.05    0.58
Q3    1   0.1481  0.3469  0.7624  11.00000  0.05    0.57
Q4    1   0.4967  0.4545  0.3409  11.00000  0.05    0.49
Q5    1   0.9629  0.4743  0.3586  11.00000  0.05    0.41
Q6    1   0.8849  0.4351  0.3425  11.00000  0.05    0.40
Q7    1   0.4173  0.2500  0.6836  10.50000  0.05    0.39
Q8    1   0.5986  0.3360  0.4212  11.00000  0.05    0.37
Q9    1   0.1776  0.3278  0.9430  11.00000  0.05    0.36
Q10   1   0.3772  0.2500  0.2803  10.50000  0.05    0.35
Q11   1   0.5223  0.2155  0.5578  11.00000  0.05    0.34
Q12   1   0.8715  0.2500  0.3790  10.50000  0.05    0.33
Q13   1   0.9450  0.4218  0.1227  11.00000  0.05    0.30
Q14   1   1.0929  0.4791  0.5005  11.00000  0.05    0.30
Q15   1   0.6757  0.3422  0.2476  11.00000  0.05    0.29
Q16   1   1.1691  0.2500  0.0976  10.50000  0.05    0.28
Q17   1   0.5154  0.4485 -0.0181  11.00000  0.05    0.28
Q18   1   0.6557  0.2248  0.3241  11.00000  0.05    0.28
Q19   1   0.2458  0.2830  0.8240  11.00000  0.05    0.27
Q20   1   0.3985  0.3389  0.9016  11.00000  0.05    0.27
;
_shelx_res_checksum              36604
loop_
_space_group_symop_operation_xyz
'x, y, z'
'-x, y+1/2, -z'
'-x, -y, -z'
'x, -y-1/2, z'
loop_
_atom_site_type_symbol
_atom_site_label
_atom_site_fract_x
_atom_site_fract_y
_atom_site_fract_z
_atom_site_U_iso_or_equiv
_atom_site_adp_type
_atom_site_calc_flag
_atom_site_occupancy
_atom_site_disorder_assembly
_atom_site_disorder_group
I I1 0.83316(5) 0.44977(2) 0.22023(3) 0.01726(8) Uani d 1 . .
O O1 0.2670(7) 0.32177(18) 0.8563(4) 0.0290(6) Uani d 1 . .
N N1 0.3365(10) 0.250000 0.7879(6) 0.0166(8) Uani d 1 . .
C C1 0.5032(11) 0.250000 0.6066(7) 0.0138(9) Uani d 1 . .
C C2 0.5755(8) 0.3312(2) 0.5256(5) 0.0145(6) Uani d 1 . .
H H2 0.524333 0.385788 0.585351 0.017 Uiso calc 1 . .
C C3 0.7255(8) 0.3296(2) 0.3537(5) 0.0139(6) Uani d 1 . .
C C4 0.8033(11) 0.250000 0.2672(7) 0.0150(9) Uani d 1 . .
H H4 0.908365 0.250000 0.150367 0.018 Uiso calc 1 . .
loop_
_atom_site_aniso_label
_atom_site_aniso_U_11
_atom_site_aniso_U_22
_atom_site_aniso_U_33
_atom_site_aniso_U_12
_atom_site_aniso_U_13
_atom_site_aniso_U_23
I1 0.02045(12) 0.01361(12) 0.01868(12) -0.00068(8) 0.00633(8) 0.00277(8)
O1 0.0447(17) 0.0197(14) 0.0264(14) 0.0007(12) 0.0202(12) -0.0062(11)
N1 0.017(2) 0.017(2) 0.0154(19) 0.000 0.0019(16) 0.000
C1 0.012(2) 0.018(2) 0.012(2) 0.000 0.0009(17) 0.000
C2 0.0142(15) 0.0134(15) 0.0157(15) 0.0008(12) 0.0009(12) -0.0009(12)
C3 0.0134(14) 0.0120(15) 0.0161(15) -0.0018(12) 0.0009(12) 0.0020(12)
C4 0.012(2) 0.021(2) 0.012(2) 0.000 0.0019(17) 0.000
loop_
_atom_type_symbol
_atom_type_description
_atom_type_scat_dispersion_real
_atom_type_scat_dispersion_imag
_atom_type_scat_source
C C 0.0033 0.0016 'International Tables Vol C Tables 4.2.6.8 and 6.1.1.4'
H H 0.0000 0.0000 'International Tables Vol C Tables 4.2.6.8 and 6.1.1.4'
N N 0.0061 0.0033 'International Tables Vol C Tables 4.2.6.8 and 6.1.1.4'
O O 0.0106 0.0060 'International Tables Vol C Tables 4.2.6.8 and 6.1.1.4'
I I -0.4742 1.8119 'International Tables Vol C Tables 4.2.6.8 and 6.1.1.4'
loop_
_geom_angle_atom_site_label_1
_geom_angle_atom_site_label_2
_geom_angle_atom_site_label_3
_geom_angle_site_symmetry_1
_geom_angle_site_symmetry_3
_geom_angle
_geom_angle_publ_flag
O1 N1 O1 4_565 . 123.9(4) ?
O1 N1 C1 4_565 . 118.0(2) ?
O1 N1 C1 . . 118.0(2) ?
C2 C1 C2 . 4_565 123.4(4) ?
C2 C1 N1 . . 118.3(2) ?
C2 C1 N1 4_565 . 118.3(2) ?
C1 C2 C3 . . 117.2(3) ?
C1 C2 H2 . . 121.4 ?
C3 C2 H2 . . 121.4 ?
C4 C3 C2 . . 121.5(3) ?
C4 C3 I1 . . 119.2(2) ?
C2 C3 I1 . . 119.3(2) ?
C3 C4 C3 4_565 . 119.1(4) ?
C3 C4 H4 4_565 . 120.5 ?
C3 C4 H4 . . 120.5 ?
loop_
_geom_bond_atom_site_label_1
_geom_bond_atom_site_label_2
_geom_bond_site_symmetry_2
_geom_bond_distance
_geom_bond_publ_flag
I1 C3 . 2.094(3) ?
O1 N1 . 1.223(3) ?
N1 C1 . 1.483(6) ?
C1 C2 . 1.387(4) ?
C1 C2 4_565 1.387(4) ?
C2 C3 . 1.388(5) ?
C2 H2 . 0.9500 ?
C3 C4 . 1.388(4) ?
C4 H4 . 0.9500 ?
loop_
_geom_hbond_atom_site_label_D
_geom_hbond_atom_site_label_H
_geom_hbond_atom_site_label_A
_geom_hbond_site_symmetry_A
_geom_hbond_distance_DH
_geom_hbond_distance_HA
_geom_hbond_distance_DA
_geom_hbond_angle_DHA
_geom_hbond_publ_flag
C2 H2 I1 3_666 0.95 3.25 4.172(3) 165.3 yes
