#------------------------------------------------------------------------------
#$Date: 2022-08-23 04:39:56 +0300 (Tue, 23 Aug 2022) $
#$Revision: 277355 $
#$URL: file:///home/coder/svn-repositories/cod/cif/2/02/26/2022652.cif $
#------------------------------------------------------------------------------
#
# This file is available in the Crystallography Open Database (COD),
# http://www.crystallography.net/. The original data for this entry
# were provided by IUCr Journals, http://journals.iucr.org/.
#
# The file may be used within the scientific community so long as
# proper attribution is given to the journal article from which the
# data were obtained.
#
data_2022652
loop_
_publ_author_name
'Craig, Andrew J.'
'Shin, Seung Han'
'Cho, Jeong Bin'
'Balijapelly, Srikanth'
'Kelly, Jordan C.'
'Stoyko, Stanislav S.'
'Choudhury, Amitava'
'Jang, Joon I.'
'Aitken, Jennifer A.'
_publ_section_title
;
 Crystal structure, electronic structure, and optical properties of the
 novel Li~4~CdGe~2~S~7~, a wide-bandgap quaternary sulfide with a polar
 structure derived from lonsdaleite
;
_journal_coeditor_code           WP3029
_journal_issue                   9
_journal_name_full               'Acta Crystallographica Section C'
_journal_page_first
;
;
_journal_paper_doi               10.1107/S2053229622008014
_journal_volume                  78
_journal_year                    2022
_chemical_formula_iupac          'Li4 Cd Ge2 S7'
_chemical_formula_sum            'Cd Ge2 Li4 S7'
_chemical_formula_weight         509.76
_chemical_name_systematic
;
Tetralithium cadmium digermanium heptasulfide
;
_space_group_crystal_system      monoclinic
_space_group_IT_number           9
_space_group_name_Hall           'C -2yc'
_space_group_name_H-M_alt        'C 1 c 1'
_audit_creation_method           SHELXL-2018/3
_cell_angle_alpha                90
_cell_angle_beta                 93.710(3)
_cell_angle_gamma                90
_cell_formula_units_Z            4
_cell_length_a                   16.8354(10)
_cell_length_b                   6.7870(4)
_cell_length_c                   10.1499(6)
_cell_measurement_reflns_used    7524
_cell_measurement_temperature    293(2)
_cell_measurement_theta_max      32.988
_cell_measurement_theta_min      2.4245
_cell_volume                     1157.32(12)
_computing_cell_refinement
;
SMART (Bruker, 2010)
;
_computing_data_collection
;
APEX2 (Bruker, 2010)
;
_computing_data_reduction
;
SMART (Bruker, 2010)
;
_computing_molecular_graphics
;
CrystalMaker (Palmer, 2019)
;
_computing_publication_material
;
SHELXL2018 (Sheldrick, 2015b)
;
_computing_structure_refinement
;
SHELXL2018 (Sheldrick, 2015b)
;
_computing_structure_solution
;
SHELXT (Sheldrick, 2015a)
;
_diffrn_ambient_temperature      293(2)
_diffrn_measured_fraction_theta_full 1.000
_diffrn_measured_fraction_theta_max 1.000
_diffrn_measurement_device_type  'Bruker SMART APEXII'
_diffrn_measurement_method       '\f and \w scan'
_diffrn_radiation_type           MoK\a
_diffrn_radiation_wavelength     0.71073
_diffrn_reflns_av_R_equivalents  0.0172
_diffrn_reflns_av_unetI/netI     0.0171
_diffrn_reflns_limit_h_max       21
_diffrn_reflns_limit_h_min       -21
_diffrn_reflns_limit_k_max       8
_diffrn_reflns_limit_k_min       -8
_diffrn_reflns_limit_l_max       13
_diffrn_reflns_limit_l_min       -13
_diffrn_reflns_number            7415
_diffrn_reflns_theta_full        25.242
_diffrn_reflns_theta_max         27.481
_diffrn_reflns_theta_min         2.425
_exptl_absorpt_coefficient_mu    8.182
_exptl_absorpt_correction_T_max  0.7465
_exptl_absorpt_correction_T_min  0.5493
_exptl_absorpt_correction_type   multi-scan
_exptl_absorpt_process_details
;
(SADABS; Sheldrick, 2002)
;
_exptl_crystal_colour            colourless
_exptl_crystal_density_diffrn    2.926
_exptl_crystal_description       polyhedra
_exptl_crystal_F_000             944
_exptl_crystal_size_max          0.210
_exptl_crystal_size_mid          0.115
_exptl_crystal_size_min          0.105
_refine_diff_density_max         0.269
_refine_diff_density_min         -0.210
_refine_ls_abs_structure_details
;
Refined as an inversion twin.
;
_refine_ls_abs_structure_Flack   0.001(5)
_refine_ls_extinction_coef       0.00183(7)
_refine_ls_extinction_expression Fc^*^=kFc[1+0.001xFc^2^\l^3^/sin(2\q)]^-1/4^
_refine_ls_extinction_method
;
SHELXL2018 (Sheldrick, 2015b)
;
_refine_ls_goodness_of_fit_ref   1.076
_refine_ls_hydrogen_treatment    undef
_refine_ls_matrix_type           full
_refine_ls_number_parameters     129
_refine_ls_number_reflns         2634
_refine_ls_number_restraints     2
_refine_ls_restrained_S_all      1.075
_refine_ls_R_factor_all          0.0104
_refine_ls_R_factor_gt           0.0102
_refine_ls_shift/su_max          0.001
_refine_ls_shift/su_mean         0.000
_refine_ls_structure_factor_coef Fsqd
_refine_ls_weighting_details
'w=1/[\s^2^(Fo^2^)+(0.0097P)^2^+0.0293P] where P=(Fo^2^+2Fc^2^)/3'
_refine_ls_weighting_scheme      calc
_refine_ls_wR_factor_gt          0.0239
_refine_ls_wR_factor_ref         0.0239
_reflns_number_gt                2612
_reflns_number_total             2634
_reflns_threshold_expression     'I > 2\s(I)'
_cod_data_source_file            wp3029sup1.cif
_cod_data_source_block           I
_cod_original_sg_symbol_H-M      'C c'
_cod_database_code               2022652
_shelx_space_group_comment
;
The symmetry employed for this shelxl refinement is uniquely defined
by the following loop, which should always be used as a source of
symmetry information in preference to the above space-group names.
They are only intended as comments.
;
_shelx_estimated_absorpt_t_min   0.278
_shelx_estimated_absorpt_t_max   0.480
_shelx_hkl_file
;
  -2   0   0   36.95    0.64
   2   0   0   39.23    0.72
  -2   0   0   37.72    0.65
  -4   0   0   20.37    0.39
   4   0   0   20.66    0.39
  -4   0   0   20.58    0.41
  -4   0   0   20.16    0.35
  -6   0   0  221.62    3.78
   6   0   0  228.96    4.11
   6   0   0  225.56    4.11
  -6   0   0  220.44    4.05
  -6   0   0  230.75    4.05
  -8   0   0  162.26    2.82
  -8   0   0  165.14    2.76
   8   0   0  166.26    2.83
  -8   0   0  159.54    2.74
   8   0   0  160.86    2.77
 -10   0   0   38.57    0.78
  10   0   0   39.01    0.83
 -10   0   0   38.96    0.83
  10   0   0   39.47    0.76
  12   0   0   20.51    0.47
 -12   0   0   19.81    0.54
  12   0   0   20.79    0.55
 -12   0   0   19.23    0.48
 -14   0   0   30.88    0.71
  14   0   0   29.88    0.65
 -14   0   0   31.73    0.79
  14   0   0   28.61    0.74
  16   0   0   21.57    0.64
 -16   0   0   22.00    0.66
  16   0   0   22.20    0.54
  18   0   0   10.51    0.35
  18   0   0   10.87    0.45
 -18   0   0    8.68    0.41
 -20   0   0   65.56    1.54
  20   0   0   64.84    1.48
  20   0   0   65.31    1.31
 -22   0   0   22.96    0.80
  22   0   0   21.15    0.58
  22   0   0   20.69    0.73
 -24   0   0    0.75    0.21
  24   0   0    1.97    0.27
   1  -1   0  106.18    1.84
  -1   1   0  106.61    1.88
   1   1   0  108.85    1.97
   3  -1   0    0.47    0.03
  -3  -1   0    0.24    0.03
   3  -1   0    0.35    0.04
  -3   1   0    0.35    0.04
  -3   1   0    0.32    0.03
  -3   1   0    0.34    0.03
   3   1   0    0.40    0.02
   3   1   0    0.34    0.04
  -5  -1   0   23.91    0.50
   5  -1   0   24.04    0.47
   5  -1   0   23.95    0.51
  -5   1   0   24.20    0.45
   5   1   0   23.96    0.49
   5   1   0   24.14    0.43
   5   1   0   24.32    0.43
   7  -1   0  208.01    3.72
   7  -1   0  205.28    3.46
  -7  -1   0  208.41    3.77
  -7  -1   0  206.02    3.50
   7   1   0  198.18    3.48
  -7   1   0  204.77    3.66
  -7   1   0  209.18    3.71
   7   1   0  200.19    3.57
   7   1   0  199.27    3.62
  -7   1   0  221.01    3.78
  -9  -1   0   12.15    0.36
   9  -1   0   12.93    0.38
   9  -1   0   13.52    0.33
  -9  -1   0   12.44    0.31
   9   1   0   12.79    0.36
  -9   1   0   12.62    0.28
  -9   1   0   12.09    0.35
   9   1   0   13.19    0.29
   9   1   0   13.07    0.30
  -9   1   0   12.03    0.32
  11  -1   0    4.68    0.19
 -11  -1   0    5.59    0.25
  11  -1   0    4.50    0.23
 -11  -1   0    5.87    0.21
  11   1   0    4.38    0.17
 -11   1   0    5.89    0.22
 -11   1   0    5.81    0.17
  11   1   0    5.04    0.23
 -11   1   0    6.24    0.25
  11   1   0    4.86    0.16
  13  -1   0   32.17    0.78
 -13  -1   0   29.91    0.77
  13  -1   0   31.95    0.70
 -13   1   0   32.85    0.71
 -13   1   0   31.45    0.77
  13   1   0   32.76    0.65
  13   1   0   31.20    0.77
  15  -1   0   28.25    0.75
 -15  -1   0   28.92    0.78
  15  -1   0   29.70    0.68
  15   1   0   29.27    0.62
 -15   1   0   30.00    0.71
 -15   1   0   29.68    0.78
  15   1   0   28.31    0.75
  17  -1   0    0.74    0.12
 -17  -1   0    1.10    0.17
  17  -1   0    0.56    0.13
 -17   1   0    1.43    0.19
 -17   1   0    1.49    0.17
  17   1   0    0.65    0.14
  17   1   0    0.79    0.10
  19  -1   0    2.91    0.20
 -19  -1   0    2.96    0.27
  19  -1   0    2.73    0.24
 -19   1   0    2.85    0.26
  19   1   0    2.87    0.26
  19   1   0    3.16    0.17
 -19   1   0    3.04    0.24
 -21  -1   0   14.37    0.61
  21  -1   0   17.39    0.64
  21  -1   0   17.83    0.54
  21   1   0   17.91    0.46
  21   1   0   17.05    0.64
 -21   1   0   15.28    0.61
  23  -1   0    3.79    0.25
  23  -1   0    4.43    0.35
 -23  -1   0    3.70    0.33
 -23   1   0    3.63    0.35
  23   1   0    4.13    0.19
  23   1   0    4.00    0.34
  25  -1   0    2.52    0.44
 -25   1   0    2.18    0.32
   0   2   0  346.55    6.06
   0   2   0  331.37    6.05
   0   2   0  358.69    5.97
   2  -2   0    0.38    0.05
   2   2   0    0.41    0.04
  -2   2   0    0.59    0.05
  -2   2   0    0.45    0.04
   2   2   0    0.35    0.04
   2   2   0    0.49    0.06
  -4  -2   0   18.41    0.41
   4  -2   0   21.26    0.42
   4  -2   0   21.52    0.47
  -4   2   0   19.28    0.37
  -4   2   0   18.91    0.36
   4   2   0   22.43    0.41
   4   2   0   21.80    0.46
  -4   2   0   18.72    0.40
  -4   2   0   18.80    0.40
   6  -2   0   14.00    0.37
   6  -2   0   14.24    0.33
  -6  -2   0   13.28    0.35
  -6   2   0   13.91    0.32
  -6   2   0   13.86    0.34
  -6   2   0   13.41    0.31
   6   2   0   14.26    0.27
   6   2   0   14.37    0.36
   8  -2   0   10.68    0.33
   8  -2   0   11.27    0.29
  -8  -2   0    9.53    0.31
  -8   2   0    9.79    0.26
  -8   2   0    9.27    0.29
  -8   2   0    9.77    0.27
   8   2   0   11.01    0.33
 -10  -2   0   46.33    0.97
  10  -2   0   46.41    0.92
  10  -2   0   45.97    0.98
  10   2   0   48.00    0.98
 -10   2   0   43.71    0.90
 -10   2   0   46.85    0.88
  12  -2   0    0.50    0.10
  12  -2   0    0.62    0.09
 -12  -2   0    0.51    0.10
  12   2   0    0.56    0.10
 -12   2   0    0.68    0.08
 -12   2   0    0.45    0.08
 -12   2   0    0.62    0.11
  14  -2   0    3.65    0.24
 -14  -2   0    2.67    0.21
  14  -2   0    3.77    0.20
  14   2   0    4.08    0.12
 -14   2   0    2.72    0.20
 -14   2   0    2.78    0.18
  14   2   0    3.72    0.24
  14   2   0    4.26    0.11
  16  -2   0    0.50    0.12
 -16  -2   0    0.87    0.15
  16  -2   0    0.89    0.13
 -16   2   0    1.28    0.15
 -16   2   0    1.90    0.22
  16   2   0    0.74    0.15
  16   2   0    0.66    0.05
  18  -2   0    0.26    0.12
  18  -2   0    0.34    0.10
 -18  -2   0    0.14    0.10
  18   2   0    0.41    0.13
 -18   2   0    0.08    0.09
 -18   2   0    0.10    0.10
  20  -2   0   14.27    0.56
  20  -2   0   15.00    0.50
 -20  -2   0   15.13    0.61
 -20   2   0   14.43    0.51
  20   2   0   14.29    0.57
 -20   2   0   14.49    0.58
  22  -2   0    2.90    0.24
  22  -2   0    3.15    0.32
 -22  -2   0    3.55    0.37
 -22   2   0    3.70    0.33
 -22   2   0    3.21    0.28
  22   2   0    2.50    0.29
  24  -2   0    0.25    0.16
 -24  -2   0    0.24    0.16
 -24   2   0    0.51    0.20
 -24   2   0    0.39    0.18
  24   2   0    0.28    0.17
   1  -3   0  140.78    2.43
   1   3   0  137.68    2.50
  -1   3   0  144.58    2.61
   1   3   0  143.68    2.41
   1   3   0  141.58    2.43
  -1   3   0  145.07    2.48
   3  -3   0   15.35    0.38
   3   3   0   15.60    0.34
   3   3   0   15.81    0.37
   3   3   0   15.36    0.38
  -3   3   0   12.57    0.32
  -3   3   0   12.86    0.30
   5  -3   0   21.48    0.45
   5  -3   0   22.88    0.52
  -5  -3   0   22.67    0.51
  -5   3   0   21.96    0.48
  -5   3   0   21.94    0.42
  -5   3   0   22.25    0.42
   5   3   0   21.99    0.44
  -5   3   0   22.01    0.49
   5   3   0   22.09    0.51
  -7  -3   0  411.54    7.52
   7  -3   0  379.02    6.71
   7  -3   0  386.79    6.49
  -7   3   0  392.19    6.98
   7   3   0  389.76    6.54
   7   3   0  386.53    6.93
  -7   3   0  417.47    7.18
  -7   3   0  419.07    6.90
  -7   3   0  386.62    6.97
   9  -3   0    6.89    0.24
  -9  -3   0    7.13    0.28
   9   3   0    7.26    0.28
   9   3   0    6.92    0.16
  -9   3   0    7.32    0.25
  -9   3   0    7.09    0.27
  -9   3   0    7.98    0.24
  11  -3   0    8.89    0.35
 -11  -3   0   11.87    0.41
  11  -3   0    8.77    0.29
 -11   3   0   13.19    0.37
 -11   3   0   13.53    0.37
 -11   3   0   13.41    0.41
  11   3   0    8.88    0.34
 -13  -3   0   74.59    1.55
  13  -3   0   79.03    1.51
  13  -3   0   79.16    1.60
 -13   3   0   75.59    1.41
 -13   3   0   76.14    1.44
 -13   3   0   72.82    1.51
  13   3   0   78.50    1.60
  15  -3   0   64.57    1.31
 -15  -3   0   64.95    1.42
  15  -3   0   64.76    1.40
 -15   3   0   62.09    1.28
  15   3   0   63.29    1.40
 -17  -3   0   13.35    0.53
  17  -3   0    9.24    0.37
  17  -3   0    9.04    0.42
  17   3   0    9.22    0.43
 -17   3   0   12.28    0.49
 -17   3   0   13.71    0.45
  19  -3   0    3.59    0.25
  19  -3   0    3.38    0.29
 -19  -3   0    3.75    0.31
  19   3   0    3.68    0.30
 -19   3   0    3.72    0.25
 -19   3   0    4.33    0.32
  21  -3   0   50.12    1.27
 -21  -3   0   44.04    1.21
  21  -3   0   51.03    1.18
 -21   3   0   44.43    1.18
  21   3   0   52.16    1.33
 -21   3   0   42.64    1.05
  23  -3   0    8.97    0.52
  23  -3   0    8.14    0.48
 -23  -3   0    6.71    0.46
  23   3   0    8.33    0.48
   0  -4   0  280.98    4.86
   0   4   0  296.89    5.06
   0   4   0  283.61    5.01
   2  -4   0   11.61    0.33
   2   4   0   11.94    0.31
  -2   4   0   10.50    0.31
  -2   4   0   10.42    0.27
   2   4   0   11.42    0.31
   2   4   0   11.72    0.34
   4  -4   0    6.96    0.25
   4   4   0    6.94    0.21
   4   4   0    6.45    0.25
  -4   4   0    7.50    0.22
   4   4   0    6.56    0.23
  -4   4   0    7.44    0.26
  -6  -4   0   74.55    1.44
   6  -4   0   77.54    1.48
  -6   4   0   76.73    1.42
   6   4   0   78.54    1.38
   6   4   0   75.51    1.48
  -6   4   0   75.76    1.40
  -8  -4   0   67.87    1.32
   8  -4   0   67.82    1.35
  -8   4   0   65.06    1.18
  -8   4   0   65.44    1.28
  -8   4   0   65.33    1.23
   8   4   0   65.35    1.34
   8   4   0   68.08    1.20
  -8   4   0   66.05    1.28
  10  -4   0    8.01    0.34
 -10  -4   0    7.63    0.32
 -10   4   0    7.44    0.24
 -10   4   0    7.78    0.28
  10   4   0    7.49    0.32
 -10   4   0    7.54    0.30
  12  -4   0   24.91    0.69
 -12  -4   0   26.84    0.71
 -12   4   0   25.30    0.67
  12   4   0   24.32    0.68
 -12   4   0   24.17    0.58
 -12   4   0   24.62    0.61
 -14  -4   0   14.68    0.52
  14  -4   0   11.98    0.46
  14   4   0   12.05    0.46
 -14   4   0   14.56    0.44
 -14   4   0   14.82    0.51
 -14   4   0   15.87    0.44
  16  -4   0   19.75    0.65
 -16  -4   0   17.70    0.63
 -16   4   0   18.71    0.52
  16   4   0   19.29    0.64
 -16   4   0   17.49    0.81
 -18  -4   0    9.44    0.47
  18  -4   0    9.47    0.45
  18   4   0    9.00    0.45
 -18   4   0    8.62    0.36
 -20  -4   0    7.53    0.45
  20  -4   0    7.87    0.44
  20   4   0    8.11    0.45
 -20   4   0    7.78    0.36
 -22  -4   0    4.54    0.39
  22  -4   0    4.19    0.35
  22   4   0    4.28    0.37
   1  -5   0    2.67    0.17
  -1  -5   0    1.30    0.14
  -1   5   0    1.50    0.10
  -1   5   0    1.45    0.13
   1   5   0    2.58    0.14
   1   5   0    2.39    0.15
   3  -5   0   29.44    0.70
  -3   5   0   24.13    0.52
   3   5   0   30.94    0.67
   3   5   0   30.55    0.66
  -3   5   0   24.23    0.59
   3   5   0   29.89    0.71
  -5  -5   0   11.62    0.36
   5  -5   0   11.61    0.38
   5   5   0   11.73    0.33
   5   5   0   11.67    0.39
  -5   5   0   11.96    0.32
  -5   5   0   11.68    0.37
   7  -5   0   13.74    0.45
  -7  -5   0   18.27    0.51
  -7   5   0   18.64    0.48
   7   5   0   14.85    0.46
   7   5   0   13.92    0.36
  -7   5   0   17.99    0.50
   9  -5   0   19.13    0.57
  -9  -5   0   18.14    0.54
   9   5   0   19.94    0.58
  -9   5   0   18.74    0.52
  11  -5   0   36.42    0.91
 -11  -5   0   37.78    0.92
 -11   5   0   37.18    0.86
  11   5   0   37.21    0.92
 -11   5   0   37.95    0.74
  13  -5   0    7.42    0.37
 -13  -5   0    5.69    0.32
 -13   5   0    5.19    0.27
 -13   5   0    5.72    0.22
  13   5   0    7.40    0.37
  15  -5   0    5.73    0.34
 -15  -5   0    5.40    0.34
 -15   5   0    5.26    0.28
  15   5   0    6.21    0.36
 -15   5   0    5.63    0.25
  17  -5   0   30.82    0.90
 -17  -5   0   32.69    0.96
  17   5   0   30.89    0.92
 -17   5   0   32.95    0.79
 -19  -5   0    1.01    0.21
  19  -5   0    0.86    0.20
 -19   5   0    1.27    0.16
  19   5   0    0.81    0.19
 -21  -5   0    5.64    0.43
  21  -5   0    7.00    0.44
  21   5   0    7.15    0.46
   0  -6   0  284.65    4.95
   0   6   0  287.52    4.92
  -2  -6   0    0.92    0.14
   2  -6   0    0.83    0.13
   2   6   0    0.84    0.12
  -2   6   0    0.71    0.12
   2   6   0    0.81    0.11
   4  -6   0   21.70    0.60
  -4  -6   0   22.21    0.57
  -4   6   0   21.83    0.59
   4   6   0   21.20    0.54
   4   6   0   21.43    0.61
  -6  -6   0   30.33    0.73
   6  -6   0   33.45    0.83
   6   6   0   34.02    0.84
  -6   6   0   29.83    0.74
   6   6   0   33.79    0.74
   8  -6   0   29.64    0.78
  -8  -6   0   25.10    0.68
  -8   6   0   27.15    0.70
   8   6   0   29.44    0.78
  10  -6   0   29.13    0.80
 -10  -6   0   26.72    0.74
  10   6   0   29.97    0.82
 -10   6   0   27.39    0.72
 -12  -6   0    3.52    0.26
  12  -6   0    3.12    0.27
  12   6   0    3.59    0.28
 -12   6   0    3.31    0.24
  14  -6   0    5.20    0.34
 -14  -6   0    6.11    0.36
 -14   6   0    6.10    0.32
  14   6   0    4.85    0.34
 -16  -6   0    0.66    0.17
  16  -6   0    1.36    0.23
 -16   6   0    0.86    0.16
  16   6   0    1.31    0.23
 -16   6   0    0.86    0.09
 -18  -6   0    0.49    0.18
 -18   6   0    0.48    0.09
  18   6   0    1.65    0.27
 -20  -6   0   15.30    0.68
  -1  -7   0   19.37    0.59
   1  -7   0   19.49    0.59
   1   7   0   18.60    0.55
  -1   7   0   19.01    0.56
  -3  -7   0    2.49    0.21
   3  -7   0    1.71    0.20
  -3   7   0    1.96    0.19
   3   7   0    1.65    0.17
   5  -7   0   17.68    0.57
   5   7   0   18.64    0.59
  -5   7   0   19.72    0.59
   7  -7   0   48.10    1.13
   7   7   0   46.73    1.14
  -7   7   0   50.72    1.15
   9  -7   0   14.31    0.54
   9   7   0   14.24    0.55
  -9   7   0   12.86    0.48
  11  -7   0   12.68    0.52
 -11  -7   0   13.87    0.52
  11   7   0   12.90    0.53
 -11   7   0   13.64    0.51
  13  -7   0   10.98    0.55
 -13  -7   0   12.07    0.52
 -13   7   0   12.53    0.50
  13   7   0   11.50    0.53
 -15  -7   0   15.22    0.63
  15   7   0   15.89    0.65
 -15   7   0   15.49    0.56
 -17  -7   0    2.37    0.31
  17   7   0    2.22    0.31
 -17   7   0    1.92    0.24
   0  -8   0    5.24    0.32
   0   8   0    5.17    0.30
   2  -8   0    7.61    0.38
  -2  -8   0    6.83    0.36
   2   8   0    7.31    0.35
  -2   8   0    6.36    0.33
   4  -8   0   17.59    0.61
  -4  -8   0   15.47    0.57
   4   8   0   17.22    0.55
  -4   8   0   15.34    0.54
   6  -8   0    4.32    0.31
  -6   8   0    4.10    0.28
  -8   8   0    7.08    0.38
   8   8   0    9.10    0.45
  10   8   0   46.75    1.22
 -10   8   0   42.89    1.10
 -12   8   0    6.70    0.39
  12   8   0    6.21    0.41
  14   8   0    1.97    0.29
 -14   8   0    0.83    0.19
  -1  -9   0    0.25    0.14
   1  -9   0    0.32    0.15
   1   9   0    0.39    0.14
  -1   9   0    0.18    0.11
  -3  -9   0   11.25    0.50
   3   9   0   11.22    0.46
  -3   9   0   10.52    0.47
  -5  -9   0    2.00    0.25
  -5   9   0    1.90    0.23
  -7  -9   0   20.75    0.74
  -7   9   0   20.95    0.71
  -9   9   0    1.10    0.20
  11   9   0    5.35    0.41
   0  10   0   12.92    0.54
   2  10   0    0.91    0.20
  -2  10   0    0.75    0.18
 -24   0   1    0.06    0.15
  24   0  -1    0.15    0.14
 -22   0   1   -0.01    0.12
  22   0  -1    0.03    0.12
  22   0  -1   -0.01    0.07
 -20   0   1    0.23    0.14
  20   0  -1    0.03    0.11
  20   0  -1    0.15    0.08
 -18   0   1    0.00    0.08
  18   0  -1    0.03    0.09
  18   0  -1    0.04    0.06
  16   0  -1    0.01    0.07
 -16   0   1    0.04    0.07
  16   0  -1    0.02    0.05
 -16   0   1    0.04    0.07
 -14   0   1   -0.01    0.06
  14   0  -1    0.05    0.05
  14   0  -1    0.05    0.07
 -14   0   1   -0.02    0.05
  12   0  -1   -0.01    0.03
 -12   0   1   -0.02    0.04
 -12   0   1    0.03    0.06
  12   0  -1    0.22    0.06
 -10   0   1    0.04    0.05
  10   0  -1    0.16    0.04
  10   0  -1    0.14    0.06
  10   0  -1    0.06    0.03
 -10   0   1   -0.03    0.04
  -8   0   1    0.05    0.03
   8   0  -1    0.06    0.02
   8   0  -1    0.04    0.03
  -8   0   1   -0.01    0.03
   8   0  -1    0.01    0.03
   6   0  -1    0.12    0.04
   6   0  -1    0.00    0.02
  -6   0   1    0.03    0.03
  -6   0   1    0.02    0.03
   6   0  -1    0.02    0.02
  -4   0   1    0.42    0.05
   4   0  -1    0.06    0.03
   4   0  -1    0.29    0.03
   4   0  -1    0.14    0.02
   2   0  -1    0.20    0.02
   2   0  -1    0.23    0.02
  -2   0   1    0.13    0.02
  -2   0   1    0.16    0.02
   0   0   1    0.05    0.01
   0   0   1    0.06    0.01
   0   0  -1    0.08    0.02
   0   0  -1    0.04    0.01
  -2   0  -1    0.58    0.03
   2   0   1    0.63    0.05
  -2   0  -1    0.61    0.03
   2   0   1    0.57    0.04
   2   0   1    0.61    0.03
  -4   0  -1    0.05    0.02
   4   0   1    0.01    0.01
  -4   0  -1    0.12    0.02
  -4   0  -1    0.31    0.04
   4   0   1    0.00    0.03
   6   0   1    0.09    0.03
  -6   0  -1    0.07    0.03
  -6   0  -1    0.09    0.03
   6   0   1    0.07    0.05
  -6   0  -1    0.19    0.02
   8   0   1   -0.02    0.04
   8   0   1    0.00    0.02
 -10   0  -1    0.04    0.04
  10   0   1    0.12    0.04
 -10   0  -1    0.03    0.04
 -10   0  -1    0.04    0.02
  10   0   1    0.06    0.06
  12   0   1    0.03    0.04
  12   0   1   -0.02    0.06
 -12   0  -1   -0.02    0.05
 -12   0  -1    0.10    0.05
  14   0   1    0.00    0.04
 -14   0  -1    0.04    0.06
  14   0   1    0.10    0.08
 -14   0  -1   -0.01    0.05
  16   0   1    0.06    0.05
  16   0   1    0.17    0.10
 -16   0  -1    0.07    0.08
  18   0   1    0.08    0.06
  18   0   1    0.00    0.08
 -18   0  -1    0.09    0.09
  20   0   1    0.10    0.12
 -20   0  -1   -0.04    0.09
  20   0   1    0.08    0.07
 -22   0  -1    0.30    0.15
  22   0   1    0.16    0.14
  22   0   1    0.05    0.07
 -24   0  -1    0.04    0.15
  24   0   1    0.11    0.14
  25  -1  -1   10.24    0.53
 -25   1   1    9.61    0.56
 -23  -1   1    8.90    0.51
  23  -1  -1    7.05    0.42
  23  -1  -1    7.06    0.34
 -23   1   1    9.02    0.51
  23   1  -1    6.84    0.26
  23   1  -1    7.11    0.43
  21  -1  -1    4.31    0.26
 -21  -1   1    4.17    0.33
  21  -1  -1    3.98    0.30
  21   1  -1    4.12    0.20
 -21   1   1    4.93    0.35
  21   1  -1    3.86    0.31
 -19  -1   1  124.03    2.47
  19  -1  -1  114.53    2.27
  19  -1  -1  113.23    2.14
 -19   1   1  121.10    2.33
  19   1  -1  113.54    2.05
 -19   1   1  120.10    2.45
  19   1  -1  114.82    2.28
  17  -1  -1   12.04    0.39
  17  -1  -1   11.13    0.44
 -17  -1   1   10.85    0.45
 -17   1   1   10.84    0.39
  17   1  -1   11.39    0.33
 -17   1   1   10.81    0.45
  17   1  -1   11.14    0.44
  15  -1  -1   13.80    0.40
  15  -1  -1   13.91    0.46
 -15  -1   1    7.35    0.34
 -15   1   1    7.60    0.30
 -15   1   1    8.03    0.36
  15   1  -1   13.32    0.45
  15   1  -1   13.16    0.36
 -13  -1   1   49.49    1.10
  13  -1  -1   48.63    0.91
  13  -1  -1   49.70    0.98
  13  -1  -1   48.16    1.04
  13   1  -1   49.84    1.05
 -13   1   1   50.64    1.03
  13   1  -1   48.07    0.93
 -13   1   1   51.54    1.11
 -11  -1   1  122.33    2.19
  11  -1  -1  128.78    2.32
 -11  -1   1  122.13    2.28
  11  -1  -1  129.54    2.26
  11   1  -1  127.02    2.21
 -11   1   1  127.14    2.28
  11   1  -1  129.08    2.32
 -11   1   1  127.34    2.22
  -9  -1   1    7.07    0.22
  -9  -1   1    6.87    0.26
   9  -1  -1   12.03    0.34
   9  -1  -1   12.49    0.32
   9   1  -1   12.48    0.29
   9   1  -1   12.46    0.30
  -9   1   1    7.31    0.20
  -9   1   1    7.04    0.22
  -9   1   1    7.36    0.26
   9   1  -1   12.38    0.35
   7  -1  -1   20.22    0.42
  -7  -1   1   19.04    0.41
  -7  -1   1   19.71    0.46
   7   1  -1   19.36    0.45
   7   1  -1   19.26    0.40
  -7   1   1   18.86    0.42
  -7   1   1   19.43    0.39
  -7   1   1   19.57    0.46
   7   1  -1   19.22    0.39
   7   1  -1   19.82    0.35
   5  -1  -1  220.35    3.87
  -5  -1   1  190.32    3.54
   5  -1  -1  231.77    4.04
  -5  -1   1  187.99    3.26
  -5   1   1  187.67    3.38
  -5   1   1  192.53    3.43
   5   1  -1  220.65    3.86
   5   1  -1  231.51    3.93
   5   1  -1  225.86    3.93
   5   1  -1  226.91    3.79
  -5   1   1  188.32    3.46
  -3  -1   1   15.40    0.32
   3  -1  -1   15.35    0.32
   3   1  -1   16.11    0.30
  -3   1   1   15.63    0.31
   3   1  -1   15.88    0.29
   3   1  -1   16.20    0.29
  -3   1   1   15.05    0.30
  -3   1   1   14.65    0.33
   3   1  -1   16.41    0.33
  -1  -1   1   23.19    0.43
   1  -1  -1   25.77    0.45
  -1   1   1   25.49    0.45
   1   1  -1   25.86    0.49
   1   1  -1   26.02    0.47
   1   1  -1   26.97    0.44
   1   1  -1   26.50    0.44
  -1   1   1   25.50    0.47
   1  -1   1  221.58    3.80
   1  -1   1  217.06    3.92
  -1   1  -1  221.54    3.86
  -1   1  -1  232.28    3.90
  -1   1  -1  218.66    3.95
   3  -1   1  200.32    3.43
   3  -1   1  202.42    3.56
  -3  -1  -1  196.38    3.32
   3   1   1  199.97    3.67
  -3   1  -1  185.30    3.37
  -3   1  -1  198.12    3.42
  -3   1  -1  189.51    3.36
   3   1   1  196.70    3.56
  -5  -1  -1    5.67    0.19
   5  -1   1    2.50    0.13
   5  -1   1    2.47    0.10
  -5  -1  -1    5.88    0.13
   5   1   1    2.57    0.07
  -5   1  -1    6.12    0.17
  -5   1  -1    5.75    0.17
   5   1   1    2.36    0.07
  -5   1  -1    6.04    0.16
   5   1   1    2.50    0.12
   7  -1   1   28.89    0.58
  -7  -1  -1   28.60    0.62
  -7  -1  -1   28.71    0.55
   7  -1   1   28.31    0.64
   7   1   1   28.92    0.54
   7   1   1   29.14    0.53
  -7   1  -1   28.41    0.58
   7   1   1   28.97    0.62
  -7   1  -1   28.88    0.54
  -9  -1  -1  526.53    8.96
   9  -1   1  543.90    9.51
   9  -1   1  526.68    9.38
  -9  -1  -1  499.83    9.06
  -9   1  -1  513.23    8.74
   9   1   1  518.52    9.08
   9   1   1  550.63    9.26
   9   1   1  503.86    9.04
  -9   1  -1  477.86    9.02
  -9   1  -1  526.57    8.95
  11  -1   1    5.34    0.20
 -11  -1  -1    4.50    0.18
  11  -1   1    5.62    0.26
 -11  -1  -1    4.51    0.22
  11   1   1    5.19    0.18
 -11   1  -1    4.50    0.19
  11   1   1    5.29    0.17
  11   1   1    5.51    0.25
 -11   1  -1    4.44    0.15
 -11   1  -1    4.85    0.22
  13  -1   1   25.91    0.69
 -13  -1  -1   22.25    0.62
  13  -1   1   27.14    0.61
  13   1   1   26.56    0.56
 -13   1  -1   23.97    0.62
  13   1   1   26.90    0.69
 -13   1  -1   22.41    0.56
  15  -1   1   49.00    1.12
  15  -1   1   47.87    1.00
 -15  -1  -1   49.67    1.14
  15   1   1   47.47    1.10
 -15   1  -1   50.39    1.06
  15   1   1   48.72    0.94
 -15   1  -1   49.60    1.12
  17  -1   1   16.11    0.56
  17  -1   1   15.93    0.47
 -17  -1  -1   15.55    0.55
 -17   1  -1   14.97    0.53
 -17   1  -1   15.80    0.49
  17   1   1   16.87    0.58
  17   1   1   16.76    0.42
  19  -1   1   24.76    0.65
 -19  -1  -1   22.52    0.74
  19  -1   1   25.14    0.77
 -19   1  -1   23.24    0.74
  19   1   1   24.89    0.57
 -19   1  -1   22.92    0.67
  19   1   1   25.40    0.78
  21  -1   1    8.40    0.44
  21  -1   1    8.86    0.36
 -21  -1  -1    7.95    0.44
  21   1   1    8.12    0.28
 -21   1  -1    8.62    0.45
  21   1   1    8.67    0.46
  23  -1   1   18.62    0.57
  23  -1   1   19.66    0.72
 -23  -1  -1   22.01    0.80
  23   1   1   19.71    0.74
  23   1   1   19.18    0.45
 -23   1  -1   22.19    0.80
 -25   1  -1    4.07    0.39
 -24  -2   1    9.62    0.55
  24  -2  -1    9.61    0.49
 -24   2   1   10.14    0.55
 -24   2   1    8.95    0.57
  24   2  -1    9.06    0.51
  22  -2  -1   11.64    0.52
  22  -2  -1   11.42    0.45
 -22  -2   1    9.71    0.52
 -22   2   1    9.27    0.49
 -22   2   1    8.17    0.41
  22   2  -1   11.42    0.53
 -20  -2   1   17.24    0.67
  20  -2  -1   19.34    0.65
  20  -2  -1   19.78    0.59
 -20   2   1   18.70    0.67
  20   2  -1   18.83    0.66
 -20   2   1   18.25    0.59
  18  -2  -1   50.83    1.09
 -18  -2   1   52.66    1.28
  18  -2  -1   47.73    1.14
 -18   2   1   51.75    1.16
  18   2  -1   48.19    0.89
  18   2  -1   49.96    1.18
 -18   2   1   53.27    1.27
  16  -2  -1   17.83    0.51
  16  -2  -1   18.08    0.56
 -16  -2   1   15.85    0.55
 -16   2   1   15.10    0.53
  16   2  -1   18.79    0.58
  16   2  -1   18.50    0.39
 -16   2   1   15.36    0.47
  14  -2  -1    7.85    0.29
  14  -2  -1    7.42    0.32
 -14  -2   1    6.88    0.32
  14   2  -1    7.54    0.20
 -14   2   1    6.67    0.24
 -14   2   1    7.32    0.29
  14   2  -1    7.34    0.32
 -14   2   1    6.67    0.32
  12  -2  -1  367.54    6.39
  12  -2  -1  378.31    6.27
 -12  -2   1  360.52    6.07
 -12   2   1  351.43    5.91
 -12   2   1  345.39    6.05
 -12   2   1  358.26    5.97
  12   2  -1  375.25    6.28
  12   2  -1  363.06    6.17
  12   2  -1  359.46    6.25
  10  -2  -1   25.66    0.62
  10  -2  -1   26.17    0.58
 -10  -2   1   25.16    0.63
 -10   2   1   25.99    0.55
  10   2  -1   26.81    0.47
  10   2  -1   26.04    0.48
 -10   2   1   26.15    0.57
 -10   2   1   25.87    0.63
   8  -2  -1    1.21    0.09
  -8  -2   1    1.00    0.11
   8  -2  -1    1.23    0.11
   8   2  -1    1.19    0.05
  -8   2   1    0.99    0.08
   8   2  -1    1.14    0.10
  -8   2   1    1.42    0.11
  -8   2   1    0.98    0.09
  -6  -2   1  177.28    3.06
   6  -2  -1  178.64    3.06
   6  -2  -1  181.04    3.13
   6   2  -1  179.12    3.09
  -6   2   1  177.86    3.15
   6   2  -1  178.98    3.07
  -6   2   1  181.05    3.32
  -4  -2   1  183.73    3.28
   4  -2  -1  188.89    3.46
   4  -2  -1  187.30    3.32
   4   2  -1  189.26    3.26
  -4   2   1  180.51    3.17
   4   2  -1  188.98    3.34
  -4   2   1  184.02    3.28
  -4   2   1  183.14    3.25
  -2  -2   1    7.86    0.19
  -2   2   1    7.41    0.20
   0  -2   1   65.28    1.16
   0   2   1   64.59    1.14
   0   2   1   65.38    1.13
   0   2  -1   69.24    1.22
   0   2  -1   65.74    1.18
   2  -2   1  204.73    3.59
  -2   2  -1  166.01    2.89
   2   2   1  190.92    3.41
  -2   2  -1  164.23    2.92
  -2   2  -1  166.98    2.87
  -2   2  -1  169.07    2.86
   4  -2   1   51.24    0.96
   4  -2   1   50.00    0.89
  -4   2  -1   49.77    0.90
   4   2   1   48.12    0.93
   4   2   1   50.76    0.87
  -4   2  -1   47.88    0.87
  -4   2  -1   48.92    0.87
   4   2   1   49.89    0.94
  -6  -2  -1    9.21    0.28
   6  -2   1   12.16    0.35
   6  -2   1   12.01    0.30
  -6  -2  -1    9.02    0.20
   6   2   1   13.07    0.33
  -6   2  -1    9.58    0.25
  -6   2  -1    8.98    0.24
  -6   2  -1    9.46    0.25
   8  -2   1  165.22    2.75
   8  -2   1  156.36    2.82
  -8  -2  -1  158.21    2.75
  -8  -2  -1  151.92    2.60
  -8   2  -1  158.12    2.68
  -8   2  -1  158.67    2.67
  -8   2  -1  153.15    2.70
   8   2   1  158.07    2.80
  10  -2   1   82.82    1.54
  10  -2   1   84.78    1.63
 -10  -2  -1   84.57    1.62
 -10   2  -1   83.25    1.57
  10   2   1   84.84    1.61
 -10   2  -1   83.47    1.50
 -10   2  -1   85.22    1.54
  12  -2   1   11.53    0.34
 -12  -2  -1    6.88    0.30
  12  -2   1   11.55    0.41
 -12   2  -1    6.75    0.26
 -12   2  -1    7.00    0.23
  12   2   1   10.99    0.39
  14  -2   1   20.90    0.63
  14  -2   1   21.55    0.55
 -14  -2  -1   21.31    0.63
  14   2   1   21.85    0.62
 -14   2  -1   22.14    0.61
 -14   2  -1   21.95    0.57
  16  -2   1  218.43    3.81
  16  -2   1  216.99    3.94
 -16  -2  -1  217.81    4.01
 -16   2  -1  217.11    3.95
 -16   2  -1  225.98    3.88
  16   2   1  215.81    3.94
  18  -2   1    1.42    0.17
  18  -2   1    2.43    0.27
 -18  -2  -1    1.37    0.20
  18   2   1    1.51    0.22
 -18   2  -1    1.35    0.20
 -18   2  -1    2.42    0.23
  20  -2   1    6.31    0.31
 -20  -2  -1    7.96    0.44
  20  -2   1    6.48    0.38
  20   2   1    6.24    0.38
 -20   2  -1    7.85    0.37
 -20   2  -1    8.18    0.43
  22  -2   1   23.92    0.81
 -22  -2  -1   23.09    0.82
  22  -2   1   22.76    0.68
 -22   2  -1   23.24    0.71
 -22   2  -1   23.63    0.80
  22   2   1   23.88    0.81
 -24  -2  -1   16.36    0.74
  24  -2   1   17.72    0.70
 -24   2  -1   18.44    0.92
 -24   2  -1   17.49    0.73
  24   2   1   16.39    0.72
  23  -3  -1    2.27    0.25
  23  -3  -1    2.83    0.32
 -23  -3   1    3.01    0.36
  23   3  -1    2.42    0.32
 -23   3   1    2.61    0.34
  21  -3  -1    3.13    0.26
  21  -3  -1    3.16    0.31
 -21  -3   1    3.84    0.34
 -21   3   1    2.54    0.29
  21   3  -1    3.07    0.32
 -21   3   1    2.48    0.24
  19  -3  -1    5.99    0.31
 -19  -3   1    4.94    0.35
  19  -3  -1    5.63    0.34
  19   3  -1    4.95    0.34
 -19   3   1    5.54    0.36
 -19   3   1    5.52    0.30
  17  -3  -1    5.49    0.31
 -17  -3   1    5.68    0.34
  17  -3  -1    5.40    0.28
 -17   3   1    5.68    0.28
  17   3  -1    5.08    0.31
 -17   3   1    4.82    0.32
  15  -3  -1    1.00    0.15
  15  -3  -1    1.19    0.14
 -15  -3   1    1.37    0.19
 -15   3   1    1.24    0.18
  15   3  -1    1.61    0.19
 -15   3   1    1.11    0.14
 -15   3   1    1.13    0.16
 -13  -3   1    2.51    0.20
  13  -3  -1    2.62    0.20
  13  -3  -1    2.44    0.17
  13   3  -1    2.78    0.21
 -13   3   1    2.42    0.16
 -13   3   1    2.52    0.20
 -13   3   1    2.41    0.16
 -11  -3   1    7.18    0.31
  11  -3  -1    7.72    0.31
  11   3  -1    7.62    0.31
 -11   3   1    7.27    0.25
 -11   3   1    7.50    0.26
   9  -3  -1   15.70    0.40
   9  -3  -1   15.78    0.44
  -9  -3   1   17.55    0.48
  -9   3   1   16.87    0.40
   9   3  -1   15.25    0.44
  -9   3   1   16.87    0.47
  -9   3   1   16.90    0.43
   9   3  -1   15.57    0.32
  -7  -3   1   24.98    0.58
   7  -3  -1   25.62    0.54
   7  -3  -1   26.36    0.59
  -7   3   1   25.21    0.59
  -7   3   1   24.71    0.51
   7   3  -1   25.64    0.60
  -7   3   1   25.09    0.50
   7   3  -1   25.89    0.50
  -7   3   1   25.50    0.56
  -5  -3   1    5.53    0.20
   5  -3  -1    5.32    0.20
   5  -3  -1    5.37    0.16
  -5   3   1    5.51    0.20
  -5   3   1    5.45    0.13
   5   3  -1    5.33    0.21
  -5   3   1    5.19    0.19
  -5   3   1    5.40    0.13
   5   3  -1    5.43    0.16
   3  -3  -1   37.77    0.73
  -3  -3   1   40.34    0.76
  -3   3   1   40.12    0.78
  -3   3   1   39.64    0.78
   3   3  -1   36.83    0.75
   1  -3  -1   81.74    1.47
   1   3  -1   84.35    1.47
   1   3  -1   84.34    1.43
  -1   3   1   82.47    1.45
   1   3  -1   82.13    1.50
  -1   3   1   80.24    1.45
   1  -3   1   12.26    0.33
  -1   3  -1   12.81    0.26
  -1   3  -1   12.28    0.31
   1   3   1   12.30    0.30
   3  -3   1   10.65    0.31
   3   3   1   10.62    0.26
   3   3   1   10.92    0.30
   3   3   1   10.71    0.29
  -3   3  -1   10.08    0.28
   5  -3   1   34.56    0.74
   5  -3   1   34.36    0.66
  -5   3  -1   36.32    0.66
  -5   3  -1   36.36    0.67
  -5   3  -1   36.23    0.69
   5   3   1   34.70    0.65
  -5   3  -1   35.80    0.73
   5   3   1   33.58    0.71
   5   3   1   34.72    0.73
  -7  -3  -1    9.17    0.30
   7  -3   1    7.85    0.29
   7  -3   1    7.30    0.23
  -7   3  -1    8.30    0.25
  -7   3  -1    8.38    0.24
   7   3   1    7.91    0.27
  -7   3  -1    8.64    0.26
  -7   3  -1    8.17    0.23
   7   3   1    7.63    0.19
  -9  -3  -1    3.29    0.20
   9  -3   1    3.96    0.22
   9  -3   1    4.06    0.18
  -9   3  -1    4.18    0.19
   9   3   1    4.22    0.22
  -9   3  -1    3.80    0.17
  -9   3  -1    3.88    0.17
  11  -3   1    3.87    0.24
 -11  -3  -1    3.72    0.22
  11  -3   1    3.92    0.19
 -11   3  -1    3.97    0.19
 -11   3  -1    4.08    0.21
  11   3   1    3.68    0.22
 -11   3  -1    3.65    0.18
  13  -3   1    3.10    0.19
 -13  -3  -1    3.29    0.23
  13  -3   1    3.10    0.24
  13   3   1    3.50    0.23
 -13   3  -1    3.33    0.21
 -13   3  -1    3.29    0.18
 -13   3  -1    3.14    0.18
  15  -3   1   13.10    0.43
  15  -3   1   13.03    0.49
 -15  -3  -1   13.77    0.51
 -15   3  -1   13.39    0.47
 -15   3  -1   12.98    0.42
  15   3   1   13.11    0.49
  17  -3   1    7.87    0.40
 -17  -3  -1    6.79    0.37
  17  -3   1    7.62    0.34
 -17   3  -1    6.68    0.35
 -17   3  -1    7.36    0.32
  17   3   1    8.09    0.40
  19  -3   1    4.90    0.29
  19  -3   1    4.69    0.34
 -19  -3  -1    4.35    0.32
 -19   3  -1    4.09    0.31
  19   3   1    4.52    0.32
 -19   3  -1    4.30    0.27
  21  -3   1    3.07    0.32
  21  -3   1    2.99    0.25
 -21  -3  -1    3.74    0.34
 -21   3  -1    3.93    0.28
  21   3   1    3.14    0.33
  23  -3   1    2.94    0.32
 -23  -3  -1    3.05    0.35
  23   3   1    2.80    0.33
 -22  -4   1   17.16    0.72
  22   4  -1   19.27    0.74
  20  -4  -1    3.62    0.31
 -20  -4   1    2.68    0.30
  20   4  -1    3.75    0.32
 -20   4   1    2.53    0.24
 -18  -4   1    9.93    0.48
  18  -4  -1    7.75    0.40
 -18   4   1    8.42    0.44
  18   4  -1    9.04    0.44
 -18   4   1    9.81    0.38
  16  -4  -1   27.25    0.76
 -16  -4   1   24.45    0.75
 -16   4   1   24.94    0.64
 -16   4   1   23.84    0.74
  16   4  -1   26.34    0.78
  14  -4  -1    5.92    0.31
 -14  -4   1    4.66    0.29
 -14   4   1    5.09    0.23
 -14   4   1    4.85    0.29
  14   4  -1    5.38    0.31
 -14   4   1    4.20    0.23
 -12  -4   1  167.04    3.14
  12  -4  -1  183.88    3.30
  12   4  -1  182.09    3.32
 -12   4   1  173.10    3.14
 -12   4   1  174.36    3.04
 -12   4   1  172.77    2.99
  10  -4  -1    0.72    0.12
 -10  -4   1    0.88    0.13
 -10   4   1    0.72    0.12
  10   4  -1    0.71    0.12
 -10   4   1    0.70    0.10
 -10   4   1    0.55    0.07
   8  -4  -1   23.08    0.58
  -8  -4   1   26.14    0.66
   8   4  -1   22.87    0.60
  -8   4   1   29.14    0.69
   8   4  -1   22.11    0.47
  -8   4   1   29.03    0.54
  -8   4   1   28.72    0.55
  -8   4   1   29.80    0.66
   6  -4  -1   58.69    1.14
  -6  -4   1   56.92    1.12
  -6   4   1   58.03    1.12
   6   4  -1   58.88    1.07
  -6   4   1   56.42    1.12
   6   4  -1   56.78    1.17
   4  -4  -1   62.52    1.19
  -4  -4   1   62.65    1.17
  -4   4   1   63.29    1.19
  -4   4   1   61.12    1.19
   4   4  -1   61.81    1.23
   4   4  -1   63.71    1.16
   2  -4  -1   46.38    0.92
  -2  -4   1   46.66    0.89
  -2   4   1   47.60    0.92
   2   4  -1   47.29    0.91
  -2   4   1   47.76    0.94
   2   4  -1   46.98    0.96
   0  -4  -1    0.85    0.09
   0  -4   1    0.84    0.10
   0   4   1    0.88    0.08
   0   4  -1    0.91    0.09
   0   4   1    0.77    0.09
   0   4  -1    0.88    0.06
   2  -4   1   79.16    1.49
   2   4   1   76.48    1.46
   2   4   1   81.66    1.46
  -2   4  -1   60.31    1.16
   2   4   1   79.85    1.44
  -2   4  -1   60.82    1.06
   4  -4   1    0.46    0.08
   4   4   1    0.58    0.09
  -4   4  -1    0.83    0.10
  -4   4  -1    0.76    0.06
   4   4   1    0.49    0.07
   4   4   1    0.48    0.08
   6  -4   1   14.07    0.43
  -6   4  -1   14.83    0.36
  -6   4  -1   15.20    0.30
   6   4   1   14.47    0.34
   6   4   1   14.20    0.41
   6   4   1   14.44    0.41
  -6   4  -1   14.97    0.41
  -6   4  -1   15.32    0.30
  -8  -4  -1   53.77    1.11
   8  -4   1   46.84    1.04
   8   4   1   48.37    1.02
  -8   4  -1   51.80    1.05
  -8   4  -1   50.37    1.02
  -8   4  -1   52.28    0.97
   8   4   1   47.71    0.89
  10  -4   1   20.50    0.60
 -10  -4  -1   22.23    0.61
 -10   4  -1   21.97    0.51
  10   4   1   20.41    0.58
 -10   4  -1   22.14    0.55
 -10   4  -1   22.28    0.56
 -12  -4  -1    5.74    0.30
  12  -4   1    9.29    0.40
 -12   4  -1    5.47    0.25
  12   4   1    9.51    0.39
 -12   4  -1    5.96    0.24
 -12   4  -1    5.63    0.28
 -14  -4  -1    1.65    0.21
  14  -4   1    1.49    0.21
 -14   4  -1    1.27    0.15
  14   4   1    1.34    0.19
 -14   4  -1    1.07    0.13
  16  -4   1   86.96    1.84
 -16  -4  -1   91.21    1.95
  16   4   1   86.68    1.84
 -16   4  -1   93.97    1.79
 -18  -4  -1    7.94    0.44
  18  -4   1    7.89    0.43
 -18   4  -1    8.13    0.35
  18   4   1    7.28    0.41
 -20  -4  -1   15.58    0.65
  20  -4   1   13.01    0.58
  20   4   1   13.23    0.58
 -20   4  -1   14.99    0.52
  22  -4   1    8.80    0.43
  22  -4   1    8.61    0.49
 -22  -4  -1    6.58    0.46
  22   4   1    8.83    0.51
 -21  -5   1    0.27    0.18
  21   5  -1    0.16    0.15
 -19  -5   1   73.60    1.75
 -19   5   1   78.55    1.55
  19   5  -1   72.88    1.70
 -17  -5   1   10.52    0.49
  17  -5  -1   10.55    0.47
  17   5  -1   11.14    0.51
 -17   5   1   10.47    0.37
 -15  -5   1    2.25    0.25
  15  -5  -1    3.66    0.28
 -15   5   1    1.45    0.17
 -15   5   1    1.76    0.15
  15   5  -1    3.34    0.28
 -13  -5   1   18.74    0.61
  13  -5  -1   17.64    0.57
  13   5  -1   17.30    0.59
 -13   5   1   17.39    0.52
 -13   5   1   18.10    0.44
 -11  -5   1   46.21    1.07
  11  -5  -1   47.22    1.07
 -11   5   1   46.57    0.85
  11   5  -1   47.19    1.10
 -11   5   1   47.55    1.03
 -11   5   1   45.83    1.06
  -9  -5   1    8.76    0.34
   9  -5  -1   12.66    0.43
  -9   5   1    9.28    0.35
   9   5  -1   13.16    0.46
  -9   5   1    8.98    0.33
  -7  -5   1   23.24    0.58
   7  -5  -1   23.94    0.61
  -7   5   1   23.00    0.58
   7   5  -1   24.01    0.64
   7   5  -1   24.65    0.55
  -7   5   1   22.52    0.58
  -5  -5   1   58.36    1.14
   5  -5  -1   71.64    1.39
   5   5  -1   71.98    1.44
   5   5  -1   71.58    1.34
  -5   5   1   57.85    1.17
  -5   5   1   57.91    1.14
  -3  -5   1   23.21    0.53
   3  -5  -1   22.64    0.55
  -3   5   1   24.03    0.58
   3   5  -1   22.46    0.53
   3   5  -1   22.18    0.58
  -3   5   1   23.59    0.55
  -1  -5   1    0.87    0.12
   1  -5  -1    2.17    0.15
  -1   5   1    1.08    0.10
  -1   5   1    0.97    0.11
   1   5  -1    2.08    0.14
   1   5  -1    2.00    0.11
   1  -5   1   99.93    1.88
   1   5   1  102.40    1.83
   1   5   1   98.94    1.83
  -1   5  -1   99.49    1.74
  -1   5  -1  101.34    1.85
   3  -5   1   84.46    1.62
   3   5   1   84.82    1.55
   3   5   1   84.35    1.57
   3   5   1   80.49    1.58
  -3   5  -1   87.92    1.66
   5  -5   1    4.04    0.23
   5   5   1    2.81    0.18
   5   5   1    3.83    0.17
   5   5   1    3.86    0.21
  -5   5  -1    1.97    0.15
   7  -5   1    6.12    0.30
  -7  -5  -1    6.79    0.29
   7   5   1    5.89    0.22
  -7   5  -1    6.89    0.28
   7   5   1    6.53    0.29
   9  -5   1  215.65    3.88
  -9  -5  -1  193.33    3.56
  -9   5  -1  200.39    3.51
  -9   5  -1  202.07    3.30
   9   5   1  217.60    3.86
 -11  -5  -1    3.54    0.24
  11  -5   1    3.71    0.27
 -11   5  -1    3.25    0.20
  11   5   1    4.12    0.26
 -11   5  -1    3.30    0.15
 -13  -5  -1    6.68    0.35
  13  -5   1    8.29    0.40
 -13   5  -1    7.04    0.31
  13   5   1    7.95    0.39
 -13   5  -1    6.49    0.25
 -15  -5  -1   35.93    0.97
  15  -5   1   36.39    0.99
 -15   5  -1   33.49    0.84
 -15   5  -1   34.99    0.80
  15   5   1   35.61    0.98
  17  -5   1   18.24    0.67
 -17  -5  -1   16.75    0.65
  17   5   1   19.18    0.69
 -17   5  -1   17.77    0.52
  19  -5   1    5.79    0.40
 -19  -5  -1    4.41    0.36
  19   5   1    6.15    0.40
 -19   5  -1    4.47    0.27
  21  -5   1   10.68    0.55
 -21  -5  -1   11.30    0.57
  21   5   1    9.85    0.55
 -20  -6   1    6.71    0.46
 -18  -6   1   14.53    0.62
  18   6  -1   13.07    0.60
 -18   6   1   14.10    0.38
 -16  -6   1    3.70    0.31
  16   6  -1    4.09    0.33
 -16   6   1    3.60    0.27
 -14  -6   1    4.87    0.32
 -14   6   1    4.83    0.29
  14   6  -1    4.93    0.33
  12  -6  -1    3.77    0.27
 -12  -6   1    2.92    0.24
 -12   6   1    3.07    0.23
  12   6  -1    3.74    0.28
 -10  -6   1    6.38    0.31
  10  -6  -1    5.34    0.31
  10   6  -1    5.07    0.31
 -10   6   1    6.51    0.32
   8  -6  -1   32.40    0.81
  -8  -6   1   36.19    0.84
   8   6  -1   32.90    0.85
  -8   6   1   34.79    0.85
   6  -6  -1    9.26    0.36
  -6  -6   1    7.82    0.30
   6   6  -1   11.18    0.41
   6   6  -1    8.63    0.31
  -6   6   1    8.45    0.33
   4  -6  -1    6.66    0.29
   4   6  -1    6.18    0.26
   4   6  -1    7.22    0.32
  -4   6   1    7.42    0.31
  -2  -6   1   79.23    1.58
   2  -6  -1   76.01    1.49
  -2   6   1   77.12    1.53
   2   6  -1   76.11    1.48
  -2   6   1   78.03    1.48
   0  -6   1   43.05    0.98
   0  -6  -1   45.79    1.01
   0   6   1   42.18    0.93
   0   6  -1   47.20    1.00
   0   6   1   42.62    0.90
  -2  -6  -1    4.06    0.23
   2  -6   1    4.17    0.24
   2   6   1    4.32    0.21
   2   6   1    3.99    0.21
  -2   6  -1    4.04    0.22
   4  -6   1   35.35    0.87
   4   6   1   36.34    0.79
   4   6   1   34.86    0.84
  -4   6  -1   34.71    0.82
   4   6   1   36.00    0.82
   6  -6   1   27.49    0.73
  -6  -6  -1   30.44    0.76
   6   6   1   26.96    0.63
   6   6   1   26.97    0.72
  -6   6  -1   30.44    0.75
  -8  -6  -1   13.47    0.47
   8  -6   1   13.30    0.49
   8   6   1   12.90    0.47
  -8   6  -1   12.95    0.45
  10  -6   1    6.16    0.35
 -10  -6  -1    4.82    0.29
 -10   6  -1    4.05    0.25
  10   6   1    6.16    0.33
 -12  -6  -1    2.11    0.23
  12  -6   1    2.23    0.26
  12   6   1    2.03    0.24
 -12   6  -1    1.90    0.20
  14  -6   1    8.73    0.45
 -14  -6  -1    9.68    0.46
 -14   6  -1    9.54    0.25
 -14   6  -1   10.02    0.41
  14   6   1    9.17    0.45
  16  -6   1   11.38    0.53
 -16  -6  -1   10.31    0.50
 -16   6  -1    9.81    0.42
  16   6   1   11.13    0.53
 -16   6  -1    9.73    0.31
 -18  -6  -1    5.46    0.40
  18  -6   1    6.72    0.43
 -18   6  -1    5.75    0.26
  18   6   1    6.73    0.44
 -20  -6  -1    6.11    0.56
  20  -6   1    5.56    0.43
 -19  -7   1   13.25    0.89
 -17  -7   1    0.44    0.18
 -17   7   1    0.42    0.16
  17   7  -1    0.32    0.17
  15   7  -1    3.72    0.33
 -15   7   1    3.17    0.27
 -13   7   1    0.96    0.18
  13   7  -1    0.48    0.15
 -11   7   1    8.20    0.38
  11   7  -1    6.22    0.38
   9   7  -1   22.82    0.72
  -9   7   1   21.22    0.64
   7  -7  -1    4.84    0.30
   7   7  -1    4.21    0.26
   7   7  -1    4.64    0.30
  -7   7   1    4.44    0.28
   5  -7  -1   18.12    0.56
  -5   7   1   12.13    0.45
   3  -7  -1    7.11    0.32
  -3  -7   1    6.55    0.34
   3   7  -1    6.81    0.30
  -3   7   1    7.17    0.32
  -1  -7   1   63.67    1.39
   1  -7  -1   63.20    1.35
  -1   7   1   64.11    1.34
   1   7  -1   64.73    1.33
   1  -7   1   21.94    0.65
  -1  -7  -1   23.80    0.66
   1   7   1   22.51    0.62
  -1   7  -1   23.12    0.64
  -3  -7  -1   14.85    0.50
   3  -7   1   13.68    0.49
  -3   7  -1   15.02    0.49
   3   7   1   13.27    0.44
   5  -7   1   32.80    0.87
   5   7   1   34.18    0.87
  -5   7  -1   38.10    0.93
  -7  -7  -1    4.75    0.28
   7  -7   1    4.81    0.31
  -7   7  -1    4.90    0.29
   7   7   1    4.27    0.29
  -9  -7  -1   48.48    1.14
   9  -7   1   53.84    1.28
   9   7   1   53.91    1.27
  -9   7  -1   47.59    1.12
 -11  -7  -1    6.66    0.37
  11  -7   1    6.86    0.41
 -11   7  -1    7.12    0.36
  11   7   1    7.64    0.40
  13  -7   1   17.10    0.66
 -13  -7  -1   17.16    0.63
 -13   7  -1   17.03    0.59
  13   7   1   17.75    0.66
  15  -7   1    0.11    0.15
 -15  -7  -1    0.37    0.16
 -15   7  -1    0.30    0.13
  15   7   1    0.32    0.16
 -17  -7  -1    0.59    0.19
  17  -7   1    0.96    0.32
  17   7   1    1.08    0.24
 -17   7  -1    0.16    0.17
 -14   8   1    2.61    0.29
  14   8  -1    2.22    0.30
  12   8  -1   37.05    1.08
 -12   8   1   31.90    0.91
 -10   8   1    0.26    0.12
  10   8  -1    0.22    0.14
   8   8  -1    3.01    0.27
  -8   8   1    2.23    0.25
  -6  -8   1   22.96    0.74
  -6   8   1   22.84    0.70
  -4  -8   1   21.64    0.70
  -4   8   1   22.00    0.67
   4   8  -1   20.16    0.60
   2  -8  -1    0.17    0.12
  -2  -8   1    0.24    0.12
  -2   8   1    0.28    0.12
   2   8  -1    0.22    0.09
   0  -8   1    4.76    0.31
   0  -8  -1    5.60    0.32
   0   8   1    4.48    0.28
   0   8  -1    5.58    0.31
   2  -8   1   13.00    0.51
  -2  -8  -1    8.47    0.39
   2   8   1   12.83    0.46
  -2   8  -1    8.06    0.37
  -4  -8  -1    7.24    0.37
   4  -8   1    7.49    0.40
   4   8   1    8.16    0.35
  -4   8  -1    7.34    0.36
   6  -8   1    3.39    0.29
  -6   8  -1    1.97    0.22
   8  -8   1    5.77    0.37
   8   8   1    5.68    0.36
  -8   8  -1    6.36    0.35
  10  -8   1    3.42    0.34
  10   8   1    3.36    0.30
 -10   8  -1    3.69    0.29
  12  -8   1    1.88    0.28
  12   8   1    1.74    0.27
 -12   8  -1    1.43    0.22
  14   8   1    4.43    0.38
 -14   8  -1    4.58    0.34
  11   9  -1    5.08    0.39
 -11   9   1    6.68    0.70
  -9  -9   1    9.90    0.52
  -9   9   1    9.32    0.47
  -7  -9   1   13.80    0.60
  -7   9   1   14.02    0.56
  -5  -9   1    0.38    0.15
  -5   9   1    0.37    0.15
  -3  -9   1   13.19    0.56
   3   9  -1   12.33    0.49
  -3   9   1   13.58    0.53
  -1  -9   1   33.46    0.95
  -1   9   1   32.54    0.90
   1   9  -1   33.55    0.91
   1  -9   1    2.18    0.26
   1   9   1    2.58    0.26
  -1   9  -1    2.87    0.28
   3  -9   1    2.42    0.29
  -3   9  -1    1.76    0.22
   3   9   1    2.22    0.24
   5  -9   1   16.86    0.65
  -5   9  -1   18.62    0.65
  -7  -9  -1    3.78    0.32
  -7   9  -1    3.92    0.31
  -9   9  -1    1.60    0.24
  11   9   1    4.50    0.38
  -6 -10   1    3.48    0.41
  -4 -10   1    7.15    0.45
  -2 -10   1   24.09    0.84
   2  10  -1   24.04    0.77
  -2  10   1   24.20    0.79
   0  10  -1    4.51    0.34
   0  10   1    4.92    0.35
  -2  10  -1    0.72    0.18
   2  10   1    1.92    0.25
  24   0  -2   41.25    1.13
 -24   0   2   38.39    1.16
  22   0  -2    4.44    0.25
 -22   0   2    4.82    0.37
  22   0  -2    4.31    0.32
  20   0  -2    5.60    0.27
  20   0  -2    5.65    0.34
 -20   0   2    8.98    0.46
 -18   0   2   61.41    1.42
  18   0  -2   63.87    1.38
  18   0  -2   62.16    1.26
  16   0  -2   61.36    1.29
 -16   0   2   57.47    1.30
  16   0  -2   59.96    1.20
 -16   0   2   57.62    1.20
 -14   0   2   10.95    0.36
 -14   0   2   11.26    0.42
  14   0  -2    6.75    0.25
  14   0  -2    6.74    0.29
 -12   0   2   10.42    0.37
  12   0  -2    9.66    0.32
  12   0  -2    9.68    0.29
  12   0  -2    9.80    0.26
 -12   0   2    9.63    0.31
  10   0  -2  385.27    6.62
  10   0  -2  388.60    6.83
 -10   0   2  408.90    7.44
  10   0  -2  383.99    6.67
 -10   0   2  411.44    7.00
  -8   0   2   45.50    0.93
  -8   0   2   47.01    0.89
   8   0  -2   45.91    0.89
   8   0  -2   47.05    0.87
   8   0  -2   45.54    0.85
   6   0  -2   25.45    0.51
   6   0  -2   25.63    0.50
  -6   0   2   16.73    0.40
   6   0  -2   25.87    0.51
  -6   0   2   16.00    0.36
   4   0  -2  223.50    3.91
  -4   0   2  216.25    3.91
   4   0  -2  211.94    3.83
  -4   0   2  222.92    4.11
   4   0  -2  222.40    3.90
  -2   0   2  319.80    5.78
  -2   0   2  329.74    5.73
   2   0  -2  321.51    5.69
   2   0  -2  319.66    5.46
   2   0  -2  323.94    5.57
   0   0  -2   19.09    0.36
   0   0   2   18.70    0.34
   0   0  -2   18.63    0.38
   0   0   2   17.55    0.35
   0   0   2   18.76    0.36
   2   0   2   47.62    0.83
   2   0   2   46.88    0.84
  -2   0  -2   49.03    0.85
  -4   0  -2  758.09   13.46
  -4   0  -2  847.93   13.60
   4   0   2  774.90   13.43
   4   0   2  794.44   13.41
  -6   0  -2   21.44    0.40
  -6   0  -2   20.88    0.43
   6   0   2   21.41    0.43
  -6   0  -2   20.08    0.46
  -8   0  -2   23.80    0.55
   8   0   2   18.86    0.41
   8   0   2   18.92    0.49
  -8   0  -2   24.72    0.52
  -8   0  -2   24.22    0.46
  10   0   2  164.46    2.92
 -10   0  -2  160.44    2.82
 -10   0  -2  158.48    2.71
 -10   0  -2  159.05    2.76
  10   0   2  161.65    2.79
  12   0   2  119.00    2.12
  12   0   2  120.97    2.26
 -12   0  -2  116.60    2.08
 -12   0  -2  114.71    2.15
 -14   0  -2   16.25    0.51
  14   0   2   10.16    0.41
 -14   0  -2   16.37    0.47
  14   0   2   10.17    0.31
  16   0   2   13.22    0.38
  16   0   2   12.73    0.49
 -16   0  -2   13.40    0.49
  18   0   2  109.59    2.03
  18   0   2  110.40    2.24
 -18   0  -2   94.63    1.97
  20   0   2   14.13    0.59
  20   0   2   14.58    0.44
 -20   0  -2   12.98    0.55
 -22   0  -2    8.89    0.48
  22   0   2   13.63    0.43
  22   0   2   13.22    0.58
 -24   0  -2   25.05    0.90
  24   0   2   23.90    0.86
  25  -1  -2    3.45    0.35
 -25   1   2    3.83    0.48
  25   1  -2    3.53    0.44
  23  -1  -2   10.40    0.42
  23  -1  -2    9.97    0.49
 -23  -1   2   10.35    0.55
 -23   1   2   10.22    0.54
  23   1  -2   11.12    0.35
  23   1  -2   10.22    0.50
 -21  -1   2    3.57    0.32
  21  -1  -2    4.65    0.32
  21  -1  -2    4.57    0.27
 -21   1   2    4.07    0.32
 -21   1   2    4.05    0.29
  21   1  -2    4.65    0.22
  21   1  -2    4.94    0.33
  19  -1  -2    6.89    0.31
  19  -1  -2    8.22    0.38
 -19  -1   2    7.28    0.40
 -19   1   2    6.98    0.34
 -19   1   2    7.45    0.40
  19   1  -2    7.76    0.38
  19   1  -2    7.42    0.28
  17  -1  -2    7.80    0.35
  17  -1  -2    7.69    0.31
 -17  -1   2    8.03    0.40
 -17   1   2    8.31    0.40
  17   1  -2    7.13    0.34
 -17   1   2    7.62    0.33
  17   1  -2    7.50    0.27
  15  -1  -2    6.98    0.31
 -15  -1   2    6.80    0.34
  15  -1  -2    7.07    0.27
  15   1  -2    7.14    0.25
  15   1  -2    7.18    0.32
 -15   1   2    7.36    0.34
 -15   1   2    7.29    0.30
 -13  -1   2    2.25    0.19
  13  -1  -2    2.43    0.15
  13  -1  -2    2.05    0.16
  13  -1  -2    2.20    0.12
  13   1  -2    2.16    0.12
 -13   1   2    2.14    0.18
  13   1  -2    2.11    0.17
 -13   1   2    2.21    0.16
  11  -1  -2   43.87    0.87
 -11  -1   2   41.90    0.92
 -11  -1   2   40.97    0.84
  11  -1  -2   42.85    0.83
  11  -1  -2   42.99    0.89
 -11   1   2   41.86    0.85
  11   1  -2   41.65    0.82
 -11   1   2   41.24    0.92
  11   1  -2   43.37    0.91
  11   1  -2   43.51    0.77
   9  -1  -2   55.97    1.02
  -9  -1   2   57.78    1.07
   9  -1  -2   55.98    1.06
   9  -1  -2   56.39    1.05
  -9  -1   2   55.28    1.12
   9   1  -2   55.62    0.98
  -9   1   2   56.98    1.07
  -9   1   2   56.43    1.14
   9   1  -2   54.79    1.07
   9   1  -2   55.33    1.01
  -7  -1   2    4.16    0.15
   7  -1  -2    3.44    0.13
   7  -1  -2    3.28    0.13
   7  -1  -2    3.43    0.14
  -7  -1   2    4.07    0.17
  -7   1   2    3.90    0.17
  -7   1   2    3.95    0.15
   7   1  -2    3.36    0.12
   7   1  -2    3.44    0.15
   7   1  -2    3.50    0.12
  -5  -1   2    7.70    0.23
   5  -1  -2    8.29    0.21
   5  -1  -2    8.76    0.21
  -5  -1   2    7.73    0.21
   5  -1  -2    8.24    0.22
   5   1  -2    8.42    0.21
   5   1  -2    8.70    0.23
  -5   1   2    7.89    0.24
  -5   1   2    8.01    0.21
   5   1  -2    8.56    0.20
   3  -1  -2  486.08    8.46
   3  -1  -2  485.36    8.17
   3  -1  -2  490.15    8.36
  -3   1   2  469.86    8.45
  -3   1   2  486.88    8.18
   3   1  -2  512.08    8.28
   3   1  -2  463.43    8.35
   3   1  -2  484.31    8.33
   1  -1  -2   17.75    0.37
  -1  -1   2   18.22    0.35
  -1  -1   2   18.54    0.36
   1   1  -2   18.63    0.37
   1   1  -2   18.28    0.35
  -1   1   2   18.44    0.34
  -1   1   2   19.05    0.40
   1   1  -2   19.26    0.38
  -1   1   2   19.54    0.34
   1  -1   2    0.44    0.05
   1  -1   2    0.38    0.03
  -1  -1  -2    0.68    0.05
  -1   1  -2    0.77    0.06
   1   1   2    0.40    0.03
  -1   1  -2    0.69    0.05
   3  -1   2   93.46    1.61
   3  -1   2   95.47    1.65
  -3  -1  -2   91.92    1.58
  -3   1  -2   93.28    1.59
  -3   1  -2   91.09    1.58
  -3   1  -2   92.80    1.60
   3   1   2   93.51    1.64
   5  -1   2   69.33    1.33
   5  -1   2   72.63    1.27
  -5  -1  -2   71.00    1.25
   5   1   2   73.02    1.22
   5   1   2   73.13    1.31
  -5   1  -2   73.15    1.27
   5   1   2   73.42    1.22
  -5   1  -2   72.58    1.27
  -5   1  -2   74.17    1.29
   5   1   2   71.58    1.31
  -7  -1  -2    2.75    0.09
   7  -1   2    1.86    0.10
  -7  -1  -2    2.72    0.11
   7  -1   2    1.76    0.14
  -7  -1  -2    2.91    0.15
   7   1   2    1.68    0.08
  -7   1  -2    2.87    0.13
   7   1   2    1.84    0.13
  -7   1  -2    3.16    0.13
  -7   1  -2    2.78    0.11
   7   1   2    1.78    0.07
  -9  -1  -2   16.69    0.39
  -9  -1  -2   16.91    0.31
   9  -1   2   16.62    0.40
  -9  -1  -2   17.29    0.46
   9  -1   2   16.50    0.47
   9   1   2   17.06    0.36
   9   1   2   16.87    0.46
  -9   1  -2   17.05    0.37
  -9   1  -2   16.27    0.41
   9   1   2   16.60    0.36
 -11  -1  -2   15.37    0.46
  11  -1   2   13.26    0.44
  11  -1   2   12.78    0.35
 -11   1  -2   15.35    0.35
  11   1   2   13.53    0.43
 -11   1  -2   15.35    0.41
 -11   1  -2   15.51    0.44
  11   1   2   12.66    0.31
  13  -1   2   12.14    0.36
  13  -1   2   12.68    0.45
 -13  -1  -2   13.13    0.44
  13   1   2   13.11    0.32
  13   1   2   12.57    0.44
 -13   1  -2   12.79    0.39
 -13   1  -2   12.74    0.42
  15  -1   2    5.62    0.32
  15  -1   2    5.67    0.25
 -15  -1  -2    6.20    0.32
 -15   1  -2    5.73    0.29
  15   1   2    5.64    0.20
 -15   1  -2    6.37    0.28
  15   1   2    5.14    0.30
 -17  -1  -2   21.07    0.67
  17  -1   2   21.84    0.57
  17  -1   2   21.46    0.69
 -17   1  -2   21.23    0.60
 -17   1  -2   20.70    0.65
  17   1   2   22.65    0.51
  17   1   2   21.83    0.69
 -19  -1  -2    9.88    0.46
  19  -1   2    9.48    0.36
  19  -1   2    9.84    0.46
  19   1   2    9.25    0.46
  19   1   2    9.08    0.29
 -19   1  -2   10.22    0.46
  21  -1   2    1.25    0.22
  21  -1   2    1.41    0.17
 -21  -1  -2    0.89    0.20
 -21   1  -2    0.87    0.19
  21   1   2    1.54    0.25
  21   1   2    1.36    0.12
  23  -1   2    1.69    0.21
 -23  -1  -2    1.84    0.28
  23  -1   2    1.96    0.28
  23   1   2    1.80    0.28
 -23   1  -2    1.93    0.28
 -25   1  -2   16.03    0.71
 -24  -2   2    7.84    0.49
  24   2  -2    9.19    0.50
 -24   2   2    8.15    0.51
 -22  -2   2    0.37    0.17
  22  -2  -2    0.43    0.13
  22  -2  -2    0.32    0.14
 -22   2   2    0.51    0.15
  22   2  -2    0.52    0.17
 -22   2   2    0.27    0.16
 -20  -2   2    9.92    0.50
  20  -2  -2    8.38    0.41
  20  -2  -2    8.27    0.36
  20   2  -2    8.50    0.42
 -20   2   2    9.49    0.48
 -20   2   2   10.17    0.42
  20   2  -2    8.22    0.22
  18  -2  -2    9.30    0.40
 -18  -2   2    8.60    0.43
  18  -2  -2    8.96    0.36
  18   2  -2    8.74    0.41
 -18   2   2    8.49    0.36
  18   2  -2    9.00    0.25
 -18   2   2    8.98    0.43
 -16  -2   2    9.42    0.42
  16  -2  -2   10.71    0.40
  16  -2  -2   10.36    0.37
 -16   2   2    9.66    0.42
  16   2  -2   10.98    0.42
 -16   2   2    9.14    0.35
  16   2  -2   10.90    0.28
  14  -2  -2    7.34    0.29
  14  -2  -2    7.30    0.26
  14  -2  -2    7.68    0.31
 -14  -2   2    8.82    0.37
  14   2  -2    7.54    0.21
 -14   2   2    9.10    0.33
  14   2  -2    7.53    0.32
 -14   2   2    8.99    0.38
  12  -2  -2    3.40    0.19
  12  -2  -2    3.41    0.18
 -12  -2   2    3.84    0.22
  12   2  -2    3.51    0.12
 -12   2   2    3.30    0.21
  12   2  -2    3.34    0.20
 -12   2   2    3.55    0.18
  10  -2  -2   52.01    1.00
  10  -2  -2   52.45    1.02
 -10  -2   2   59.04    1.19
  10   2  -2   50.12    0.89
 -10   2   2   56.21    1.19
 -10   2   2   59.47    1.12
  10   2  -2   50.86    1.05
 -10   2   2   57.94    1.10
  10   2  -2   49.11    0.92
  10   2  -2   52.30    0.91
   8  -2  -2    4.45    0.18
  -8  -2   2    4.29    0.16
   8  -2  -2    4.79    0.18
  -8  -2   2    4.31    0.19
   8   2  -2    4.69    0.12
   8   2  -2    4.54    0.13
   8   2  -2    4.82    0.20
  -8   2   2    4.30    0.17
  -8   2   2    4.11    0.20
   8   2  -2    4.85    0.14
  -8   2   2    4.15    0.16
   6  -2  -2   19.74    0.43
  -6  -2   2   15.70    0.43
   6  -2  -2   18.37    0.41
  -6  -2   2   15.26    0.38
  -6   2   2   14.91    0.40
  -6   2   2   14.79    0.34
   6   2  -2   19.84    0.46
   6   2  -2   20.09    0.35
  -6   2   2   14.85    0.36
   6   2  -2   19.29    0.35
   6   2  -2   19.94    0.40
   4  -2  -2   14.76    0.32
   4  -2  -2   15.78    0.33
  -4  -2   2   15.54    0.35
  -4   2   2   15.20    0.38
  -4   2   2   15.15    0.30
   4   2  -2   15.53    0.33
  -4   2   2   15.55    0.31
   4   2  -2   15.48    0.37
  -4   2   2   15.26    0.35
  -2  -2   2   24.78    0.47
   2  -2  -2   25.38    0.46
   2   2  -2   25.17    0.52
  -2   2   2   24.98    0.50
   2   2  -2   25.01    0.42
   2   2  -2   24.10    0.42
   2   2  -2   25.07    0.50
  -2   2   2   24.12    0.52
   0  -2   2   15.73    0.37
   0   2  -2   13.51    0.26
   0   2   2   16.40    0.35
   0   2  -2   13.71    0.26
   0   2   2   16.44    0.32
   0   2  -2   13.92    0.32
   0   2   2   16.33    0.37
   2  -2   2    4.83    0.18
  -2  -2  -2    4.54    0.14
   2  -2   2    4.88    0.14
   2   2   2    5.16    0.15
   2   2   2    4.87    0.17
  -2   2  -2    4.48    0.16
  -2   2  -2    4.36    0.12
  -2   2  -2    4.72    0.13
  -4  -2  -2  135.72    2.31
   4  -2   2  128.96    2.14
   4  -2   2  122.95    2.21
  -4   2  -2  137.30    2.44
  -4   2  -2  135.26    2.33
  -4   2  -2  140.21    2.35
   4   2   2  124.36    2.20
  -6  -2  -2    3.35    0.12
   6  -2   2    3.53    0.14
   6  -2   2    3.88    0.19
  -6   2  -2    3.28    0.14
   6   2   2    3.52    0.17
  -6   2  -2    3.34    0.14
   6   2   2    3.79    0.16
  -6   2  -2    3.41    0.13
  -8  -2  -2   27.56    0.64
  -8  -2  -2   26.02    0.50
   8  -2   2   26.60    0.65
   8  -2   2   26.86    0.57
   8   2   2   26.23    0.61
  -8   2  -2   27.15    0.57
  -8   2  -2   27.17    0.58
  -8   2  -2   26.91    0.58
  10  -2   2   22.37    0.61
 -10  -2  -2   18.79    0.53
  10  -2   2   22.10    0.52
 -10   2  -2   20.10    0.50
 -10   2  -2   20.52    0.49
 -10   2  -2   20.49    0.46
  10   2   2   22.66    0.58
  12  -2   2   17.17    0.54
  12  -2   2   17.68    0.46
 -12  -2  -2   16.28    0.50
 -12   2  -2   16.46    0.40
 -12   2  -2   15.34    0.43
 -12   2  -2   15.91    0.46
  12   2   2   16.70    0.51
 -14  -2  -2   18.47    0.58
  14  -2   2   16.14    0.46
  14  -2   2   15.56    0.54
  14   2   2   15.88    0.53
 -14   2  -2   17.87    0.53
 -14   2  -2   18.55    0.51
  16  -2   2    0.47    0.13
 -16  -2  -2    0.38    0.12
  16  -2   2    0.42    0.10
 -16   2  -2    0.49    0.12
  16   2   2    0.36    0.12
 -18  -2  -2   21.65    0.71
  18  -2   2   23.20    0.74
  18  -2   2   22.04    0.62
 -18   2  -2   20.10    0.65
 -18   2  -2   19.51    0.59
  18   2   2   23.36    0.74
 -20  -2  -2    1.22    0.21
  20  -2   2    1.54    0.23
  20  -2   2    1.83    0.19
  20   2   2    2.00    0.26
 -20   2  -2    1.34    0.19
 -20   2  -2    1.04    0.19
  22  -2   2    4.62    0.29
  22  -2   2    5.23    0.39
 -22  -2  -2    3.11    0.34
 -22   2  -2    3.73    0.30
  22   2   2    5.01    0.37
 -22   2  -2    3.37    0.33
  24  -2   2    2.97    0.47
 -23  -3   2   28.66    0.97
  23  -3  -2   28.95    0.83
 -23   3   2   28.65    0.97
  23   3  -2   29.42    0.93
  21  -3  -2    6.57    0.35
  21  -3  -2    6.57    0.38
 -21  -3   2    3.88    0.33
 -21   3   2    4.04    0.29
 -21   3   2    4.12    0.35
  21   3  -2    6.20    0.39
  19  -3  -2    9.42    0.40
  19  -3  -2    9.20    0.42
 -19  -3   2    8.81    0.46
  19   3  -2    9.51    0.44
 -19   3   2    8.29    0.37
 -19   3   2    8.53    0.45
  17  -3  -2   16.13    0.53
  17  -3  -2   16.47    0.51
 -17  -3   2   16.71    0.60
  17   3  -2   15.99    0.56
 -17   3   2   15.97    0.51
 -17   3   2   17.23    0.61
  15  -3  -2    7.81    0.32
 -15  -3   2    9.03    0.40
  15  -3  -2    7.86    0.34
  15   3  -2    8.16    0.36
 -15   3   2    8.85    0.40
 -15   3   2    8.48    0.33
  13  -3  -2   39.57    0.85
  13  -3  -2   37.62    0.87
 -13  -3   2   35.85    0.89
 -13   3   2   36.61    0.79
 -13   3   2   36.32    0.80
 -13   3   2   36.99    0.91
  13   3  -2   38.20    0.91
  11  -3  -2   77.38    1.45
  11  -3  -2   77.53    1.49
 -11  -3   2   72.96    1.46
 -11   3   2   73.07    1.49
 -11   3   2   73.52    1.39
 -11   3   2   72.54    1.37
  11   3  -2   76.15    1.52
   9  -3  -2   89.17    1.64
   9  -3  -2   88.56    1.67
  -9  -3   2   90.84    1.73
  -9   3   2   92.27    1.68
   9   3  -2   93.48    1.72
  -9   3   2   92.96    1.76
  -9   3   2   92.30    1.64
   9   3  -2   91.81    1.57
   7  -3  -2   23.97    0.52
  -7  -3   2   26.16    0.59
   7  -3  -2   23.71    0.54
  -7   3   2   25.28    0.62
   7   3  -2   24.81    0.49
  -7   3   2   25.25    0.51
   7   3  -2   24.82    0.59
  -7   3   2   25.70    0.51
  -7   3   2   26.02    0.57
   5  -3  -2    3.83    0.14
   5  -3  -2    4.06    0.16
  -5  -3   2    3.89    0.16
   5   3  -2    3.90    0.14
  -5   3   2    3.86    0.16
  -5   3   2    3.74    0.09
   5   3  -2    4.19    0.19
  -5   3   2    3.83    0.18
  -5   3   2    3.84    0.09
  -3  -3   2  865.84   13.84
   3  -3  -2  832.61   14.25
  -3   3   2  806.45   14.09
   3   3  -2  820.42   14.52
  -3   3   2  751.11   14.03
   3   3  -2  858.87   14.42
   1  -3  -2   14.73    0.33
  -1  -3   2   13.72    0.29
   1   3  -2   14.76    0.35
  -1   3   2   14.65    0.35
  -1   3   2   14.45    0.37
   1  -3   2   11.69    0.32
   1   3   2   11.16    0.28
   1   3   2   11.20    0.29
  -1   3  -2    9.99    0.28
   1   3   2   11.47    0.31
   3  -3   2  140.91    2.48
   3  -3   2  136.69    2.38
   3   3   2  143.76    2.43
  -3   3  -2  137.61    2.38
  -3   3  -2  135.55    2.36
   3   3   2  141.28    2.41
  -3   3  -2  138.26    2.34
   3   3   2  140.70    2.46
   5  -3   2  104.76    1.87
  -5  -3  -2  107.07    1.83
   5  -3   2  108.97    1.97
  -5   3  -2  107.54    1.89
  -5   3  -2  108.65    1.84
   5   3   2  108.01    1.92
  -5   3  -2  104.43    1.81
  -5   3  -2  102.38    1.80
   5   3   2  108.70    1.95
   7  -3   2   32.55    0.67
   7  -3   2   31.61    0.75
  -7  -3  -2   33.45    0.64
  -7   3  -2   33.42    0.66
  -7   3  -2   34.20    0.71
   7   3   2   32.45    0.74
  -7   3  -2   33.75    0.68
   7   3   2   33.61    0.73
   9  -3   2   15.60    0.49
  -9  -3  -2   15.58    0.47
   9  -3   2   15.31    0.40
   9   3   2   15.61    0.45
  -9   3  -2   14.93    0.39
  -9   3  -2   15.67    0.40
  -9   3  -2   15.39    0.40
 -11  -3  -2   23.16    0.64
  11  -3   2   20.56    0.60
  11  -3   2   19.91    0.51
 -11   3  -2   24.34    0.59
 -11   3  -2   24.07    0.57
 -11   3  -2   24.29    0.56
  11   3   2   20.48    0.57
  13  -3   2   12.19    0.39
 -13  -3  -2   12.06    0.45
  13  -3   2   12.25    0.47
 -13   3  -2   12.42    0.36
  13   3   2   12.73    0.46
 -13   3  -2   11.69    0.40
 -13   3  -2   11.74    0.37
  15  -3   2    2.97    0.20
  15  -3   2    2.56    0.26
 -15  -3  -2    2.92    0.24
 -15   3  -2    2.94    0.20
 -15   3  -2    2.97    0.22
  15   3   2    3.12    0.24
  17  -3   2   62.64    1.32
  17  -3   2   62.84    1.45
 -17  -3  -2   64.34    1.47
  17   3   2   61.48    1.44
 -17   3  -2   61.89    1.32
  19  -3   2   22.59    0.76
 -19  -3  -2   23.46    0.79
  19  -3   2   21.83    0.65
 -19   3  -2   22.90    0.67
  19   3   2   22.23    0.76
  21  -3   2    0.97    0.21
  21  -3   2    0.72    0.15
 -21  -3  -2   -0.11    0.11
  21   3   2    1.08    0.22
 -21   3  -2    0.00    0.09
  23  -3   2    2.24    0.30
 -23  -3  -2    1.76    0.29
  23   3   2    1.67    0.27
 -22  -4   2    1.89    0.29
  22   4  -2    1.46    0.25
 -20  -4   2    1.12    0.21
 -20   4   2    1.20    0.23
 -20   4   2    1.45    0.18
  20   4  -2    1.58    0.23
  18  -4  -2   20.67    0.70
 -18  -4   2   21.28    0.73
 -18   4   2   21.07    0.60
 -18   4   2   21.74    0.74
  18   4  -2   20.32    0.69
  16  -4  -2   14.09    0.50
 -16  -4   2   16.05    0.59
  16   4  -2   14.27    0.54
 -16   4   2   16.61    0.60
 -16   4   2   16.56    0.49
 -14  -4   2   16.36    0.55
  14  -4  -2   15.38    0.50
 -14   4   2   15.23    0.44
 -14   4   2   14.78    0.54
  14   4  -2   14.82    0.52
 -14   4   2   15.93    0.47
 -12  -4   2   19.26    0.58
  12  -4  -2   20.84    0.58
 -12   4   2   18.70    0.47
  12   4  -2   21.30    0.62
 -12   4   2   19.64    0.52
  10  -4  -2   97.97    1.84
 -10  -4   2  107.92    1.98
  10   4  -2   97.47    1.89
 -10   4   2  100.98    1.83
 -10   4   2  103.70    1.93
 -10   4   2  103.77    2.01
   8  -4  -2   26.71    0.63
  -8  -4   2   26.84    0.65
   8   4  -2   26.83    0.56
  -8   4   2   27.30    0.64
   8   4  -2   27.56    0.68
  -8   4   2   27.56    0.51
  -8   4   2   27.79    0.51
  -8   4   2   26.72    0.68
   6  -4  -2    1.43    0.12
  -6  -4   2    1.35    0.11
   6   4  -2    1.39    0.10
  -6   4   2    1.59    0.13
   6   4  -2    1.33    0.14
  -6   4   2    1.37    0.12
  -4  -4   2   51.39    0.99
   4  -4  -2   52.56    1.02
  -4   4   2   53.19    1.04
  -4   4   2   53.30    1.06
   4   4  -2   54.97    1.10
  -2  -4   2   75.09    1.33
   2  -4  -2   73.17    1.35
   2   4  -2   74.73    1.38
  -2   4   2   75.54    1.41
  -2   4   2   76.64    1.42
   2   4  -2   75.84    1.43
   0  -4   2    4.52    0.13
   0  -4   2    4.33    0.20
   0   4   2    4.44    0.18
   0   4  -2    4.99    0.20
   2  -4   2   33.28    0.74
   2  -4   2   29.15    0.56
   2   4   2   33.88    0.69
   2   4   2   33.76    0.68
   2   4   2   33.96    0.72
  -2   4  -2   33.60    0.72
   4  -4   2  169.71    3.00
   4   4   2  170.24    2.91
   4   4   2  167.66    2.98
  -4   4  -2  166.53    2.82
  -4   4  -2  172.83    2.97
   6  -4   2   34.57    0.82
   6   4   2   35.48    0.80
  -6   4  -2   32.51    0.60
  -6   4  -2   31.35    0.61
   6   4   2   35.40    0.78
  -6   4  -2   32.46    0.72
  -8  -4  -2   21.85    0.48
   8   4   2   20.78    0.56
  -8   4  -2   21.80    0.55
  -8   4  -2   22.77    0.50
 -10  -4  -2   46.67    1.05
  10  -4   2   44.25    1.03
 -10   4  -2   45.17    0.96
  10   4   2   43.05    0.98
 -10   4  -2   45.90    0.92
 -12  -4  -2   38.07    0.94
  12  -4   2   37.01    0.95
  12   4   2   38.70    0.93
 -12   4  -2   37.51    0.84
 -12   4  -2   37.47    0.82
 -14  -4  -2    5.51    0.32
  14  -4   2    6.68    0.37
  14   4   2    6.56    0.34
 -14   4  -2    5.66    0.26
 -14   4  -2    5.60    0.26
  16  -4   2    5.21    0.35
 -16  -4  -2    5.69    0.34
 -16   4  -2    5.61    0.28
  16   4   2    4.32    0.32
  18  -4   2   14.92    0.61
 -18  -4  -2   10.17    0.49
 -18   4  -2   10.86    0.42
  18   4   2   14.25    0.60
  20  -4   2    5.95    0.41
  20  -4   2    5.75    0.35
 -20  -4  -2    5.80    0.41
 -20   4  -2    5.28    0.31
  20   4   2    6.08    0.42
 -22  -4  -2    2.03    0.31
  22  -4   2    2.28    0.30
  22  -4   2    2.38    0.31
  22   4   2    2.71    0.35
 -21  -5   2    3.24    0.36
  21   5  -2    2.96    0.34
 -19  -5   2    3.90    0.34
 -19   5   2    3.88    0.24
  19   5  -2    3.36    0.30
 -17  -5   2    2.12    0.26
 -17   5   2    1.69    0.17
  17   5  -2    3.44    0.30
 -15  -5   2    4.59    0.31
 -15   5   2    4.35    0.36
 -15   5   2    4.46    0.26
  15   5  -2    4.50    0.30
 -15   5   2    4.51    0.21
  13  -5  -2   66.78    1.44
 -13  -5   2   61.13    1.34
 -13   5   2   61.47    1.37
 -13   5   2   59.10    1.26
  13   5  -2   63.04    1.43
 -13   5   2   57.78    1.12
  11  -5  -2    6.87    0.31
 -11  -5   2    5.55    0.29
  11   5  -2    6.85    0.33
 -11   5   2    5.43    0.30
 -11   5   2    5.83    0.28
   9  -5  -2    1.04    0.14
  -9  -5   2    0.65    0.11
  -9   5   2    0.62    0.11
  -9   5   2    0.90    0.14
   9   5  -2    0.90    0.15
   7  -5  -2   29.85    0.70
  -7  -5   2   26.33    0.64
   7   5  -2   29.38    0.65
   7   5  -2   31.02    0.76
  -7   5   2   28.09    0.67
  -7   5   2   27.12    0.68
  -5  -5   2    5.89    0.23
   5  -5  -2    7.07    0.26
   5   5  -2    6.85    0.25
  -5   5   2    5.95    0.25
   5   5  -2    6.80    0.30
  -5   5   2    6.36    0.27
  -3  -5   2   54.16    1.03
   3  -5  -2   51.68    1.03
  -3   5   2   55.02    1.11
   3   5  -2   51.28    1.03
  -3   5   2   54.45    1.11
   3   5  -2   52.22    1.10
  -1  -5   2    4.39    0.23
   1  -5  -2    4.10    0.19
  -1   5   2    4.69    0.21
  -1   5   2    4.32    0.21
   1   5  -2    3.79    0.19
   1  -5   2   28.46    0.70
   1   5   2   27.07    0.65
   1   5   2   28.17    0.64
  -1   5  -2   22.16    0.55
   3  -5   2    0.44    0.09
   3   5   2    0.46    0.09
   3   5   2    0.47    0.08
   3   5   2    0.73    0.10
  -3   5  -2    0.23    0.08
   5  -5   2    6.27    0.30
   5   5   2    6.59    0.24
   5   5   2    6.38    0.27
   5   5   2    6.61    0.28
  -5   5  -2    5.33    0.24
   7  -5   2   83.14    1.68
   7   5   2   83.47    1.65
  -7   5  -2   76.36    1.50
   7   5   2   82.94    1.63
   9  -5   2   11.14    0.44
  -9  -5  -2   11.65    0.43
  -9   5  -2   11.18    0.39
   9   5   2   11.09    0.41
  -9   5  -2   11.57    0.29
 -11  -5  -2    1.10    0.16
  11  -5   2    2.74    0.27
 -11   5  -2    1.11    0.14
  11   5   2    2.72    0.21
 -11   5  -2    1.20    0.12
 -13  -5  -2    9.52    0.43
  13  -5   2    8.63    0.43
  13   5   2    8.73    0.41
 -13   5  -2    8.71    0.31
 -13   5  -2    9.25    0.36
 -15  -5  -2   11.39    0.51
  15  -5   2    9.84    0.48
 -15   5  -2   12.15    0.43
 -15   5  -2   11.72    0.39
  15   5   2   10.78    0.48
 -17  -5  -2   11.69    0.54
  17  -5   2   11.32    0.53
 -17   5  -2   11.05    0.40
  17   5   2   10.45    0.50
  19  -5   2    0.88    0.22
 -19  -5  -2    1.24    0.24
  19   5   2    0.65    0.18
 -19   5  -2    1.07    0.16
  21  -5   2    3.32    0.35
 -21  -5  -2    4.33    0.50
  21   5   2    3.89    0.42
 -20  -6   2   12.85    0.63
 -18  -6   2   15.18    0.63
  18   6  -2   14.13    0.62
 -16  -6   2   18.63    0.67
 -16   6   2   18.08    0.60
  16   6  -2   20.08    0.72
 -14  -6   2    4.34    0.30
  14   6  -2    2.67    0.29
 -14   6   2    4.53    0.29
 -12  -6   2    1.10    0.17
  12   6  -2    0.65    0.16
 -12   6   2    1.17    0.17
 -10  -6   2   90.73    1.79
  10   6  -2   77.62    1.65
 -10   6   2   88.75    1.79
  -8   6   2    2.44    0.20
   8   6  -2    2.09    0.15
   8   6  -2    2.44    0.22
   6  -6  -2   15.01    0.46
  -6   6   2   13.00    0.43
  -6   6   2   12.52    0.42
   6   6  -2   15.25    0.43
   6   6  -2   15.50    0.51
   4  -6  -2   10.67    0.36
  -4   6   2    9.70    0.36
   4   6  -2   10.39    0.35
   4   6  -2   10.39    0.40
  -4   6   2    9.80    0.35
   2  -6  -2   17.35    0.48
  -2  -6   2   17.37    0.54
  -2   6   2   17.21    0.50
   2   6  -2   17.48    0.49
  -2   6   2   17.96    0.49
   0  -6  -2   26.22    0.64
   0  -6   2   25.09    0.69
   0   6   2   26.87    0.65
   0   6  -2   25.32    0.64
   0   6   2   25.30    0.64
   2  -6   2    1.70    0.18
  -2   6  -2    2.39    0.17
   2   6   2    2.00    0.16
   2   6   2    1.96    0.16
  -4   6  -2  148.14    2.70
   6  -6   2    0.47    0.12
   6   6   2    0.68    0.13
  -6   6  -2    1.02    0.14
   6   6   2    0.58    0.10
   6   6   2    0.63    0.12
  -8  -6  -2   13.80    0.49
   8  -6   2   11.31    0.47
   8   6   2   12.78    0.45
  -8   6  -2   13.97    0.47
  10  -6   2   47.50    1.17
 -10  -6  -2   44.34    1.09
 -10   6  -2   45.14    1.04
  10   6   2   47.13    1.13
  12  -6   2   27.41    0.84
 -12  -6  -2   24.10    0.76
  12   6   2   27.42    0.81
 -12   6  -2   26.66    0.72
  14  -6   2   15.11    0.61
 -14  -6  -2   16.96    0.63
 -14   6  -2   17.16    0.56
 -14   6  -2   16.59    0.41
  14   6   2   14.75    0.59
 -16  -6  -2    0.80    0.19
  16  -6   2    0.66    0.19
  16   6   2    0.38    0.17
 -16   6  -2    0.57    0.14
  18  -6   2   25.61    0.88
 -18  -6  -2   22.45    0.81
 -18   6  -2   20.77    0.57
  18   6   2   24.63    0.87
  20  -6   2    3.66    0.39
  17   7  -2    4.36    0.37
 -17   7   2    5.24    0.35
  15   7  -2    8.13    0.45
 -15   7   2    9.34    0.44
 -13   7   2    3.91    0.29
  13   7  -2    4.19    0.33
  11   7  -2   24.33    0.78
 -11   7   2   22.02    0.68
   9   7  -2   24.03    0.75
  -9   7   2   24.91    0.72
   7   7  -2    6.45    0.36
   7   7  -2    6.57    0.29
  -7   7   2    6.42    0.32
  -5   7   2    1.39    0.18
   5   7  -2    1.63    0.17
  -3  -7   2   75.12    1.60
  -3   7   2   74.00    1.53
   3   7  -2   74.78    1.51
  -1  -7   2    2.54    0.22
   1  -7  -2    1.80    0.18
   1   7  -2    1.99    0.20
  -1   7   2    2.29    0.20
   1  -7   2    5.41    0.30
  -1  -7  -2    5.16    0.27
  -1   7  -2    5.74    0.29
   1   7   2    4.92    0.26
   1   7   2    5.16    0.26
   3  -7   2   31.57    0.85
  -3  -7  -2   31.19    0.78
  -3   7  -2   29.79    0.78
   3   7   2   30.62    0.76
   3   7   2   31.08    0.78
   5  -7   2   28.26    0.81
   5   7   2   29.21    0.76
   5   7   2   27.91    0.75
  -5   7  -2   26.88    0.74
  -7  -7  -2    9.94    0.42
   7  -7   2    9.64    0.45
  -7   7  -2    9.52    0.41
   7   7   2   10.52    0.43
  -9  -7  -2   21.10    0.67
   9  -7   2   18.33    0.65
   9   7   2   18.29    0.62
  -9   7  -2   20.30    0.64
  11  -7   2    7.24    0.43
 -11  -7  -2   10.04    0.46
 -11   7  -2   10.24    0.43
  11   7   2    8.16    0.42
 -13  -7  -2   12.74    0.55
  13  -7   2   13.94    0.61
 -13   7  -2   12.29    0.50
  13   7   2   14.49    0.59
 -15  -7  -2    5.32    0.38
  15  -7   2    5.53    0.41
  15   7   2    4.86    0.38
 -15   7  -2    5.69    0.34
 -17  -7  -2    2.98    0.34
  17  -7   2    2.30    0.32
  17   7   2    2.80    0.36
  14   8  -2   15.50    0.67
 -14   8   2   15.58    0.61
  12   8  -2   10.98    0.54
 -12   8   2   10.66    0.49
 -10   8   2    0.52    0.14
  10   8  -2    0.22    0.14
  -8   8   2    6.91    0.37
  -6  -8   2   11.64    0.51
   6   8  -2    4.33    0.25
  -6   8   2   11.89    0.48
  -4  -8   2    7.49    0.40
   4   8  -2    8.72    0.37
  -4   8   2    7.15    0.37
  -2  -8   2    8.01    0.41
   2   8  -2    7.05    0.34
  -2   8   2    8.15    0.38
   0  -8   2   16.65    0.60
   0   8  -2   14.76    0.52
   0   8   2   16.45    0.55
   2  -8   2    9.48    0.45
   2   8   2    9.34    0.39
  -2   8  -2    9.07    0.40
   4  -8   2    1.29    0.21
  -4   8  -2    2.16    0.23
   4   8   2    1.28    0.18
   6  -8   2   13.14    0.56
  -6   8  -2   12.32    0.49
   8  -8   2   33.90    0.98
   8   8   2   32.33    0.92
  -8   8  -2   31.58    0.88
  10  -8   2    3.97    0.35
  10   8   2    3.66    0.31
 -10   8  -2    2.64    0.28
  12  -8   2    2.91    0.34
 -12   8  -2    2.45    0.27
  12   8   2    2.71    0.31
 -14  -8  -2   31.84    1.33
  14  -8   2   29.09    0.97
  14   8   2   29.77    0.96
 -14   8  -2   30.65    0.91
  -9  -9   2    5.30    0.38
  -9   9   2    4.92    0.35
  -7  -9   2   13.91    0.61
  -7   9   2   13.92    0.57
  -5  -9   2    4.34    0.34
  -5   9   2    4.57    0.33
  -3  -9   2   36.42    1.04
  -3   9   2   36.60    0.99
   3   9  -2   37.69    0.98
  -1  -9   2    3.91    0.33
  -1   9   2    3.89    0.30
   1   9  -2    4.29    0.30
   1  -9   2   10.27    0.50
  -1   9  -2    9.80    0.44
   1   9   2    9.97    0.45
   3  -9   2    9.61    0.50
  -3   9  -2    7.29    0.39
   3   9   2    9.76    0.44
   5  -9   2    5.79    0.40
  -5   9  -2    4.15    0.32
   7  -9   2   15.49    0.66
  -7   9  -2   15.42    0.60
   9  -9   2    0.37    0.20
  -9   9  -2    0.29    0.15
  11  -9   2    0.62    0.30
  -4 -10   2    2.46    0.32
  -2 -10   2    2.96    0.33
  -2  10   2    4.44    0.43
   2  10  -2    2.97    0.30
   0 -10   2    0.31    0.17
   0  10  -2    1.28    0.22
   0  10   2    0.40    0.16
   2 -10   2    5.89    0.44
   2  10   2    5.52    0.38
   4 -10   2    8.51    0.51
 -24   0   3    0.03    0.15
  24   0  -3    0.05    0.14
 -22   0   3   -0.08    0.12
  22   0  -3   -0.02    0.08
  22   0  -3    0.12    0.11
  20   0  -3    0.03    0.09
  20   0  -3   -0.04    0.06
 -20   0   3    0.04    0.12
  18   0  -3   -0.05    0.05
 -18   0   3    0.10    0.11
  18   0  -3    0.08    0.09
  16   0  -3    0.17    0.08
  16   0  -3    0.01    0.05
 -16   0   3    0.02    0.08
 -16   0   3   -0.02    0.06
 -14   0   3   -0.02    0.07
 -14   0   3    0.16    0.07
  14   0  -3    0.05    0.06
  14   0  -3    0.11    0.05
  12   0  -3    0.22    0.06
  12   0  -3    0.00    0.04
 -12   0   3    0.05    0.06
 -12   0   3    0.10    0.07
  12   0  -3    0.07    0.05
  10   0  -3   -0.03    0.04
  10   0  -3    0.02    0.04
 -10   0   3    0.00    0.04
 -10   0   3    0.04    0.05
  10   0  -3    0.01    0.04
   8   0  -3    0.08    0.03
  -8   0   3    0.17    0.06
  -8   0   3    0.06    0.04
   8   0  -3    0.09    0.04
   8   0  -3    0.04    0.04
  -6   0   3    0.15    0.05
   6   0  -3    0.06    0.03
   6   0  -3    0.02    0.03
  -6   0   3    0.01    0.03
   6   0  -3    0.04    0.03
  -4   0   3    0.06    0.03
   4   0  -3    0.04    0.03
   4   0  -3    0.05    0.04
  -4   0   3    0.10    0.04
   4   0  -3    0.18    0.03
   2   0  -3    0.02    0.02
   2   0  -3    0.09    0.02
   2   0  -3    0.04    0.04
  -2   0   3    0.02    0.03
  -2   0   3    0.10    0.04
   0   0  -3    0.02    0.03
   2   0   3    0.07    0.03
   2   0   3    0.17    0.04
  -2   0  -3    0.08    0.04
  -2   0  -3    0.54    0.06
   2   0   3    0.06    0.03
   4   0   3   -0.01    0.04
   4   0   3    0.01    0.02
  -4   0  -3    0.13    0.03
   4   0   3    0.02    0.02
  -4   0  -3    0.00    0.03
   6   0   3    0.15    0.04
  -6   0  -3    0.52    0.06
   6   0   3    0.06    0.05
   6   0   3    0.01    0.02
  -6   0  -3    0.11    0.04
   8   0   3    0.00    0.03
  -8   0  -3    0.00    0.03
  -8   0  -3    0.00    0.04
  -8   0  -3    0.01    0.03
   8   0   3    0.03    0.05
 -10   0  -3    0.07    0.03
  10   0   3   -0.02    0.03
 -10   0  -3    0.03    0.05
  10   0   3    0.03    0.07
 -10   0  -3    0.02    0.04
  12   0   3    0.05    0.04
 -12   0  -3    0.05    0.06
 -12   0  -3    0.04    0.05
  12   0   3   -0.04    0.07
  14   0   3    0.03    0.08
 -14   0  -3    0.07    0.07
  14   0   3    0.02    0.04
  16   0   3    0.03    0.05
 -16   0  -3    0.01    0.07
  16   0   3    0.02    0.08
  18   0   3   -0.04    0.09
 -18   0  -3    0.02    0.09
  18   0   3   -0.10    0.05
  20   0   3    0.03    0.13
 -20   0  -3    0.02    0.10
  20   0   3   -0.01    0.06
  22   0   3   -0.02    0.11
  22   0   3    0.05    0.07
 -22   0  -3    0.03    0.13
 -24   0  -3    0.00    0.14
  25   1  -3   13.16    0.71
 -23  -1   3    8.13    0.49
  23  -1  -3    8.29    0.43
  23  -1  -3    8.16    0.37
  23   1  -3    7.83    0.44
  23   1  -3    8.06    0.30
 -23   1   3    7.33    0.47
  21  -1  -3   24.67    0.68
  21  -1  -3   24.21    0.74
 -21  -1   3   26.63    0.88
  21   1  -3   24.78    0.61
  21   1  -3   24.66    0.76
 -21   1   3   27.00    0.87
 -21   1   3   26.74    0.77
  19  -1  -3   22.56    0.62
  19  -1  -3   24.36    0.69
 -19  -1   3   20.44    0.71
 -19   1   3   20.60    0.71
  19   1  -3   22.69    0.57
 -19   1   3   20.96    0.63
  19   1  -3   22.38    0.69
 -17  -1   3    6.10    0.35
  17  -1  -3    7.18    0.33
  17  -1  -3    7.05    0.30
  17   1  -3    6.62    0.33
  17   1  -3    7.16    0.26
 -17   1   3    5.96    0.35
 -17   1   3    6.65    0.31
  15  -1  -3  233.25    4.03
  15  -1  -3  235.85    4.06
 -15  -1   3  227.22    4.03
  15   1  -3  229.24    4.08
 -15   1   3  220.40    3.91
  15   1  -3  230.28    3.97
 -15   1   3  222.97    4.04
  13  -1  -3   13.68    0.39
  13  -1  -3   14.21    0.41
  13  -1  -3   13.71    0.37
 -13  -1   3   13.56    0.46
 -13  -1   3   13.84    0.41
 -13   1   3   13.91    0.41
 -13   1   3   14.26    0.47
  13   1  -3   13.57    0.36
  13   1  -3   14.11    0.43
  11  -1  -3    2.49    0.15
 -11  -1   3    5.60    0.23
  11  -1  -3    2.33    0.13
 -11  -1   3    5.63    0.26
  11  -1  -3    2.46    0.14
 -11   1   3    6.24    0.28
  11   1  -3    2.63    0.13
  11   1  -3    2.53    0.13
  11   1  -3    2.50    0.16
 -11   1   3    5.64    0.23
   9  -1  -3  114.08    2.00
   9  -1  -3  113.39    2.00
   9  -1  -3  109.52    2.01
  -9  -1   3  117.88    2.12
  -9  -1   3  116.01    2.06
  -9   1   3  113.47    2.06
   9   1  -3  116.02    2.04
   9   1  -3  117.85    1.99
  -9   1   3  117.28    2.14
   9   1  -3  113.88    1.99
  -7  -1   3  113.25    1.99
   7  -1  -3  114.95    2.03
   7  -1  -3  117.40    2.01
  -7  -1   3  114.13    2.03
   7   1  -3  119.07    2.05
   7   1  -3  118.13    2.01
  -7   1   3  116.29    1.98
   7   1  -3  116.62    2.04
  -7   1   3  110.35    2.05
   5  -1  -3    2.43    0.12
   5  -1  -3    2.60    0.11
  -5  -1   3    0.65    0.07
  -5  -1   3    0.58    0.07
   5  -1  -3    2.70    0.09
   5   1  -3    2.56    0.12
   5   1  -3    2.61    0.12
  -5   1   3    0.80    0.09
   5   1  -3    2.99    0.11
  -5   1   3    0.71    0.07
  -3  -1   3   18.42    0.40
  -3  -1   3   18.59    0.39
   3  -1  -3   18.31    0.38
   3  -1  -3   18.21    0.40
   3  -1  -3   18.38    0.32
   3   1  -3   18.02    0.39
   3   1  -3   18.29    0.41
   3   1  -3   18.45    0.37
  -3   1   3   18.48    0.38
  -3   1   3   17.63    0.43
  -1  -1   3  152.03    2.68
   1  -1  -3  120.00    2.14
  -1  -1   3  162.42    2.89
   1  -1  -3  126.59    2.18
  -1  -1   3  158.00    2.76
  -1   1   3  157.68    2.67
  -1   1   3  159.47    2.70
  -1   1   3  145.68    2.83
   1   1  -3  128.40    2.23
  -1  -1  -3   19.94    0.43
   1  -1   3   18.57    0.40
  -1  -1  -3   19.77    0.38
   1  -1   3   19.41    0.37
   1  -1   3   18.51    0.39
  -1   1  -3   19.43    0.43
   1   1   3   18.90    0.35
   1   1   3   18.63    0.35
   1   1   3   19.07    0.36
  -3  -1  -3    5.00    0.17
  -3  -1  -3    5.47    0.16
   3  -1   3    1.99    0.12
   3  -1   3    1.90    0.09
   3  -1   3    2.23    0.09
   3   1   3    2.11    0.11
   3   1   3    2.03    0.10
  -3   1  -3    5.31    0.16
   3   1   3    2.16    0.07
   3   1   3    2.15    0.07
  -3   1  -3    5.27    0.17
  -5  -1  -3  160.79    2.81
   5  -1   3  169.26    2.76
   5  -1   3  163.40    2.83
  -5  -1  -3  162.43    2.79
   5   1   3  162.20    2.79
  -5   1  -3  166.18    2.81
   5   1   3  160.92    2.77
  -5   1  -3  170.06    2.83
   5   1   3  164.22    2.80
  -5   1  -3  171.19    2.83
   5   1   3  152.76    2.78
   7  -1   3  108.57    1.91
  -7  -1  -3  110.72    1.90
   7  -1   3  108.24    1.99
  -7  -1  -3  106.56    1.88
   7   1   3  109.03    1.85
  -7   1  -3  112.27    1.91
  -7   1  -3  111.37    1.93
   7   1   3  104.25    1.84
   7   1   3  109.87    1.97
  -7   1  -3  108.97    1.93
   7   1   3  112.31    1.97
  -9  -1  -3    8.08    0.29
   9  -1   3   12.72    0.42
   9  -1   3   13.50    0.35
  -9  -1  -3    8.21    0.25
  -9  -1  -3    8.12    0.20
  -9   1  -3    8.10    0.27
   9   1   3   13.50    0.31
  -9   1  -3    8.69    0.27
  -9   1  -3    8.25    0.24
   9   1   3   13.00    0.31
   9   1   3   14.21    0.42
  11  -1   3   16.02    0.51
 -11  -1  -3   16.30    0.48
  11  -1   3   15.97    0.42
  11   1   3   16.07    0.37
 -11   1  -3   16.03    0.38
  11   1   3   16.05    0.49
 -11   1  -3   16.44    0.43
  13  -1   3  279.15    4.95
  13  -1   3  291.08    4.81
 -13  -1  -3  291.12    4.99
  13   1   3  284.40    4.95
 -13   1  -3  288.89    4.95
 -13   1  -3  277.67    4.89
  13   1   3  272.14    4.72
  15  -1   3    3.70    0.20
  15  -1   3    3.73    0.27
 -15  -1  -3    4.00    0.26
  15   1   3    3.60    0.27
  15   1   3    3.56    0.16
 -15   1  -3    4.17    0.23
 -15   1  -3    3.92    0.24
  17  -1   3   18.19    0.51
  17  -1   3   18.41    0.64
 -17  -1  -3   19.59    0.65
 -17   1  -3   19.45    0.62
  17   1   3   17.79    0.43
 -17   1  -3   18.78    0.56
  17   1   3   17.38    0.62
  19  -1   3   28.93    0.72
  19  -1   3   28.33    0.87
 -19  -1  -3   25.46    0.81
  19   1   3   27.77    0.86
 -19   1  -3   26.16    0.79
  19   1   3   28.47    0.61
 -21  -1  -3   19.47    0.72
  21  -1   3   20.57    0.74
  21  -1   3   20.26    0.59
  21   1   3   19.77    0.74
  21   1   3   20.32    0.46
 -21   1  -3   18.41    0.68
  23  -1   3    9.48    0.53
 -23  -1  -3   10.72    0.55
 -23   1  -3   10.21    0.53
  23   1   3    9.69    0.53
 -24  -2   3    1.12    0.27
  24   2  -3    0.82    0.20
 -24   2   3    0.97    0.25
  22  -2  -3   66.28    1.44
 -22  -2   3   69.47    1.69
 -22   2   3   68.75    1.53
 -22   2   3   71.52    1.70
  22   2  -3   66.85    1.55
  20  -2  -3   12.78    0.48
 -20  -2   3   12.47    0.56
  20  -2  -3   11.78    0.45
  20   2  -3   12.44    0.51
 -20   2   3   12.10    0.55
  20   2  -3   12.25    0.32
 -20   2   3   12.25    0.47
  18  -2  -3    9.86    0.38
  18  -2  -3    9.86    0.40
 -18  -2   3    6.11    0.37
 -18   2   3    6.02    0.36
  18   2  -3    9.52    0.42
  18   2  -3    9.90    0.28
 -18   2   3    5.90    0.31
  16  -2  -3   28.60    0.71
 -16  -2   3   28.29    0.81
  16  -2  -3   28.44    0.73
 -16   2   3   29.54    0.83
  16   2  -3   29.72    0.77
 -16   2   3   29.25    0.73
  16   2  -3   28.16    0.60
  14  -2  -3   97.64    1.82
 -14  -2   3   96.91    1.91
  14  -2  -3   95.91    1.78
  14  -2  -3   94.20    1.82
  14   2  -3  100.21    1.71
 -14   2   3   95.86    1.81
  14   2  -3   95.26    1.87
 -14   2   3   93.68    1.92
  12  -2  -3   25.72    0.61
 -12  -2   3   20.21    0.58
  12  -2  -3   26.10    0.61
  12  -2  -3   26.06    0.60
 -12   2   3   20.64    0.52
  12   2  -3   26.72    0.54
 -12   2   3   19.67    0.58
  12   2  -3   26.43    0.65
  10  -2  -3   30.97    0.66
 -10  -2   3   30.98    0.72
  10  -2  -3   30.06    0.66
  10   2  -3   30.64    0.59
  10   2  -3   29.92    0.61
  10   2  -3   31.13    0.70
  10   2  -3   30.65    0.59
 -10   2   3   30.18    0.75
 -10   2   3   30.06    0.66
   8  -2  -3  156.47    2.64
  -8  -2   3  132.30    2.36
   8  -2  -3  157.63    2.68
   8  -2  -3  151.07    2.66
  -8  -2   3  129.67    2.31
  -8   2   3  132.78    2.41
  -8   2   3  135.56    2.30
   8   2  -3  159.97    2.71
   8   2  -3  151.50    2.68
   8   2  -3  151.14    2.61
   8   2  -3  149.72    2.60
  -6  -2   3   26.55    0.55
  -6  -2   3   27.36    0.59
   6  -2  -3   28.36    0.54
   6  -2  -3   26.98    0.59
   6  -2  -3   26.89    0.56
   6   2  -3   27.56    0.56
  -6   2   3   26.83    0.62
   6   2  -3   27.91    0.60
   6   2  -3   27.05    0.52
  -6   2   3   25.92    0.53
   6   2  -3   27.70    0.52
   4  -2  -3    3.49    0.11
   4  -2  -3    3.52    0.13
  -4  -2   3    2.11    0.11
   4  -2  -3    3.32    0.15
  -4  -2   3    2.14    0.10
   4   2  -3    3.56    0.15
  -4   2   3    2.29    0.09
  -4   2   3    2.03    0.13
   4   2  -3    3.76    0.11
  -4   2   3    2.16    0.09
   4   2  -3    3.41    0.11
  -2  -2   3  219.16    3.94
   2  -2  -3  213.78    3.97
  -2  -2   3  220.04    3.87
   2  -2  -3  220.58    3.70
   2   2  -3  221.25    3.72
  -2   2   3  215.08    3.94
   2   2  -3  218.88    3.76
   2   2  -3  225.25    3.87
   2   2  -3  217.95    3.70
   0  -2   3  172.58    2.95
   0  -2  -3  174.57    2.87
   0  -2   3  171.25    2.90
   0  -2   3  166.17    2.90
   0   2  -3  167.14    2.87
   0   2  -3  165.23    2.99
   0   2   3  166.69    2.93
   0   2  -3  166.97    2.89
   0   2   3  172.39    2.93
  -2  -2  -3    3.54    0.14
   2  -2   3    5.49    0.20
   2  -2   3    5.59    0.17
   2   2   3    5.97    0.16
  -2   2  -3    3.69    0.13
  -2   2  -3    3.58    0.15
   2   2   3    5.79    0.21
   4  -2   3   39.84    0.82
  -4  -2  -3   39.60    0.76
   4  -2   3   39.55    0.75
   4   2   3   39.39    0.76
  -4   2  -3   39.28    0.78
  -4   2  -3   39.98    0.70
   4   2   3   38.92    0.81
  -4   2  -3   38.94    0.76
  -6  -2  -3  491.59    8.80
   6  -2   3  559.70    9.98
   6  -2   3  570.83    9.78
   6   2   3  551.04   10.01
  -6   2  -3  531.40    9.01
   6   2   3  548.87    9.69
  -6   2  -3  511.96    8.79
  -6   2  -3  519.50    8.93
   8  -2   3    7.23    0.24
   8  -2   3    7.30    0.31
  -8  -2  -3    6.95    0.20
  -8   2  -3    6.99    0.22
   8   2   3    7.37    0.28
   8   2   3    7.39    0.27
  -8   2  -3    7.03    0.23
  -8   2  -3    6.47    0.23
 -10  -2  -3    8.25    0.32
  10  -2   3   12.82    0.36
  10  -2   3   12.51    0.44
  10   2   3   12.67    0.41
 -10   2  -3    8.90    0.29
 -10   2  -3    8.57    0.28
 -10   2  -3    8.96    0.27
  12  -2   3   73.51    1.45
  12  -2   3   76.23    1.59
 -12  -2  -3   73.36    1.52
  12   2   3   78.67    1.56
 -12   2  -3   74.45    1.43
 -12   2  -3   74.25    1.45
 -12   2  -3   75.24    1.38
 -14  -2  -3   34.36    0.89
  14  -2   3   37.86    0.85
  14  -2   3   38.40    0.98
  14   2   3   36.83    0.94
 -14   2  -3   36.01    0.84
 -14   2  -3   35.14    0.81
  16  -2   3   15.68    0.47
  16  -2   3   15.17    0.57
 -16  -2  -3   13.75    0.52
  16   2   3   16.03    0.58
 -16   2  -3   13.69    0.48
 -16   2  -3   13.30    0.45
 -18  -2  -3   18.45    0.65
  18  -2   3   17.52    0.65
  18  -2   3   16.73    0.52
  18   2   3   17.17    0.64
 -18   2  -3   16.13    0.57
 -18   2  -3   16.46    0.54
  20  -2   3   36.24    1.06
 -20  -2  -3   45.59    1.21
  20  -2   3   38.70    0.93
  20   2   3   39.64    1.10
 -20   2  -3   44.47    1.08
 -22  -2  -3    5.87    0.40
  22  -2   3    5.56    0.41
  22  -2   3    5.35    0.31
 -22   2  -3    5.65    0.35
  22   2   3    4.95    0.38
  23  -3  -3    2.55    0.27
 -23  -3   3    2.57    0.32
  23   3  -3    2.98    0.33
 -23   3   3    2.68    0.36
  21  -3  -3    6.46    0.35
 -21  -3   3    6.09    0.42
 -21   3   3    5.57    0.33
  21   3  -3    5.26    0.36
 -21   3   3    5.96    0.42
 -19  -3   3    2.10    0.27
  19  -3  -3    2.04    0.22
 -19   3   3    2.37    0.29
 -19   3   3    1.72    0.20
  19   3  -3    1.72    0.22
  17  -3  -3    1.74    0.19
  17  -3  -3    2.25    0.21
 -17  -3   3    1.73    0.22
  17   3  -3    1.82    0.22
 -17   3   3    1.73    0.18
 -17   3   3    1.92    0.24
 -15  -3   3    1.53    0.20
  15  -3  -3    2.05    0.17
  15  -3  -3    1.73    0.18
  15  -3  -3    2.00    0.19
  15   3  -3    1.80    0.20
 -15   3   3    1.68    0.21
 -15   3   3    1.49    0.16
  13  -3  -3    2.59    0.17
  13  -3  -3    2.71    0.20
 -13  -3   3    2.79    0.22
  13  -3  -3    2.76    0.19
 -13   3   3    2.89    0.23
 -13   3   3    2.73    0.18
  13   3  -3    2.73    0.20
  11  -3  -3   15.75    0.43
  11  -3  -3   15.78    0.46
 -11  -3   3   17.24    0.51
  11  -3  -3   16.09    0.44
  11   3  -3   16.16    0.48
 -11   3   3   16.68    0.53
 -11   3   3   16.40    0.43
   9  -3  -3    6.76    0.24
   9  -3  -3    7.30    0.25
  -9  -3   3    7.06    0.28
   9   3  -3    7.05    0.21
  -9   3   3    6.75    0.30
   9   3  -3    7.25    0.28
  -9   3   3    6.96    0.23
   7  -3  -3    5.17    0.19
   7  -3  -3    4.69    0.18
  -7  -3   3    4.80    0.20
  -7   3   3    4.87    0.20
  -7   3   3    5.01    0.16
  -7   3   3    5.10    0.16
   7   3  -3    4.71    0.21
   7   3  -3    4.75    0.17
  -7   3   3    4.88    0.24
   5  -3  -3   50.02    0.95
  -5  -3   3   44.79    0.96
   5  -3  -3   51.74    0.94
   5   3  -3   52.40    1.03
  -5   3   3   53.34    1.06
  -5   3   3   52.96    1.00
   5   3  -3   51.97    0.98
  -5   3   3   51.44    0.86
  -5   3   3   52.26    0.86
   3  -3  -3   41.26    0.73
  -3  -3   3   42.40    0.76
  -3   3   3   38.38    0.84
  -3   3   3   39.14    0.80
   3   3  -3   41.16    0.83
   3   3  -3   37.62    0.79
  -1  -3   3    6.26    0.15
   1  -3  -3    5.63    0.16
  -1  -3   3    5.94    0.23
  -1   3   3    6.02    0.23
   1   3  -3    5.73    0.20
   1  -3   3   28.19    0.57
   1  -3   3   29.67    0.65
  -1  -3  -3   28.85    0.61
   1   3   3   29.36    0.57
  -1   3  -3   29.43    0.63
  -1   3  -3   29.61    0.54
  -1   3  -3   29.32    0.53
   1   3   3   29.51    0.65
   3  -3   3   27.53    0.64
   3  -3   3   28.50    0.57
  -3  -3  -3   29.15    0.61
  -3   3  -3   29.54    0.56
   3   3   3   27.69    0.63
  -3   3  -3   29.51    0.64
  -3   3  -3   29.68    0.58
   3   3   3   28.31    0.58
   5  -3   3    9.87    0.28
  -5  -3  -3    9.67    0.27
   5  -3   3    9.71    0.33
   5   3   3   10.07    0.30
  -5   3  -3    9.83    0.30
   5   3   3   10.11    0.33
  -5   3  -3   10.14    0.27
  -5   3  -3    9.70    0.21
   7  -3   3    5.37    0.27
  -7  -3  -3    4.28    0.16
   7  -3   3    5.71    0.21
  -7   3  -3    4.79    0.18
  -7   3  -3    4.67    0.20
   7   3   3    5.41    0.25
  -7   3  -3    4.44    0.15
   7   3   3    5.17    0.22
   9  -3   3    2.11    0.21
   9  -3   3    2.22    0.14
  -9   3  -3    2.12    0.14
  -9   3  -3    1.84    0.12
   9   3   3    2.04    0.16
  -9   3  -3    1.91    0.13
  11  -3   3    8.03    0.29
  11  -3   3    7.89    0.37
 -11  -3  -3    8.53    0.35
 -11   3  -3    7.98    0.29
 -11   3  -3    8.18    0.28
  11   3   3    8.54    0.34
 -11   3  -3    7.79    0.28
  13  -3   3   10.89    0.37
  13  -3   3   10.92    0.46
 -13  -3  -3   10.44    0.42
 -13   3  -3   10.06    0.52
 -13   3  -3   10.23    0.33
 -13   3  -3   10.57    0.36
  13   3   3   10.50    0.42
 -15  -3  -3    5.94    0.33
  15  -3   3    6.08    0.29
  15  -3   3    6.10    0.36
  15   3   3    6.47    0.35
 -15   3  -3    5.00    0.26
  17  -3   3    5.35    0.29
 -17  -3  -3    4.86    0.32
  17  -3   3    5.19    0.36
 -17   3  -3    5.29    0.28
  17   3   3    4.97    0.34
 -19  -3  -3    5.78    0.39
  19  -3   3    5.49    0.39
  19  -3   3    5.38    0.31
 -19   3  -3    5.47    0.31
  19   3   3    5.30    0.37
  21  -3   3    4.39    0.36
 -21  -3  -3    4.42    0.37
  21  -3   3    4.21    0.29
  21   3   3    4.82    0.39
 -21   3  -3    4.02    0.29
 -22  -4   3   29.01    0.98
 -22   4   3   30.06    1.00
  22   4  -3   24.57    0.84
 -20  -4   3    1.11    0.22
 -20   4   3    0.91    0.15
 -20   4   3    1.58    0.27
  20   4  -3    1.32    0.22
 -18  -4   3    2.78    0.30
  18   4  -3    5.83    0.36
 -18   4   3    2.52    0.21
 -18   4   3    2.25    0.29
 -16  -4   3    8.01    0.41
  16  -4  -3    6.79    0.31
 -16   4   3    8.36    0.33
 -16   4   3    7.83    0.42
  16   4  -3    6.56    0.35
  14  -4  -3   31.95    0.78
 -14  -4   3   34.41    0.89
 -14   4   3   33.58    0.77
 -14   4   3   34.59    0.93
  14   4  -3   32.41    0.85
 -12  -4   3   14.06    0.47
  12  -4  -3   18.18    0.51
 -12   4   3   14.61    0.44
 -12   4   3   13.54    0.38
  12   4  -3   17.99    0.56
 -12   4   3   14.10    0.51
  10  -4  -3    0.14    0.07
 -10  -4   3   -0.02    0.06
  10   4  -3    0.15    0.08
 -10   4   3   -0.01    0.05
 -10   4   3    0.01    0.07
 -10   4   3    0.29    0.05
   8  -4  -3   70.17    1.34
  -8  -4   3   59.30    1.17
  -8   4   3   57.95    1.24
  -8   4   3   58.42    1.18
   8   4  -3   71.57    1.43
   8   4  -3   73.11    1.32
  -8   4   3   58.07    1.00
   6  -4  -3    0.94    0.10
  -6  -4   3    1.42    0.11
  -6   4   3    0.85    0.12
   6   4  -3    0.92    0.09
   6   4  -3    0.93    0.12
  -6   4   3    1.09    0.12
  -4  -4   3   77.87    1.42
   4  -4  -3   76.57    1.38
   4   4  -3   77.60    1.49
   4   4  -3   75.95    1.42
  -4   4   3   80.64    1.50
  -4   4   3   79.49    1.54
  -2  -4   3   71.44    1.41
   2  -4  -3   70.39    1.27
  -2  -4   3   74.84    1.27
   2   4  -3   71.50    1.34
  -2   4   3   72.07    1.38
  -2   4   3   72.16    1.41
   0  -4   3   54.34    1.11
   0   4   3   53.54    1.09
   0   4  -3   52.27    1.04
   0   4   3   53.05    1.05
   2  -4   3   21.93    0.58
  -2   4  -3   26.57    0.61
   2   4   3   23.33    0.53
   2   4   3   23.34    0.57
   2   4   3   22.96    0.51
   4  -4   3    0.42    0.10
  -4  -4  -3    0.31    0.07
   4   4   3    0.33    0.07
  -4   4  -3    0.34    0.04
  -4   4  -3    0.33    0.08
   4   4   3    0.67    0.10
  -4   4  -3    0.32    0.04
   6  -4   3  274.80    4.78
  -6  -4  -3  249.08    4.30
  -6   4  -3  255.23    4.37
   6   4   3  274.23    4.75
  -6   4  -3  258.99    4.40
   8  -4   3    2.62    0.21
  -8  -4  -3    1.57    0.11
  -8   4  -3    1.84    0.15
   8   4   3    2.16    0.17
   8   4   3    2.24    0.19
  -8   4  -3    1.45    0.11
 -10  -4  -3   15.87    0.52
  10  -4   3   20.64    0.64
 -10   4  -3   16.93    0.47
  10   4   3   19.88    0.58
 -10   4  -3   15.77    0.43
  12  -4   3   10.10    0.45
 -12  -4  -3   10.59    0.44
  12   4   3    9.77    0.41
 -12   4  -3   11.26    0.37
 -12   4  -3   10.68    0.36
 -14  -4  -3    2.66    0.24
  14  -4   3    3.33    0.29
 -14   4  -3    2.95    0.20
 -14   4  -3    2.87    0.20
  14   4   3    3.41    0.27
 -16  -4  -3   29.51    0.88
  16  -4   3   33.71    0.97
  16   4   3   32.42    0.94
 -16   4  -3   28.66    0.74
  18  -4   3    2.30    0.29
 -18  -4  -3    1.71    0.24
  18  -4   3    2.13    0.28
 -18   4  -3    1.88    0.20
  18   4   3    2.27    0.29
  20  -4   3   10.24    0.44
  20  -4   3    9.60    0.52
 -20  -4  -3   13.77    0.62
  20   4   3    9.27    0.52
 -20   4  -3   13.34    0.50
  22  -4   3    1.35    0.29
 -21  -5   3   21.25    0.81
 -19  -5   3    7.35    0.44
 -19   5   3    6.94    0.31
  19   5  -3    7.17    0.43
  17  -5  -3    4.24    0.28
 -17  -5   3    4.17    0.32
  17   5  -3    4.27    0.33
 -17   5   3    3.97    0.22
 -17   5   3    3.67    0.33
 -15  -5   3   99.66    2.05
 -15   5   3   98.90    1.81
  15   5  -3  103.98    2.13
 -13  -5   3    3.60    0.25
 -13   5   3    3.71    0.15
  13   5  -3    3.23    0.26
 -13   5   3    3.47    0.23
 -11  -5   3    0.20    0.09
 -11   5   3    0.09    0.08
 -11   5   3    0.24    0.09
  11   5  -3    0.80    0.15
  -9  -5   3   62.30    1.25
   9   5  -3   57.14    1.22
  -9   5   3   59.17    1.26
   9   5  -3   52.24    1.10
  -9   5   3   60.78    1.33
  -7  -5   3   56.04    1.13
   7   5  -3   56.59    1.12
  -7   5   3   57.37    1.18
   7   5  -3   58.30    1.24
  -7   5   3   55.61    1.21
   5  -5  -3    9.32    0.30
  -5   5   3    3.95    0.22
   5   5  -3    9.23    0.36
   3  -5  -3   28.36    0.62
   3   5  -3   28.91    0.66
  -1  -5   3   55.44    1.18
   1  -5  -3   42.02    0.84
  -1   5   3   55.59    1.13
   1   5  -3   41.61    0.89
  -1   5   3   56.04    1.15
   1  -5   3   20.13    0.56
  -1   5  -3   19.42    0.52
   1   5   3   19.39    0.53
   1   5   3   19.79    0.51
   3  -5   3    1.87    0.19
   3   5   3    1.31    0.13
   3   5   3    1.06    0.13
  -3   5  -3    0.65    0.11
   3   5   3    1.38    0.13
  -5  -5  -3   51.56    1.05
   5  -5   3   51.57    1.14
  -5   5  -3   52.97    1.10
   5   5   3   50.61    1.10
   5   5   3   50.34    1.05
  -7  -5  -3   35.94    0.76
   7  -5   3   36.01    0.91
  -7   5  -3   34.35    0.82
   7   5   3   36.37    0.88
  -7   5  -3   36.00    0.65
   9  -5   3    5.62    0.32
  -9   5  -3    4.24    0.17
   9   5   3    5.54    0.28
  -9   5  -3    4.42    0.24
  11  -5   3   12.42    0.51
 -11  -5  -3   12.68    0.48
 -11   5  -3   11.71    0.35
  11   5   3   11.51    0.45
 -11   5  -3   11.47    0.41
  13  -5   3  157.60    3.03
 -13  -5  -3  160.27    3.04
  13   5   3  152.75    2.96
 -13   5  -3  159.12    2.83
 -13   5  -3  157.16    2.90
  15  -5   3    0.55    0.17
 -15  -5  -3    0.78    0.18
 -15   5  -3    0.91    0.13
 -15   5  -3    0.66    0.14
  15   5   3    0.60    0.17
  17  -5   3    3.91    0.35
 -17  -5  -3    4.95    0.36
  17   5   3    3.54    0.32
 -17   5  -3    4.02    0.25
  19  -5   3   23.34    0.85
 -19  -5  -3   23.29    0.84
  19   5   3   22.95    0.84
 -19   5  -3   23.49    0.68
 -20  -6   3    5.33    0.42
 -18  -6   3    1.11    0.22
  18   6  -3    1.10    0.22
  16  -6  -3    3.03    0.26
 -16  -6   3    2.43    0.28
  16   6  -3    2.64    0.30
 -14  -6   3    8.39    0.40
 -14   6   3    7.76    0.37
  14   6  -3    8.32    0.42
 -12   6   3   13.04    0.48
  12   6  -3   11.89    0.49
 -10   6   3   23.28    0.67
 -10   6   3   23.32    0.71
  10   6  -3   23.04    0.71
  -8   6   3    3.08    0.23
  -8   6   3    3.19    0.22
   8   6  -3    3.25    0.19
   8   6  -3    2.93    0.23
  -6   6   3   26.79    0.72
   6   6  -3   24.41    0.70
  -6   6   3   28.12    0.72
   6   6  -3   25.21    0.62
  -4  -6   3   70.72    1.51
   4   6  -3   75.66    1.48
  -4   6   3   72.70    1.47
  -4   6   3   73.83    1.47
  -2  -6   3   10.81    0.42
  -2   6   3   11.63    0.40
  -2   6   3   11.70    0.40
   2   6  -3   11.95    0.40
   0  -6  -3    6.47    0.26
   0  -6   3    7.39    0.34
   0   6   3    7.31    0.30
   0   6  -3    6.65    0.29
   2  -6   3   42.35    1.00
  -2   6  -3   41.00    0.93
   2   6   3   40.75    0.95
   2   6   3   41.17    0.92
   4  -6   3    9.70    0.41
  -4   6  -3   10.99    0.40
   4   6   3    9.94    0.36
   4   6   3   10.16    0.35
   4   6   3    9.80    0.38
  -6  -6  -3    4.32    0.22
   6  -6   3    4.56    0.29
   6   6   3    5.05    0.26
  -6   6  -3    4.06    0.25
   6   6   3    4.67    0.27
   8  -6   3    6.46    0.37
  -8   6  -3    5.92    0.29
   8   6   3    6.77    0.34
   8   6   3    6.52    0.32
  10  -6   3    3.86    0.31
 -10  -6  -3    4.54    0.30
 -10   6  -3    4.33    0.27
  10   6   3    4.07    0.27
 -12  -6  -3   22.38    0.73
  12  -6   3   21.50    0.75
  12   6   3   22.42    0.71
 -12   6  -3   21.89    0.65
 -12   6  -3   21.74    0.46
 -14  -6  -3   11.45    0.53
  14  -6   3   13.01    0.59
 -14   6  -3   12.30    0.47
  14   6   3   13.77    0.57
 -14   6  -3   12.36    0.35
  16  -6   3    9.84    0.53
 -16  -6  -3    8.08    0.46
  16   6   3    9.03    0.49
 -16   6  -3    7.68    0.38
  18  -6   3    6.97    0.47
 -18  -6  -3    7.96    0.48
  18   6   3    6.10    0.44
  17  -7  -3    5.80    0.38
  17   7  -3    5.07    0.40
  15   7  -3   26.53    0.88
 -13   7   3    2.08    0.24
  13   7  -3    2.15    0.27
  11   7  -3   23.75    0.78
 -11   7   3   28.08    0.80
  -9   7   3   10.13    0.44
   9   7  -3    8.00    0.42
  -7   7   3   13.57    0.50
   7   7  -3   13.74    0.53
   7   7  -3   14.09    0.45
  -5  -7   3   32.13    0.88
  -5   7   3   32.25    0.84
   5   7  -3   31.05    0.77
  -3  -7   3    6.12    0.33
   3   7  -3    6.05    0.29
  -3   7   3    5.83    0.30
  -3   7   3    5.98    0.31
  -1  -7   3   10.56    0.45
   1   7  -3    6.16    0.30
  -1   7   3   10.81    0.41
  -1   7   3   11.17    0.42
   1  -7   3    5.58    0.33
   1   7   3    5.29    0.28
   1   7   3    5.78    0.29
  -1   7  -3    5.61    0.29
   3  -7   3   30.98    0.86
  -3   7  -3   33.48    0.85
   3   7   3   30.91    0.77
   5  -7   3   10.88    0.47
   5   7   3   11.02    0.44
  -5   7  -3   14.02    0.50
   5   7   3   10.61    0.41
   7  -7   3    1.85    0.25
   7   7   3    1.85    0.21
   7   7   3    1.95    0.22
  -7   7  -3    3.32    0.24
  -9  -7  -3   10.39    0.47
   9  -7   3   11.31    0.52
   9   7   3   10.46    0.45
  -9   7  -3   10.02    0.43
  11  -7   3    0.91    0.21
 -11  -7  -3    0.83    0.17
  11   7   3    0.81    0.17
 -11   7  -3    1.03    0.17
 -13  -7  -3   31.33    0.94
  13  -7   3   28.06    0.92
  13   7   3   28.50    0.88
 -13   7  -3   30.08    0.85
  15  -7   3    6.09    0.44
 -15  -7  -3    6.55    0.43
 -15   7  -3    6.10    0.36
  15   7   3    6.12    0.42
 -17  -7  -3   12.12    0.60
  17  -7   3   11.68    0.61
  17   7   3   11.16    0.59
  14   8  -3    6.34    0.44
  12   8  -3    7.35    0.45
 -12   8   3    5.62    0.36
 -10   8   3    6.57    0.37
  10   8  -3    7.00    0.42
  -8   8   3    9.58    0.45
  -6  -8   3    2.39    0.27
  -6   8   3    2.49    0.26
   6   8  -3    0.33    0.10
  -4  -8   3    1.16    0.20
   4   8  -3    1.78    0.20
  -4   8   3    1.37    0.21
  -2  -8   3   27.74    0.84
  -2   8   3   28.50    0.80
   2   8  -3   28.79    0.79
   0  -8   3   19.78    0.69
   0   8  -3   20.64    0.64
   0   8   3   21.09    0.64
   2  -8   3    4.93    0.34
  -2   8  -3    3.24    0.26
   2   8   3    5.17    0.30
   4  -8   3    0.09    0.13
  -4   8  -3    0.13    0.10
   6  -8   3   50.05    1.28
  -6   8  -3   43.52    1.10
   8  -8   3    2.72    0.33
  -8   8  -3    2.66    0.27
  10  -8   3    3.46    0.36
 -10  -8  -3    3.12    0.30
 -10   8  -3    3.16    0.31
 -12  -8  -3    7.64    0.45
  12  -8   3    9.39    0.54
 -12   8  -3    7.53    0.42
 -14  -8  -3    4.01    0.37
  14  -8   3    5.37    0.45
 -14   8  -3    4.36    0.34
  14   8   3    5.69    0.46
  -9  -9   3    1.91    0.28
  -9   9   3    2.24    0.27
  -7  -9   3    1.43    0.25
  -7   9   3    1.45    0.24
  -5  -9   3   24.45    0.83
  -5   9   3   24.39    0.78
   5   9  -3   24.67    1.00
  -3  -9   3   13.94    0.59
  -3   9   3   14.16    0.56
   3   9  -3   16.07    0.58
  -1  -9   3    0.51    0.17
   1   9  -3    0.65    0.17
  -1   9   3    0.37    0.13
   1  -9   3   13.97    0.61
  -1   9  -3   12.66    0.53
   1   9   3   14.83    0.56
   3  -9   3   13.36    0.60
  -3   9  -3   15.70    0.60
   5  -9   3    6.69    0.44
  -5   9  -3    6.24    0.38
   7  -9   3    3.17    0.35
  -7   9  -3    2.35    0.28
   9  -9   3    1.41    0.28
  -9   9  -3    1.63    0.25
  11  -9   3    5.50    0.73
  -2 -10   3    8.02    0.81
   2  10  -3    7.84    0.44
   0 -10   3    3.87    0.42
   0  10  -3    5.39    0.58
   2 -10   3   18.15    1.07
  24   0  -4    9.93    0.49
 -24   0   4    6.83    0.47
  22   0  -4   11.63    0.42
  22   0  -4   11.54    0.50
 -22   0   4   10.64    0.54
  20   0  -4   22.08    0.60
  20   0  -4   21.42    0.67
 -20   0   4   19.65    0.72
  18   0  -4    6.99    0.29
  18   0  -4    6.99    0.33
 -18   0   4    7.95    0.42
 -16   0   4   31.97    0.79
 -16   0   4   32.24    0.88
  16   0  -4   33.28    0.76
  16   0  -4   32.96    0.80
 -14   0   4   71.21    1.51
  14   0  -4   73.95    1.46
 -14   0   4   71.11    1.42
  14   0  -4   75.00    1.43
  12   0  -4   90.97    1.66
 -12   0   4   94.26    1.85
 -12   0   4   94.50    1.76
  12   0  -4   89.28    1.67
  12   0  -4   89.42    1.65
  10   0  -4   22.37    0.51
 -10   0   4   24.18    0.57
  10   0  -4   22.08    0.53
 -10   0   4   24.09    0.62
  10   0  -4   22.55    0.52
   8   0  -4    6.91    0.22
  -8   0   4    7.53    0.25
  -8   0   4    6.06    0.25
   8   0  -4    6.95    0.24
   8   0  -4    6.65    0.22
  -6   0   4 1000.00   17.20
   6   0  -4  890.11   16.51
   6   0  -4  960.66   16.11
  -6   0   4  941.83   16.71
   6   0  -4  994.10   16.32
   4   0  -4   48.67    0.90
  -4   0   4   47.69    0.94
  -4   0   4   47.48    0.90
   4   0  -4   46.05    0.93
   4   0  -4   48.62    0.85
  -2   0   4    3.41    0.15
   2   0  -4    0.94    0.10
   2   0  -4    1.00    0.07
  -2   0   4    3.46    0.11
   0   0   4  214.45    3.73
   0   0  -4  198.99    3.54
   0   0   4  213.70    3.61
   0   0   4  211.27    3.92
   2   0   4  163.49    2.95
  -2   0  -4  168.32    2.84
   2   0   4  169.19    2.96
  -2   0  -4  167.55    2.88
   2   0   4  165.43    2.83
   4   0   4   32.58    0.67
   4   0   4   33.17    0.65
  -4   0  -4   37.42    0.74
  -4   0  -4   37.30    0.72
   6   0   4   27.76    0.57
  -6   0  -4   26.61    0.57
   6   0   4   27.51    0.60
  -6   0  -4   27.97    0.57
  -8   0  -4   47.72    0.93
   8   0   4   39.49    0.89
  -8   0  -4   47.17    0.96
   8   0   4   40.81    0.79
  -8   0  -4   47.55    0.90
  10   0   4   25.42    0.66
  10   0   4   24.06    0.54
 -10   0  -4   24.38    0.57
 -10   0  -4   25.00    0.61
 -10   0  -4   24.93    0.52
 -12   0  -4   13.86    0.41
  12   0   4   10.07    0.41
  12   0   4    9.97    0.31
 -12   0  -4   14.15    0.45
  14   0   4  118.79    2.13
  14   0   4  117.35    2.32
 -14   0  -4  118.72    2.27
  16   0   4   52.54    1.06
 -16   0  -4   53.16    1.23
  16   0   4   50.68    1.24
 -18   0  -4    1.30    0.20
  18   0   4    2.86    0.18
  18   0   4    2.85    0.29
  20   0   4    5.07    0.37
 -20   0  -4    4.71    0.34
  20   0   4    4.91    0.24
 -22   0  -4   76.96    1.79
  22   0   4   83.81    1.94
  22   0   4   81.57    1.59
 -24   0  -4    4.83    0.42
  25   1  -4    0.55    0.21
  23  -1  -4    0.18    0.11
 -23  -1   4    0.30    0.18
 -23   1   4    0.25    0.13
  23   1  -4    0.08    0.07
  23   1  -4    0.02    0.12
 -23   1   4    0.49    0.18
  21  -1  -4   10.83    0.42
 -21  -1   4   10.42    0.53
  21  -1  -4   10.51    0.45
  21   1  -4   11.05    0.37
  21   1  -4   10.81    0.48
 -21   1   4   10.67    0.46
 -21   1   4   11.56    0.56
 -19  -1   4    7.48    0.42
  19  -1  -4    8.38    0.37
  19  -1  -4    7.67    0.33
 -19   1   4    8.02    0.43
 -19   1   4    8.46    0.38
  19   1  -4    8.30    0.31
  19   1  -4    8.41    0.39
  17  -1  -4    3.07    0.20
  17  -1  -4    3.35    0.22
 -17  -1   4    3.43    0.27
  17   1  -4    2.87    0.18
 -17   1   4    3.94    0.25
  17   1  -4    2.92    0.23
 -17   1   4    3.38    0.27
  15  -1  -4    4.45    0.23
  15  -1  -4    3.97    0.22
 -15  -1   4    4.06    0.28
  15   1  -4    4.02    0.24
  15   1  -4    4.27    0.20
 -15   1   4    3.90    0.23
 -15   1   4    4.10    0.28
  13  -1  -4   63.44    1.24
  13  -1  -4   63.29    1.25
  13  -1  -4   62.97    1.25
 -13  -1   4   70.60    1.47
 -13  -1   4   68.19    1.37
  13   1  -4   62.65    1.21
 -13   1   4   70.09    1.38
 -13   1   4   69.50    1.47
  13   1  -4   65.36    1.29
 -11  -1   4   12.65    0.42
  11  -1  -4   11.92    0.35
  11  -1  -4   12.55    0.35
 -11  -1   4   11.88    0.38
  11  -1  -4   12.42    0.36
  11   1  -4   12.01    0.33
 -11   1   4   12.92    0.44
  11   1  -4   12.22    0.37
 -11   1   4   12.89    0.38
  11   1  -4   12.90    0.35
  -9  -1   4    2.85    0.16
   9  -1  -4    4.05    0.16
   9  -1  -4    4.30    0.19
  -9  -1   4    3.00    0.18
   9  -1  -4    4.23    0.18
   9   1  -4    4.33    0.19
  -9   1   4    2.87    0.19
   9   1  -4    4.27    0.19
   9   1  -4    4.04    0.16
  -9   1   4    2.73    0.15
  -7  -1   4   42.00    0.87
   7  -1  -4   42.31    0.87
  -7  -1   4   40.62    0.84
   7  -1  -4   43.89    0.80
  -7   1   4   42.00    0.83
   7   1  -4   42.64    0.87
   7   1  -4   43.93    0.85
  -7   1   4   42.98    0.91
   7   1  -4   44.41    0.83
   5  -1  -4   83.16    1.50
   5  -1  -4   83.02    1.40
   5  -1  -4   82.76    1.47
  -5  -1   4   83.95    1.49
  -5  -1   4   81.97    1.51
   5   1  -4   82.67    1.46
  -5   1   4   83.53    1.55
  -5   1   4   81.83    1.48
   5   1  -4   84.38    1.47
   5   1  -4   78.19    1.50
  -3  -1   4    7.19    0.21
   3  -1  -4    7.97    0.22
   3  -1  -4    7.54    0.24
  -3  -1   4    6.52    0.21
  -3   1   4    6.81    0.24
  -3   1   4    6.67    0.20
   3   1  -4    8.05    0.22
   3   1  -4    7.95    0.25
   3   1  -4    8.07    0.22
   1  -1  -4   15.35    0.38
   1  -1  -4   14.78    0.33
  -1  -1   4   14.49    0.34
  -1  -1   4   15.09    0.34
  -1   1   4   14.61    0.32
  -1   1   4   14.18    0.31
   1   1  -4   15.06    0.34
  -1   1   4   15.29    0.38
   1   1  -4   15.09    0.38
   1  -1   4  234.19    4.10
   1  -1   4  228.03    4.11
   1  -1   4  220.01    3.95
  -1  -1  -4  240.48    4.17
  -1  -1  -4  224.55    4.02
   1   1   4  228.87    3.88
   1   1   4  230.32    4.06
   1   1   4  227.18    3.99
  -1   1  -4  248.19    4.39
   1   1   4  234.21    3.91
   3  -1   4   15.30    0.34
  -3  -1  -4   15.18    0.33
  -3  -1  -4   15.25    0.38
   3  -1   4   15.59    0.36
   3  -1   4   15.27    0.39
   3   1   4   15.47    0.32
   3   1   4   15.17    0.36
   3   1   4   15.23    0.38
   3   1   4   14.69    0.31
  -3   1  -4   14.57    0.37
  -3   1  -4   14.45    0.35
   5  -1   4    3.72    0.19
  -5  -1  -4    5.40    0.17
   5  -1   4    3.99    0.15
  -5  -1  -4    5.51    0.20
   5  -1   4    4.07    0.16
   5   1   4    3.75    0.18
  -5   1  -4    5.46    0.19
   5   1   4    3.98    0.13
   5   1   4    3.92    0.12
  -5   1  -4    5.19    0.19
   5   1   4    4.12    0.18
  -7  -1  -4   60.07    1.13
  -7  -1  -4   60.50    1.13
   7  -1   4   62.09    1.27
   7  -1   4   64.67    1.18
  -7   1  -4   61.65    1.16
   7   1   4   61.18    1.11
   7   1   4   63.05    1.12
   7   1   4   63.79    1.24
  -7   1  -4   63.10    1.16
   7   1   4   63.38    1.24
  -7   1  -4   63.65    1.16
   9  -1   4   37.60    0.89
  -9  -1  -4   38.60    0.74
  -9  -1  -4   38.51    0.85
   9  -1   4   37.43    0.79
   9   1   4   39.20    0.73
  -9   1  -4   38.36    0.81
   9   1   4   38.24    0.87
  -9   1  -4   38.11    0.77
  -9   1  -4   37.99    0.80
   9   1   4   39.18    0.74
 -11  -1  -4    3.21    0.21
  11  -1   4    2.14    0.14
  11  -1   4    2.28    0.22
  11   1   4    2.38    0.12
 -11   1  -4    2.99    0.18
 -11   1  -4    3.41    0.19
  11   1   4    2.19    0.18
 -11   1  -4    3.04    0.15
  13  -1   4    7.39    0.28
  13  -1   4    7.82    0.37
 -13  -1  -4    7.13    0.33
 -13   1  -4    8.06    0.30
  13   1   4    7.37    0.23
  13   1   4    7.58    0.35
  15  -1   4   32.42    0.76
  15  -1   4   31.88    0.89
 -15  -1  -4   28.12    0.77
 -15   1  -4   27.05    0.73
  15   1   4   32.76    0.90
  15   1   4   33.32    0.68
 -15   1  -4   26.90    0.69
  17  -1   4    4.25    0.32
  17  -1   4    4.97    0.25
 -17  -1  -4    4.28    0.30
 -17   1  -4    4.46    0.28
  17   1   4    4.79    0.32
  17   1   4    4.65    0.19
  19  -1   4    3.34    0.22
  19  -1   4    3.16    0.32
 -19  -1  -4    2.37    0.27
 -19   1  -4    2.37    0.26
  19   1   4    3.50    0.32
  19   1   4    3.43    0.16
  21  -1   4    9.00    0.50
  21  -1   4    9.35    0.38
 -21  -1  -4    9.01    0.49
 -21   1  -4    9.35    0.48
  21   1   4    9.22    0.50
 -23  -1  -4    2.55    0.33
  23  -1   4    2.04    0.29
  23   1   4    2.33    0.32
 -24   2   4    0.49    0.21
  24   2  -4    0.79    0.21
  22  -2  -4    0.43    0.13
 -22  -2   4    0.64    0.18
  22   2  -4    0.47    0.16
  22   2  -4    0.46    0.07
 -22   2   4    0.73    0.22
 -22   2   4    0.72    0.17
 -20  -2   4    2.73    0.31
  20  -2  -4    4.16    0.27
  20   2  -4    3.94    0.30
  20   2  -4    4.17    0.18
 -20   2   4    3.28    0.26
 -20   2   4    3.21    0.34
  18  -2  -4    0.39    0.10
 -18  -2   4    0.30    0.13
  18   2  -4    0.12    0.09
  18   2  -4    0.21    0.06
 -18   2   4    0.57    0.13
 -18   2   4    0.27    0.14
  16  -2  -4   26.91    0.69
  16  -2  -4   27.18    0.68
 -16  -2   4   25.72    0.77
  16   2  -4   27.65    0.60
  16   2  -4   27.37    0.74
 -16   2   4   26.31    0.80
 -16   2   4   26.55    0.69
  14  -2  -4    5.97    0.27
  14  -2  -4    6.26    0.26
 -14  -2   4    6.07    0.31
  14  -2  -4    6.66    0.27
 -14   2   4    5.93    0.27
 -14   2   4    5.50    0.32
  14   2  -4    5.93    0.29
  14   2  -4    6.61    0.22
  12  -2  -4    5.19    0.23
  12  -2  -4    5.25    0.23
  12  -2  -4    5.42    0.22
 -12  -2   4    5.79    0.29
 -12   2   4    5.75    0.30
  12   2  -4    5.45    0.19
 -12   2   4    5.77    0.25
  12   2  -4    5.72    0.26
 -10  -2   4   14.61    0.45
  10  -2  -4   14.60    0.41
  10  -2  -4   15.02    0.37
  10  -2  -4   15.82    0.41
 -10   2   4   15.42    0.41
  10   2  -4   15.28    0.37
  10   2  -4   14.70    0.43
 -10   2   4   15.19    0.48
  10   2  -4   14.51    0.35
   8  -2  -4    0.48    0.06
  -8  -2   4    0.41    0.08
   8  -2  -4    0.53    0.08
   8  -2  -4    0.63    0.08
  -8  -2   4    0.25    0.07
  -8   2   4    0.31    0.08
  -8   2   4    0.37    0.07
   8   2  -4    0.47    0.06
   8   2  -4    0.65    0.09
   8   2  -4    0.59    0.07
   8   2  -4    1.04    0.10
   6  -2  -4  171.69    2.82
  -6  -2   4  169.76    2.92
   6  -2  -4  164.50    2.86
   6  -2  -4  168.19    2.89
  -6  -2   4  168.52    2.90
  -6   2   4  169.50    2.87
   6   2  -4  168.51    2.89
   6   2  -4  165.98    2.93
  -6   2   4  166.88    2.99
   6   2  -4  162.79    2.82
   6   2  -4  163.80    2.87
  -6   2   4  167.61    2.86
   4  -2  -4    1.99    0.11
  -4  -2   4    1.53    0.10
   4  -2  -4    2.10    0.13
  -4  -2   4    1.62    0.10
   4   2  -4    1.95    0.09
   4   2  -4    1.87    0.12
  -4   2   4    1.55    0.13
  -4   2   4    1.71    0.08
   4   2  -4    1.99    0.10
   4   2  -4    1.80    0.12
  -4   2   4    1.75    0.08
   2  -2  -4    6.31    0.22
   2  -2  -4    6.53    0.19
  -2  -2   4    9.13    0.24
  -2  -2   4    9.30    0.25
  -2  -2   4    9.40    0.28
  -2   2   4    9.29    0.19
   2   2  -4    6.63    0.19
  -2   2   4    8.86    0.30
  -2   2   4    9.54    0.20
   2   2  -4    6.60    0.22
   0  -2   4   14.86    0.38
   0  -2   4   15.48    0.32
   0  -2   4   15.60    0.36
   0  -2  -4   13.61    0.36
   0   2   4   14.66    0.40
   0   2  -4   13.92    0.32
   0   2  -4   14.08    0.36
   0   2   4   15.57    0.29
  -2  -2  -4    9.20    0.27
   2  -2   4    9.21    0.29
   2  -2   4    9.09    0.20
   2   2   4    8.77    0.29
   2   2   4    9.36    0.22
  -2   2  -4    8.74    0.27
  -2   2  -4    9.03    0.25
   4  -2   4   40.05    0.85
   4  -2   4   39.72    0.79
  -4  -2  -4   40.46    0.81
  -4   2  -4   40.90    0.82
   4   2   4   39.92    0.85
   4   2   4   41.76    0.79
  -4   2  -4   41.29    0.73
  -4   2  -4   39.22    0.79
   6  -2   4    1.03    0.13
   6  -2   4    1.05    0.11
  -6  -2  -4    1.10    0.10
  -6   2  -4    1.10    0.10
   6   2   4    1.01    0.12
  -6   2  -4    0.96    0.10
   6   2   4    1.15    0.10
  -6   2  -4    1.03    0.07
  -8  -2  -4    1.99    0.12
   8  -2   4    2.12    0.18
   8  -2   4    1.91    0.13
   8   2   4    1.63    0.14
  -8   2  -4    2.09    0.12
  -8   2  -4    2.10    0.13
   8   2   4    1.76    0.15
  -8   2  -4    2.12    0.14
  10  -2   4    1.40    0.12
  10  -2   4    1.54    0.19
 -10  -2  -4    1.65    0.16
 -10   2  -4    1.99    0.13
  10   2   4    1.66    0.17
 -10   2  -4    2.04    0.15
 -10   2  -4    1.86    0.13
  12  -2   4    3.16    0.24
  12  -2   4    3.17    0.19
 -12  -2  -4    4.13    0.25
 -12   2  -4    4.60    0.20
  12   2   4    3.07    0.22
 -12   2  -4    4.52    0.22
 -12   2  -4    4.42    0.22
  14  -2   4   26.63    0.66
  14  -2   4   26.65    0.79
 -14  -2  -4   27.00    0.76
 -14   2  -4   25.71    0.68
  14   2   4   26.44    0.76
 -14   2  -4   26.34    0.67
 -16  -2  -4    9.51    0.43
  16  -2   4    8.67    0.44
  16  -2   4    8.13    0.33
 -16   2  -4    9.03    0.36
 -16   2  -4    8.80    0.38
  16   2   4    8.89    0.43
 -18  -2  -4    0.53    0.16
  18  -2   4    0.67    0.17
  18  -2   4    0.82    0.14
 -18   2  -4    0.52    0.13
  18   2   4    0.46    0.15
 -20  -2  -4    0.17    0.14
  20  -2   4    0.21    0.11
  20  -2   4    0.40    0.16
 -20   2  -4    0.28    0.12
  20   2   4    0.18    0.14
  22  -2   4   11.93    0.60
 -22  -2  -4   10.94    0.56
  22   2   4   11.60    0.59
 -23  -3   4    6.64    0.47
 -23   3   4    6.61    0.47
  23   3  -4    4.00    0.34
  21  -3  -4   24.56    0.73
 -21  -3   4   25.66    0.88
 -21   3   4   25.84    0.89
  21   3  -4   24.40    0.79
 -21   3   4   25.85    0.76
  19  -3  -4   23.66    0.69
 -19  -3   4   21.74    0.75
  19   3  -4   24.20    0.75
 -19   3   4   20.59    0.63
 -19   3   4   20.58    0.75
 -17  -3   4    5.49    0.35
 -17   3   4    6.12    0.37
 -17   3   4    4.79    0.27
  17   3  -4    2.61    0.24
 -15  -3   4    3.02    0.25
  15  -3  -4    3.07    0.20
  15   3  -4    2.89    0.23
 -15   3   4    3.18    0.21
 -15   3   4    3.56    0.28
 -13  -3   4  158.42    2.92
 -13   3   4  155.89    2.79
  13   3  -4  139.18    2.59
 -13   3   4  156.08    2.96
 -11  -3   4   16.53    0.50
  11  -3  -4   15.88    0.42
  11  -3  -4   17.08    0.47
  11   3  -4   16.29    0.49
 -11   3   4   15.73    0.53
 -11   3   4   15.83    0.43
  -9  -3   4   16.55    0.47
   9  -3  -4   24.05    0.58
   9  -3  -4   22.85    0.51
   9   3  -4   22.33    0.41
   9   3  -4   23.26    0.52
   9   3  -4   23.48    0.41
  -9   3   4   15.88    0.40
   9   3  -4   23.00    0.59
  -9   3   4   16.24    0.51
   7  -3  -4   64.65    1.17
  -7  -3   4   64.08    1.25
   7  -3  -4   66.35    1.28
  -7   3   4   63.85    1.33
   7   3  -4   66.25    1.10
  -7   3   4   63.24    1.15
  -7   3   4   66.22    1.16
   7   3  -4   64.75    1.29
   7   3  -4   66.32    1.11
   7   3  -4   64.40    1.23
   5  -3  -4  134.85    2.36
  -5  -3   4  123.36    2.23
   5  -3  -4  131.49    2.23
   5   3  -4  134.61    2.26
  -5   3   4  127.77    2.13
  -5   3   4  130.09    2.35
  -5   3   4  130.70    2.13
   5   3  -4  128.91    2.20
   5   3  -4  132.73    2.37
  -3  -3   4   31.24    0.61
  -3  -3   4   31.05    0.63
   3  -3  -4   34.60    0.73
   3   3  -4   34.10    0.61
   3   3  -4   33.06    0.61
  -3   3   4   30.90    0.72
   3   3  -4   34.21    0.74
   3   3  -4   34.00    0.72
  -1  -3   4   11.01    0.34
  -1  -3   4   11.01    0.24
   1  -3  -4   11.87    0.34
  -1  -3   4   11.25    0.29
   1  -3  -4   11.37    0.24
  -1   3   4   11.47    0.36
   1   3  -4   10.87    0.25
   1   3  -4   11.86    0.26
   1  -3   4  429.78    7.55
   1  -3   4  460.47    7.95
  -1  -3  -4  489.53    8.44
   1   3   4  432.91    7.63
  -1   3  -4  471.87    8.47
   1   3   4  459.35    8.29
  -1   3  -4  472.91    8.19
  -1   3  -4  472.77    8.21
   3  -3   4    7.12    0.23
  -3  -3  -4    7.71    0.25
   3  -3   4    7.11    0.27
  -3   3  -4    7.08    0.21
  -3   3  -4    7.25    0.26
  -3   3  -4    7.43    0.22
   3   3   4    7.04    0.21
   3   3   4    6.99    0.27
  -5  -3  -4   24.33    0.53
   5  -3   4   21.72    0.50
   5  -3   4   21.15    0.57
   5   3   4   21.23    0.56
  -5   3  -4   23.28    0.52
   5   3   4   21.58    0.50
  -5   3  -4   22.16    0.46
  -5   3  -4   23.47    0.56
   7  -3   4  129.92    2.40
   7  -3   4  138.45    2.53
  -7  -3  -4  128.93    2.33
   7   3   4  139.30    2.50
  -7   3  -4  133.91    2.38
  -7   3  -4  137.05    2.36
   7   3   4  137.46    2.44
   9  -3   4   79.22    1.64
   9  -3   4   80.98    1.52
   9   3   4   81.74    1.62
  -9   3  -4   78.53    1.48
  -9   3  -4   77.61    1.48
   9   3   4   79.57    1.57
 -11  -3  -4   13.25    0.47
  11  -3   4    8.91    0.32
  11  -3   4    8.88    0.40
 -11   3  -4   14.71    0.42
 -11   3  -4   14.17    0.41
  11   3   4    9.20    0.37
 -13  -3  -4    8.64    0.39
  13  -3   4    7.90    0.32
  13  -3   4    8.03    0.41
 -13   3  -4    8.42    0.33
 -13   3  -4    8.19    0.30
  13   3   4    7.88    0.37
 -15  -3  -4   76.76    1.67
  15  -3   4   91.94    1.97
  15  -3   4   92.44    1.80
  15   3   4   92.01    1.94
 -15   3  -4   75.57    1.53
  17  -3   4    8.69    0.47
 -17  -3  -4    6.11    0.38
  17  -3   4    7.92    0.36
 -17   3  -4    5.65    0.30
  17   3   4    8.25    0.44
  19  -3   4    8.02    0.37
  19  -3   4    8.46    0.49
 -19  -3  -4    5.00    0.36
 -19   3  -4    5.11    0.31
  19   3   4    8.37    0.47
 -21  -3  -4   20.44    0.79
  21  -3   4   18.38    0.62
  21  -3   4   19.22    0.75
  21   3   4   18.46    0.75
 -21   3  -4   20.34    0.66
 -22  -4   4    7.47    0.49
 -22   4   4    7.92    0.51
  22   4  -4    8.45    0.48
 -20  -4   4    7.19    0.45
 -20   4   4    7.70    0.36
  20   4  -4    6.00    0.39
 -20   4   4    7.65    0.47
 -18  -4   4    8.29    0.45
  18   4  -4    7.45    0.40
 -18   4   4    8.15    0.46
 -18   4   4    8.80    0.36
  16  -4  -4    0.85    0.13
 -16  -4   4    1.66    0.22
 -16   4   4    1.81    0.25
 -16   4   4    1.84    0.18
  16   4  -4    2.28    0.26
  14  -4  -4   34.14    0.83
 -14  -4   4   35.16    0.91
 -14   4   4   34.55    0.78
 -14   4   4   34.80    0.96
  12  -4  -4   37.11    0.88
 -12  -4   4   38.77    0.94
  12   4  -4   38.46    0.93
 -12   4   4   40.32    1.02
 -12   4   4   40.14    0.82
  10  -4  -4    6.04    0.28
 -10  -4   4    6.51    0.29
 -10   4   4    6.56    0.33
  10   4  -4    6.09    0.29
  10   4  -4    5.97    0.31
 -10   4   4    6.39    0.20
   8  -4  -4    4.61    0.23
  -8  -4   4    4.31    0.21
  -8   4   4    4.45    0.26
   8   4  -4    4.84    0.25
   8   4  -4    4.97    0.20
  -6  -4   4  178.75    3.13
   6  -4  -4  181.85    3.18
   6   4  -4  178.91    3.13
   6   4  -4  180.88    3.21
  -6   4   4  182.77    3.26
   4  -4  -4   11.05    0.35
  -4  -4   4   12.37    0.31
   4   4  -4   10.78    0.36
  -4   4   4   11.51    0.40
   4   4  -4   10.76    0.33
   2  -4  -4    5.16    0.16
  -2  -4   4    4.91    0.23
   2  -4  -4    5.31    0.23
  -2   4   4    4.35    0.22
   2   4  -4    5.37    0.23
   0  -4   4   68.71    1.37
   0  -4  -4   68.74    1.32
   0   4   4   69.36    1.38
   0   4  -4   68.20    1.33
  -2  -4  -4   66.32    1.27
   2  -4   4   66.88    1.35
  -2   4  -4   64.88    1.29
  -2   4  -4   66.07    1.14
  -2   4  -4   66.30    1.14
   2   4   4   65.53    1.22
   2   4   4   67.33    1.34
   4  -4   4   19.00    0.55
  -4  -4  -4   19.37    0.49
   4   4   4   19.11    0.47
   4   4   4   20.01    0.55
  -4   4  -4   19.48    0.43
  -4   4  -4   20.81    0.53
   6  -4   4   38.05    0.92
  -6  -4  -4   38.80    0.82
  -6   4  -4   39.96    0.87
  -6   4  -4   39.81    0.79
   6   4   4   38.67    0.90
   6   4   4   39.28    0.83
   8  -4   4   20.09    0.62
  -8  -4  -4   23.30    0.59
  -8   4  -4   24.28    0.61
  -8   4  -4   24.28    0.56
   8   4   4   20.77    0.60
  10  -4   4   26.33    0.77
 -10   4  -4   24.40    0.63
 -10   4  -4   24.10    0.59
  10   4   4   26.92    0.71
  12  -4   4   13.16    0.54
 -12  -4  -4   12.95    0.50
 -12   4  -4   13.58    0.42
 -12   4  -4   13.74    0.43
  12   4   4   13.13    0.49
 -14  -4  -4   13.57    0.53
  14  -4   4   13.80    0.57
 -14   4  -4   13.58    0.44
  14   4   4   14.17    0.54
 -14   4  -4   14.24    0.45
 -16  -4  -4    8.11    0.44
  16  -4   4    8.10    0.46
  16   4   4    8.19    0.44
 -16   4  -4    8.00    0.35
 -18  -4  -4    2.25    0.29
  18  -4   4    2.73    0.32
  18   4   4    2.86    0.31
 -18   4  -4    2.41    0.23
  20  -4   4    5.11    0.33
  20  -4   4    5.81    0.43
 -20  -4  -4    4.52    0.37
 -20   4  -4    4.78    0.31
  20   4   4    4.71    0.40
 -21  -5   4    1.70    0.28
 -19  -5   4    2.96    0.33
  19   5  -4    3.95    0.34
 -19   5   4    2.92    0.21
 -19   5   4    3.40    0.37
  17  -5  -4   10.30    0.44
 -17  -5   4   11.23    0.51
 -17   5   4   11.18    0.37
 -17   5   4   11.86    0.56
  17   5  -4   10.69    0.50
 -15  -5   4   10.23    0.46
  15  -5  -4   11.05    0.44
  15   5  -4   11.02    0.48
 -15   5   4   10.93    0.51
 -15   5   4   10.65    0.32
 -13  -5   4    4.67    0.29
  13  -5  -4    2.96    0.23
 -13   5   4    4.46    0.15
  13   5  -4    2.64    0.23
 -13   5   4    4.73    0.32
  11  -5  -4    6.01    0.30
 -11  -5   4    6.13    0.30
 -11   5   4    6.07    0.35
  11   5  -4    5.79    0.32
  -9  -5   4   17.56    0.51
   9   5  -4   24.41    0.58
  -9   5   4   18.63    0.60
   9   5  -4   23.88    0.68
  -7   5   4    1.63    0.19
   7   5  -4    2.63    0.16
   7   5  -4    2.20    0.19
  -5   5   4    0.86    0.12
  -5   5   4    0.79    0.14
   5   5  -4    0.50    0.09
   5   5  -4    0.54    0.11
  -3  -5   4   24.31    0.66
   3   5  -4   20.32    0.53
  -3   5   4   23.77    0.65
  -1  -5   4   11.65    0.41
  -1   5   4   11.20    0.40
   1   5  -4   10.64    0.36
   1  -5   4   21.26    0.61
  -1  -5  -4   26.51    0.65
   1   5   4   22.18    0.60
  -1   5  -4   26.53    0.66
  -3  -5  -4   16.44    0.46
   3  -5   4   19.04    0.57
  -3   5  -4   16.59    0.49
   3   5   4   18.41    0.47
   3   5   4   18.15    0.54
   5  -5   4   63.59    1.37
  -5  -5  -4   60.16    1.20
  -5   5  -4   59.53    1.24
   5   5   4   64.09    1.35
   5   5   4   62.91    1.26
   7  -5   4    7.11    0.36
  -7  -5  -4    5.25    0.23
  -7   5  -4    5.35    0.18
   7   5   4    7.09    0.34
  -7   5  -4    5.08    0.26
   7   5   4    7.04    0.30
   9  -5   4    8.33    0.40
  -9   5  -4    7.06    0.31
   9   5   4    8.74    0.39
  -9   5  -4    6.90    0.24
  11  -5   4   40.31    1.06
 -11  -5  -4   42.80    1.07
 -11   5  -4   40.90    0.96
  11   5   4   38.90    0.97
 -13  -5  -4    2.79    0.29
  13  -5   4    2.83    0.32
  13   5   4    2.45    0.26
 -13   5  -4    2.45    0.20
 -13   5  -4    2.39    0.18
 -15  -5  -4    9.80    0.48
  15  -5   4   12.76    0.59
  15   5   4   12.72    0.54
 -15   5  -4   10.98    0.39
 -15   5  -4   10.02    0.41
  17  -5   4    4.05    0.35
 -17  -5  -4    3.29    0.32
 -17   5  -4    3.67    0.25
  17   5   4    3.38    0.35
  19  -5   4    6.33    0.46
 -19  -5  -4    6.16    0.44
  19   5   4    6.78    0.46
  18   6  -4    1.54    0.25
  16  -6  -4   23.63    0.73
  16   6  -4   23.98    0.80
  14  -6  -4   18.97    0.63
  14   6  -4   18.83    0.67
  12  -6  -4   18.18    0.59
 -12   6   4   10.55    0.48
  12   6  -4   17.30    0.62
  10   6  -4   20.35    0.66
 -10   6   4    9.42    0.43
   8   6  -4    1.36    0.19
   8   6  -4    1.77    0.17
  -8   6   4    1.60    0.20
   6   6  -4  179.24    3.30
  -4  -6   4    0.22    0.09
  -4   6   4    0.20    0.09
  -4   6   4    0.16    0.09
   4   6  -4    0.13    0.07
  -2  -6   4    9.59    0.40
  -2   6   4    9.61    0.38
   2   6  -4    7.74    0.32
  -2   6   4    8.81    0.36
   0  -6   4   31.57    0.83
   0   6  -4   26.94    0.70
   0   6   4   31.21    0.80
   2  -6   4   23.63    0.69
  -2  -6  -4   22.75    0.61
  -2   6  -4   23.23    0.64
   2   6   4   23.72    0.67
   4  -6   4   21.36    0.67
  -4  -6  -4   23.57    0.61
   4   6   4   21.30    0.57
   4   6   4   21.74    0.64
  -4   6  -4   22.97    0.64
   6  -6   4    3.03    0.25
  -6  -6  -4    3.27    0.21
   6   6   4    2.87    0.20
  -6   6  -4    3.22    0.22
   6   6   4    3.38    0.25
   8  -6   4    6.28    0.36
  -8   6  -4   10.62    0.42
   8   6   4    7.41    0.33
   8   6   4    6.05    0.34
 -10  -6  -4    0.62    0.15
  10  -6   4    1.28    0.23
 -10   6  -4    0.74    0.15
  10   6   4    0.80    0.15
 -12  -6  -4    3.16    0.28
  12  -6   4    2.93    0.33
 -12   6  -4    3.26    0.24
 -12   6  -4    2.97    0.15
  12   6   4    2.16    0.24
 -14  -6  -4   27.69    0.89
  14  -6   4   26.91    0.89
  14   6   4   25.45    0.82
 -14   6  -4   29.31    0.81
 -14   6  -4   29.82    0.67
  16  -6   4    7.63    0.48
 -16  -6  -4    8.97    0.50
  16   6   4    8.13    0.47
 -16   6  -4    8.27    0.32
  18  -6   4    1.24    0.26
 -18  -6  -4    1.88    0.28
  18   6   4    1.42    0.26
  17  -7  -4    7.60    0.43
  15  -7  -4    8.42    0.44
  15   7  -4    7.92    0.47
  13  -7  -4   23.15    0.74
  13   7  -4   23.15    0.79
  11   7  -4   11.01    0.51
   9   7  -4    0.74    0.17
   7   7  -4   10.65    0.39
  -7   7   4   10.14    0.43
  -5  -7   4   22.27    0.71
  -5   7   4   21.68    0.66
   5   7  -4   21.01    0.61
  -5   7   4   22.02    0.67
  -3  -7   4    3.88    0.28
  -3   7   4    4.40    0.27
   3   7  -4    4.25    0.26
  -3   7   4    3.43    0.24
   1   7  -4   16.23    0.53
   1  -7   4   52.91    1.26
  -1  -7  -4   54.35    1.21
   1   7   4   51.86    1.20
  -1   7  -4   56.54    1.24
   3  -7   4   13.18    0.53
  -3  -7  -4   11.16    0.42
  -3   7  -4   11.09    0.43
   3   7   4   12.82    0.49
   5  -7   4   14.02    0.56
  -5  -7  -4   14.21    0.47
   5   7   4   12.77    0.50
  -5   7  -4   13.59    0.50
   7  -7   4   22.27    0.75
   7   7   4   21.99    0.71
  -7   7  -4   23.02    0.69
   9  -7   4   17.98    0.69
  -9   7  -4   18.39    0.62
 -11  -7  -4    5.41    0.37
  11  -7   4    6.40    0.43
 -11   7  -4    5.30    0.32
  11   7   4    7.01    0.59
 -13  -7  -4    3.25    0.30
  13  -7   4    1.89    0.28
 -13   7  -4    2.87    0.28
  13   7   4    2.51    0.29
 -15  -7  -4    2.94    0.34
  15  -7   4    4.70    0.41
  15   7   4    4.60    0.38
 -15   7  -4    2.49    0.27
  17   7   4    3.31    0.40
  14  -8  -4    5.26    0.39
  12  -8  -4    3.16    0.33
  12   8  -4    3.38    0.35
  -8  -8   4    6.29    0.39
  -6  -8   4    3.82    0.31
   6   8  -4    3.32    0.25
  -4  -8   4    5.19    0.35
   4   8  -4    4.39    0.29
  -2  -8   4   12.61    0.54
   2   8  -4    9.42    0.41
   0  -8   4    2.86    0.30
   0  -8  -4    3.44    0.26
   0   8  -4    2.63    0.26
  -2  -8  -4    6.17    0.34
  -2   8  -4    5.88    0.33
   4  -8   4   41.90    1.15
  -4  -8  -4   38.48    0.97
   4   8   4   42.91    1.09
  -4   8  -4   37.96    1.00
   6  -8   4   10.45    0.52
  -6   8  -4   10.90    0.48
   6   8   4   10.18    0.48
  -8  -8  -4    0.56    0.16
   8  -8   4    1.15    0.23
  -8   8  -4    0.53    0.16
 -10  -8  -4    9.96    0.50
  10  -8   4   10.47    0.56
 -10   8  -4    9.62    0.46
 -12  -8  -4   19.92    0.75
  12  -8   4   16.96    0.73
 -12   8  -4   19.19    0.69
 -14  -8  -4    6.11    0.50
  -9  -9   4    5.15    0.45
   9  -9  -4    6.46    0.66
  -7  -9   4    0.22    0.15
  -5  -9   4    0.19    0.13
   5   9  -4    0.61    0.17
  -3  -9   4   18.60    0.71
   3   9  -4   18.39    0.64
   1  -9  -4    2.43    0.28
  -1  -9   4    2.24    0.29
   1   9  -4    3.21    0.30
   1  -9   4   21.08    0.77
  -1  -9  -4   24.86    0.78
  -1   9  -4   25.13    0.79
   3  -9   4    0.74    0.21
  -3  -9  -4    1.17    0.21
  -3   9  -4    1.20    0.21
   5  -9   4   11.20    0.58
  -5   9  -4    9.35    0.47
   7  -9   4   16.05    0.71
  -7   9  -4   15.95    0.63
   9  -9   4    6.09    0.48
 -22   0   5   -0.07    0.12
  22   0  -5    0.07    0.09
  20   0  -5    0.07    0.11
 -20   0   5    0.01    0.12
  20   0  -5   -0.01    0.08
  18   0  -5    0.00    0.08
 -18   0   5    0.01    0.08
  18   0  -5    0.10    0.08
 -18   0   5   -0.06    0.09
 -16   0   5    0.10    0.08
  16   0  -5    0.01    0.08
  16   0  -5   -0.01    0.06
 -16   0   5    0.04    0.09
 -14   0   5    0.23    0.09
 -14   0   5    0.11    0.09
  14   0  -5    0.15    0.06
  14   0  -5    0.02    0.07
  12   0  -5    0.05    0.05
  12   0  -5    0.33    0.08
  12   0  -5    0.01    0.06
 -12   0   5   -0.04    0.05
 -12   0   5    0.04    0.06
  10   0  -5    0.08    0.06
 -10   0   5    0.06    0.06
 -10   0   5    0.01    0.05
   8   0  -5    0.00    0.02
   8   0  -5    0.05    0.04
   8   0  -5    0.10    0.05
  -8   0   5    0.03    0.05
  -8   0   5    0.00    0.05
   6   0  -5    0.01    0.05
  -6   0   5   -0.02    0.04
   6   0  -5    0.09    0.04
   6   0  -5    0.00    0.03
  -6   0   5    0.09    0.05
   4   0  -5    0.06    0.05
   4   0  -5    0.06    0.03
   4   0  -5    0.21    0.05
  -4   0   5    0.44    0.07
  -2   0   5    0.23    0.04
  -2   0   5    0.07    0.04
  -2   0   5    0.03    0.04
   2   0  -5    0.04    0.04
   2   0  -5    0.10    0.06
   0   0   5    0.07    0.03
   0   0  -5    0.17    0.06
   0   0   5    0.03    0.04
   0   0   5    0.06    0.03
   0   0  -5    0.07    0.04
  -2   0  -5   -0.02    0.04
  -2   0  -5    0.06    0.03
   2   0   5    0.48    0.06
   4   0   5    0.04    0.05
   4   0   5    0.19    0.05
  -4   0  -5    0.37    0.06
  -4   0  -5    0.01    0.04
   4   0   5    0.02    0.03
   6   0   5   -0.02    0.05
  -6   0  -5   -0.01    0.04
   6   0   5    0.21    0.05
  -6   0  -5    0.02    0.04
   6   0   5    0.02    0.04
  -8   0  -5    0.13    0.06
   8   0   5    0.52    0.11
  -8   0  -5    0.07    0.05
   8   0   5    0.04    0.05
   8   0   5    0.04    0.04
 -10   0  -5    0.26    0.08
 -10   0  -5    0.30    0.08
  12   0   5    0.01    0.08
 -12   0  -5    0.05    0.07
  12   0   5    0.02    0.05
  14   0   5    0.04    0.05
 -14   0  -5   -0.05    0.07
  14   0   5    0.02    0.10
  16   0   5    0.02    0.06
  16   0   5    0.03    0.10
 -16   0  -5    0.05    0.09
 -18   0  -5    0.13    0.11
  18   0   5    0.10    0.12
  18   0   5    0.06    0.06
  20   0   5    0.10    0.14
 -20   0  -5    0.01    0.11
  20   0   5    0.01    0.07
 -22   0  -5   -0.07    0.14
  22   0   5   -0.02    0.07
  22   0   5    0.09    0.14
 -23  -1   5    4.55    0.40
 -23   1   5    5.08    0.42
 -23   1   5    4.99    0.35
  23   1  -5    4.54    0.34
 -21  -1   5    5.00    0.38
  21  -1  -5    8.36    0.37
  21   1  -5    8.29    0.41
  21   1  -5    8.32    0.33
 -21   1   5    4.29    0.35
 -21   1   5    4.68    0.33
 -19  -1   5   13.32    0.57
  19  -1  -5   13.84    0.47
 -19   1   5   14.24    0.59
  19   1  -5   13.24    0.50
 -19   1   5   13.51    0.50
  19   1  -5   13.61    0.42
  17  -1  -5   61.31    1.27
 -17  -1   5   61.70    1.44
  17  -1  -5   54.43    1.54
  17   1  -5   62.13    1.31
 -17   1   5   62.30    1.45
 -17   1   5   61.17    1.33
  17   1  -5   62.36    1.22
  15  -1  -5   24.03    0.60
  15  -1  -5   23.37    0.61
 -15  -1   5   17.62    0.60
  15   1  -5   23.35    0.63
  15   1  -5   23.52    0.58
 -15   1   5   18.72    0.63
 -15   1   5   18.08    0.54
  13  -1  -5   10.12    0.34
 -13  -1   5    8.70    0.38
  13  -1  -5   10.53    0.33
 -13  -1   5    8.95    0.34
  13  -1  -5    9.95    0.35
 -13   1   5    9.60    0.41
 -13   1   5    9.94    0.35
  13   1  -5   10.32    0.35
  13   1  -5    9.94    0.32
 -11  -1   5   92.56    1.81
  11  -1  -5  105.47    2.01
 -11  -1   5   93.72    1.75
  11  -1  -5  111.98    2.00
  11  -1  -5  110.34    1.94
  11   1  -5  106.47    2.00
  11   1  -5  108.80    1.96
 -11   1   5   96.36    1.74
  11   1  -5  112.37    2.00
 -11   1   5   88.24    1.83
   9  -1  -5    3.27    0.14
   9  -1  -5    3.19    0.17
   9  -1  -5    3.37    0.19
  -9  -1   5    2.95    0.19
  -9  -1   5    2.75    0.17
  -9   1   5    3.02    0.17
  -9   1   5    2.86    0.20
   9   1  -5    3.35    0.16
   9   1  -5    3.31    0.17
   9   1  -5    3.37    0.18
   7  -1  -5   33.20    0.70
  -7  -1   5   33.14    0.71
  -7  -1   5   32.59    0.74
   7  -1  -5   32.64    0.73
   7  -1  -5   34.22    0.63
  -7   1   5   33.43    0.77
   7   1  -5   32.93    0.69
  -7   1   5   32.60    0.70
   7   1  -5   32.66    0.68
  -5  -1   5  131.16    2.31
   5  -1  -5  132.77    2.27
  -5  -1   5  124.97    2.33
   5  -1  -5  137.10    2.43
   5  -1  -5  136.43    2.38
  -5   1   5  135.30    2.30
   5   1  -5  133.30    2.36
   5   1  -5  140.40    2.44
   5   1  -5  139.25    2.37
  -5   1   5  135.09    2.39
  -3  -1   5   95.65    1.67
  -3  -1   5   97.32    1.71
  -3  -1   5   94.08    1.70
   3  -1  -5   92.16    1.61
   3  -1  -5   86.69    1.66
  -3   1   5   91.87    1.58
   3   1  -5   90.49    1.67
  -3   1   5   93.64    1.67
  -3   1   5   95.32    1.76
   3   1  -5   92.06    1.61
   1  -1  -5    0.51    0.07
  -1  -1   5    1.09    0.09
  -1  -1   5    1.03    0.10
   1  -1  -5    0.52    0.09
  -1  -1   5    0.86    0.08
  -1   1   5    0.95    0.05
  -1   1   5    0.77    0.10
   1   1  -5    0.47    0.06
  -1   1   5    0.94    0.08
   1   1  -5    0.41    0.07
  -1  -1  -5   23.68    0.55
  -1  -1  -5   22.88    0.48
   1  -1   5   22.71    0.48
   1  -1   5   21.98    0.50
   1   1   5   22.27    0.46
   1   1   5   23.21    0.46
  -1   1  -5   22.50    0.54
  -1   1  -5   22.82    0.50
   1   1   5   22.09    0.53
   1   1   5   22.17    0.46
   3  -1   5  535.09    9.27
  -3  -1  -5  478.44    8.54
   3  -1   5  529.41    9.26
   3  -1   5  528.61    9.09
  -3  -1  -5  502.61    8.55
  -3   1  -5  492.77    8.61
  -3   1  -5  480.98    8.66
   3   1   5  516.30    8.80
   3   1   5  498.54    8.94
   3   1   5  484.09    8.99
   3   1   5  522.97    9.01
   5  -1   5    4.72    0.23
   5  -1   5    4.72    0.19
  -5  -1  -5    4.78    0.20
  -5  -1  -5    5.06    0.18
   5  -1   5    4.91    0.18
  -5   1  -5    4.70    0.20
  -5   1  -5    4.63    0.19
   5   1   5    5.08    0.21
   5   1   5    4.75    0.15
   5   1   5    4.97    0.16
   5   1   5    5.11    0.22
  -7  -1  -5    6.01    0.21
  -7  -1  -5    6.35    0.23
   7  -1   5   10.78    0.38
   7  -1   5   10.41    0.31
  -7   1  -5    5.98    0.23
   7   1   5   10.20    0.26
   7   1   5   10.96    0.27
   7   1   5    9.28    0.34
   7   1   5   10.50    0.34
  -7   1  -5    5.96    0.23
  -9  -1  -5   54.22    1.04
   9  -1   5   51.37    1.16
   9  -1   5   52.61    1.05
  -9   1  -5   54.28    1.09
   9   1   5   52.75    1.14
   9   1   5   53.95    0.98
  -9   1  -5   54.17    1.08
   9   1   5   53.07    1.12
  -9   1  -5   54.48    1.06
 -11  -1  -5   27.89    0.72
  11  -1   5   26.46    0.63
  11  -1   5   27.11    0.75
  11   1   5   27.34    0.73
 -11   1  -5   28.11    0.63
 -11   1  -5   27.60    0.67
  11   1   5   27.34    0.57
 -11   1  -5   27.96    0.66
  13  -1   5   32.59    0.89
  13  -1   5   32.13    0.75
 -13  -1  -5   29.36    0.78
 -13   1  -5   29.63    0.74
  13   1   5   33.96    0.68
 -13   1  -5   30.02    0.72
  13   1   5   32.95    0.87
  15  -1   5    8.97    0.33
  15  -1   5    8.94    0.44
 -15  -1  -5    8.56    0.39
 -15   1  -5    8.42    0.37
  15   1   5    8.76    0.43
  15   1   5    8.91    0.27
  17  -1   5   38.83    0.90
 -17  -1  -5   45.35    1.14
  17  -1   5   40.06    1.09
  17   1   5   40.49    0.80
  17   1   5   39.44    1.08
  19  -1   5    5.59    0.28
 -19  -1  -5    6.66    0.41
  19  -1   5    6.17    0.40
  19   1   5    5.61    0.19
  19   1   5    5.27    0.39
 -19   1  -5    7.25    0.39
  21  -1   5    3.56    0.24
 -21  -1  -5    6.21    0.42
  21  -1   5    3.89    0.35
  21   1   5    3.62    0.36
 -23  -1  -5   27.71    0.95
  24   2  -5   20.00    0.73
 -22  -2   5    9.06    0.52
  22  -2  -5   10.06    0.44
 -22   2   5    9.37    0.45
  22   2  -5    9.72    0.47
 -22   2   5    8.92    0.53
  22   2  -5    9.03    0.28
 -20  -2   5    5.50    0.39
  20  -2  -5    6.20    0.33
 -20   2   5    5.50    0.40
 -20   2   5    5.40    0.32
  20   2  -5    5.69    0.35
  20   2  -5    6.39    0.24
 -18  -2   5  109.68    2.31
  18  -2  -5  118.69    2.26
  18   2  -5  118.99    2.31
  18   2  -5  115.60    2.10
 -18   2   5  113.76    2.36
 -18   2   5  112.54    2.18
  16  -2  -5   10.89    0.40
 -16  -2   5   11.33    0.48
  16   2  -5   11.16    0.33
  16   2  -5   11.07    0.43
 -16   2   5   10.34    0.40
 -16   2   5   10.78    0.48
  14  -2  -5    0.25    0.09
 -14  -2   5    0.30    0.10
  14  -2  -5    0.25    0.09
 -14   2   5    0.54    0.14
 -14   2   5    0.64    0.11
  14   2  -5    0.33    0.07
  14   2  -5    0.32    0.09
 -12  -2   5   76.40    1.54
  12  -2  -5   71.72    1.41
 -12   2   5   74.28    1.58
  12   2  -5   70.49    1.33
 -12   2   5   73.25    1.45
  12   2  -5   74.44    1.45
  10  -2  -5   69.40    1.39
  10  -2  -5   72.66    1.37
 -10  -2   5   71.42    1.43
 -10   2   5   70.26    1.35
  10   2  -5   72.42    1.31
 -10   2   5   69.53    1.47
  10   2  -5   70.03    1.36
   8  -2  -5   16.07    0.35
   8  -2  -5   16.74    0.46
  -8  -2   5   14.06    0.42
  -8  -2   5   13.47    0.39
   8  -2  -5   16.93    0.44
   8   2  -5   16.93    0.45
   8   2  -5   16.93    0.45
  -8   2   5   14.06    0.46
   8   2  -5   16.66    0.39
  -8   2   5   14.13    0.37
  -6  -2   5   32.19    0.71
   6  -2  -5   35.88    0.76
  -6  -2   5   32.36    0.70
   6  -2  -5   33.12    0.60
  -6   2   5   33.34    0.66
   6   2  -5   34.52    0.68
  -6   2   5   33.35    0.78
  -6   2   5   30.82    0.66
   6   2  -5   33.41    0.73
  -4  -2   5   87.33    1.58
  -4  -2   5   86.97    1.58
   4  -2  -5   71.19    1.28
   4  -2  -5   69.00    1.34
   4   2  -5   68.91    1.34
  -4   2   5   88.84    1.67
   4   2  -5   69.34    1.31
  -4   2   5   86.06    1.53
  -4   2   5   85.63    1.52
   4   2  -5   70.85    1.26
  -2  -2   5   23.52    0.51
   2  -2  -5   23.31    0.50
   2  -2  -5   23.60    0.56
  -2  -2   5   23.35    0.54
   2   2  -5   23.69    0.51
  -2   2   5   23.66    0.46
  -2   2   5   24.69    0.60
  -2   2   5   23.66    0.46
   2   2  -5   23.23    0.56
   0  -2  -5    8.16    0.28
   0  -2   5    5.37    0.19
   0  -2   5    5.49    0.21
   0  -2  -5    7.89    0.22
   0  -2   5    5.03    0.16
   0   2   5    5.02    0.11
   0   2   5    5.12    0.12
   0   2   5    5.39    0.23
   0   2  -5    8.45    0.28
   0   2  -5    8.36    0.24
   0   2   5    5.09    0.11
   2  -2   5  129.35    2.37
   2  -2   5  134.23    2.25
   2  -2   5  135.30    2.33
  -2  -2  -5  139.40    2.44
   2   2   5  130.49    2.26
   2   2   5  136.13    2.40
  -2   2  -5  135.50    2.43
  -2   2  -5  137.05    2.39
  -4  -2  -5  107.48    2.03
   4  -2   5  112.09    2.03
   4  -2   5  116.53    1.95
   4  -2   5  115.70    2.10
  -4   2  -5  115.22    2.05
   4   2   5  111.28    2.00
  -4   2  -5  116.31    2.01
   4   2   5  115.05    2.09
   6  -2   5   11.38    0.33
  -6  -2  -5    7.92    0.27
   6  -2   5   11.25    0.39
   6   2   5   11.23    0.34
  -6   2  -5    7.56    0.27
   6   2   5   11.44    0.38
  -6   2  -5    7.58    0.26
  -6   2  -5    7.60    0.22
  -8  -2  -5   21.06    0.50
   8  -2   5   21.79    0.53
   8  -2   5   21.97    0.62
  -8   2  -5   20.83    0.48
  -8   2  -5   21.55    0.53
  -8   2  -5   20.95    0.52
   8   2   5   21.77    0.60
  10  -2   5  359.34    5.92
  10  -2   5  347.83    6.07
 -10   2  -5  363.09    5.97
  10   2   5  340.12    6.01
  10   2   5  349.23    6.01
 -10   2  -5  340.96    5.92
 -10   2  -5  350.99    5.94
  12  -2   5    1.95    0.16
 -12  -2  -5    1.99    0.19
  12  -2   5    1.63    0.21
 -12   2  -5    1.99    0.15
 -12   2  -5    2.14    0.16
  12   2   5    1.45    0.19
 -12   2  -5    1.89    0.16
  14  -2   5   10.19    0.47
  14  -2   5   11.30    0.39
 -14  -2  -5   10.07    0.43
 -14   2  -5   10.48    0.38
  14   2   5   10.89    0.46
  16  -2   5   49.16    1.25
  16  -2   5   48.72    1.08
 -16  -2  -5   45.87    1.16
 -16   2  -5   46.62    1.06
  16   2   5   49.18    1.23
 -18  -2  -5   26.02    0.83
  18  -2   5   26.67    0.88
  18  -2   5   27.98    0.73
 -18   2  -5   25.83    0.73
  18   2   5   26.95    0.87
  20  -2   5    5.56    0.42
  20  -2   5    5.72    0.31
 -20  -2  -5    8.22    0.47
 -20   2  -5    7.55    0.39
  20   2   5    4.49    0.39
  22  -2   5    7.49    0.48
 -22  -2  -5    7.76    0.49
  22   2   5    7.00    0.48
 -23   3   5    2.10    0.32
  23   3  -5    1.64    0.26
 -21  -3   5    0.38    0.17
  21  -3  -5    0.63    0.16
 -21   3   5    0.47    0.14
 -21   3   5    0.44    0.19
  21   3  -5    0.41    0.16
 -19  -3   5    0.62    0.17
  19   3  -5    1.15    0.19
 -19   3   5    0.78    0.15
 -19   3   5    0.71    0.19
 -17  -3   5    2.89    0.26
  17   3  -5    2.94    0.25
 -17   3   5    3.12    0.23
 -17   3   5    2.98    0.29
 -15  -3   5    4.65    0.30
  15  -3  -5    4.36    0.26
 -15   3   5    4.76    0.26
  15   3  -5    4.34    0.27
 -15   3   5    4.58    0.31
  15   3  -5    3.92    0.13
  13  -3  -5   10.41    0.38
 -13  -3   5   10.64    0.42
 -13   3   5   10.13    0.45
 -13   3   5   10.08    0.35
  13   3  -5    9.66    0.39
  13   3  -5   10.29    0.24
 -11  -3   5    1.95    0.18
  11  -3  -5    2.19    0.18
 -11   3   5    2.04    0.15
  11   3  -5    2.02    0.10
  11   3  -5    2.15    0.18
  11   3  -5    1.96    0.16
 -11   3   5    2.09    0.20
   9  -3  -5   11.62    0.39
  -9  -3   5   12.42    0.41
  -9   3   5   12.96    0.47
   9   3  -5   11.51    0.35
  -9   3   5   12.94    0.35
   9   3  -5   12.40    0.28
   9   3  -5   12.42    0.40
   7  -3  -5   41.88    0.91
  -7  -3   5   41.24    0.87
   7   3  -5   41.64    0.77
   7   3  -5   41.89    0.88
  -7   3   5   40.23    0.96
   7   3  -5   41.42    0.90
  -7   3   5   41.94    0.79
  -5  -3   5   10.60    0.31
   5  -3  -5   11.05    0.36
   5   3  -5   13.11    0.28
  -5   3   5   10.54    0.38
  -5   3   5   10.13    0.22
   5   3  -5   10.78    0.27
   5   3  -5   11.40    0.36
   5   3  -5   10.70    0.34
  -5   3   5   10.65    0.23
  -3  -3   5    5.66    0.19
   3  -3  -5    4.99    0.23
  -3  -3   5    5.72    0.21
  -3  -3   5    5.44    0.23
  -3   3   5    5.98    0.27
   3   3  -5    5.46    0.23
   3   3  -5    5.38    0.17
   3   3  -5    5.36    0.17
  -1  -3   5   27.46    0.53
   1  -3  -5   28.94    0.66
  -1  -3   5   26.28    0.64
  -1  -3   5   26.94    0.59
   1   3  -5   27.90    0.57
  -1   3   5   27.70    0.68
   1   3  -5   27.95    0.57
   1   3  -5   28.66    0.66
  -1  -3  -5   10.30    0.33
   1  -3   5    9.07    0.32
   1  -3   5    9.98    0.29
   1   3   5    9.99    0.35
   1   3   5    9.41    0.22
  -1   3  -5   10.41    0.34
  -1   3  -5   10.51    0.28
   3  -3   5    3.54    0.20
   3  -3   5    3.50    0.17
  -3  -3  -5    3.20    0.18
  -3   3  -5    3.15    0.15
   3   3   5    3.45    0.14
   3   3   5    3.66    0.20
   5  -3   5    3.56    0.22
   5  -3   5    3.75    0.18
  -5  -3  -5    3.74    0.19
   5   3   5    4.12    0.18
  -5   3  -5    3.98    0.21
   5   3   5    3.95    0.22
   7  -3   5    3.15    0.22
   7  -3   5    2.86    0.17
  -7  -3  -5    2.99    0.18
  -7   3  -5    2.99    0.18
   7   3   5    3.43    0.18
   7   3   5    3.18    0.21
  -7   3  -5    3.33    0.17
   9  -3   5   15.78    0.45
   9  -3   5   16.44    0.55
  -9   3  -5   16.01    0.45
  -9   3  -5   16.34    0.46
   9   3   5   16.38    0.53
  11  -3   5   11.18    0.47
  11  -3   5   11.36    0.38
 -11   3  -5   10.48    0.36
  11   3   5   11.39    0.43
 -11   3  -5   10.96    0.36
  13  -3   5    8.12    0.33
 -13  -3  -5    6.39    0.34
  13  -3   5    7.94    0.41
  13   3   5    7.39    0.37
 -13   3  -5    7.07    0.30
 -13   3  -5    6.60    0.28
  15  -3   5    6.46    0.39
 -15  -3  -5    6.91    0.38
  15  -3   5    6.43    0.31
 -15   3  -5    6.86    0.32
  15   3   5    6.33    0.37
  17  -3   5    5.96    0.32
  17  -3   5    6.13    0.42
 -17  -3  -5    6.15    0.39
 -17   3  -5    5.90    0.32
  17   3   5    6.02    0.39
  19  -3   5    3.02    0.34
  19  -3   5    3.52    0.27
 -19  -3  -5    2.93    0.33
 -19   3  -5    3.16    0.26
  19   3   5    2.94    0.34
  21  -3   5    1.69    0.29
  21   3   5    1.83    0.30
 -21   3  -5    1.58    0.27
 -22  -4   5   14.74    0.68
 -22   4   5   15.87    0.73
  22   4  -5   14.25    0.64
 -20  -4   5    4.15    0.36
 -20   4   5    3.72    0.27
  20   4  -5    4.35    0.34
 -20   4   5    4.18    0.38
 -18  -4   5   56.11    1.40
 -18   4   5   58.99    1.47
  18   4  -5   59.23    1.40
 -18   4   5   55.87    1.23
  16  -4  -5    0.78    0.15
 -16  -4   5    0.84    0.17
 -16   4   5    0.70    0.12
 -16   4   5    0.74    0.17
  16   4  -5    0.62    0.14
  14  -4  -5    9.79    0.39
 -14  -4   5   15.01    0.54
 -14   4   5   15.25    0.60
 -14   4   5   15.44    0.44
  14   4  -5    9.77    0.42
 -12  -4   5   27.47    0.74
  12  -4  -5   25.47    0.69
 -12   4   5   27.35    0.61
  12   4  -5   26.05    0.72
 -12   4   5   26.53    0.80
 -10  -4   5   28.51    0.71
  10  -4  -5   28.41    0.73
 -10   4   5   27.19    0.57
  10   4  -5   28.51    0.65
 -10   4   5   27.17    0.78
  10   4  -5   28.66    0.74
  -8  -4   5    9.84    0.34
   8  -4  -5   11.34    0.40
  -8   4   5    9.42    0.40
   8   4  -5   11.53    0.41
   8   4  -5   11.86    0.37
   6  -4  -5    0.55    0.11
  -6  -4   5    0.54    0.09
  -6   4   5    0.72    0.13
   6   4  -5    0.31    0.09
   6   4  -5    0.66    0.10
   4  -4  -5   21.90    0.58
   4   4  -5   22.86    0.57
  -4   4   5   31.67    0.80
  -2  -4   5    2.98    0.19
   2  -4  -5    3.59    0.20
  -2   4   5    2.75    0.20
   2   4  -5    3.36    0.20
   0  -4  -5   34.26    0.76
   0  -4   5   27.81    0.69
   0   4  -5   31.64    0.60
   0   4   5   26.80    0.70
   0   4  -5   31.70    0.60
   2  -4   5   42.70    0.98
  -2  -4  -5   46.08    0.99
   2   4   5   43.86    0.99
   2   4   5   44.35    0.84
  -2   4  -5   48.17    0.89
  -2   4  -5   47.64    1.01
  -4  -4  -5   31.71    0.73
   4  -4   5   32.28    0.79
   4   4   5   30.49    0.66
  -4   4  -5   32.61    0.67
   4   4   5   30.85    0.78
  -4   4  -5   32.13    0.76
   6  -4   5   17.76    0.56
  -6  -4  -5   13.98    0.41
  -6   4  -5   14.00    0.38
  -6   4  -5   14.42    0.44
   6   4   5   17.89    0.55
   6   4   5   17.90    0.47
   8  -4   5    1.18    0.18
   8   4   5    1.34    0.17
   8   4   5    1.17    0.14
  -8   4  -5    0.97    0.13
  10  -4   5  153.70    2.93
  10   4   5  151.89    2.89
 -10   4  -5  153.71    2.81
 -10   4  -5  155.86    2.77
 -12  -4  -5    6.55    0.36
  12  -4   5    6.70    0.40
  12   4   5    6.16    0.33
 -12   4  -5    6.74    0.29
 -12   4  -5    6.23    0.29
  14  -4   5   24.03    0.81
 -14  -4  -5   23.30    0.75
 -14   4  -5   22.66    0.63
 -14   4  -5   22.77    0.63
  14   4   5   24.23    0.75
  16  -4   5   17.10    0.56
  16  -4   5   16.72    0.68
 -16  -4  -5   12.74    0.56
 -16   4  -5   13.08    0.46
  16   4   5   16.90    0.65
  18  -4   5    8.44    0.51
 -18  -4  -5    6.74    0.42
  18  -4   5    8.66    0.41
 -18   4  -5    6.91    0.35
  18   4   5    8.29    0.48
  20  -4   5   16.01    0.71
  20  -4   5   15.58    0.58
 -20  -4  -5   16.46    0.71
  20   4   5   16.26    0.72
 -21  -5   5    1.26    0.26
 -21   5   5    1.23    0.28
 -19  -5   5    6.48    0.43
  19   5  -5    6.00    0.40
 -19   5   5    6.34    0.29
 -19   5   5    6.53    0.47
  17  -5  -5   28.72    0.81
 -17  -5   5   28.25    0.87
 -17   5   5   29.11    0.95
  17   5  -5   28.07    0.86
 -17   5   5   27.82    0.66
 -15  -5   5   12.10    0.50
  15  -5  -5   17.20    0.58
  15   5  -5   16.71    0.61
 -15   5   5   12.31    0.34
 -15   5   5   12.93    0.57
 -13  -5   5   13.76    0.50
  13  -5  -5   15.26    0.53
 -13   5   5   13.59    0.57
  13   5  -5   15.63    0.56
  11  -5  -5   43.70    1.03
  11   5  -5   44.00    1.07
 -11   5   5   35.48    0.97
   9  -5  -5    6.75    0.32
   9   5  -5    6.74    0.27
   9   5  -5    6.54    0.33
  -9   5   5    7.54    0.38
   7  -5  -5    3.23    0.22
   7   5  -5    3.01    0.23
  -7   5   5    1.52    0.19
   7   5  -5    3.01    0.19
   5  -5  -5   81.77    1.63
   5   5  -5   82.05    1.59
  -5   5   5   83.57    1.72
   3  -5  -5   48.33    1.06
  -3  -5   5   50.59    1.13
   3   5  -5   48.59    1.04
  -3   5   5   50.69    1.15
  -1  -5   5    8.10    0.35
   1  -5  -5    5.30    0.26
  -1   5   5    8.18    0.35
   1   5  -5    5.61    0.27
  -1  -5  -5    8.98    0.34
   1  -5   5    7.00    0.33
   1   5   5    6.89    0.32
  -1   5  -5    8.37    0.33
   3  -5   5  196.33    3.62
  -3  -5  -5  185.94    3.29
  -3   5  -5  184.69    3.32
   3   5   5  203.29    3.61
  -5  -5  -5    1.34    0.15
   5  -5   5    1.68    0.20
   5   5   5    1.80    0.20
  -5   5  -5    1.65    0.18
   5   5   5    1.68    0.14
  -5   5  -5    1.57    0.09
   7  -5   5    1.93    0.23
  -7  -5  -5    1.18    0.14
   7   5   5    2.09    0.17
   7   5   5    2.31    0.21
  -7   5  -5    1.23    0.10
  -7   5  -5    0.98    0.14
   9  -5   5   36.49    0.97
   9   5   5   35.92    0.94
   9   5   5   33.74    0.85
  -9   5  -5   32.82    0.72
  -9   5  -5   31.98    0.81
 -11   5  -5   22.34    0.64
 -11   5  -5   23.11    0.58
 -13  -5  -5    5.71    0.37
  13  -5   5    5.78    0.41
 -13   5  -5    5.69    0.30
  13   5   5    5.93    0.35
 -13   5  -5    5.34    0.26
  15  -5   5   14.40    0.63
 -15  -5  -5   14.04    0.60
 -15   5  -5   14.38    0.48
 -15   5  -5   14.30    0.50
  15   5   5   13.77    0.58
 -17  -5  -5   40.01    1.17
  17  -5   5   35.42    1.09
 -17   5  -5   41.65    0.99
  17   5   5   34.22    1.04
  19  -5   5    2.81    0.35
 -19  -5  -5    2.24    0.30
  19   5   5    2.82    0.34
  18   6  -5    0.99    0.21
  16  -6  -5    2.63    0.28
 -16   6   5    3.23    0.43
  16   6  -5    2.08    0.28
  14  -6  -5   14.32    0.55
  14   6  -5   14.64    0.58
 -14   6   5   15.72    0.65
  12  -6  -5    5.64    0.32
 -12   6   5    5.30    0.37
  12   6  -5    6.30    0.37
  10  -6  -5    1.45    0.20
  10   6  -5    1.88    0.23
 -10   6   5    2.14    0.25
   8  -6  -5   39.75    0.98
   8   6  -5   39.39    1.00
   8   6  -5   39.63    0.91
  -8   6   5   41.94    1.08
  -6  -6   5   32.95    0.87
   6  -6  -5   35.23    0.89
   6   6  -5   35.83    0.85
  -6   6   5   31.63    0.87
   4  -6  -5    3.47    0.24
  -4  -6   5    3.05    0.24
  -4   6   5    3.28    0.25
   4   6  -5    3.31    0.22
   2  -6  -5   24.52    0.68
  -2  -6   5   25.32    0.72
   2   6  -5   25.30    0.68
  -2   6   5   24.95    0.72
   0  -6   5   30.63    0.82
   0  -6  -5   32.88    0.81
   0   6   5   29.66    0.81
   0   6  -5   32.99    0.82
  -2  -6  -5   11.70    0.42
   2  -6   5   10.19    0.44
  -2   6  -5   11.54    0.43
   2   6   5   10.33    0.43
  -4  -6  -5    5.26    0.27
   4  -6   5    6.63    0.36
   4   6   5    6.27    0.33
  -4   6  -5    6.11    0.30
   6  -6   5    2.36    0.26
  -6  -6  -5    2.95    0.21
   6   6   5    2.56    0.23
  -6   6  -5    2.70    0.22
   8  -6   5   10.05    0.48
  -8   6  -5    9.84    0.41
   8   6   5    9.84    0.44
  10  -6   5   16.44    0.65
 -10   6  -5   14.92    0.53
 -10   6  -5   15.05    0.36
  10   6   5   15.41    0.59
 -12  -6  -5    6.80    0.40
 -12   6  -5    7.30    0.26
 -12   6  -5    7.26    0.36
 -14  -6  -5    8.52    0.48
  14  -6   5    7.99    0.50
 -14   6  -5    8.33    0.40
  14   6   5    7.99    0.44
 -14   6  -5    8.27    0.31
  16  -6   5    9.15    0.55
 -16  -6  -5    9.79    0.54
  16   6   5    9.22    0.51
 -16   6  -5    9.96    0.37
  18   6   5    8.38    0.53
  17  -7  -5    3.11    0.32
  15  -7  -5   16.41    0.64
  15   7  -5   16.58    0.68
  13  -7  -5    2.95    0.31
  13   7  -5    2.17    0.27
  11  -7  -5   12.98    0.53
  11   7  -5   13.12    0.56
   9  -7  -5    4.18    0.30
   9   7  -5    4.28    0.31
  -9   7   5   -0.03    0.07
  -7  -7   5   62.62    1.46
   5  -7  -5   18.45    0.61
  -5  -7   5   17.83    0.63
  -5   7   5   17.57    0.62
   5   7  -5   18.09    0.57
   3  -7  -5   11.04    0.44
  -3  -7   5    9.28    0.44
  -3   7   5    9.45    0.43
   3   7  -5   10.84    0.43
   1  -7  -5   24.97    0.72
  -1  -7   5   23.07    0.73
  -1   7   5   23.24    0.71
   1   7  -5   24.58    0.71
   1  -7   5    5.18    0.33
  -1  -7  -5    4.75    0.28
  -1   7  -5    4.44    0.29
   1   7   5    5.25    0.32
   3  -7   5   51.56    1.27
  -3  -7  -5   41.46    1.01
  -3   7  -5   43.12    1.05
   3   7   5   50.38    1.22
   5  -7   5    5.80    0.38
  -5  -7  -5    5.33    0.31
  -5   7  -5    5.31    0.32
   5   7   5    5.84    0.35
   7  -7   5   10.56    0.52
  -7   7  -5    9.49    0.43
   7   7   5   10.11    0.47
   9  -7   5    0.25    0.17
  -9   7  -5    1.12    0.18
   9   7   5    0.38    0.15
  11  -7   5    0.51    0.20
 -11  -7  -5    0.10    0.12
 -11   7  -5    0.10    0.12
  13  -7   5   20.81    0.82
 -13  -7  -5   17.31    0.70
 -13   7  -5   17.56    0.63
  15  -7   5    0.25    0.18
 -15  -7  -5    0.08    0.14
 -15   7  -5    0.12    0.13
  12  -8  -5   11.66    0.54
  12   8  -5   10.88    0.55
 -10  -8   5    9.14    0.50
  10  -8  -5    9.08    0.46
   8  -8  -5    3.51    0.34
  -8  -8   5    1.97    0.27
  -6  -8   5    4.91    0.36
   6  -8  -5    6.00    0.36
   6   8  -5    5.50    0.33
  -4  -8   5    6.35    0.39
   4  -8  -5    4.98    0.34
   4   8  -5    4.93    0.31
  -2  -8   5    3.97    0.32
   2  -8  -5    3.42    0.28
   2   8  -5    3.16    0.26
   0  -8   5    0.78    0.19
   0  -8  -5    0.80    0.17
   0   8   5    0.91    0.18
   0   8  -5    0.83    0.17
  -2  -8  -5    7.08    0.38
   2  -8   5    4.95    0.37
   2   8   5    5.42    0.35
  -2   8  -5    7.10    0.38
  -4  -8  -5    6.13    0.37
   4  -8   5    5.53    0.40
  -4   8  -5    5.46    0.35
   4   8   5    5.62    0.36
   6  -8   5    5.98    0.43
   6   8   5    6.40    0.39
  -6   8  -5    5.39    0.34
   8  -8   5    4.60    0.40
  -8   8  -5    4.32    0.33
   8   8   5    4.21    0.34
 -10  -8  -5   46.46    1.27
  10  -8   5   50.65    1.39
 -10   8  -5   47.88    1.21
  12  -8   5    0.08    0.18
 -12  -8  -5   -0.01    0.13
 -12   8  -5    0.09    0.14
   7  -9  -5   24.88    0.86
  -7  -9   5   24.53    0.88
   5  -9  -5    4.01    0.34
  -5  -9   5    3.34    0.36
   5   9  -5    3.83    0.32
   3  -9  -5    0.45    0.16
  -3  -9   5    0.90    0.20
   3   9  -5    0.65    0.17
  -1  -9   5   15.16    0.65
   1  -9  -5   16.79    0.63
   1   9  -5   15.77    0.61
  -1  -9  -5    4.88    0.35
   1  -9   5    3.54    0.37
  -1   9  -5    4.95    0.34
   3  -9   5    1.82    0.30
  -3   9  -5    1.71    0.24
   5  -9   5    4.78    0.41
  -5   9  -5    3.96    0.33
   7  -9   5    1.81    0.30
  22   0  -6   14.26    0.52
 -22   0   6   14.79    0.67
 -20   0   6    4.71    0.36
  20   0  -6    3.05    0.22
  18   0  -6    2.78    0.21
 -18   0   6    2.99    0.25
 -18   0   6    3.26    0.30
 -16   0   6  106.10    2.10
  16   0  -6   93.74    1.77
 -16   0   6  110.97    2.24
  16   0  -6   89.55    1.83
  14   0  -6   22.27    0.58
 -14   0   6   20.30    0.58
 -14   0   6   20.62    0.66
  14   0  -6   22.40    0.57
  12   0  -6   29.60    0.69
  12   0  -6   30.11    0.74
  12   0  -6   30.47    0.68
 -12   0   6   21.00    0.64
 -12   0   6   21.27    0.58
 -10   0   6   71.00    1.46
  10   0  -6   71.39    1.38
 -10   0   6   68.31    1.37
  10   0  -6   71.62    1.34
  10   0  -6   72.73    1.43
   8   0  -6  179.41    3.13
  -8   0   6  178.82    3.19
   8   0  -6  170.32    3.00
   8   0  -6  177.62    3.06
  -8   0   6  175.72    3.11
  -6   0   6   36.41    0.78
  -6   0   6   36.54    0.83
   6   0  -6   40.81    0.78
   6   0  -6   40.33    0.89
   6   0  -6   41.46    0.84
   4   0  -6   16.26    0.46
  -4   0   6   14.76    0.33
   4   0  -6   14.93    0.40
  -4   0   6   14.13    0.42
  -4   0   6   14.54    0.39
  -2   0   6  550.93    9.18
  -2   0   6  531.58    9.63
   2   0  -6  537.52    9.61
  -2   0   6  523.76    9.21
   2   0  -6  552.77    9.35
   0   0  -6   13.50    0.36
   0   0   6   12.63    0.32
   0   0   6   12.34    0.36
   0   0   6   12.78    0.34
   2   0   6   25.03    0.57
  -2   0  -6   26.16    0.63
   2   0   6   25.25    0.58
   2   0   6   25.05    0.55
  -2   0  -6   25.58    0.57
   4   0   6  187.92    3.24
   4   0   6  189.14    3.29
   4   0   6  188.84    3.27
  -4   0  -6  185.23    3.26
  -4   0  -6  187.36    3.21
   6   0   6   99.43    1.84
  -6   0  -6   94.54    1.73
  -6   0  -6   91.52    1.69
   6   0   6  100.12    1.80
   8   0   6   11.13    0.37
   8   0   6   10.71    0.32
   8   0   6   10.59    0.40
  -8   0  -6   19.02    0.48
  -8   0  -6   17.62    0.47
 -10   0  -6   22.34    0.54
  10   0   6   22.76    0.55
 -10   0  -6   22.61    0.60
  10   0   6   22.87    0.66
  12   0   6  137.31    2.48
 -12   0  -6  115.44    2.20
  12   0   6  141.32    2.69
 -14   0  -6    8.64    0.38
  14   0   6   10.66    0.48
  14   0   6    9.91    0.33
 -16   0  -6    7.74    0.38
  16   0   6   11.08    0.36
  16   0   6   10.53    0.50
 -18   0  -6   34.17    0.96
  18   0   6   30.26    0.72
  18   0   6   31.30    0.95
  20   0   6    7.83    0.49
  20   0   6    9.52    0.33
 -20   0  -6    7.78    0.44
  22   0   6   10.54    0.58
 -22   0  -6    6.78    0.59
 -23  -1   6    4.67    0.40
 -23   1   6    4.90    0.41
 -21  -1   6    1.98    0.29
  21  -1  -6    1.71    0.19
  21   1  -6    1.77    0.17
 -21   1   6    2.21    0.32
 -21   1   6    1.55    0.21
  19  -1  -6    1.86    0.19
 -19  -1   6    1.89    0.26
 -19   1   6    2.13    0.28
  19   1  -6    2.29    0.24
  19   1  -6    2.24    0.18
 -19   1   6    2.04    0.23
  17  -1  -6   15.58    0.50
 -17  -1   6   14.76    0.58
  17   1  -6   14.74    0.50
  17   1  -6   15.69    0.46
 -17   1   6   14.88    0.60
 -17   1   6   14.16    0.50
  15  -1  -6   18.50    0.53
 -15  -1   6   18.02    0.63
 -15   1   6   19.25    0.57
  15   1  -6   16.98    0.52
 -15   1   6   19.80    0.67
  15   1  -6   17.69    0.49
  13  -1  -6    3.39    0.22
  13  -1  -6    2.94    0.19
 -13  -1   6    3.82    0.24
 -13  -1   6    4.18    0.27
  13   1  -6    2.58    0.17
 -13   1   6    3.73    0.27
 -13   1   6    4.19    0.24
  13   1  -6    2.85    0.19
  11  -1  -6    1.39    0.15
 -11  -1   6    1.35    0.16
 -11  -1   6    1.21    0.16
  11   1  -6    1.44    0.12
 -11   1   6    1.30    0.18
  11   1  -6    1.23    0.15
 -11   1   6    0.99    0.12
  11   1  -6    1.54    0.14
  -9  -1   6  148.55    2.77
   9  -1  -6  155.80    2.75
  -9  -1   6  157.18    2.72
   9  -1  -6  156.26    2.81
  -9   1   6  154.68    2.82
   9   1  -6  156.12    2.72
   9   1  -6  156.64    2.72
   9   1  -6  151.99    2.80
  -9   1   6  148.24    2.70
  -7  -1   6   11.98    0.37
  -7  -1   6   12.45    0.39
   7  -1  -6   12.59    0.36
   7  -1  -6   12.15    0.40
   7  -1  -6   11.82    0.28
  -7   1   6   11.52    0.35
   7   1  -6   12.07    0.34
   7   1  -6   12.36    0.40
   7   1  -6   12.21    0.34
  -7   1   6   11.91    0.41
   5  -1  -6    1.00    0.13
   5  -1  -6    0.99    0.11
  -5  -1   6    0.37    0.08
  -5  -1   6    0.48    0.09
  -5   1   6    0.47    0.08
   5   1  -6    0.76    0.09
   5   1  -6    0.90    0.10
  -5   1   6    0.38    0.04
   5   1  -6    0.77    0.12
  -5   1   6    0.35    0.09
   3  -1  -6   44.63    0.89
  -3  -1   6   47.82    0.95
  -3  -1   6   46.76    0.93
   3  -1  -6   46.47    0.97
  -3  -1   6   46.19    0.89
  -3   1   6   46.67    0.91
   3   1  -6   45.42    0.90
  -3   1   6   44.34    0.80
  -3   1   6   47.12    0.99
   3   1  -6   43.83    0.96
  -1  -1   6   46.83    0.92
   1  -1  -6   48.65    0.94
   1  -1  -6   49.57    1.02
  -1  -1   6   47.10    0.94
  -1  -1   6   47.93    0.94
  -1   1   6   48.33    1.00
   1   1  -6   46.64    0.95
  -1   1   6   48.47    0.92
   1   1  -6   49.19    1.02
  -1   1   6   46.62    0.85
   1  -1   6    8.76    0.26
  -1  -1  -6   10.68    0.30
   1  -1   6    8.20    0.27
  -1  -1  -6   11.24    0.36
   1  -1   6    8.57    0.27
   1   1   6    7.74    0.23
  -1   1  -6   10.54    0.35
   1   1   6    7.79    0.23
   1   1   6    8.57    0.30
   1   1   6    8.16    0.24
  -1   1  -6   10.43    0.31
   3  -1   6   15.92    0.38
  -3  -1  -6   14.66    0.37
  -3  -1  -6   14.71    0.43
   3  -1   6   15.34    0.40
   3   1   6   13.75    0.38
   3   1   6   15.32    0.36
  -3   1  -6   15.31    0.43
   3   1   6   14.85    0.42
  -3   1  -6   14.89    0.39
   3   1   6   14.48    0.35
   5  -1   6   15.95    0.48
   5  -1   6   15.94    0.41
  -5  -1  -6   19.55    0.51
   5  -1   6   17.66    0.44
  -5  -1  -6   19.20    0.46
   5   1   6   16.49    0.47
   5   1   6   15.78    0.44
  -5   1  -6   19.16    0.48
   5   1   6   16.57    0.39
   5   1   6   17.82    0.39
  -5   1  -6   20.01    0.51
   7  -1   6   10.67    0.39
   7  -1   6   10.58    0.33
   7  -1   6   10.26    0.32
  -7  -1  -6   10.31    0.33
  -7   1  -6   10.20    0.33
   7   1   6   10.67    0.29
   7   1   6   10.61    0.37
  -7   1  -6   10.27    0.33
   7   1   6   10.78    0.37
  -9  -1  -6    7.34    0.27
   9  -1   6    6.13    0.32
   9  -1   6    6.34    0.25
   9   1   6    6.21    0.21
  -9   1  -6    6.93    0.27
   9   1   6    6.09    0.30
   9   1   6    6.35    0.29
  -9   1  -6    7.27    0.28
  -9   1  -6    7.16    0.28
  11  -1   6   31.91    0.87
  11  -1   6   33.54    0.75
 -11  -1  -6   32.72    0.83
 -11   1  -6   33.78    0.78
  11   1   6   32.29    0.85
 -11   1  -6   32.30    0.77
  11   1   6   32.67    0.67
 -11   1  -6   32.89    0.74
  13  -1   6   16.55    0.47
  13  -1   6   15.83    0.59
 -13  -1  -6   15.95    0.54
 -13   1  -6   16.05    0.51
  13   1   6   15.88    0.39
  13   1   6   15.13    0.55
 -13   1  -6   15.92    0.49
  15  -1   6    1.67    0.25
 -15  -1  -6    1.35    0.19
  15  -1   6    1.77    0.17
 -15   1  -6    1.16    0.17
  15   1   6    1.94    0.12
  15   1   6    1.81    0.24
 -17  -1  -6    3.26    0.28
  17  -1   6    2.86    0.21
  17  -1   6    3.02    0.32
  17   1   6    3.62    0.36
 -17   1  -6    3.14    0.27
  17   1   6    2.98    0.14
  19  -1   6   31.30    0.79
 -19  -1  -6   29.10    0.90
  19  -1   6   33.65    1.03
  19   1   6   32.35    1.01
 -21  -1  -6    0.50    0.18
  21  -1   6    0.50    0.18
  21   1   6    0.40    0.18
  22  -2  -6    3.65    0.29
 -22  -2   6    3.01    0.35
  22   2  -6    3.46    0.34
 -22   2   6    3.03    0.37
  22   2  -6    3.67    0.19
  20  -2  -6    0.66    0.15
 -20  -2   6    1.54    0.25
  20   2  -6    0.91    0.19
 -20   2   6    1.42    0.20
 -20   2   6    1.31    0.26
  20   2  -6    0.81    0.11
  18  -2  -6    2.01    0.22
 -18  -2   6    1.79    0.25
  18   2  -6    1.74    0.15
  18   2  -6    2.04    0.23
 -18   2   6    2.40    0.24
 -18   2   6    2.11    0.27
  16  -2  -6   10.61    0.41
 -16  -2   6   12.68    0.52
  16   2  -6   10.72    0.42
 -16   2   6   12.49    0.54
  16   2  -6   10.89    0.34
 -16   2   6   12.87    0.45
 -14  -2   6    2.46    0.22
  14  -2  -6    2.77    0.20
  14  -2  -6    2.78    0.21
  14   2  -6    2.81    0.16
  14   2  -6    2.88    0.21
 -14   2   6    2.15    0.19
 -14   2   6    2.32    0.26
 -12  -2   6   10.94    0.42
  12  -2  -6   14.76    0.45
  12  -2  -6   14.74    0.47
 -12   2   6   11.07    0.38
 -12   2   6   11.19    0.46
  12   2  -6   13.95    0.39
  12   2  -6   15.51    0.46
  12   2  -6   14.90    0.45
  10  -2  -6    5.55    0.27
  10  -2  -6    5.24    0.24
 -10  -2   6    5.57    0.28
  10   2  -6    5.45    0.25
 -10   2   6    5.54    0.31
 -10   2   6    5.25    0.24
  10   2  -6    5.93    0.26
  10   2  -6    5.86    0.21
   8  -2  -6   16.17    0.48
  -8  -2   6   17.38    0.49
   8  -2  -6   16.45    0.44
  -8  -2   6   17.49    0.47
   8   2  -6   16.53    0.41
  -8   2   6   15.94    0.52
  -8   2   6   15.79    0.43
   8   2  -6   16.31    0.45
   8   2  -6   15.84    0.47
   6  -2  -6   13.66    0.42
  -6  -2   6   13.78    0.40
   6  -2  -6   13.68    0.38
  -6  -2   6   14.27    0.41
   6   2  -6   13.71    0.39
   6   2  -6   13.14    0.42
   6   2  -6   13.94    0.36
  -6   2   6   13.57    0.45
  -6   2   6   13.26    0.36
   4  -2  -6    1.22    0.14
  -4  -2   6    1.47    0.12
   4  -2  -6    1.22    0.11
  -4  -2   6    1.04    0.11
  -4  -2   6    1.01    0.11
  -4   2   6    1.37    0.10
  -4   2   6    1.37    0.09
   4   2  -6    1.18    0.13
   4   2  -6    1.13    0.10
  -4   2   6    1.37    0.16
   2  -2  -6   87.39    1.69
  -2  -2   6   82.05    1.55
   2  -2  -6   88.35    1.60
  -2  -2   6   85.81    1.55
  -2  -2   6   84.91    1.52
  -2   2   6   85.46    1.64
  -2   2   6   80.47    1.45
  -2   2   6   82.48    1.46
   2   2  -6   90.22    1.62
   2   2  -6   90.51    1.70
   0  -2   6    1.55    0.12
   0  -2   6    1.58    0.12
   0  -2   6    1.79    0.11
   0  -2  -6    1.55    0.16
   0   2   6    1.65    0.15
   0   2   6    1.80    0.08
   0   2  -6    1.28    0.10
   0   2  -6    1.12    0.12
   0   2   6    1.65    0.07
   2  -2   6   33.10    0.75
   2  -2   6   33.10    0.65
  -2  -2  -6   33.21    0.75
   2  -2   6   34.22    0.72
  -2   2  -6   30.35    0.72
   2   2   6   32.44    0.63
   2   2   6   33.32    0.78
  -2   2  -6   32.12    0.69
   4  -2   6   23.47    0.61
   4  -2   6   22.90    0.49
  -4  -2  -6   19.76    0.53
   4  -2   6   23.27    0.55
   4   2   6   23.41    0.60
   4   2   6   23.09    0.52
  -4   2  -6   21.77    0.55
  -6  -2  -6   12.14    0.38
   6  -2   6   13.19    0.45
   6  -2   6   13.25    0.39
   6   2   6   15.60    0.46
  -6   2  -6   11.96    0.36
   6   2   6   12.86    0.39
  -6   2  -6   11.70    0.37
   8  -2   6   14.27    0.49
  -8  -2  -6   16.26    0.45
   8  -2   6   13.39    0.40
   8   2   6   13.32    0.43
   8   2   6   13.73    0.45
  -8   2  -6   16.60    0.47
  -8   2  -6   16.02    0.41
  -8   2  -6   16.70    0.46
  10  -2   6    0.58    0.14
  10  -2   6    0.61    0.11
  10   2   6    0.43    0.11
 -10   2  -6    0.41    0.13
 -10   2  -6    0.34    0.09
  10   2   6    0.37    0.11
 -10   2  -6    0.32    0.09
  12  -2   6   30.83    0.74
  12  -2   6   30.54    0.86
 -12  -2  -6   24.79    0.72
  12   2   6   28.94    0.82
 -12   2  -6   25.12    0.65
 -12   2  -6   25.17    0.62
  14  -2   6    0.95    0.14
 -14  -2  -6    0.29    0.11
  14  -2   6    0.78    0.19
  14   2   6    1.07    0.19
 -14   2  -6    0.49    0.12
 -16  -2  -6    1.41    0.21
  16  -2   6    2.51    0.30
  16  -2   6    2.53    0.21
  16   2   6    2.36    0.28
 -16   2  -6    1.49    0.19
  18  -2   6    5.86    0.42
  18  -2   6    5.65    0.31
 -18  -2  -6    7.51    0.43
 -18   2  -6    7.06    0.37
  18   2   6    5.45    0.39
  20  -2   6    0.07    0.16
  20  -2   6    0.36    0.12
 -20  -2  -6    0.46    0.17
  20   2   6    0.41    0.18
 -22  -2  -6    3.08    0.54
  23   3  -6   10.57    0.65
 -21  -3   6    2.75    0.32
 -21   3   6    2.54    0.34
  21   3  -6    1.96    0.26
 -19  -3   6   19.69    0.72
 -19   3   6   19.16    0.61
  19   3  -6   20.12    0.68
 -19   3   6   19.92    0.76
 -17  -3   6   30.60    0.90
 -17   3   6   29.10    0.78
  17   3  -6   30.54    0.84
 -17   3   6   29.91    0.94
  17   3  -6   29.86    0.58
 -15  -3   6   34.06    0.92
 -15   3   6   33.38    0.81
  15   3  -6   31.60    0.83
  15   3  -6   31.05    0.62
 -15   3   6   33.43    0.97
  13  -3  -6   18.13    0.55
 -13  -3   6   20.82    0.64
  13   3  -6   17.37    0.55
 -13   3   6   21.76    0.71
  13   3  -6   17.33    0.40
 -13   3   6   21.32    0.56
  11  -3  -6    0.47    0.12
 -11  -3   6    0.74    0.14
  11   3  -6    0.54    0.07
  11   3  -6    0.65    0.12
  11   3  -6    0.29    0.08
 -11   3   6    0.34    0.08
 -11   3   6    0.24    0.11
  -9  -3   6  364.92    6.20
   9  -3  -6  356.96    6.15
   9   3  -6  354.01    6.10
  -9   3   6  355.41    6.32
  -9   3   6  370.18    6.26
   9   3  -6  362.44    6.13
   9   3  -6  362.76    6.06
   7  -3  -6   15.24    0.47
  -7  -3   6   15.33    0.44
   7   3  -6   16.13    0.47
   7   3  -6   15.62    0.37
  -7   3   6   14.99    0.37
  -7   3   6   15.41    0.52
   5  -3  -6    0.24    0.08
  -5  -3   6    1.64    0.13
   5   3  -6    0.28    0.08
   5   3  -6    0.32    0.09
  -5   3   6    1.16    0.15
  -5   3   6    1.43    0.08
  -5   3   6    1.49    0.08
   5   3  -6    0.25    0.05
  -3  -3   6   80.21    1.62
   3  -3  -6   76.49    1.50
  -3  -3   6   82.39    1.49
  -3  -3   6   83.16    1.58
  -3   3   6   84.09    1.66
   3   3  -6   76.37    1.50
   3   3  -6   77.24    1.39
  -1  -3   6   80.51    1.54
  -1  -3   6   80.63    1.50
   1  -3  -6   80.55    1.54
  -1   3   6   78.65    1.59
   1   3  -6   79.07    1.55
   1   3  -6   78.63    1.44
  -1  -3  -6   32.14    0.75
   1  -3   6   26.75    0.66
   1  -3   6   26.13    0.61
  -1   3  -6   31.75    0.68
   1   3   6   26.87    0.69
  -1   3  -6   33.03    0.76
   3  -3   6   11.04    0.39
   3  -3   6   11.97    0.36
  -3  -3  -6   11.43    0.38
   3   3   6   11.56    0.29
   3   3   6   12.22    0.41
  -3   3  -6   12.11    0.34
  -3   3  -6   12.01    0.39
   5  -3   6   25.68    0.69
  -5  -3  -6   34.11    0.79
  -5   3  -6   35.14    0.76
   5   3   6   25.69    0.69
  -5   3  -6   35.33    0.81
   5   3   6   26.23    0.58
   7  -3   6    7.61    0.35
   7  -3   6    7.66    0.29
  -7  -3  -6    7.70    0.30
  -7   3  -6    7.68    0.29
   7   3   6    8.01    0.30
  -7   3  -6    7.60    0.31
   7   3   6    7.24    0.33
   9  -3   6    7.01    0.36
   9  -3   6    7.54    0.30
   9   3   6    7.38    0.35
   9   3   6    7.30    0.32
  -9   3  -6   11.91    0.40
  -9   3  -6   12.34    0.39
  11  -3   6   86.58    1.71
  11  -3   6   88.51    1.87
 -11   3  -6   90.85    1.77
 -11   3  -6   92.86    1.77
  11   3   6   88.13    1.82
  13  -3   6   37.59    1.05
  13  -3   6   37.84    0.90
 -13  -3  -6   39.81    1.04
 -13   3  -6   39.06    0.92
  13   3   6   39.98    1.01
 -13   3  -6   39.33    0.90
  15  -3   6    1.61    0.18
  15  -3   6    1.33    0.23
 -15  -3  -6    0.08    0.11
 -15   3  -6    0.08    0.09
  15   3   6    1.23    0.20
 -17  -3  -6    3.21    0.31
  17  -3   6    2.99    0.34
  17  -3   6    3.26    0.25
 -17   3  -6    3.21    0.26
  17   3   6    3.31    0.34
 -19  -3  -6   74.62    1.78
  19  -3   6   80.15    1.69
  19  -3   6   81.69    1.92
 -19   3  -6   76.82    1.63
  19   3   6   79.95    1.90
 -21  -3  -6    4.68    0.63
  21   3   6    3.73    0.41
 -20  -4   6    6.18    0.43
  20   4  -6    6.29    0.40
 -20   4   6    5.94    0.45
 -18  -4   6    5.78    0.39
 -18   4   6    5.62    0.30
  18   4  -6    7.02    0.40
 -18   4   6    6.14    0.43
 -16  -4   6   33.59    0.95
  16  -4  -6   29.26    0.81
  16   4  -6   28.82    0.83
 -16   4   6   32.95    1.01
 -16   4   6   34.08    0.80
  14  -4  -6   11.61    0.45
 -14  -4   6   12.16    0.49
 -14   4   6   11.58    0.38
  14   4  -6   11.47    0.46
 -14   4   6   11.87    0.54
  12  -4  -6    1.24    0.17
 -12  -4   6    0.98    0.16
 -12   4   6    0.71    0.17
 -12   4   6    0.75    0.10
  12   4  -6    1.55    0.20
  10  -4  -6   21.20    0.62
 -10  -4   6   19.48    0.57
 -10   4   6   20.08    0.66
  10   4  -6   21.71    0.56
  10   4  -6   20.51    0.61
 -10   4   6   20.36    0.44
   8  -4  -6   46.27    1.04
  -8  -4   6   47.42    1.02
   8   4  -6   45.86    1.00
  -8   4   6   48.75    1.16
   8   4  -6   45.52    1.04
   6  -4  -6    8.01    0.34
   6   4  -6    7.84    0.32
  -6   4   6    7.19    0.35
   6   4  -6    7.60    0.31
  -4  -4   6   17.99    0.53
   4  -4  -6   17.68    0.52
   4   4  -6   17.62    0.51
   4   4  -6   17.74    0.35
  -4   4   6   18.15    0.57
  -2  -4   6  119.42    2.21
   2  -4  -6  128.40    2.34
  -2   4   6  114.74    2.24
   2   4  -6  127.72    2.15
   2   4  -6  120.81    2.32
   0  -4  -6   20.11    0.56
   0  -4   6   21.15    0.59
   0   4  -6   20.56    0.57
   0   4  -6   20.64    0.45
   0   4   6   21.97    0.63
  -2  -4  -6   14.74    0.45
   2  -4   6   13.94    0.47
  -2   4  -6   14.75    0.37
   2   4   6   14.71    0.49
  -4  -4  -6   56.92    1.19
   4  -4   6   54.95    1.23
   4   4   6   56.91    1.24
  -4   4  -6   57.27    1.11
  -4   4  -6   57.11    1.21
  -6  -4  -6   32.11    0.76
   6  -4   6   33.43    0.87
   6   4   6   32.37    0.85
  -6   4  -6   32.48    0.79
  -6   4  -6   31.85    0.71
   6   4   6   32.73    0.73
   8  -4   6   12.04    0.49
   8   4   6   11.63    0.40
   8   4   6   11.96    0.46
  -8   4  -6   11.79    0.37
  -8   4  -6   11.35    0.41
  10  -4   6   11.10    0.49
 -10   4  -6   10.95    0.37
  10   4   6   10.20    0.40
 -10   4  -6   11.02    0.41
  10   4   6    9.78    0.44
 -12  -4  -6   11.91    0.51
 -12   4  -6   12.00    0.43
 -12   4  -6   12.05    0.42
 -14  -4  -6    5.05    0.35
  14  -4   6    5.64    0.40
  14  -4   6    5.77    0.31
  14   4   6    5.38    0.34
 -14   4  -6    5.11    0.29
 -14   4  -6    5.35    0.29
  16  -4   6    4.14    0.37
 -16  -4  -6    3.96    0.33
  16  -4   6    4.02    0.28
 -16   4  -6    4.53    0.28
  16   4   6    4.38    0.34
 -18  -4  -6   12.15    0.59
  18  -4   6   12.28    0.50
  18  -4   6   12.95    0.63
 -18   4  -6   11.24    0.46
  18   4   6   13.24    0.62
  20   4   6    5.68    0.45
 -19  -5   6   26.05    0.94
 -19   5   6   26.28    0.95
 -19   5   6   25.84    0.70
  19   5  -6   27.69    0.89
  17  -5  -6    2.93    0.30
  17   5  -6    2.82    0.31
 -17   5   6    2.15    0.32
 -17   5   6    2.27    0.16
  15  -5  -6    0.29    0.13
  15   5  -6    0.73    0.17
 -15   5   6    0.18    0.15
 -15   5   6    0.36    0.07
  13  -5  -6   16.37    0.57
 -13   5   6   15.73    0.63
  13   5  -6   17.15    0.60
  11  -5  -6    5.29    0.31
 -11   5   6    5.05    0.34
  11   5  -6    5.41    0.32
   9  -5  -6   22.05    0.66
   9   5  -6   22.24    0.67
   9   5  -6   22.34    0.60
  -9   5   6   25.35    0.78
   7  -5  -6    1.10    0.16
   7   5  -6    0.91    0.13
  -7   5   6    1.19    0.18
   7   5  -6    0.78    0.14
  -5  -5   6   10.83    0.42
   5  -5  -6    8.08    0.35
  -5   5   6   10.80    0.45
   5   5  -6    7.54    0.32
   3  -5  -6    0.08    0.08
  -3  -5   6   -0.02    0.07
  -3   5   6    0.09    0.09
   3   5  -6    0.27    0.09
  -1  -5   6    1.84    0.20
   1  -5  -6    1.13    0.15
  -1   5   6    1.97    0.22
   1   5  -6    1.06    0.15
   1  -5   6   53.86    1.21
  -1  -5  -6   48.51    1.08
  -1   5  -6   49.43    1.10
   1   5   6   52.37    1.21
   3  -5   6   13.10    0.49
  -3  -5  -6   14.42    0.47
   3   5   6   13.60    0.50
  -3   5  -6   14.03    0.32
  -3   5  -6   14.23    0.48
   5  -5   6    0.75    0.15
  -5  -5  -6    0.29    0.10
   5   5   6    0.76    0.15
  -5   5  -6    0.30    0.10
  -5   5  -6    0.30    0.06
   7  -5   6   11.44    0.50
  -7   5  -6   11.75    0.35
   7   5   6   12.31    0.49
  -7   5  -6   12.04    0.44
   9  -5   6   23.34    0.77
   9   5   6   23.65    0.74
  -9   5  -6   26.27    0.73
  -9   5  -6   26.78    0.64
  11  -5   6   13.58    0.59
 -11   5  -6   13.39    0.49
 -11   5  -6   13.78    0.43
  11   5   6   15.20    0.58
  13  -5   6    2.53    0.31
 -13  -5  -6    3.43    0.31
 -13   5  -6    2.95    0.24
  15  -5   6    6.18    0.45
 -15  -5  -6    6.93    0.44
 -15   5  -6    7.05    0.33
  15   5   6    5.88    0.39
 -17  -5  -6    2.21    0.30
  17  -5   6    2.40    0.33
  17   5   6    1.91    0.28
  19   5   6    4.78    0.42
  18   6  -6    0.12    0.17
  16  -6  -6   23.44    0.78
 -16   6   6   28.03    0.96
  16   6  -6   26.36    0.85
  14  -6  -6    1.92    0.24
 -14   6   6    1.87    0.28
  14   6  -6    1.79    0.26
  12  -6  -6   11.44    0.48
 -12   6   6    7.75    0.45
  12   6  -6   11.40    0.50
  10  -6  -6    6.40    0.36
 -10   6   6    5.05    0.36
  10   6  -6    5.89    0.35
   8  -6  -6   17.05    0.59
  -8   6   6   18.40    0.66
   8   6  -6   17.14    0.53
  -6  -6   6   32.26    0.88
   6  -6  -6   32.14    0.86
   6   6  -6   32.95    0.82
  -6   6   6   32.89    0.92
   4  -6  -6    2.98    0.23
  -4  -6   6    1.57    0.21
  -4   6   6    1.71    0.22
   4   6  -6    1.76    0.19
   2  -6  -6  117.91    2.30
  -2  -6   6  112.88    2.23
   2   6  -6  121.26    2.30
  -2   6   6  110.43    2.24
   0  -6   6    0.03    0.09
   0  -6  -6    0.07    0.09
   0   6  -6    0.25    0.11
   0   6   6    0.19    0.11
   2  -6   6   19.68    0.66
  -2  -6  -6   19.11    0.58
  -2   6  -6   18.55    0.59
   2   6   6   20.14    0.65
   4  -6   6   56.52    1.34
  -4  -6  -6   54.61    1.20
  -4   6  -6   53.27    1.22
   4   6   6   55.87    1.31
   6  -6   6   24.14    0.78
  -6  -6  -6   24.84    0.88
   6   6   6   22.90    0.74
  -6   6  -6   21.64    0.67
   8  -6   6    7.92    0.44
  -8   6  -6    9.80    0.25
  -8   6  -6    9.58    0.42
   8   6   6    8.01    0.42
  10  -6   6    0.90    0.22
  10   6   6    0.73    0.17
 -10   6  -6    0.66    0.09
 -10   6  -6    0.81    0.16
 -12  -6  -6   22.13    0.78
  12  -6   6   29.30    0.97
 -12   6  -6   22.12    0.56
 -12   6  -6   21.71    0.69
  14  -6   6    3.41    0.40
 -14  -6  -6    2.13    0.30
 -14   6  -6    2.35    0.19
 -14   6  -6    2.02    0.24
 -16  -6  -6    0.81    0.22
  16  -6   6    1.95    0.32
  15  -7  -6   10.66    0.53
  15   7  -6   11.23    0.56
  13  -7  -6    4.36    0.35
  13   7  -6    4.51    0.36
  11  -7  -6    1.19    0.21
  11   7  -6    1.04    0.20
 -11   7   6    0.61    0.20
   9  -7  -6   33.72    0.95
  -9  -7   6   34.44    0.98
  -9   7   6   33.38    1.00
   7  -7  -6    2.26    0.26
  -7  -7   6    2.67    0.29
   7   7  -6    2.24    0.23
  -7   7   6    2.37    0.28
   5  -7  -6    2.99    0.29
  -5  -7   6    2.95    0.29
  -5   7   6    2.43    0.27
   5   7  -6    2.64    0.23
  -3  -7   6   19.28    0.67
   3  -7  -6   18.61    0.62
  -3   7   6   18.93    0.67
   3   7  -6   19.28    0.62
  -1  -7   6   20.64    0.70
   1  -7  -6   19.00    0.64
   1   7  -6   19.06    0.62
  -1   7   6   19.94    0.67
  -1  -7  -6   13.13    0.50
   1  -7   6   12.97    0.54
   1   7   6   12.65    0.53
  -1   7  -6   13.26    0.51
   3  -7   6   21.13    0.73
  -3  -7  -6   22.90    0.68
  -3   7  -6   21.71    0.69
   3   7   6   20.34    0.70
   5  -7   6   11.86    0.54
  -5  -7  -6   15.05    0.74
  -5   7  -6   12.71    0.52
   5   7   6   10.30    0.48
   7  -7   6   12.98    0.60
  -7   7  -6   11.50    0.49
   7   7   6   13.82    0.58
   9  -7   6    5.96    0.44
   9   7   6    5.96    0.40
  -9   7  -6    7.44    0.40
  11  -7   6    3.74    0.41
 -11  -7  -6    4.16    0.36
 -11   7  -6    4.10    0.31
 -13  -7  -6    2.52    0.33
  13  -7   6    2.55    0.35
 -13   7  -6    2.36    0.27
 -15   7  -6    0.83    0.20
 -10  -8   6    3.36    0.36
  10  -8  -6    5.05    0.36
  -8  -8   6    3.12    0.33
   8  -8  -6    2.87    0.31
   6  -8  -6   11.07    0.52
  -6  -8   6   12.57    0.56
   6   8  -6   11.54    0.48
   4  -8  -6    6.67    0.39
  -4  -8   6    6.41    0.41
   4   8  -6    6.58    0.37
  -4   8   6    6.23    0.40
   2  -8  -6    3.43    0.28
  -2  -8   6    1.64    0.24
   2   8  -6    3.18    0.28
  -2   8   6    2.30    0.29
   0  -8   6   10.08    0.51
   0  -8  -6    8.32    0.42
   0   8   6    9.26    0.47
   0   8  -6    8.42    0.42
  -2  -8  -6   34.17    0.94
   2  -8   6   36.98    1.08
   2   8   6   37.02    1.04
  -2   8  -6   33.58    0.95
   4  -8   6    1.95    0.29
   4   8   6    1.92    0.26
  -4   8  -6    1.39    0.22
   6  -8   6    3.18    0.36
  -6   8  -6    2.29    0.27
   6   8   6    3.23    0.31
   8  -8   6   28.69    0.97
  -8   8  -6   27.21    0.85
   8   8   6   27.98    0.92
 -10  -8  -6    5.68    0.42
  10  -8   6    5.06    0.44
 -10   8  -6    5.25    0.38
  -5  -9   6    3.88    0.54
   5  -9  -6    2.82    0.36
   5   9  -6    2.77    0.29
   3  -9  -6    3.92    0.37
  -3  -9   6    5.72    0.42
   3   9  -6    4.44    0.34
  -1  -9   6    3.09    0.36
   1  -9  -6    1.76    0.26
   1   9  -6    1.71    0.25
   1  -9   6    9.20    0.53
  -1  -9  -6   10.03    0.51
  -1   9  -6   10.03    0.50
   3  -9   6    0.05    0.16
  -3   9  -6    0.01    0.13
   7   9   6    1.53    0.27
 -22   0   7   -0.03    0.15
 -20   0   7    0.06    0.14
  20   0  -7    0.06    0.08
  18   0  -7   -0.05    0.07
 -18   0   7   -0.02    0.11
 -18   0   7    0.07    0.10
 -16   0   7    0.15    0.09
  16   0  -7    0.05    0.07
 -16   0   7   -0.03    0.10
 -14   0   7    0.03    0.10
 -14   0   7    0.11    0.09
  14   0  -7    0.05    0.07
  14   0  -7    0.18    0.10
  12   0  -7    0.09    0.08
 -12   0   7    0.01    0.07
 -12   0   7    0.08    0.09
  12   0  -7    0.03    0.06
  10   0  -7   -0.07    0.06
  10   0  -7    0.06    0.06
 -10   0   7   -0.02    0.06
 -10   0   7    0.06    0.07
   8   0  -7    0.14    0.05
  -8   0   7    0.16    0.07
   8   0  -7    0.17    0.09
   8   0  -7   -0.01    0.05
  -8   0   7    0.06    0.07
   6   0  -7    0.07    0.05
  -6   0   7    0.04    0.06
   6   0  -7   -0.01    0.06
  -6   0   7    0.18    0.07
  -4   0   7    0.02    0.05
  -4   0   7    0.19    0.07
   4   0  -7    0.08    0.05
  -4   0   7    0.07    0.04
   4   0  -7    0.06    0.07
  -2   0   7   -0.02    0.04
  -2   0   7    0.02    0.05
  -2   0   7    0.12    0.05
   2   0  -7    0.06    0.07
   2   0  -7    0.02    0.04
   0   0   7    0.04    0.05
   0   0   7    0.57    0.08
   0   0   7   -0.03    0.04
   0   0  -7    0.08    0.05
   0   0  -7    0.09    0.07
   2   0   7    0.07    0.05
   2   0   7    0.15    0.07
  -2   0  -7    0.26    0.09
   2   0   7   -0.02    0.04
  -4   0  -7    0.09    0.05
   4   0   7    0.11    0.07
  -4   0  -7    0.23    0.08
   4   0   7   -0.01    0.04
   4   0   7    0.07    0.05
   6   0   7    0.00    0.07
  -6   0  -7    0.05    0.05
   6   0   7    0.09    0.06
  -6   0  -7   -0.02    0.06
   6   0   7    0.01    0.04
   8   0   7    0.02    0.06
  -8   0  -7    1.06    0.15
   8   0   7    0.07    0.05
   8   0   7    0.05    0.08
  10   0   7   -0.02    0.08
 -10   0  -7    0.12    0.07
  10   0   7    0.01    0.05
  12   0   7    0.00    0.05
  12   0   7    0.06    0.10
 -12   0  -7    0.01    0.07
  14   0   7   -0.02    0.06
  14   0   7    0.03    0.11
 -14   0  -7   -0.08    0.08
  16   0   7    0.04    0.13
 -16   0  -7    0.02    0.10
  16   0   7    0.00    0.07
  18   0   7    0.11    0.14
 -18   0  -7   -0.07    0.10
  18   0   7    0.02    0.07
  20   0   7   -0.12    0.13
  20   0   7    0.07    0.08
 -21  -1   7   51.84    1.42
  21  -1  -7   52.71    1.22
  21   1  -7   52.87    1.15
 -21   1   7   54.02    1.29
 -21   1   7   54.25    1.45
 -19  -1   7    5.11    0.38
  19  -1  -7    5.84    0.32
  19   1  -7    5.96    0.29
 -19   1   7    5.65    0.40
 -19   1   7    5.70    0.34
  17  -1  -7    0.60    0.13
 -17  -1   7    2.38    0.29
  17   1  -7    0.77    0.12
 -17   1   7    2.06    0.23
 -17   1   7    2.38    0.28
 -15  -1   7   35.62    0.98
  15  -1  -7   35.65    0.83
  15   1  -7   30.76    0.83
  15   1  -7   34.02    0.78
 -15   1   7   36.63    1.01
 -15   1   7   36.07    0.89
  13  -1  -7   40.13    0.94
  13  -1  -7   39.85    0.90
 -13  -1   7   36.32    0.89
 -13  -1   7   36.26    0.95
 -13   1   7   36.84    0.87
  13   1  -7   38.85    0.92
 -13   1   7   36.82    0.98
  13   1  -7   39.18    0.88
  13   1  -7   38.36    0.86
  11  -1  -7    7.77    0.34
 -11  -1   7    4.43    0.27
  11  -1  -7    7.72    0.31
 -11  -1   7    4.05    0.24
 -11   1   7    3.96    0.27
  11   1  -7    7.71    0.29
  11   1  -7    7.55    0.29
 -11   1   7    4.35    0.23
  11   1  -7    8.37    0.34
   9  -1  -7    6.02    0.29
  -9  -1   7    6.01    0.27
   9  -1  -7    5.70    0.25
  -9  -1   7    5.32    0.28
   9   1  -7    5.59    0.23
   9   1  -7    6.11    0.29
  -9   1   7    5.71    0.31
  -9   1   7    5.43    0.25
   9   1  -7    5.85    0.24
   7  -1  -7   31.41    0.71
  -7  -1   7   42.46    0.90
  -7  -1   7   40.25    0.93
   7  -1  -7   32.31    0.78
   7   1  -7   31.11    0.70
   7   1  -7   30.21    0.77
  -7   1   7   40.62    0.88
  -7   1   7   40.78    0.96
   7   1  -7   31.57    0.68
  -5  -1   7    8.29    0.30
  -5  -1   7    8.23    0.26
   5  -1  -7    9.29    0.35
   5  -1  -7    8.45    0.29
  -5  -1   7    8.38    0.31
  -5   1   7    8.22    0.28
  -5   1   7    8.58    0.34
   5   1  -7    8.75    0.35
   5   1  -7    8.76    0.29
   3  -1  -7   25.52    0.66
  -3  -1   7   18.56    0.48
  -3  -1   7   18.10    0.49
   3  -1  -7   25.58    0.59
  -3  -1   7   18.59    0.44
   3   1  -7   25.37    0.59
  -3   1   7   18.15    0.46
  -3   1   7   18.29    0.53
   3   1  -7   25.73    0.66
  -1  -1   7   91.48    1.69
   1  -1  -7   96.16    1.83
   1  -1  -7   93.07    1.73
  -1  -1   7   92.03    1.70
  -1  -1   7   91.03    1.66
  -1   1   7   93.53    1.76
   1   1  -7   95.16    1.83
  -1   1   7   89.93    1.58
   1   1  -7   96.71    1.75
  -1   1   7   90.11    1.65
   1  -1   7   93.09    1.73
   1  -1   7   93.75    1.72
   1  -1   7   94.41    1.73
  -1  -1  -7   92.73    1.81
   1   1   7   94.82    1.79
   1   1   7   90.70    1.66
  -1   1  -7   96.33    1.75
   1   1   7   96.42    1.69
  -1   1  -7   95.67    1.82
   3  -1   7   16.35    0.47
  -3  -1  -7   11.88    0.37
   3  -1   7   16.94    0.45
   3  -1   7   16.61    0.43
  -3  -1  -7   12.96    0.42
  -3   1  -7   12.37    0.41
   3   1   7   16.85    0.41
   3   1   7   16.50    0.48
   3   1   7   16.28    0.43
   5  -1   7   11.72    0.36
   5  -1   7   12.81    0.42
   5  -1   7   12.24    0.36
  -5  -1  -7   12.50    0.40
  -5   1  -7   12.01    0.40
   5   1   7   11.85    0.38
  -5   1  -7   12.82    0.38
   5   1   7   12.40    0.33
   5   1   7   11.62    0.40
   7  -1   7  318.46    5.41
   7  -1   7  321.68    5.52
  -7  -1  -7  307.05    5.39
   7  -1   7  313.38    5.41
  -7   1  -7  326.99    5.38
   7   1   7  326.25    5.50
   7   1   7  322.83    5.49
  -7   1  -7  312.29    5.40
   7   1   7  306.34    5.33
   9  -1   7    1.09    0.17
   9  -1   7    1.40    0.15
  -9  -1  -7    1.50    0.15
   9   1   7    0.91    0.14
  -9   1  -7    1.63    0.16
  -9   1  -7    1.42    0.15
   9   1   7    1.10    0.11
  -9   1  -7    1.18    0.14
  11  -1   7   20.95    0.56
  11  -1   7   21.90    0.70
 -11   1  -7   18.89    0.55
 -11   1  -7   19.88    0.56
  11   1   7   21.32    0.67
  11   1   7   21.97    0.50
 -11   1  -7   20.14    0.54
 -13  -1  -7   39.86    1.00
  13  -1   7   43.33    1.13
  13  -1   7   43.15    0.96
  13   1   7   44.00    1.11
  13   1   7   43.06    0.86
 -13   1  -7   39.35    0.94
 -15  -1  -7   17.76    0.62
  15  -1   7   20.81    0.57
  15  -1   7   20.18    0.72
  15   1   7   19.91    0.71
  15   1   7   19.90    0.46
  17  -1   7   12.61    0.43
  17  -1   7   11.79    0.56
 -17  -1  -7   15.83    0.61
  17   1   7   12.08    0.56
  17   1   7   12.08    0.29
  19  -1   7    6.98    0.45
  19  -1   7    7.19    0.33
 -19  -1  -7    6.57    0.42
  19   1   7    7.23    0.47
 -21  -1  -7    9.50    0.54
  21  -1   7   10.11    0.57
  21   1   7    9.73    0.56
 -22  -2   7    8.90    0.53
 -22   2   7    8.66    0.56
  20  -2  -7   40.38    1.02
 -20  -2   7   40.27    1.15
 -20   2   7   38.21    1.16
  20   2  -7   39.99    0.87
 -20   2   7   38.73    1.01
 -18  -2   7   16.34    0.65
  18  -2  -7   20.30    0.63
 -18   2   7   16.87    0.68
  18   2  -7   20.97    0.65
 -18   2   7   15.25    0.55
  18   2  -7   19.64    0.53
  16  -2  -7   13.43    0.48
 -16  -2   7   13.04    0.54
  16   2  -7   13.57    0.48
 -16   2   7   13.08    0.56
 -16   2   7   12.70    0.46
  16   2  -7   13.95    0.41
 -14  -2   7   53.85    1.26
  14  -2  -7   62.88    1.30
 -14   2   7   53.33    1.31
  14   2  -7   59.98    1.29
  14   2  -7   60.55    1.21
 -14   2   7   52.54    1.16
 -12  -2   7    4.56    0.28
  12  -2  -7    4.36    0.27
  12  -2  -7    4.47    0.25
  12   2  -7    4.16    0.25
  12   2  -7    4.21    0.23
 -12   2   7    4.38    0.30
  12   2  -7    4.62    0.21
 -12   2   7    3.66    0.22
  10  -2  -7    6.95    0.33
 -10  -2   7    7.63    0.34
  10  -2  -7    7.90    0.35
  10   2  -7    7.62    0.27
  10   2  -7    7.81    0.33
 -10   2   7    7.31    0.29
  10   2  -7    7.91    0.31
 -10   2   7    7.47    0.37
  -8  -2   7   95.46    1.86
  -8  -2   7   98.49    1.84
   8  -2  -7   99.52    1.92
   8   2  -7   98.26    1.84
   8   2  -7   99.20    1.91
  -8   2   7   95.41    1.78
  -8   2   7   96.83    1.94
   8   2  -7   96.70    1.79
  -6  -2   7   53.43    1.10
  -6  -2   7   54.09    1.11
   6  -2  -7   51.91    1.13
   6   2  -7   51.10    1.12
  -6   2   7   52.07    1.18
  -6   2   7   52.85    1.04
   6   2  -7   52.52    1.05
   6   2  -7   51.29    1.02
   4  -2  -7    4.71    0.25
  -4  -2   7    6.67    0.27
  -4  -2   7    6.51    0.25
  -4  -2   7    6.69    0.26
   4   2  -7    4.33    0.25
   4   2  -7    4.37    0.20
  -4   2   7    6.42    0.22
  -4   2   7    6.92    0.31
   2  -2  -7   22.41    0.61
  -2  -2   7   20.46    0.52
  -2  -2   7   21.46    0.51
  -2   2   7   21.47    0.60
   2   2  -7   22.85    0.54
   2   2  -7   22.26    0.61
  -2   2   7   19.94    0.46
   0  -2   7  351.59    5.80
   0  -2  -7  321.95    5.55
   0  -2   7  351.32    5.85
   0  -2   7  339.16    5.86
   0   2  -7  325.35    5.54
   0   2  -7  320.34    5.45
   0   2   7  338.73    5.87
   0   2   7  344.87    5.94
   0   2   7  349.11    6.00
   2  -2   7    8.25    0.31
   2  -2   7    8.17    0.25
   2  -2   7    8.69    0.30
  -2  -2  -7    8.62    0.33
   2   2   7    8.70    0.34
  -2   2  -7    7.73    0.32
   2   2   7    8.37    0.20
   2   2   7    8.29    0.19
  -2   2  -7    7.92    0.28
   4  -2   7    2.95    0.21
   4  -2   7    3.35    0.19
  -4  -2  -7    1.80    0.18
   4   2   7    3.38    0.21
  -4   2  -7    1.95    0.18
   4   2   7    3.37    0.16
  -4   2  -7    2.09    0.15
  -6  -2  -7   58.52    1.19
   6  -2   7   58.79    1.18
   6  -2   7   58.83    1.27
  -6   2  -7   55.54    1.19
   6   2   7   56.02    1.16
  -6   2  -7   57.06    1.16
   6   2   7   58.77    1.25
   8  -2   7   47.77    1.01
   8  -2   7   47.05    1.11
  -8  -2  -7   46.97    1.00
  -8   2  -7   47.15    1.02
   8   2   7   46.58    1.08
   8   2   7   46.79    1.04
  -8   2  -7   44.79    0.99
  10  -2   7   17.98    0.51
  10  -2   7   17.87    0.61
 -10   2  -7   18.11    0.52
  10   2   7   17.60    0.58
  10   2   7   17.72    0.56
 -10   2  -7   17.17    0.51
  12  -2   7   14.86    0.58
 -12  -2  -7   15.53    0.56
  12  -2   7   14.68    0.47
 -12   2  -7   14.89    0.47
  12   2   7   14.58    0.54
 -12   2  -7   15.56    0.49
  14  -2   7   61.46    1.32
  14  -2   7   65.57    1.53
 -14  -2  -7   71.29    1.60
  14   2   7   63.11    1.47
 -14   2  -7   72.72    1.50
  16  -2   7    6.83    0.33
 -16  -2  -7    7.48    0.42
  16  -2   7    6.70    0.44
 -16   2  -7    7.09    0.36
  16   2   7    7.05    0.42
  18  -2   7    5.49    0.42
 -18  -2  -7    7.79    0.45
  18  -2   7    5.88    0.32
 -18   2  -7    8.24    0.43
  18   2   7    5.64    0.41
 -20  -2  -7   30.71    0.99
  20  -2   7   32.71    1.07
  20   2   7   32.21    1.05
 -21  -3   7    0.34    0.17
  21   3  -7    0.39    0.17
 -21   3   7    0.36    0.20
 -19  -3   7    1.11    0.23
  19   3  -7    0.89    0.19
 -19   3   7    0.94    0.22
 -19   3   7    0.75    0.15
 -17  -3   7    5.58    0.37
 -17   3   7    5.51    0.40
  17   3  -7    4.63    0.31
 -17   3   7    5.57    0.31
  17   3  -7    4.93    0.18
 -15  -3   7    2.55    0.27
  15  -3  -7    2.56    0.25
 -15   3   7    2.78    0.32
  15   3  -7    2.67    0.14
 -15   3   7    2.39    0.20
  15   3  -7    2.17    0.23
 -13  -3   7    1.06    0.17
  13  -3  -7    0.74    0.15
  13   3  -7    1.03    0.10
 -13   3   7    0.88    0.13
  13   3  -7    0.86    0.15
 -13   3   7    0.87    0.18
 -11  -3   7   16.74    0.54
  11  -3  -7   15.90    0.53
  11   3  -7   16.45    0.50
 -11   3   7   17.08    0.47
  11   3  -7   16.18    0.51
  11   3  -7   15.80    0.40
 -11   3   7   16.93    0.61
   9  -3  -7   17.26    0.55
  -9  -3   7   17.05    0.52
   9   3  -7   17.47    0.52
   9   3  -7   17.72    0.43
   9   3  -7   17.94    0.53
  -9   3   7   16.94    0.44
  -9   3   7   17.07    0.59
   7  -3  -7    2.70    0.21
  -7  -3   7    3.01    0.19
  -7   3   7    2.80    0.14
  -7   3   7    3.28    0.24
   7   3  -7    2.92    0.20
   7   3  -7    2.80    0.20
   7   3  -7    3.18    0.15
  -5  -3   7   12.19    0.40
   5  -3  -7   11.75    0.42
  -5  -3   7   12.06    0.37
  -5   3   7   11.50    0.28
   5   3  -7   11.82    0.33
   5   3  -7   11.55    0.41
  -5   3   7   11.84    0.45
  -3  -3   7   17.89    0.50
   3  -3  -7   19.58    0.56
  -3   3   7   17.64    0.56
   3   3  -7   19.39    0.56
   3   3  -7   18.55    0.46
   1  -3  -7    5.56    0.28
  -1  -3   7    5.76    0.26
  -1  -3   7    5.54    0.24
   1   3  -7    5.54    0.22
   1   3  -7    5.74    0.27
  -1   3   7    5.28    0.29
   1  -3   7    4.04    0.23
  -1  -3  -7    3.74    0.23
   1  -3   7    4.05    0.21
  -1   3  -7    3.50    0.22
  -1   3  -7    3.67    0.18
   1   3   7    3.52    0.23
   3  -3   7    1.42    0.16
  -3  -3  -7    1.71    0.19
   3  -3   7    1.86    0.17
  -3   3  -7    1.57    0.13
   3   3   7    1.39    0.17
  -3   3  -7    1.38    0.16
   5  -3   7    6.09    0.31
  -5  -3  -7    5.72    0.28
   5  -3   7    6.34    0.27
  -5   3  -7    5.59    0.28
   5   3   7    5.90    0.30
  -5   3  -7    6.32    0.26
   7  -3   7   10.42    0.44
   7  -3   7   10.54    0.37
  -7  -3  -7   10.80    0.38
   7   3   7   10.93    0.43
   7   3   7   10.85    0.36
  -7   3  -7   10.68    0.39
   9  -3   7    6.59    0.29
   9  -3   7    6.75    0.37
   9   3   7    6.67    0.30
  -9   3  -7    5.59    0.27
  -9   3  -7    5.58    0.28
   9   3   7    6.40    0.34
  11  -3   7    6.64    0.39
  11  -3   7    6.70    0.31
 -11   3  -7    6.10    0.29
  11   3   7    6.15    0.35
  11   3   7    6.34    0.33
 -11   3  -7    5.96    0.29
  13  -3   7    7.11    0.33
  13  -3   7    7.04    0.43
 -13  -3  -7    8.00    0.41
 -13   3  -7    7.54    0.34
 -13   3  -7    7.13    0.33
  13   3   7    7.46    0.39
  15  -3   7    6.62    0.43
  15  -3   7    6.27    0.33
 -15  -3  -7    6.41    0.40
  15   3   7    6.25    0.39
 -15   3  -7    6.01    0.32
  17  -3   7    3.99    0.39
  17  -3   7    3.83    0.28
 -17  -3  -7    3.60    0.32
 -17   3  -7    3.46    0.27
  17   3   7    4.44    0.36
  19  -3   7    1.06    0.25
 -19  -3  -7    0.76    0.22
  19   3   7    0.57    0.20
 -19   3  -7    0.79    0.17
 -20  -4   7   16.95    0.70
 -20   4   7   15.59    0.73
  20   4  -7   16.08    0.64
 -18  -4   7   12.36    0.56
 -18   4   7   11.76    0.60
 -18   4   7   12.86    0.45
  18   4  -7   15.95    0.61
  16  -4  -7    0.60    0.16
 -16  -4   7    0.23    0.14
 -16   4   7    0.47    0.17
  16   4  -7    0.50    0.15
 -16   4   7    0.37    0.11
 -14  -4   7   26.77    0.79
  14  -4  -7   34.10    0.91
  14   4  -7   33.65    0.90
 -14   4   7   27.02    0.65
 -14   4   7   27.04    0.88
  12  -4  -7    0.70    0.15
 -12  -4   7    0.78    0.15
  12   4  -7    0.66    0.15
 -12   4   7    0.84    0.19
 -12   4   7    0.89    0.11
  10  -4  -7   52.68    1.19
  10   4  -7   51.35    1.17
  10   4  -7   50.74    1.12
 -10   4   7   53.10    1.28
 -10   4   7   51.09    0.96
   8  -4  -7   36.23    0.91
  -8   4   7   36.44    0.97
   8   4  -7   36.55    0.89
   8   4  -7   37.29    0.67
  -6  -4   7   18.11    0.55
   6  -4  -7   16.49    0.54
   6   4  -7   18.39    0.38
  -6   4   7   18.28    0.61
   6   4  -7   18.08    0.55
   4  -4  -7    8.74    0.37
  -4  -4   7   10.37    0.39
  -4   4   7    9.68    0.42
   4   4  -7    9.06    0.25
   4   4  -7    9.28    0.37
  -2  -4   7    0.10    0.08
   2  -4  -7    0.01    0.07
   2   4  -7    0.01    0.04
   2   4  -7    0.15    0.09
  -2   4   7    0.20    0.09
   0  -4  -7  160.67    2.88
   0  -4   7  170.78    3.10
   0   4  -7  154.22    2.72
   0   4  -7  155.62    2.89
   0   4   7  169.73    3.16
   2  -4   7    0.11    0.08
  -2  -4  -7    0.37    0.11
   2   4   7    0.25    0.10
  -2   4  -7    0.32    0.07
  -2   4  -7    0.38    0.11
   4  -4   7    3.93    0.27
  -4  -4  -7    1.87    0.19
  -4   4  -7    2.23    0.15
  -4   4  -7    2.10    0.18
   4   4   7    3.63    0.25
   6  -4   7    6.68    0.35
  -6  -4  -7    8.29    0.35
  -6   4  -7    8.69    0.36
   6   4   7    6.79    0.34
  -6   4  -7    8.31    0.31
   8  -4   7    4.74    0.33
  -8   4  -7    5.30    0.25
  -8   4  -7    5.02    0.28
   8   4   7    3.88    0.28
  10  -4   7   36.47    1.01
  10   4   7   34.96    0.97
 -10   4  -7   32.22    0.82
  12  -4   7    0.58    0.22
  12  -4   7    0.81    0.20
 -12   4  -7    0.70    0.14
 -12   4  -7    0.60    0.12
  14  -4   7   18.12    0.60
  14  -4   7   19.27    0.74
 -14  -4  -7   23.97    0.81
 -14   4  -7   23.36    0.68
 -14   4  -7   22.68    0.66
  16  -4   7    1.41    0.26
  16  -4   7    1.48    0.21
 -16  -4  -7    2.52    0.31
  16   4   7    1.41    0.25
 -16   4  -7    1.91    0.21
  18  -4   7    4.96    0.34
  18  -4   7    5.47    0.45
 -18  -4  -7    7.26    0.48
  18   4   7    5.07    0.42
  20   4   7   25.58    1.17
 -19   5   7    2.02    0.32
  19   5  -7    2.24    0.30
  17  -5  -7    0.30    0.16
 -17   5   7    0.06    0.16
  17   5  -7    0.34    0.16
 -17   5   7    0.15    0.07
  15  -5  -7   20.47    0.69
 -15   5   7   22.20    0.82
  15   5  -7   20.65    0.71
  13  -5  -7   20.25    0.67
 -13   5   7   19.23    0.73
  13   5  -7   20.36    0.68
  11  -5  -7   14.40    0.53
 -11   5   7   10.61    0.51
  11   5  -7   14.09    0.54
   9  -5  -7   16.03    0.56
   9   5  -7   15.37    0.50
  -9   5   7   14.35    0.58
   9   5  -7   15.97    0.55
   7  -5  -7   16.68    0.56
  -7  -5   7   21.99    0.66
  -7   5   7   22.38    0.73
   7   5  -7   17.23    0.54
   5  -5  -7    6.35    0.33
  -5  -5   7    6.85    0.34
   5   5  -7    6.66    0.32
  -5   5   7    6.71    0.37
  -3  -5   7    1.80    0.20
   3  -5  -7    3.62    0.25
   3   5  -7    3.47    0.24
  -3   5   7    1.90    0.23
  -1  -5   7   34.20    0.88
   1  -5  -7   35.05    0.88
   1   5  -7   36.17    0.90
  -1   5   7   34.66    0.93
  -1  -5  -7   34.59    0.88
   1  -5   7   36.68    0.94
  -1   5  -7   34.99    0.68
  -1   5  -7   36.85    0.90
   1   5   7   36.84    0.96
   3  -5   7   12.29    0.49
  -3  -5  -7   10.26    0.41
  -3   5  -7    9.77    0.40
  -3   5  -7    9.96    0.28
   3   5   7   12.01    0.49
   5  -5   7    6.72    0.37
  -5  -5  -7    7.20    0.34
  -5   5  -7    6.41    0.24
   5   5   7    7.09    0.37
  -5   5  -7    7.08    0.34
   7  -5   7  167.74    3.25
  -7   5  -7  163.62    3.06
   7   5   7  172.29    3.25
  -7   5  -7  166.16    2.92
   9  -5   7    1.68    0.25
  -9   5  -7    1.60    0.19
  -9   5  -7    1.69    0.17
   9   5   7    1.13    0.19
  11  -5   7    3.31    0.35
 -11   5  -7    2.93    0.21
  11   5   7    3.49    0.30
 -11   5  -7    2.97    0.25
 -13  -5  -7   35.83    1.05
  13  -5   7   36.33    1.10
 -13   5  -7   34.60    0.92
 -13   5  -7   34.46    0.84
  15  -5   7   15.77    0.71
 -15  -5  -7   15.35    0.67
 -17  -5  -7    3.79    0.40
  17  -5   7    2.21    0.34
 -18   6   7    3.15    0.40
  16  -6  -7    8.84    0.47
  16   6  -7    8.54    0.48
 -16   6   7    8.31    0.52
  14  -6  -7    1.73    0.25
 -14   6   7    1.67    0.27
  14   6  -7    1.77    0.26
  12  -6  -7    7.53    0.41
  12   6  -7    7.01    0.40
 -12   6   7    8.32    0.48
  10  -6  -7   38.94    1.03
 -10   6   7   35.71    1.05
  -8  -6   7    9.07    0.43
  -8   6   7    8.98    0.47
   6  -6  -7    2.37    0.26
  -6  -6   7    2.87    0.25
  -6   6   7    2.66    0.30
   6   6  -7    2.34    0.24
   4  -6  -7   25.25    0.74
  -4  -6   7   25.52    0.75
  -4   6   7   24.12    0.78
   4   6  -7   25.56    0.73
  -2  -6   7    9.49    0.43
   2  -6  -7   11.12    0.45
   2   6  -7   10.01    0.42
  -2   6   7    9.34    0.45
   0  -6  -7    2.44    0.24
   0  -6   7    2.70    0.28
   0   6   7    2.64    0.24
   0   6  -7    2.65    0.23
   2  -6   7    4.77    0.32
  -2  -6  -7    4.42    0.28
   2   6   7    4.70    0.31
  -2   6  -7    4.60    0.29
   4  -6   7    2.72    0.29
  -4  -6  -7    2.73    0.24
   4   6   7    2.66    0.25
  -4   6  -7    2.89    0.24
   6  -6   7   17.76    0.67
   6   6   7   18.39    0.66
  -6   6  -7   17.68    0.60
   8  -6   7   14.68    0.63
   8   6   7   14.81    0.61
  -8   6  -7   13.18    0.52
  -8   6  -7   13.01    0.34
  10  -6   7    9.30    0.53
 -10   6  -7    9.06    0.43
 -10   6  -7    8.24    0.29
  10   6   7   10.03    0.50
  12  -6   7   10.67    0.57
 -12  -6  -7    9.87    0.52
 -12   6  -7   10.68    0.47
 -12   6  -7   10.73    0.37
 -14  -6  -7    9.62    0.54
  14  -6   7   10.12    0.57
 -14   6  -7    9.60    0.52
 -14   6  -7    9.56    0.45
  13  -7  -7    4.94    0.38
 -13   7   7    4.98    0.42
  13   7  -7    4.34    0.36
 -11  -7   7    7.54    0.44
  11  -7  -7    8.44    0.46
 -11   7   7    8.75    0.51
   9  -7  -7    2.98    0.30
  -9  -7   7    3.49    0.32
  -9   7   7    3.79    0.35
  -7  -7   7    4.37    0.33
   7  -7  -7    1.66    0.24
   7   7  -7    1.59    0.21
  -7   7   7    3.68    0.33
   5  -7  -7    3.70    0.29
  -5  -7   7    3.85    0.30
  -5   7   7    4.07    0.33
   5   7  -7    3.72    0.28
  -3  -7   7   28.81    0.87
   3  -7  -7   35.99    0.96
   3   7  -7   33.99    0.93
  -3   7   7   29.32    0.90
   1  -7  -7   12.85    0.52
  -1  -7   7    9.75    0.47
  -1   7   7   10.58    0.49
   1   7  -7   12.53    0.51
  -1  -7  -7    3.96    0.30
   1  -7   7    2.68    0.29
  -1   7  -7    4.29    0.31
   1   7   7    2.71    0.30
   3  -7   7   18.61    0.70
  -3  -7  -7   17.13    0.60
   3   7   7   18.60    0.69
  -3   7  -7   16.36    0.60
   5  -7   7    1.26    0.24
  -5   7  -7    0.95    0.18
   5   7   7    1.28    0.23
   7  -7   7   33.31    1.03
   7   7   7   32.57    1.00
  -7   7  -7   35.63    0.98
   9  -7   7    4.32    0.43
   9   7   7    4.63    0.36
  -9   7  -7    4.39    0.33
  11  -7   7   13.88    0.68
 -11   7  -7   11.88    0.52
 -13   7  -7    3.40    0.33
 -10  -8   7    2.77    0.37
  10  -8  -7    2.21    0.33
  -8  -8   7   18.46    0.72
   8  -8  -7   18.22    0.69
   6  -8  -7    9.67    0.48
  -6  -8   7    9.55    0.50
   6   8  -7    8.88    0.44
  -6   8   7    9.60    0.52
   4  -8  -7    2.94    0.30
  -4  -8   7    5.02    0.37
   4   8  -7    3.25    0.31
  -4   8   7    5.00    0.38
   2  -8  -7    0.20    0.14
  -2  -8   7    0.07    0.13
  -2   8   7    0.07    0.13
   2   8  -7    0.19    0.13
   0  -8  -7   23.45    0.76
   0  -8   7   30.89    0.96
   0   8  -7   24.46    0.78
   0   8   7   28.54    0.92
   2  -8   7    0.80    0.22
  -2  -8  -7    0.88    0.20
  -2   8  -7    0.87    0.19
   2   8   7    0.89    0.20
   4  -8   7    0.67    0.20
   4   8   7    0.74    0.20
  -4   8  -7    0.82    0.19
   6  -8   7    5.87    0.45
   6   8   7    6.90    0.45
  -6   8  -7    4.71    0.35
   8  -8   7    5.26    0.45
   8   8   7    4.87    0.40
  -8   8  -7    4.90    0.36
   5   9  -7    6.13    0.41
   3   9  -7   13.02    0.58
   1  -9  -7    4.94    0.39
   1   9  -7    4.63    0.46
  -1  -9  -7    2.25    0.30
   3   9   7    1.18    0.26
  20   0  -8   21.77    0.65
 -20   0   8   20.00    0.69
 -20   0   8   22.51    0.83
 -18   0   8   26.55    0.89
  18   0  -8   23.23    0.66
 -18   0   8   27.99    0.80
 -16   0   8   13.21    0.50
  16   0  -8   11.12    0.42
 -16   0   8   13.64    0.57
  14   0  -8    0.87    0.15
 -14   0   8    0.78    0.17
 -14   0   8    0.88    0.16
  14   0  -8    0.88    0.13
 -12   0   8  276.46    4.82
 -12   0   8  274.88    4.94
  10   0  -8   26.71    0.67
 -10   0   8   24.82    0.67
  10   0  -8   26.38    0.73
 -10   0   8   25.71    0.74
   8   0  -8    1.24    0.18
   8   0  -8    1.14    0.13
  -8   0   8    1.06    0.15
  -8   0   8    1.25    0.15
   6   0  -8   77.14    1.49
  -6   0   8   80.61    1.56
  -6   0   8   80.45    1.62
   6   0  -8   76.74    1.58
  -4   0   8   90.55    1.79
  -4   0   8   93.50    1.73
   4   0  -8   99.11    1.94
   4   0  -8   99.10    1.84
   2   0  -8   41.81    0.90
   2   0  -8   44.11    1.00
  -2   0   8   33.62    0.79
  -2   0   8   32.62    0.74
  -2   0   8   32.66    0.67
   0   0   8   12.87    0.38
   0   0   8   12.94    0.36
   0   0  -8   13.48    0.45
   0   0  -8   12.46    0.38
   0   0   8   12.67    0.41
  -2   0  -8   48.46    1.07
   2   0   8   38.05    0.81
  -2   0  -8   46.64    0.98
   2   0   8   37.88    0.82
   2   0   8   37.55    0.86
  -4   0  -8   10.06    0.38
   4   0   8    9.39    0.32
   4   0   8    9.52    0.34
   4   0   8    9.87    0.36
  -4   0  -8   10.39    0.34
  -6   0  -8   26.15    0.68
  -6   0  -8   26.17    0.68
   6   0   8   19.33    0.57
   6   0   8   19.63    0.55
   6   0   8   19.19    0.50
  -8   0  -8  131.60    2.44
   8   0   8  122.62    2.32
   8   0   8  124.73    2.24
  10   0   8   60.81    1.23
  10   0   8   61.85    1.32
 -10   0  -8   61.08    1.26
  10   0   8   62.25    1.39
  12   0   8    3.97    0.21
 -12   0  -8    0.75    0.13
  12   0   8    3.84    0.30
 -14   0  -8    8.34    0.39
  14   0   8    8.28    0.32
  14   0   8    8.56    0.46
 -16   0  -8  113.53    2.30
  16   0   8  122.20    2.56
  16   0   8  123.43    2.25
  18   0   8    4.02    0.36
  18   0   8    3.65    0.21
  20   0   8    8.02    0.52
 -21  -1   8    0.94    0.24
 -21   1   8    0.86    0.21
 -21   1   8    1.02    0.24
 -19  -1   8   15.48    0.67
  19  -1  -8   13.34    0.50
 -19   1   8   16.16    0.69
 -19   1   8   15.65    0.58
  19   1  -8   13.31    0.45
 -17  -1   8    4.07    0.34
  17  -1  -8    4.89    0.30
 -17   1   8    4.81    0.30
  17   1  -8    4.61    0.26
 -17   1   8    4.64    0.36
  15  -1  -8    3.89    0.25
  15  -1  -8    4.45    0.44
 -15  -1   8    2.77    0.30
 -15   1   8    2.73    0.30
 -15   1   8    2.26    0.22
  15   1  -8    3.98    0.23
  13  -1  -8   11.64    0.45
 -13  -1   8   12.68    0.47
  13  -1  -8   12.56    0.43
 -13  -1   8   12.79    0.51
  13   1  -8   12.44    0.41
 -13   1   8   12.50    0.44
 -13   1   8   11.90    0.52
  13   1  -8   12.23    0.46
 -11  -1   8   35.66    0.92
  11  -1  -8   33.79    0.81
  11  -1  -8   33.14    0.85
 -11  -1   8   33.58    0.84
  11   1  -8   33.09    0.77
 -11   1   8   34.51    0.83
 -11   1   8   34.85    0.94
   9  -1  -8    9.12    0.39
   9  -1  -8    9.49    0.35
  -9  -1   8    8.22    0.37
  -9  -1   8    8.63    0.34
   9   1  -8    9.51    0.39
  -9   1   8    8.29    0.38
  -9   1   8    8.86    0.33
   9   1  -8    9.44    0.33
  -7  -1   8    4.15    0.23
   7  -1  -8    4.25    0.26
  -7  -1   8    4.34    0.19
   7  -1  -8    4.12    0.22
  -7  -1   8    4.16    0.25
  -7   1   8    4.49    0.22
   7   1  -8    4.26    0.22
   7   1  -8    4.40    0.27
  -7   1   8    4.53    0.27
  -5  -1   8   95.91    1.83
   5  -1  -8  102.02    2.00
   5  -1  -8  101.99    1.92
  -5  -1   8   97.14    1.76
  -5  -1   8   97.08    1.86
  -5   1   8   96.89    1.80
  -5   1   8   98.05    1.92
   5   1  -8  103.93    2.02
   5   1  -8  104.87    1.92
  -3  -1   8    5.49    0.26
   3  -1  -8    6.19    0.25
  -3  -1   8    6.14    0.26
   3  -1  -8    5.81    0.29
  -3  -1   8    5.76    0.22
  -3   1   8    5.99    0.24
   3   1  -8    5.61    0.24
   3   1  -8    5.53    0.29
  -3   1   8    5.64    0.29
  -1  -1   8    1.94    0.15
   1  -1  -8    2.27    0.19
  -1  -1   8    1.89    0.14
  -1  -1   8    1.76    0.15
   1  -1  -8    2.34    0.16
  -1   1   8    1.83    0.17
   1   1  -8    2.21    0.18
  -1   1   8    2.05    0.14
   1   1  -8    2.18    0.16
   1  -1   8   47.74    0.99
   1  -1   8   47.97    0.99
   1  -1   8   45.50    0.98
  -1  -1  -8   47.96    1.05
  -1   1  -8   44.99    1.04
   1   1   8   48.06    0.95
   1   1   8   47.33    1.05
  -1   1  -8   45.62    0.97
   3  -1   8   19.49    0.51
   3  -1   8   19.85    0.52
  -3  -1  -8   19.84    0.57
   3  -1   8   19.10    0.54
  -3   1  -8   19.04    0.56
   3   1   8   20.32    0.48
   3   1   8   19.75    0.50
  -3   1  -8   18.75    0.51
   3   1   8   19.91    0.57
  -5  -1  -8    4.87    0.27
   5  -1   8    4.21    0.22
   5  -1   8    4.17    0.21
   5   1   8    4.10    0.18
   5   1   8    4.41    0.25
  -5   1  -8    5.57    0.25
  -5   1  -8    5.77    0.28
   5   1   8    4.21    0.23
   7  -1   8    8.84    0.32
   7  -1   8    7.94    0.37
   7  -1   8    9.46    0.33
  -7  -1  -8    9.15    0.35
   7   1   8    8.92    0.36
   7   1   8    8.86    0.37
  -7   1  -8    8.77    0.35
  -7   1  -8    9.37    0.34
   7   1   8    8.83    0.28
  -9  -1  -8   22.71    0.60
   9  -1   8   27.64    0.68
   9  -1   8   28.70    0.80
   9   1   8   27.50    0.76
   9   1   8   28.07    0.61
  -9   1  -8   22.00    0.60
  -9   1  -8   21.86    0.60
   9   1   8   27.21    0.75
  11  -1   8    2.35    0.18
  11  -1   8    2.82    0.29
  11   1   8    2.75    0.24
 -11   1  -8    2.60    0.20
 -11   1  -8    2.55    0.23
  11   1   8    2.47    0.22
 -11   1  -8    2.31    0.20
  11   1   8    2.77    0.15
  13  -1   8    3.87    0.32
  13  -1   8    3.47    0.22
 -13  -1  -8    3.18    0.26
  13   1   8    3.29    0.16
  13   1   8    3.34    0.29
  15  -1   8    9.00    0.49
  15  -1   8    9.72    0.37
 -15  -1  -8    9.01    0.44
  15   1   8    8.78    0.26
  15   1   8    9.55    0.49
  17  -1   8    3.90    0.39
  17  -1   8    3.89    0.25
 -17  -1  -8    3.69    0.32
  17   1   8    4.02    0.35
 -19  -1  -8    1.44    0.25
  19  -1   8    1.81    0.29
  19   1   8    2.49    0.33
 -21  -1  -8    3.10    0.36
 -20  -2   8    1.80    0.29
  20  -2  -8    2.30    0.26
 -20   2   8    1.36    0.23
 -20   2   8    1.93    0.29
  20   2  -8    1.84    0.17
  18  -2  -8    1.70    0.23
 -18  -2   8    1.47    0.25
  18   2  -8    1.17    0.14
 -18   2   8    2.42    0.32
 -18   2   8    1.85    0.23
 -16  -2   8    7.24    0.42
  16  -2  -8    6.04    0.33
  16   2  -8    6.62    0.28
 -16   2   8    6.93    0.35
 -16   2   8    6.79    0.42
 -14  -2   8    0.77    0.17
  14  -2  -8    0.91    0.17
 -14   2   8    0.80    0.19
  14   2  -8    0.85    0.12
 -14   2   8    0.65    0.13
  14   2  -8    0.86    0.17
 -12  -2   8   48.28    1.15
  12  -2  -8   46.14    1.09
 -12   2   8   46.50    1.04
  12   2  -8   46.30    1.06
 -12   2   8   46.93    1.20
  12   2  -8   42.54    0.99
  12   2  -8   43.69    0.94
 -10  -2   8    1.59    0.19
  10  -2  -8    2.41    0.25
 -10   2   8    1.60    0.17
 -10   2   8    2.21    0.25
  10   2  -8    2.35    0.16
  10   2  -8    1.96    0.17
  -8  -2   8    2.01    0.20
  -8  -2   8    1.91    0.18
   8  -2  -8    0.59    0.13
   8   2  -8    0.71    0.11
   8   2  -8    0.92    0.12
  -8   2   8    1.77    0.15
  -8   2   8    2.09    0.23
   8   2  -8    0.93    0.15
  -6  -2   8    7.29    0.31
  -6  -2   8    7.22    0.28
  -6  -2   8    7.35    0.31
   6  -2  -8    6.30    0.32
  -6   2   8    6.93    0.35
   6   2  -8    6.82    0.26
  -6   2   8    7.04    0.26
   6   2  -8    6.77    0.33
  -4  -2   8    6.66    0.26
  -4  -2   8    5.99    0.26
   4  -2  -8    7.43    0.35
  -4  -2   8    6.20    0.27
  -4   2   8    6.53    0.32
   4   2  -8    7.12    0.33
  -4   2   8    6.47    0.23
   4   2  -8    7.25    0.28
  -2  -2   8   17.20    0.46
  -2  -2   8   17.00    0.48
  -2  -2   8   17.27    0.47
   2  -2  -8   17.89    0.56
   2   2  -8   19.44    0.58
   2   2  -8   17.93    0.49
  -2   2   8   17.52    0.55
  -2   2   8   17.11    0.41
   0  -2  -8    1.36    0.17
   0  -2   8    1.06    0.11
   0  -2   8    1.10    0.13
   0  -2   8    0.85    0.11
   0   2  -8    1.14    0.12
   0   2   8    1.37    0.17
   0   2  -8    1.16    0.16
   0   2   8    1.04    0.10
   2  -2   8    1.77    0.18
   2  -2   8    1.31    0.14
  -2  -2  -8    3.13    0.22
  -2   2  -8    2.86    0.21
  -2   2  -8    3.12    0.19
   2   2   8    1.96    0.18
   2   2   8    1.91    0.10
   4  -2   8    2.11    0.17
   4  -2   8    2.12    0.19
  -4  -2  -8    2.30    0.19
   4   2   8    2.27    0.19
  -4   2  -8    2.30    0.20
  -4   2  -8    2.57    0.18
   4   2   8    2.05    0.08
   4   2   8    2.10    0.08
   6  -2   8   11.42    0.44
  -6  -2  -8   13.99    0.46
   6  -2   8   11.13    0.38
  -6   2  -8   14.15    0.47
   6   2   8   11.35    0.43
   8  -2   8   25.63    0.75
   8  -2   8   25.48    0.66
  -8  -2  -8   27.42    0.69
  -8   2  -8   25.80    0.67
   8   2   8   25.26    0.73
  -8   2  -8   25.93    0.69
   8   2   8   26.09    0.68
  10  -2   8   10.90    0.49
  10  -2   8   11.43    0.41
  10   2   8   11.65    0.45
 -10   2  -8   11.78    0.42
  10   2   8   11.20    0.46
 -10   2  -8   11.28    0.41
  12  -2   8    1.24    0.21
  12  -2   8    1.10    0.15
 -12   2  -8    0.71    0.13
 -12   2  -8    0.67    0.14
  14  -2   8    0.89    0.20
 -14  -2  -8    0.83    0.18
  14  -2   8    0.65    0.13
  14   2   8    0.45    0.16
 -14   2  -8    0.58    0.14
 -16  -2  -8   18.52    0.69
  16  -2   8   18.93    0.59
  16  -2   8   20.27    0.77
 -16   2  -8   18.67    0.62
  16   2   8   19.06    0.72
 -18  -2  -8    2.95    0.34
  18  -2   8    3.32    0.37
  18  -2   8    2.50    0.25
  18   2   8    3.24    0.37
 -20  -2  -8    3.96    0.38
  20   2   8    4.00    0.42
 -21  -3   8    0.86    0.24
 -19  -3   8   35.86    1.08
  19   3  -8   26.51    0.62
 -19   3   8   35.58    1.13
 -17  -3   8    7.65    0.44
  17   3  -8    7.41    0.39
  17   3  -8    7.87    0.26
 -17   3   8    7.51    0.36
 -17   3   8    8.67    0.50
 -15  -3   8   12.84    0.54
  15  -3  -8   18.59    0.63
  15   3  -8   17.77    0.59
 -15   3   8   12.88    0.45
  15   3  -8   17.17    0.45
 -15   3   8   12.44    0.58
 -13  -3   8   23.75    0.72
  13  -3  -8   23.52    0.71
  13   3  -8   22.21    0.54
 -13   3   8   21.48    0.76
 -13   3   8   21.78    0.60
  13   3  -8   22.05    0.65
 -11  -3   8   70.71    1.52
  11  -3  -8   67.10    1.48
 -11   3   8   70.09    1.62
  11   3  -8   67.84    1.29
  11   3  -8   66.16    1.43
  11   3  -8   67.79    1.41
 -11   3   8   72.27    1.40
   9  -3  -8   37.50    0.95
  -9  -3   8   35.15    0.86
  -9   3   8   34.32    0.75
   9   3  -8   37.85    0.89
   9   3  -8   38.32    0.94
  -9   3   8   35.01    0.95
   9   3  -8   37.98    0.80
  -7  -3   8    3.63    0.22
   7  -3  -8    3.71    0.26
  -7  -3   8    3.19    0.21
   7   3  -8    3.67    0.25
   7   3  -8    3.66    0.18
  -7   3   8    3.50    0.27
  -7   3   8    3.38    0.16
   5  -3  -8  241.16    4.34
  -5  -3   8  227.34    3.94
   5   3  -8  242.67    4.34
   5   3  -8  247.24    4.18
  -5   3   8  226.05    4.07
  -5   3   8  219.94    3.76
  -3  -3   8    3.29    0.21
   3  -3  -8    3.63    0.25
   3   3  -8    3.29    0.23
  -3   3   8    2.98    0.24
   3   3  -8    3.24    0.18
   1  -3  -8   21.40    0.62
  -1  -3   8   21.81    0.58
  -1  -3   8   21.56    0.59
   1   3  -8   20.16    0.52
   1   3  -8   20.71    0.62
  -1   3   8   21.62    0.65
  -1  -3  -8  107.54    2.07
   1  -3   8  109.60    2.02
   1  -3   8  105.52    2.05
   1   3   8  106.21    2.11
  -1   3  -8  104.75    2.05
  -1   3  -8  104.19    1.94
   3  -3   8   43.16    0.96
  -3  -3  -8   40.13    0.96
   3  -3   8   44.00    1.02
   3   3   8   42.60    1.04
  -3   3  -8   40.88    0.97
  -3   3  -8   41.63    0.90
  -5  -3  -8    8.69    0.36
   5  -3   8    4.93    0.30
   5  -3   8    4.50    0.24
  -5   3  -8    8.98    0.33
  -5   3  -8    9.08    0.37
   5   3   8    4.53    0.28
   7  -3   8    9.88    0.37
   7  -3   8   10.06    0.44
  -7  -3  -8   10.18    0.39
   7   3   8    9.18    0.41
  -7   3  -8   10.10    0.36
  -7   3  -8    9.64    0.39
   9  -3   8   76.63    1.71
   9  -3   8   77.94    1.58
   9   3   8   79.72    1.69
  -9   3  -8   59.78    1.26
  -9   3  -8   61.15    1.31
  11  -3   8    2.97    0.23
  11  -3   8    2.61    0.29
  11   3   8    2.65    0.26
 -11   3  -8    1.84    0.19
 -11   3  -8    2.37    0.21
 -13  -3  -8    2.13    0.26
  13  -3   8    2.77    0.31
  13  -3   8    3.32    0.25
 -13   3  -8    1.80    0.20
 -13   3  -8    2.22    0.23
  15  -3   8   19.03    0.75
  15  -3   8   18.34    0.60
 -15  -3  -8   21.42    0.76
  15   3   8   18.02    0.68
 -15   3  -8   20.90    0.66
  17  -3   8    7.12    0.37
  17  -3   8    7.33    0.49
 -17  -3  -8    7.87    0.47
  17   3   8    7.12    0.45
 -17   3  -8    7.48    0.40
 -19  -3  -8    5.74    0.47
  19   3   8    8.74    0.53
 -20  -4   8   12.10    0.60
  20   4  -8   11.60    0.56
 -18  -4   8   12.72    0.61
 -18   4   8   14.43    0.68
 -18   4   8   14.67    0.59
  18   4  -8   11.42    0.51
  16  -4  -8    2.79    0.30
 -16   4   8    3.03    0.36
 -16   4   8    3.31    0.22
  16   4  -8    2.85    0.29
  14  -4  -8    1.73    0.24
 -14   4   8    1.33    0.25
  14   4  -8    1.56    0.21
 -14   4   8    1.18    0.14
  12  -4  -8   52.89    1.26
 -12   4   8   55.28    1.07
 -12   4   8   53.80    1.37
  12   4  -8   51.84    1.21
  10  -4  -8    7.11    0.37
  10   4  -8    6.79    0.34
  10   4  -8    6.78    0.20
  10   4  -8    6.51    0.34
 -10   4   8    6.72    0.20
 -10   4   8    7.15    0.41
  -8  -4   8    2.38    0.20
   8  -4  -8    2.82    0.25
   8   4  -8    2.71    0.22
   8   4  -8    2.98    0.13
  -8   4   8    2.50    0.27
   6  -4  -8   26.07    0.74
  -6  -4   8   28.70    0.75
   6   4  -8   26.23    0.73
   6   4  -8   25.99    0.56
  -6   4   8   26.75    0.81
   4  -4  -8   34.62    0.90
  -4  -4   8   35.34    0.86
  -4   4   8   33.34    0.92
   4   4  -8   34.73    0.72
   4   4  -8   35.32    0.90
   2  -4  -8   20.73    0.64
  -2  -4   8   19.15    0.58
  -2   4   8   19.00    0.63
   2   4  -8   21.25    0.51
   2   4  -8   21.07    0.64
   0  -4   8   26.31    0.73
   0  -4  -8   28.24    0.76
   0   4  -8   26.89    0.75
   0   4  -8   26.53    0.62
   0   4   8   26.92    0.78
   2  -4   8   20.95    0.63
  -2  -4  -8   23.29    0.68
   2   4   8   19.54    0.64
  -2   4  -8   22.94    0.57
  -4  -4  -8   14.88    0.52
   4  -4   8   15.58    0.56
  -4   4  -8   15.93    0.45
   4   4   8   16.05    0.57
  -4   4  -8   15.07    0.52
  -6  -4  -8   11.62    0.44
   6  -4   8   10.49    0.46
  -6   4  -8   11.14    0.44
   6   4   8   10.57    0.46
  -6   4  -8   11.71    0.39
   8  -4   8   17.12    0.64
   8   4   8   17.02    0.62
  -8   4  -8   18.52    0.59
  -8   4  -8   18.02    0.53
  10  -4   8    8.62    0.47
 -10   4  -8    7.91    0.37
  10   4   8    8.63    0.44
 -10   4  -8    8.37    0.35
  12  -4   8    2.96    0.25
  12  -4   8    2.59    0.31
  12   4   8    2.74    0.30
 -12   4  -8    2.23    0.23
  14  -4   8    5.72    0.34
  14  -4   8    6.09    0.43
 -14  -4  -8    5.67    0.39
 -14   4  -8    5.80    0.32
  16  -4   8   33.42    1.07
 -16  -4  -8   29.58    0.97
  16  -4   8   32.11    0.90
 -16   4  -8   29.06    0.82
  17  -5  -8    2.16    0.29
 -17   5   8    1.98    0.32
  17   5  -8    1.70    0.26
  15  -5  -8   12.57    0.55
  15   5  -8   12.04    0.53
 -15   5   8   10.04    0.55
  13  -5  -8    1.14    0.19
 -13   5   8    0.71    0.20
  13   5  -8    0.93    0.19
  11  -5  -8    0.20    0.13
 -11   5   8    0.30    0.14
  11   5  -8    0.23    0.12
  -9  -5   8   14.74    0.54
  -9   5   8   13.33    0.58
   7  -5  -8    4.44    0.31
  -7  -5   8    4.42    0.29
  -7   5   8    5.08    0.35
   7   5  -8    4.20    0.28
  -5  -5   8   13.83    0.51
   5  -5  -8   15.31    0.56
  -5   5   8   13.73    0.56
   5   5  -8   16.44    0.56
   3  -5  -8    7.06    0.37
  -3  -5   8    8.41    0.39
  -3   5   8    8.37    0.43
   3   5  -8    7.17    0.36
   1  -5  -8   45.50    1.11
  -1  -5   8   50.09    1.18
  -1   5   8   49.42    1.23
   1   5  -8   46.68    1.12
   1   5  -8   46.46    0.86
  -1  -5  -8    2.97    0.25
   1  -5   8    3.71    0.28
  -1   5  -8    2.78    0.24
   1   5   8    4.46    0.31
  -1   5  -8    2.38    0.14
  -3  -5  -8    3.50    0.27
   3  -5   8    4.79    0.32
  -3   5  -8    3.82    0.27
  -3   5  -8    3.77    0.18
   3   5   8    4.87    0.32
  -5  -5  -8   28.45    0.79
   5  -5   8   26.63    0.81
   5   5   8   25.71    0.81
  -5   5  -8   29.49    0.67
  -5   5  -8   27.95    0.80
   7  -5   8    2.50    0.30
  -7   5  -8    3.14    0.20
   7   5   8    2.79    0.26
  -7   5  -8    3.18    0.25
   9  -5   8   11.72    0.56
  -9   5  -8    9.17    0.35
  -9   5  -8    9.50    0.43
   9   5   8   11.77    0.53
  11  -5   8    3.51    0.37
  11   5   8    3.61    0.33
 -11   5  -8    3.06    0.29
 -11   5  -8    2.95    0.22
  13  -5   8    4.09    0.41
 -13  -5  -8    4.91    0.38
 -13   5  -8    4.41    0.28
 -13   5  -8    4.28    0.31
  15  -5   8    6.89    0.50
 -15  -5  -8    8.97    0.52
  16  -6  -8    9.04    0.50
  16   6  -8    9.22    0.50
 -16   6   8   11.20    0.61
  14  -6  -8    1.06    0.22
 -14   6   8    1.28    0.26
  14   6  -8    1.16    0.23
  12  -6  -8   56.48    1.39
 -12   6   8   61.69    1.58
  10  -6  -8    0.79    0.19
 -10  -6   8    0.87    0.18
 -10   6   8    0.74    0.20
   8  -6  -8    0.45    0.16
  -8  -6   8    1.53    0.23
  -8   6   8    1.35    0.23
   8   6  -8    0.73    0.16
  -6  -6   8   15.08    0.57
   6  -6  -8   11.91    0.50
  -6   6   8   14.48    0.60
   6   6  -8   10.99    0.46
  -4  -6   8   13.88    0.54
   4  -6  -8   13.43    0.54
  -4   6   8   14.42    0.59
   4   6  -8   14.09    0.53
  -2  -6   8   15.63    0.58
   2  -6  -8   19.51    0.65
  -2   6   8   15.34    0.61
   2   6  -8   19.08    0.64
   0  -6   8    1.54    0.22
   0  -6  -8    1.77    0.23
   0   6  -8    1.86    0.23
   0   6   8    1.57    0.24
   2  -6   8    9.51    0.47
  -2  -6  -8   14.13    0.54
  -2   6  -8   14.14    0.54
   2   6   8    9.56    0.47
   4  -6   8    0.22    0.14
  -4  -6  -8    0.09    0.12
   4   6   8    0.28    0.12
  -4   6  -8    0.16    0.12
   6  -6   8    9.26    0.49
  -6   6  -8   11.65    0.31
   6   6   8   10.42    0.51
  -6   6  -8   11.87    0.50
   8  -6   8   30.83    0.98
  -8   6  -8   33.28    0.93
   8   6   8   31.52    0.96
  -8   6  -8   33.71    0.73
  10  -6   8   11.45    0.58
  10   6   8   10.38    0.54
 -10   6  -8   10.62    0.35
 -10   6  -8    9.88    0.47
  12  -6   8    4.28    0.39
 -12   6  -8    2.94    0.30
 -12   6  -8    2.74    0.20
 -14   6  -8    0.37    0.16
 -13  -7   8    5.09    0.44
  13  -7  -8    4.94    0.47
 -13   7   8    5.13    0.44
  11  -7  -8   12.01    0.56
 -11  -7   8   13.59    0.61
 -11   7   8   14.27    0.67
   9  -7  -8    3.73    0.33
  -9  -7   8    2.88    0.30
  -9   7   8    3.12    0.36
  -7  -7   8    8.19    0.45
   7  -7  -8    9.06    0.46
  -7   7   8    8.30    0.49
   7   7  -8    8.08    0.42
   5  -7  -8   28.14    0.86
  -5  -7   8   26.98    0.85
   5   7  -8   28.00    0.83
  -5   7   8   29.18    0.93
   3  -7  -8    5.36    0.36
  -3  -7   8    6.38    0.40
   3   7  -8    5.53    0.35
  -3   7   8    6.04    0.41
   1  -7  -8    8.98    0.45
  -1  -7   8    7.57    0.43
  -1   7   8    7.31    0.43
   1   7  -8    8.27    0.43
   1  -7   8   21.78    0.76
  -1  -7  -8   21.16    0.71
  -1   7  -8   21.63    0.72
   1   7   8   20.28    0.75
   3  -7   8   11.20    0.55
  -3  -7  -8   10.77    0.50
  -3   7  -8   10.44    0.49
   3   7   8   11.64    0.56
   5  -7   8    9.44    0.52
   5   7   8    8.75    0.49
  -5   7  -8    7.92    0.42
   7  -7   8    4.63    0.39
  -7   7  -8    5.16    0.35
   7   7   8    3.76    0.34
   9  -7   8    3.64    0.40
   9   7   8    2.39    0.31
  -9   7  -8    1.64    0.24
 -11   7  -8    2.15    0.28
  -8   8   8    5.26    0.44
  -6  -8   8    1.06    0.23
   6  -8  -8    0.90    0.21
  -6   8   8    0.94    0.24
   6   8  -8    1.49    0.23
  -4  -8   8    2.98    0.34
   4  -8  -8    2.11    0.28
  -4   8   8    2.98    0.36
   4   8  -8    2.38    0.29
  -2  -8   8   21.96    0.79
   2  -8  -8   19.30    0.71
   2   8  -8   18.59    0.69
  -2   8   8   20.19    0.78
   0  -8   8    8.75    0.51
   0  -8  -8    9.08    0.48
   0   8  -8    9.26    0.48
   0   8   8    9.37    0.52
   2  -8   8    0.55    0.20
  -2  -8  -8    0.41    0.18
   2   8   8    0.26    0.16
  -2   8  -8    0.10    0.14
   4  -8   8    9.74    0.56
   4   8   8    8.79    0.52
  -4   8  -8    8.14    0.46
   6  -8   8   25.45    1.36
   6   8   8   23.42    0.87
 -20   0   9    0.03    0.13
 -20   0   9    0.01    0.12
 -18   0   9   -0.04    0.12
 -18   0   9    0.01    0.11
  18   0  -9    0.03    0.09
 -16   0   9    0.20    0.12
 -16   0   9   -0.01    0.12
  16   0  -9    0.00    0.08
  14   0  -9    0.06    0.08
  14   0  -9    0.07    0.10
 -14   0   9   -0.06    0.08
 -14   0   9    0.06    0.11
  12   0  -9    0.01    0.07
 -12   0   9    0.06    0.09
  12   0  -9    0.01    0.09
 -12   0   9   -0.04    0.08
 -10   0   9    0.72    0.13
  10   0  -9   -0.06    0.09
  10   0  -9    0.03    0.07
   8   0  -9    0.07    0.07
  -8   0   9    0.05    0.07
  -8   0   9    0.03    0.09
   8   0  -9   -0.01    0.08
   6   0  -9    0.04    0.08
   6   0  -9    0.03    0.06
  -6   0   9    0.10    0.07
  -6   0   9    0.07    0.07
   4   0  -9    0.27    0.08
  -4   0   9    0.00    0.06
  -4   0   9    0.02    0.06
   4   0  -9   -0.04    0.09
   2   0  -9   -0.09    0.08
  -2   0   9    0.02    0.07
   2   0  -9    0.03    0.06
  -2   0   9    0.07    0.06
   0   0   9    0.03    0.06
   0   0  -9   -0.02    0.08
   0   0   9   -0.02    0.06
   0   0  -9    0.09    0.06
   2   0   9    0.12    0.07
  -2   0  -9    0.04    0.06
   2   0   9   -0.02    0.06
  -2   0  -9    0.18    0.10
   4   0   9    0.20    0.09
   4   0   9    0.15    0.06
   4   0   9    0.05    0.07
  -4   0  -9    0.07    0.08
   6   0   9   -0.06    0.05
   6   0   9   -0.02    0.08
  -6   0  -9   -0.01    0.07
   6   0   9    0.12    0.08
   8   0   9    0.17    0.07
  -8   0  -9   -0.04    0.07
   8   0   9   -0.02    0.06
   8   0   9   -0.02    0.09
 -10   0  -9    0.03    0.08
  10   0   9    0.38    0.12
  10   0   9    0.35    0.13
  10   0   9    0.09    0.07
  12   0   9    0.00    0.11
 -12   0  -9    0.05    0.07
  12   0   9    0.02    0.07
  14   0   9   -0.02    0.07
  14   0   9   -0.09    0.12
 -14   0  -9    0.01    0.08
  16   0   9    0.02    0.07
  16   0   9    0.11    0.14
  18   0   9    0.15    0.17
  18   0   9    0.12    0.08
  19  -1  -9    5.17    0.33
 -19  -1   9    4.52    0.39
 -19   1   9    4.36    0.32
  19   1  -9    4.60    0.30
 -19   1   9    4.54    0.40
 -17  -1   9   30.51    0.95
  17  -1  -9   35.95    0.92
 -17   1   9   29.51    0.97
  17   1  -9   35.49    0.87
 -17   1   9   30.74    0.84
  15  -1  -9    0.31    0.11
  15  -1  -9    0.24    0.14
 -15  -1   9    0.47    0.16
 -15   1   9    0.31    0.12
  15   1  -9    0.48    0.11
 -15   1   9    0.31    0.15
 -13  -1   9   18.10    0.60
  13  -1  -9   17.57    0.56
  13  -1  -9   18.16    0.61
 -13  -1   9   19.35    0.67
 -13   1   9   19.43    0.59
  13   1  -9   18.43    0.61
  13   1  -9   18.46    0.54
 -13   1   9   18.61    0.69
  11  -1  -9   43.76    1.07
 -11  -1   9   44.11    1.03
 -11  -1   9   43.47    1.09
  11  -1  -9   43.25    1.00
  11   1  -9   44.21    1.07
 -11   1   9   43.57    1.00
  11   1  -9   43.81    0.98
 -11   1   9   43.82    1.13
  -9  -1   9   20.32    0.59
  -9  -1   9   20.69    0.64
   9  -1  -9   19.66    0.62
   9  -1  -9   18.19    0.55
   9   1  -9   19.66    0.62
   9   1  -9   18.79    0.54
  -9   1   9   21.04    0.67
  -9   1   9   19.89    0.57
   7  -1  -9    0.35    0.11
  -7  -1   9    1.80    0.19
  -7  -1   9    1.64    0.18
   7  -1  -9    0.12    0.08
  -7   1   9    1.81    0.17
  -7   1   9    1.43    0.19
   7   1  -9    0.31    0.12
   7   1  -9    0.23    0.08
  -5  -1   9    6.60    0.31
  -5  -1   9    6.51    0.30
   5  -1  -9    7.60    0.31
   5  -1  -9    6.94    0.34
   5   1  -9    6.98    0.29
  -5   1   9    7.12    0.29
   5   1  -9    7.39    0.35
  -5   1   9    6.47    0.33
  -3  -1   9  213.91    3.72
  -3  -1   9  212.46    3.74
  -3  -1   9  209.72    3.63
   3  -1  -9  198.50    3.54
   3   1  -9  198.14    3.43
  -3   1   9  210.61    3.67
   3   1  -9  186.22    3.53
  -3   1   9  208.15    3.80
  -1  -1   9    7.39    0.28
  -1  -1   9    7.44    0.30
   1  -1  -9    7.83    0.36
  -1  -1   9    7.09    0.30
  -1   1   9    7.69    0.34
   1   1  -9    8.03    0.37
   1   1  -9    7.79    0.31
  -1   1   9    7.11    0.27
   1  -1   9    1.81    0.15
   1  -1   9    1.46    0.16
   1  -1   9    1.63    0.16
  -1  -1  -9    1.56    0.20
   1   1   9    1.86    0.18
  -1   1  -9    1.14    0.16
  -1   1  -9    1.34    0.15
   1   1   9    1.83    0.14
   3  -1   9   29.72    0.72
   3  -1   9   29.45    0.71
  -3  -1  -9   31.37    0.81
   3  -1   9   30.40    0.75
   3   1   9   29.30    0.77
  -3   1  -9   30.42    0.75
   3   1   9   31.00    0.68
  -3   1  -9   32.58    0.83
   5  -1   9   28.44    0.71
   5  -1   9   30.22    0.78
  -5  -1  -9   33.82    0.84
   5  -1   9   30.51    0.73
  -5   1  -9   32.96    0.84
   5   1   9   30.26    0.79
   5   1   9   30.59    0.67
   7  -1   9   33.09    0.78
  -7  -1  -9   32.07    0.81
   7   1   9   32.25    0.70
   7   1   9   31.08    0.83
  -7   1  -9   31.69    0.78
  -7   1  -9   31.56    0.81
   9  -1   9    3.52    0.28
  -9  -1  -9    3.55    0.23
   9  -1   9    3.78    0.23
  -9   1  -9    3.73    0.25
  -9   1  -9    3.18    0.22
   9   1   9    3.75    0.26
   9   1   9    3.48    0.26
   9   1   9    3.98    0.18
  11  -1   9   49.38    1.10
  11  -1   9   52.14    1.26
  11   1   9   52.30    1.23
 -11   1  -9   60.13    1.29
  11   1   9   50.21    0.99
  11   1   9   48.88    1.20
  13  -1   9    4.22    0.34
  13  -1   9    4.44    0.26
 -13  -1  -9    5.62    0.35
  13   1   9    4.23    0.32
  13   1   9    3.93    0.17
  15  -1   9    9.77    0.52
 -15  -1  -9   11.58    0.52
  15  -1   9    8.64    0.37
  15   1   9    9.42    0.49
  17  -1   9   43.15    1.24
  17  -1   9   43.60    1.02
 -17  -1  -9   41.94    1.16
  17   1   9   44.30    1.23
  19  -1   9   12.87    0.65
  19   1   9   12.91    0.64
 -20  -2   9    0.09    0.16
 -20   2   9    0.03    0.17
 -18  -2   9   19.36    0.75
  18  -2  -9   18.39    0.63
 -18   2   9   19.69    0.79
  18   2  -9   18.16    0.53
 -18   2   9   20.09    0.64
 -16  -2   9   20.09    0.73
 -16   2   9   19.74    0.77
 -16   2   9   20.66    0.64
  16   2  -9   22.74    0.61
  14  -2  -9   15.75    0.58
 -14  -2   9   11.34    0.51
 -14   2   9   12.06    0.56
 -14   2   9   11.54    0.44
  14   2  -9   15.38    0.47
  12  -2  -9   11.65    0.48
 -12  -2   9   10.33    0.45
 -12   2   9   10.30    0.39
  12   2  -9   11.26    0.47
 -12   2   9    9.53    0.47
  12   2  -9   10.99    0.38
  10  -2  -9   19.04    0.62
 -10  -2   9   24.72    0.72
  10   2  -9   19.20    0.62
 -10   2   9   23.59    0.76
  10   2  -9   19.11    0.53
 -10   2   9   24.39    0.64
  -8  -2   9    6.62    0.28
   8  -2  -9    7.12    0.36
  -8  -2   9    5.98    0.31
  -8  -2   9    6.79    0.33
  -8   2   9    6.39    0.27
  -8   2   9    6.90    0.37
   8   2  -9    6.63    0.28
   8   2  -9    7.46    0.36
  -6  -2   9   10.15    0.35
  -6  -2   9    9.44    0.38
   6  -2  -9   13.74    0.50
  -6  -2   9   10.37    0.38
   6   2  -9   13.68    0.51
   6   2  -9   14.30    0.43
  -6   2   9    9.74    0.33
  -6   2   9   10.07    0.43
  -4  -2   9   56.92    1.23
   4  -2  -9   63.62    1.38
  -4  -2   9   60.54    1.22
  -4  -2   9   57.75    1.18
  -4   2   9   59.07    1.33
   4   2  -9   62.09    1.39
   4   2  -9   62.75    1.27
  -4   2   9   58.83    1.15
   2  -2  -9   69.05    1.49
  -2  -2   9   68.22    1.44
  -2  -2   9   72.09    1.42
  -2   2   9   71.08    1.53
   2   2  -9   70.16    1.39
  -2   2   9   74.62    1.34
   2   2  -9   71.20    1.52
   0  -2  -9   11.71    0.45
   0  -2   9   14.47    0.46
   0  -2   9   14.26    0.45
   0   2   9   14.63    0.37
   0   2   9   14.62    0.51
   0   2  -9   11.58    0.38
   0   2  -9   11.92    0.45
   2  -2   9   10.27    0.38
  -2  -2  -9   11.49    0.44
   2  -2   9   10.41    0.39
   2   2   9   10.85    0.28
  -2   2  -9   10.69    0.38
   2   2   9   10.39    0.43
  -2   2  -9   10.98    0.43
   4  -2   9  256.63    4.47
  -4  -2  -9  254.30    4.54
   4  -2   9  251.65    4.52
  -4   2  -9  255.90    4.46
  -4   2  -9  258.60    4.55
   4   2   9  256.52    4.57
   4   2   9  260.31    4.25
   6  -2   9    2.56    0.25
   6  -2   9    2.42    0.20
  -6  -2  -9    2.92    0.23
  -6   2  -9    2.74    0.22
  -6   2  -9    2.48    0.19
   6   2   9    2.60    0.23
   8  -2   9    8.66    0.42
   8  -2   9    7.29    0.33
  -8  -2  -9    6.14    0.31
  -8   2  -9    6.92    0.31
   8   2   9    7.42    0.38
  -8   2  -9    6.55    0.33
  10  -2   9   53.61    1.30
  10  -2   9   52.08    1.16
  10   2   9   52.52    1.27
 -10   2  -9   49.08    1.13
 -10   2  -9   48.68    1.11
  12  -2   9   20.91    0.62
  12  -2   9   21.31    0.75
 -12   2  -9   21.25    0.63
 -12   2  -9   19.65    0.62
  12   2   9   21.63    0.72
  14  -2   9    7.85    0.36
 -14  -2  -9   10.38    0.50
  14  -2   9    7.52    0.46
 -14   2  -9   10.25    0.45
 -16  -2  -9    8.09    0.47
  16  -2   9    8.24    0.49
  16  -2   9    7.90    0.38
  18  -2   9    7.89    0.52
 -18  -2  -9    6.77    0.46
 -19  -3   9    2.74    0.34
 -19   3   9    2.60    0.36
  19   3  -9    2.53    0.15
 -17  -3   9    0.58    0.19
 -17   3   9    0.82    0.22
  17   3  -9    0.87    0.11
 -17   3   9    0.87    0.16
 -15  -3   9    3.10    0.32
  15  -3  -9    2.26    0.27
 -15   3   9    2.75    0.23
  15   3  -9    2.32    0.16
 -15   3   9    2.72    0.34
 -13  -3   9   14.29    0.56
  13  -3  -9   15.19    0.59
 -13   3   9   14.86    0.63
  13   3  -9   14.86    0.43
 -13   3   9   15.33    0.48
  11  -3  -9    4.66    0.33
 -11  -3   9    4.53    0.30
 -11   3   9    3.84    0.32
  11   3  -9    5.16    0.28
 -11   3   9    4.73    0.24
  11   3  -9    4.94    0.23
  11   3  -9    4.63    0.30
   9  -3  -9    1.85    0.24
   9   3  -9    1.60    0.15
  -9   3   9    1.75    0.15
   9   3  -9    1.42    0.20
  -9   3   9    1.63    0.23
   7  -3  -9   11.45    0.47
  -7   3   9   10.45    0.31
   7   3  -9   11.58    0.47
  -7   3   9   10.78    0.48
   7   3  -9   11.14    0.36
   5  -3  -9    5.83    0.34
   5   3  -9    6.15    0.26
  -5   3   9    4.55    0.30
   5   3  -9    5.71    0.33
  -5   3   9    4.75    0.17
   3  -3  -9    1.01    0.17
  -3  -3   9    1.19    0.16
   3   3  -9    1.26    0.18
  -3   3   9    1.23    0.18
   3   3  -9    1.20    0.13
  -1  -3   9    2.18    0.21
   1  -3  -9    1.65    0.21
  -1  -3   9    1.75    0.18
   1   3  -9    1.94    0.22
   1   3  -9    1.83    0.15
  -1   3   9    1.98    0.23
   1  -3   9    1.23    0.16
   1  -3   9    1.04    0.15
  -1  -3  -9    1.25    0.18
  -1   3  -9    1.58    0.20
  -1   3  -9    1.36    0.15
   1   3   9    0.84    0.15
   3  -3   9    8.79    0.38
  -3  -3  -9    9.20    0.39
   3  -3   9    8.05    0.34
  -3   3  -9    9.22    0.40
   3   3   9    8.34    0.39
  -3   3  -9    8.49    0.33
   5  -3   9    8.66    0.40
  -5  -3  -9    7.85    0.37
   5  -3   9    8.77    0.36
  -5   3  -9    8.38    0.34
  -5   3  -9    8.40    0.38
   5   3   9    8.31    0.41
   7  -3   9    6.05    0.35
  -7  -3  -9    5.75    0.31
   7  -3   9    5.93    0.31
  -7   3  -9    5.61    0.32
  -7   3  -9    5.12    0.27
   7   3   9    6.27    0.36
   9  -3   9    6.70    0.40
   9  -3   9    6.19    0.32
  -9   3  -9    6.01    0.30
   9   3   9    6.23    0.36
  -9   3  -9    6.86    0.35
  11  -3   9    6.69    0.41
  11  -3   9    6.51    0.34
  11   3   9    6.53    0.39
 -11   3  -9    6.00    0.33
 -11   3  -9    6.07    0.32
  13  -3   9    4.14    0.28
  13  -3   9    4.49    0.38
 -13   3  -9    3.64    0.27
  15  -3   9    2.13    0.30
 -15  -3  -9    2.28    0.30
  15  -3   9    2.45    0.24
 -15   3  -9    2.68    0.27
 -17  -3  -9    0.37    0.19
  17  -3   9    0.11    0.18
 -18   4   9    7.87    0.52
  16  -4  -9   12.45    0.56
  16   4  -9   11.46    0.57
 -16   4   9    9.64    0.55
 -16   4   9    9.53    0.36
  14  -4  -9    4.09    0.34
 -14   4   9    2.11    0.17
 -14   4   9    2.49    0.33
  14   4  -9    4.64    0.32
  12  -4  -9    0.22    0.13
 -12   4   9    0.38    0.16
  12   4  -9    0.16    0.11
 -12   4   9    0.35    0.08
  12   4  -9    0.18    0.05
 -10  -4   9    8.13    0.38
  10  -4  -9    7.40    0.40
 -10   4   9    7.96    0.44
  10   4  -9    5.23    0.20
   8  -4  -9    3.66    0.28
  -8  -4   9    4.06    0.27
   8   4  -9    3.67    0.17
   8   4  -9    3.51    0.27
  -8   4   9    3.65    0.30
  -6  -4   9   29.00    0.78
   6  -4  -9   34.92    0.94
  -6   4   9   28.59    0.86
   6   4  -9   34.65    0.73
   6   4  -9   32.61    0.91
  -4  -4   9   22.58    0.66
   4  -4  -9   25.34    0.76
   4   4  -9   23.73    0.73
  -4   4   9   22.40    0.73
   4   4  -9   24.64    0.58
  -2  -4   9   23.88    0.68
   2  -4  -9   22.51    0.70
   2   4  -9   23.04    0.57
   2   4  -9   22.57    0.70
  -2   4   9   23.44    0.75
   0  -4   9   21.02    0.64
   0  -4  -9   17.94    0.62
   0   4   9   20.28    0.68
   0   4  -9   18.69    0.50
   0   4  -9   17.50    0.60
  -2  -4  -9    0.85    0.17
   2  -4   9    0.76    0.16
   2   4   9    0.96    0.18
  -2   4  -9    0.72    0.14
  -2   4  -9    0.69    0.11
   4  -4   9  115.81    2.32
  -4  -4  -9  117.47    2.30
  -4   4  -9  117.65    2.18
   4   4   9  116.05    2.35
  -4   4  -9  116.09    2.32
   6  -4   9    2.09    0.27
  -6  -4  -9    1.83    0.22
  -6   4  -9    1.78    0.18
   6   4   9    1.63    0.23
  -6   4  -9    1.42    0.19
   8  -4   9   20.44    0.72
   8   4   9   20.70    0.72
  -8   4  -9   18.01    0.61
  -8   4  -9   17.93    0.54
  10  -4   9   16.47    0.67
 -10   4  -9   13.79    0.48
 -10   4  -9   13.61    0.52
  10   4   9   16.88    0.66
  12  -4   9    5.55    0.42
  12  -4   9    5.57    0.33
  12   4   9    5.39    0.38
 -12   4  -9    4.13    0.29
 -12   4  -9    3.62    0.26
  14  -4   9   13.90    0.54
 -14  -4  -9   15.84    0.68
  14  -4   9   13.34    0.64
  16  -4   9    1.90    0.31
 -16  -4  -9    1.52    0.28
  17  -5  -9   16.20    0.68
  17   5  -9   15.69    0.65
  15  -5  -9    0.91    0.21
 -15   5   9    1.05    0.23
  15   5  -9    0.88    0.20
  13  -5  -9    3.09    0.32
 -13   5   9    1.95    0.29
  13   5  -9    2.87    0.31
  11  -5  -9   34.16    0.99
 -11  -5   9   34.30    0.95
 -11   5   9   34.46    1.05
  -9  -5   9   14.62    0.55
   9  -5  -9   13.40    0.56
   9   5  -9   12.89    0.52
  -9   5   9   14.42    0.62
   7  -5  -9    5.20    0.35
  -7  -5   9    7.51    0.38
  -7   5   9    8.10    0.45
   7   5  -9    5.38    0.33
  -5  -5   9    4.34    0.29
   5  -5  -9    5.39    0.35
   5   5  -9    5.24    0.33
  -5   5   9    4.02    0.32
   3  -5  -9   75.81    1.66
  -3  -5   9   84.00    1.77
   3   5  -9   74.90    1.65
  -3   5   9   83.60    1.86
   3   5  -9   74.97    1.34
   1  -5  -9    1.31    0.20
  -1  -5   9    1.54    0.21
  -1   5   9    1.73    0.24
   1   5  -9    1.58    0.22
   1   5  -9    1.56    0.12
   1  -5   9    0.06    0.11
  -1  -5  -9    0.49    0.14
  -1   5  -9    0.48    0.14
  -1   5  -9    0.39    0.08
   1   5   9    0.11    0.11
  -3  -5  -9   16.69    0.60
   3  -5   9   18.43    0.65
  -3   5  -9   16.55    0.59
   3   5   9   18.37    0.67
  -3   5  -9   16.76    0.46
   5  -5   9   23.38    0.78
  -5  -5  -9   22.04    0.71
  -5   5  -9   23.13    0.59
  -5   5  -9   23.46    0.72
   5   5   9   23.02    0.78
   7  -5   9    8.96    0.48
  -7   5  -9    9.58    0.36
  -7   5  -9    9.15    0.44
   7   5   9    8.33    0.46
   9  -5   9    9.71    0.52
   9   5   9    9.60    0.50
  -9   5  -9    9.87    0.38
  -9   5  -9    9.90    0.45
  11  -5   9   44.92    1.27
 -11   5  -9   49.64    1.11
 -11   5  -9   47.55    1.19
  11   5   9   43.90    1.24
  13  -5   9    2.88    0.36
 -13   5  -9    2.43    0.27
  14  -6  -9   11.63    0.58
 -14   6   9   12.44    0.65
 -12  -6   9   14.46    0.60
  12  -6  -9   15.73    0.65
 -12   6   9   14.01    0.67
  10  -6  -9    2.04    0.28
 -10  -6   9    2.12    0.26
 -10   6   9    1.35    0.25
   8  -6  -9    8.92    0.47
  -8  -6   9    9.38    0.46
  -8   6   9    9.32    0.51
   8   6  -9    8.73    0.44
   6  -6  -9   19.01    0.69
  -6  -6   9   17.79    0.64
  -6   6   9   17.43    0.70
   6   6  -9   20.35    0.69
  -4  -6   9    4.98    0.33
   4  -6  -9    5.90    0.38
  -4   6   9    4.74    0.35
   4   6  -9    5.96    0.37
  -2  -6   9    4.16    0.32
   2  -6  -9    3.54    0.31
  -2   6   9    3.99    0.34
   2   6  -9    3.31    0.29
   0  -6  -9    2.28    0.28
   0  -6   9    1.80    0.24
   0   6  -9    2.09    0.27
   0   6   9    1.57    0.24
   2  -6   9    5.32    0.36
  -2  -6  -9    5.95    0.37
  -2   6  -9    5.18    0.35
   2   6   9    5.70    0.38
   4  -6   9   11.98    0.55
  -4  -6  -9   10.37    0.49
  -4   6  -9   10.57    0.27
  -4   6  -9   10.49    0.48
   4   6   9   11.26    0.54
   6  -6   9    6.67    0.44
  -6   6  -9    5.75    0.22
  -6   6  -9    5.03    0.35
   6   6   9    6.52    0.42
   8  -6   9    7.48    0.49
  -8   6  -9    7.43    0.29
  -8   6  -9    7.04    0.41
   8   6   9    8.14    0.47
  10  -6   9    8.77    0.52
 -10   6  -9    9.79    0.36
  10   6   9    7.53    0.48
 -10   6  -9    9.62    0.48
  12  -6   9    8.34    0.62
 -12   6  -9    8.47    0.45
 -11  -7   9    7.86    0.48
 -11   7   9    7.04    0.50
  -9  -7   9    3.21    0.35
   9  -7  -9    3.40    0.35
  -9   7   9    2.92    0.37
   7  -7  -9    7.86    0.46
  -7  -7   9    8.72    0.47
   7   7  -9    6.97    0.41
  -7   7   9    9.86    0.55
   5  -7  -9    2.59    0.30
  -5  -7   9    2.66    0.29
   5   7  -9    2.69    0.30
  -5   7   9    2.94    0.35
  -3  -7   9   21.47    0.76
   3  -7  -9   18.49    0.68
   3   7  -9   17.71    0.67
  -3   7   9   22.27    0.82
   1  -7  -9    2.12    0.27
  -1  -7   9    2.11    0.29
   1   7  -9    2.50    0.30
  -1   7   9    2.36    0.32
   1  -7   9    2.58    0.32
  -1  -7  -9    3.11    0.32
  -1   7  -9    2.78    0.31
   1   7   9    2.63    0.32
  -3  -7  -9    1.17    0.23
   3  -7   9    0.17    0.15
   3   7   9    0.47    0.18
  -3   7  -9    1.11    0.21
   5  -7   9   -0.13    0.14
   5   7   9    0.04    0.13
  -5   7  -9    0.68    0.18
   7  -7   9   17.32    0.75
   7   7   9   17.36    0.73
  -7   7  -9   16.25    0.65
   6   8  -9    2.01    0.29
  -6   8   9    1.29    0.27
   4   8  -9    4.56    0.37
  -4   8   9    4.86    0.42
  -2  -8   9    5.11    0.50
   2  -8  -9    4.73    0.39
   2   8  -9    4.53    0.37
  -2   8   9    4.49    0.40
   0  -8   9    8.56    0.75
   0  -8  -9    7.31    0.47
   0   8   9    8.43    0.52
   0   8  -9    7.45    0.47
  -2  -8  -9    2.12    0.31
   2   8   9    1.83    0.30
 -18   0  10   10.57    0.57
 -18   0  10   10.65    0.49
  18   0 -10   16.29    0.57
 -16   0  10   19.49    0.75
 -16   0  10   19.70    0.65
  16   0 -10   20.47    0.63
  14   0 -10   64.47    1.39
 -14   0  10   70.31    1.52
 -14   0  10   69.17    1.65
 -12   0  10   28.18    0.87
 -12   0  10   27.68    0.77
  12   0 -10   30.34    0.85
  12   0 -10   29.70    0.78
 -10   0  10    4.63    0.28
 -10   0  10    3.91    0.30
  10   0 -10    4.33    0.26
  10   0 -10    4.33    0.30
   8   0 -10  193.08    3.51
  -8   0  10  185.81    3.45
  -8   0  10  184.90    3.34
   8   0 -10  199.19    3.62
   6   0 -10    5.70    0.33
  -6   0  10    4.95    0.27
   6   0 -10    5.87    0.29
  -6   0  10    5.26    0.30
  -4   0  10   16.82    0.50
   4   0 -10   14.69    0.54
  -4   0  10   16.70    0.55
   4   0 -10   15.01    0.47
   2   0 -10   89.84    1.76
  -2   0  10   96.92    1.92
  -2   0  10   95.61    1.84
   2   0 -10   92.47    1.88
   0   0 -10   29.47    0.74
   0   0 -10   30.45    0.82
   0   0  10   32.13    0.82
   0   0  10   31.80    0.76
   2   0  10    9.78    0.39
   2   0  10    9.77    0.35
  -2   0 -10   15.10    0.53
   4   0  10   18.24    0.51
   4   0  10   18.21    0.56
  -4   0 -10   17.54    0.58
   6   0  10   80.57    1.57
  -6   0 -10   64.87    1.41
   6   0  10   80.15    1.65
  -8   0 -10    2.79    0.23
   8   0  10    2.82    0.23
   8   0  10    2.97    0.20
  10   0  10    6.35    0.37
  10   0  10    6.34    0.29
 -10   0 -10    6.91    0.34
  12   0  10   26.54    0.68
  12   0  10   27.24    0.85
  14   0  10   14.95    0.63
  14   0  10   13.98    0.44
  16   0  10   13.08    0.61
  16   0  10   12.94    0.41
  18   0  10    5.89    0.46
 -19  -1  10    1.25    0.26
 -19   1  10    1.36    0.27
  17  -1 -10    0.28    0.13
 -17  -1  10    0.21    0.15
 -17   1  10    0.16    0.15
 -17   1  10    0.27    0.13
  17   1 -10    0.32    0.11
  15  -1 -10   30.62    0.83
  15  -1 -10   30.02    0.93
 -15  -1  10   32.01    0.98
 -15  -1  10   33.29    0.90
 -15   1  10   33.28    0.88
  15   1 -10   30.94    0.79
 -15   1  10   31.69    1.01
  13  -1 -10    5.75    0.35
 -13  -1  10    5.49    0.34
 -13  -1  10    5.78    0.37
  13  -1 -10    5.84    0.32
  13   1 -10    5.33    0.29
 -13   1  10    5.47    0.31
 -13   1  10    6.01    0.39
 -11  -1  10    0.35    0.12
 -11  -1  10    0.59    0.16
  11  -1 -10    1.01    0.18
  11  -1 -10    0.89    0.15
  11   1 -10    0.94    0.15
 -11   1  10    0.59    0.13
  11   1 -10    1.32    0.20
 -11   1  10    0.51    0.16
   9  -1 -10   12.87    0.46
  -9  -1  10   13.69    0.52
  -9  -1  10   13.62    0.48
   9  -1 -10   12.73    0.51
   9   1 -10   13.58    0.52
  -9   1  10   13.48    0.46
   9   1 -10   13.45    0.45
  -9   1  10   13.69    0.55
  -7  -1  10   20.29    0.63
  -7  -1  10   20.70    0.60
   7  -1 -10   21.93    0.68
  -7   1  10   20.04    0.66
   7   1 -10   21.50    0.68
   7   1 -10   21.15    0.60
  -7   1  10   20.16    0.57
  -5  -1  10    8.82    0.38
  -5  -1  10   10.03    0.38
   5  -1 -10   11.67    0.47
  -5   1  10    9.15    0.42
   5   1 -10   10.99    0.47
  -5   1  10    9.50    0.35
   5   1 -10   11.48    0.40
  -3  -1  10    6.06    0.30
  -3  -1  10    5.78    0.29
   3  -1 -10    6.47    0.35
  -3   1  10    6.13    0.33
   3   1 -10    5.82    0.28
  -3   1  10    5.69    0.26
   3   1 -10    6.09    0.33
  -1  -1  10   12.41    0.43
   1  -1 -10   14.93    0.53
  -1  -1  10   12.03    0.42
  -1   1  10   11.47    0.45
  -1   1  10   11.45    0.37
   1   1 -10   15.10    0.54
   1   1 -10   14.31    0.46
   1  -1  10    2.90    0.21
  -1  -1 -10    3.31    0.26
   1  -1  10    3.09    0.21
  -1   1 -10    2.85    0.21
   1   1  10    2.82    0.23
   1   1  10    3.10    0.18
  -1   1 -10    2.94    0.24
   3  -1  10    4.91    0.28
   3  -1  10    5.24    0.27
  -3  -1 -10    6.49    0.34
  -3   1 -10    6.18    0.29
   3   1  10    4.59    0.22
   3   1  10    4.90    0.29
  -3   1 -10    5.97    0.34
   5  -1  10   25.94    0.68
   5  -1  10   26.74    0.73
  -5  -1 -10   26.14    0.74
  -5   1 -10   26.16    0.75
   5   1  10   25.45    0.61
  -5   1 -10   24.84    0.68
   5   1  10   25.14    0.74
   7  -1  10   12.51    0.50
  -7  -1 -10   12.02    0.46
   7  -1  10   13.47    0.44
  -7   1 -10   11.83    0.46
   7   1  10   13.01    0.50
   7   1  10   12.97    0.38
  -9  -1 -10    0.96    0.17
   9  -1  10    2.06    0.25
   9  -1  10    1.83    0.20
   9   1  10    1.63    0.21
   9   1  10    1.73    0.14
  -9   1 -10    1.28    0.19
  11  -1  10    3.61    0.24
  11  -1  10    3.88    0.32
  11   1  10    3.68    0.17
  11   1  10    3.64    0.29
 -11   1 -10    3.47    0.26
  13  -1  10   32.51    0.82
  13  -1  10   32.34    0.97
 -13  -1 -10   30.52    0.90
  13   1  10   32.71    0.64
  15  -1  10    0.09    0.09
 -15  -1 -10    0.02    0.13
  15  -1  10    0.14    0.16
  17  -1  10    1.00    0.25
 -18  -2  10    4.54    0.39
 -18   2  10    4.45    0.41
 -16  -2  10    1.69    0.26
  16   2 -10    1.87    0.19
 -16   2  10    1.96    0.29
 -16   2  10    1.93    0.22
 -14  -2  10    7.94    0.44
  14  -2 -10    7.27    0.41
  14   2 -10    7.84    0.33
 -14   2  10    7.97    0.37
 -14   2  10    7.43    0.46
  12  -2 -10    9.15    0.45
 -12  -2  10    8.85    0.44
  12   2 -10    8.47    0.35
 -12   2  10    9.25    0.37
 -12   2  10    8.54    0.47
  10  -2 -10   -0.06    0.09
 -10  -2  10    0.34    0.12
  10   2 -10    0.12    0.08
 -10   2  10    0.60    0.17
  10   2 -10    0.12    0.12
 -10   2  10    0.14    0.08
   8  -2 -10   32.89    0.91
  -8  -2  10   29.32    0.79
  -8  -2  10   30.46    0.82
   8   2 -10   32.84    0.80
   8   2 -10   34.34    0.93
  -8   2  10   31.16    0.89
  -8   2  10   30.32    0.73
  -6  -2  10    0.73    0.15
  -6  -2  10    0.75    0.20
   6  -2 -10    0.32    0.13
  -6   2  10    0.93    0.12
  -6   2  10    0.77    0.16
   6   2 -10    0.39    0.10
   6   2 -10    0.49    0.15
   4  -2 -10   17.52    0.60
  -4  -2  10   19.03    0.57
  -4   2  10   17.98    0.62
   4   2 -10   16.33    0.59
  -4   2  10   18.79    0.49
   4   2 -10   17.54    0.51
  -2  -2  10   12.04    0.43
   2  -2 -10   11.19    0.46
  -2  -2  10   11.99    0.40
   2   2 -10    9.78    0.44
  -2   2  10   10.98    0.46
   2   2 -10   10.11    0.37
  -2   2  10   11.47    0.34
   0  -2 -10    3.15    0.26
   0  -2  10    3.75    0.24
   0  -2  10    3.95    0.24
   0   2  10    3.83    0.27
   0   2  10    4.03    0.18
   0   2 -10    3.41    0.22
   0   2 -10    2.67    0.24
   2  -2  10    5.62    0.29
   2  -2  10    5.76    0.29
  -2  -2 -10    6.94    0.36
   2   2  10    5.37    0.19
   2   2  10    5.29    0.32
  -2   2 -10    6.96    0.36
  -2   2 -10    7.08    0.32
   4  -2  10    0.31    0.10
   4  -2  10    0.26    0.11
  -4  -2 -10    0.30    0.12
  -4   2 -10    0.32    0.10
  -4   2 -10    0.22    0.12
   4   2  10    0.33    0.12
   4   2  10    0.34    0.05
  -6  -2 -10   15.36    0.54
   6  -2  10   18.84    0.62
   6  -2  10   17.72    0.55
  -6   2 -10   15.31    0.50
  -6   2 -10   14.80    0.54
   6   2  10   18.65    0.64
   8  -2  10    0.06    0.08
   8  -2  10    0.03    0.11
  -8  -2 -10    0.01    0.09
  -8   2 -10    0.09    0.09
  -8   2 -10    0.09    0.10
   8   2  10    0.04    0.09
  10  -2  10    0.29    0.11
  10  -2  10    0.08    0.12
 -10   2 -10    0.01    0.10
  10   2  10    0.05    0.12
 -10   2 -10   -0.06    0.09
  12  -2  10    5.95    0.32
  12  -2  10    5.40    0.39
 -12   2 -10    7.69    0.39
  12   2  10    5.84    0.38
  14  -2  10    1.14    0.23
 -14  -2 -10    1.88    0.27
  14  -2  10    1.63    0.20
 -14   2 -10    1.81    0.23
 -16  -2 -10    5.32    0.41
  16  -2  10    6.38    0.46
 -19  -3  10    7.90    0.58
 -17   3  10    0.37    0.19
  17   3 -10    0.53    0.11
  15  -3 -10   79.96    1.79
 -15   3  10   82.18    1.65
  15   3 -10   78.86    1.53
 -15   3  10   80.71    1.93
  13  -3 -10   10.35    0.50
 -13   3  10    9.65    0.37
  13   3 -10   10.67    0.37
 -13   3  10    9.40    0.51
  11  -3 -10    0.71    0.18
  11   3 -10    0.84    0.18
  11   3 -10    0.94    0.13
 -11   3  10    0.37    0.16
 -11   3  10    0.33    0.09
   9  -3 -10   24.92    0.80
   9   3 -10   26.57    0.80
   9   3 -10   26.15    0.65
  -9   3  10   27.79    0.87
  -9   3  10   28.25    0.66
  -7  -3  10   38.65    0.92
   7  -3 -10   42.52    1.10
   7   3 -10   43.20    1.10
   7   3 -10   41.42    0.93
  -7   3  10   38.94    1.06
  -7   3  10   39.02    0.80
  -5  -3  10   24.51    0.67
   5  -3 -10   32.81    0.91
  -5   3  10   24.62    0.78
   5   3 -10   32.35    0.91
   5   3 -10   32.38    0.77
  -5   3  10   25.04    0.52
   3  -3 -10    4.55    0.31
  -3  -3  10    4.14    0.25
   3   3 -10    4.81    0.32
   3   3 -10    4.88    0.25
  -3   3  10    4.55    0.31
  -1  -3  10   22.94    0.67
   1  -3 -10   30.73    0.86
  -1   3  10   23.85    0.75
   1   3 -10   30.39    0.87
   1   3 -10   30.31    0.75
  -1  -3 -10    1.39    0.20
   1  -3  10    1.52    0.19
   1  -3  10    1.14    0.16
  -1   3 -10    1.36    0.16
  -1   3 -10    1.82    0.23
   1   3  10    1.14    0.19
  -3  -3 -10   20.81    0.66
   3  -3  10   15.93    0.52
   3  -3  10   16.33    0.56
  -3   3 -10   20.63    0.58
  -3   3 -10   20.80    0.68
   3   3  10   15.71    0.58
   5  -3  10   71.32    1.56
   5  -3  10   68.74    1.48
  -5  -3 -10   71.54    1.57
   5   3  10   71.73    1.61
  -5   3 -10   74.09    1.60
  -5   3 -10   73.59    1.50
   7  -3  10   33.82    0.87
   7  -3  10   33.63    0.95
  -7  -3 -10   32.41    0.86
  -7   3 -10   31.99    0.89
   7   3  10   34.40    0.97
  -7   3 -10   31.89    0.81
   9  -3  10    2.99    0.24
   9  -3  10    2.91    0.32
  -9   3 -10    1.08    0.19
   9   3  10    3.06    0.28
  -9   3 -10    0.79    0.15
  11  -3  10    4.66    0.30
  11  -3  10    4.80    0.37
 -11   3 -10    3.94    0.30
 -11   3 -10    4.32    0.29
  11   3  10    4.52    0.35
  13  -3  10   83.75    1.76
  13  -3  10   85.00    1.96
 -13   3 -10   75.03    1.61
  15  -3  10    2.21    0.32
 -15  -3 -10    1.77    0.28
 -15   3 -10    2.24    0.31
  16  -4 -10    8.46    0.50
 -16   4  10    6.22    0.47
  14  -4 -10   19.82    0.74
 -14   4  10   19.10    0.78
 -14   4  10   20.14    0.50
  12  -4 -10    4.66    0.36
 -12  -4  10    4.03    0.29
  12   4 -10    4.47    0.19
 -12   4  10    4.30    0.17
 -12   4  10    3.77    0.35
 -10  -4  10    6.74    0.36
  10  -4 -10    6.32    0.41
 -10   4  10    5.99    0.41
  10   4 -10    6.43    0.38
  10   4 -10    6.24    0.24
   8  -4 -10   42.91    1.14
  -8  -4  10   39.79    0.99
  -8   4  10   39.94    1.12
   8   4 -10   43.42    1.12
   8   4 -10   41.67    0.88
   6  -4 -10    7.12    0.40
  -6  -4  10    7.29    0.36
   6   4 -10    6.98    0.39
   6   4 -10    7.05    0.27
  -6   4  10    7.21    0.42
   4  -4 -10    6.70    0.39
  -4  -4  10    5.23    0.31
  -4   4  10    5.34    0.35
   4   4 -10    6.35    0.37
   4   4 -10    6.35    0.27
   2  -4 -10   33.44    0.94
  -2  -4  10   32.39    0.86
   2   4 -10   32.36    0.92
   2   4 -10   32.25    0.76
  -2   4  10   32.76    0.95
   0  -4 -10   14.55    0.56
   0  -4  10   13.08    0.50
   0   4  10   13.52    0.56
   0   4 -10   13.62    0.43
   0   4 -10   13.22    0.54
  -2  -4 -10   13.10    0.53
   2  -4  10   12.13    0.50
  -2   4 -10   12.64    0.53
  -2   4 -10   13.00    0.43
   2   4  10   13.10    0.55
  -4  -4 -10   11.22    0.48
   4  -4  10    9.87    0.46
  -4   4 -10   11.22    0.49
  -4   4 -10   11.27    0.40
   4   4  10    9.97    0.48
  -6  -4 -10    5.33    0.34
   6  -4  10   11.06    0.50
  -6   4 -10    5.77    0.34
  -6   4 -10    5.77    0.29
   6   4  10    7.57    0.44
   8  -4  10    2.62    0.31
  -8   4 -10    2.57    0.22
   8   4  10    2.40    0.30
  -8   4 -10    2.56    0.28
  10  -4  10    4.94    0.40
  10  -4  10    4.24    0.31
 -10   4 -10    4.97    0.33
  10   4  10    4.77    0.37
 -10   4 -10    4.93    0.30
  12  -4  10    9.32    0.44
  12  -4  10    8.74    0.52
 -12   4 -10    8.24    0.39
 -12   4 -10    7.74    0.41
  12   4  10    8.82    0.50
  14  -4  10    7.98    0.52
 -14  -4 -10    6.21    0.45
  14  -4  10    5.98    0.47
  15  -5 -10    4.24    0.41
 -15   5  10    6.48    0.59
 -13  -5  10    0.39    0.16
  13  -5 -10    0.31    0.17
 -13   5  10    0.29    0.16
 -11  -5  10    2.87    0.29
  11  -5 -10    0.86    0.21
 -11   5  10    2.48    0.33
  -9  -5  10    0.12    0.12
   9  -5 -10    0.71    0.20
   9   5 -10    0.41    0.17
  -9   5  10    0.49    0.18
  -7  -5  10   -0.01    0.10
   7  -5 -10    0.10    0.14
   7   5 -10    0.14    0.13
  -7   5  10    0.08    0.13
   5  -5 -10   16.91    0.65
  -5  -5  10   18.85    0.63
   5   5 -10   18.27    0.67
   5   5 -10   17.43    0.40
  -5   5  10   17.66    0.70
   3  -5 -10    8.79    0.45
  -3  -5  10    7.91    0.40
   3   5 -10    7.98    0.26
  -3   5  10    7.92    0.44
   3   5 -10    8.60    0.45
  -1  -5  10    0.12    0.12
   1  -5 -10    1.00    0.21
   1   5 -10    0.74    0.10
  -1   5  10   -0.03    0.11
   1   5 -10    0.54    0.16
   1  -5  10    8.46    0.43
  -1  -5 -10    8.50    0.45
   1   5  10    8.13    0.46
  -1   5 -10    8.08    0.42
  -1   5 -10    8.13    0.30
  -3  -5 -10   27.74    0.85
   3  -5  10   26.40    0.84
  -3   5 -10   28.42    0.68
   3   5  10   26.30    0.86
  -3   5 -10   27.92    0.85
   5  -5  10    9.66    0.49
  -5  -5 -10    9.61    0.46
  -5   5 -10    9.98    0.47
   5   5  10    9.00    0.49
  -5   5 -10    9.86    0.37
   7  -5  10    2.83    0.34
  -7   5 -10    3.30    0.29
  -7   5 -10    3.53    0.23
   7   5  10    2.83    0.32
   9  -5  10    6.44    0.45
  -9   5 -10    6.06    0.31
   9   5  10    6.11    0.43
  -9   5 -10    5.65    0.37
  11  -5  10    1.07    0.25
 -11   5 -10    1.41    0.23
  11   5  10    1.61    0.28
 -13   5 -10    6.83    0.41
  12  -6 -10   21.82    0.80
 -12  -6  10   21.28    0.76
 -12   6  10   21.18    0.85
  10  -6 -10    1.17    0.24
 -10  -6  10    0.59    0.18
 -10   6  10    1.10    0.24
  -8  -6  10   42.90    1.14
   8  -6 -10   47.36    1.26
  -8   6  10   42.77    1.24
   8   6 -10   44.95    1.20
  -6  -6  10    0.19    0.12
   6  -6 -10   -0.02    0.12
  -6   6  10    0.20    0.14
   6   6 -10    0.05    0.13
  -4  -6  10   13.12    0.56
   4  -6 -10   11.10    0.54
  -4   6  10   13.26    0.62
   4   6 -10   10.71    0.51
  -2  -6  10   32.27    0.95
   2  -6 -10   30.10    0.94
  -2   6  10   33.72    1.03
   2   6 -10   31.10    0.93
   0  -6  10    9.36    0.48
   0  -6 -10    8.70    0.47
   0   6  10    9.26    0.51
   0   6 -10    8.77    0.46
   2  -6  10    1.31    0.24
  -2  -6 -10    2.10    0.28
   2   6  10    1.04    0.22
  -2   6 -10    2.52    0.31
   4  -6  10    0.42    0.17
  -4  -6 -10    0.61    0.19
  -4   6 -10    0.73    0.18
   4   6  10    0.30    0.17
  -4   6 -10    0.50    0.08
   6  -6  10   15.26    0.68
   6   6  10   15.76    0.68
  -6   6 -10   10.88    0.35
  -6   6 -10   10.35    0.51
   8  -6  10    1.21    0.26
   8   6  10    1.42    0.26
  -8   6 -10    0.87    0.13
  -8   6 -10    0.87    0.20
  10  -6  10    0.06    0.20
 -10   6 -10    0.89    0.21
  -9  -7  10    7.34    0.72
  -7  -7  10    8.72    0.49
   7  -7 -10    9.41    0.59
  -7   7  10    9.57    0.56
   7   7 -10    8.81    0.50
  -5  -7  10    9.39    0.50
   5  -7 -10    9.02    0.52
  -5   7  10    8.51    0.53
   5   7 -10    9.78    0.51
  -3  -7  10   12.16    0.57
   3  -7 -10   12.80    0.60
  -3   7  10   12.51    0.61
   3   7 -10   13.29    0.60
  -1  -7  10    9.17    0.51
   1  -7 -10   10.16    0.54
   1   7 -10   10.34    0.53
  -1   7  10    8.84    0.52
   1  -7  10    5.98    0.41
  -1  -7 -10    5.19    0.41
  -1   7 -10    4.68    0.38
   1   7  10    5.99    0.44
  -3  -7 -10    5.05    0.40
   3  -7  10    4.66    0.41
  -3   7 -10    4.87    0.37
   3   7  10    3.97    0.38
   5  -7  10    4.54    0.41
   5   7  10    4.53    0.41
  -5   7 -10    5.47    0.54
 -18   0  11    0.10    0.16
  16   0 -11    0.09    0.10
 -16   0  11    0.22    0.13
 -16   0  11    0.01    0.13
  14   0 -11    0.13    0.13
  14   0 -11    0.00    0.10
 -14   0  11    1.56    0.21
 -12   0  11    0.22    0.13
 -12   0  11    0.01    0.10
  12   0 -11    0.01    0.09
  12   0 -11    0.17    0.13
  10   0 -11    0.05    0.11
  10   0 -11    0.00    0.09
 -10   0  11   -0.06    0.09
 -10   0  11    0.00    0.09
   8   0 -11   -0.05    0.10
   8   0 -11    0.02    0.08
  -8   0  11    0.03    0.10
  -8   0  11    0.08    0.09
  -6   0  11    0.03    0.08
   6   0 -11    0.01    0.08
  -6   0  11    0.06    0.10
   6   0 -11   -0.04    0.11
  -4   0  11    0.01    0.09
  -4   0  11    0.00    0.07
   4   0 -11    0.02    0.10
   4   0 -11    0.13    0.09
  -2   0  11    0.07    0.08
   2   0 -11    0.01    0.09
  -2   0  11    0.24    0.11
   2   0 -11    0.02    0.07
   0   0  11    0.03    0.07
   0   0 -11    0.16    0.12
   0   0  11    0.02    0.08
  -2   0 -11    0.12    0.11
   2   0  11    0.02    0.09
   2   0  11    0.03    0.08
   4   0  11    0.11    0.08
  -4   0 -11    0.02    0.11
   4   0  11   -0.01    0.08
  -6   0 -11   -0.03    0.10
   6   0  11    0.05    0.07
   8   0  11    0.00    0.08
  -8   0 -11    0.05    0.11
  10   0  11    0.00    0.08
 -10   0 -11   -0.03    0.15
  12   0  11    0.04    0.08
  14   0  11    0.06    0.08
  17  -1 -11    6.85    0.38
 -17  -1  11    3.82    0.37
 -15  -1  11    1.45    0.25
  15  -1 -11    1.76    0.22
 -15  -1  11    1.84    0.25
  15  -1 -11    2.45    0.40
  15   1 -11    1.96    0.22
 -15   1  11    1.29    0.25
 -15   1  11    1.48    0.21
 -13  -1  11   12.36    0.51
 -13  -1  11   12.19    0.56
  13  -1 -11    9.82    0.48
  13  -1 -11    9.69    0.43
 -13   1  11   11.83    0.47
  13   1 -11    9.53    0.40
  13   1 -11    9.27    0.46
 -13   1  11   12.16    0.58
  11  -1 -11    4.14    0.32
 -11  -1  11    3.50    0.30
 -11  -1  11    3.97    0.29
  11  -1 -11    4.62    0.45
  11   1 -11    4.15    0.27
 -11   1  11    4.10    0.27
  11   1 -11    4.13    0.31
 -11   1  11    3.95    0.32
  -9  -1  11   16.35    0.55
   9  -1 -11   20.90    0.71
  -9  -1  11   16.44    0.60
   9   1 -11   22.73    0.73
   9   1 -11   22.00    0.64
  -9   1  11   16.02    0.52
  -9   1  11   16.41    0.63
  -7  -1  11   29.99    0.81
   7  -1 -11   33.75    0.94
  -7  -1  11   31.01    0.86
   7   1 -11   34.15    0.94
  -7   1  11   32.51    0.79
  -7   1  11   31.32    0.90
   7   1 -11   33.39    0.85
   5  -1 -11   42.84    1.09
  -5  -1  11   45.35    1.08
  -5  -1  11   45.51    1.04
   5   1 -11   43.32    1.10
  -5   1  11   44.00    1.12
   5   1 -11   41.99    0.99
  -5   1  11   43.31    1.00
   3  -1 -11   11.16    0.48
  -3  -1  11   14.65    0.51
  -3  -1  11   15.10    0.50
  -3   1  11   14.94    0.46
   3   1 -11   12.10    0.43
  -3   1  11   15.53    0.56
   3   1 -11   11.92    0.50
   1  -1 -11    5.22    0.33
  -1  -1  11    5.25    0.29
  -1   1  11    4.80    0.31
  -1   1  11    5.25    0.25
   1   1 -11    5.34    0.29
   1   1 -11    5.94    0.35
  -1  -1 -11  157.76    3.07
   1  -1  11  163.30    2.98
  -1   1 -11  163.77    3.09
   1   1  11  164.19    2.90
   1   1  11  160.14    3.07
  -1   1 -11  164.82    2.98
   3  -1  11    0.95    0.15
  -3  -1 -11    1.22    0.20
   3   1  11    0.85    0.12
   3   1  11    0.64    0.15
  -3   1 -11    1.12    0.17
  -3   1 -11    1.01    0.20
  -5  -1 -11    9.84    0.44
   5  -1  11   12.72    0.45
   5   1  11   12.26    0.38
   5   1  11   12.36    0.50
  -5   1 -11    9.93    0.40
  -5   1 -11    9.77    0.45
  -7  -1 -11   26.95    0.80
   7  -1  11   32.83    0.82
  -7   1 -11   29.57    0.83
   7   1  11   32.70    0.91
   7   1  11   32.39    0.72
  -9  -1 -11    8.68    0.41
   9  -1  11   10.23    0.40
   9   1  11    9.86    0.31
   9   1  11    9.75    0.46
  -9   1 -11    8.92    0.42
  11  -1  11   11.25    0.63
  11  -1  11   11.47    0.43
  11   1  11   11.71    0.31
  11   1  11   11.16    0.51
  13  -1  11    4.48    0.28
 -13  -1 -11    4.72    0.36
  13  -1  11    4.66    0.38
  15  -1  11    9.28    0.53
 -18  -2  11    0.45    0.21
 -16  -2  11    3.88    0.36
 -16   2  11    3.56    0.41
  14  -2 -11   25.15    0.83
 -14  -2  11   26.63    0.87
 -14   2  11   27.07    0.74
  14   2 -11   26.63    0.71
 -14   2  11   25.52    0.90
 -12  -2  11   10.35    0.49
  12  -2 -11   10.64    0.50
  12   2 -11    9.89    0.49
 -12   2  11   10.24    0.41
  12   2 -11    8.95    0.38
 -12   2  11   10.48    0.54
  10  -2 -11    3.18    0.31
  10   2 -11    3.41    0.30
 -10   2  11    4.57    0.34
 -10   2  11    4.60    0.26
  10   2 -11    3.25    0.23
  -8  -2  11    6.29    0.34
   8  -2 -11    7.04    0.40
  -8   2  11    6.14    0.38
  -8   2  11    6.40    0.29
   8   2 -11    7.25    0.33
   8   2 -11    7.21    0.41
   6  -2 -11   90.99    1.94
  -6  -2  11  100.84    2.02
  -6   2  11  103.56    1.91
   6   2 -11   89.39    1.79
   6   2 -11   92.37    1.96
  -6   2  11  100.27    2.13
   4  -2 -11    8.99    0.44
  -4  -2  11    8.28    0.38
  -4   2  11    8.64    0.43
   4   2 -11    8.76    0.44
   4   2 -11    8.18    0.35
  -4   2  11    8.50    0.31
  -2  -2  11    2.52    0.25
   2  -2 -11    3.57    0.28
  -2   2  11    2.18    0.16
  -2   2  11    2.33    0.26
   2   2 -11    3.00    0.22
   2   2 -11    3.21    0.28
   0  -2  11   24.54    0.69
   0  -2 -11   23.75    0.75
   0   2  11   25.79    0.56
   0   2 -11   25.07    0.77
   0   2  11   23.11    0.75
   0   2 -11   23.75    0.66
   2  -2  11   36.01    0.91
  -2  -2 -11   37.26    0.99
   2   2  11   38.05    0.73
   2   2  11   37.02    1.00
  -2   2 -11   37.01    0.90
  -2   2 -11   38.71    1.02
   4  -2  11   19.11    0.59
   4  -2  11   19.51    0.63
  -4  -2 -11   20.81    0.68
  -4   2 -11   20.69    0.62
   4   2  11   18.71    0.66
  -4   2 -11   21.32    0.69
   6  -2  11    4.45    0.31
  -6  -2 -11    6.27    0.36
   6  -2  11    5.49    0.31
  -6   2 -11    6.09    0.33
   6   2  11    6.06    0.36
  -6   2 -11    5.70    0.34
  -8  -2 -11   67.34    1.47
   8  -2  11   57.57    1.39
   8  -2  11   58.53    1.29
  -8   2 -11   64.76    1.43
  -8   2 -11   66.78    1.50
   8   2  11   57.91    1.41
  10  -2  11    4.20    0.35
  10  -2  11    3.82    0.28
 -10   2 -11    4.05    0.29
  10   2  11    3.88    0.33
 -10   2 -11    4.31    0.31
  12  -2  11    7.70    0.47
  12  -2  11    7.37    0.37
 -12   2 -11    9.70    0.44
  12   2  11    7.94    0.45
  14  -2  11   37.89    1.14
 -14  -2 -11   38.42    1.13
  16  -2  11   11.38    0.70
 -16  -2 -11   11.10    0.59
  15  -3 -11    5.73    0.41
 -15   3  11    5.18    0.42
  13  -3 -11    1.33    0.24
 -13   3  11    1.01    0.15
  13   3 -11    1.25    0.16
 -13   3  11    1.21    0.24
  11  -3 -11    3.19    0.32
 -11   3  11    3.00    0.34
 -11   3  11    3.01    0.20
  11   3 -11    3.60    0.35
  11   3 -11    3.08    0.21
   9  -3 -11    7.83    0.44
   9   3 -11    8.11    0.44
  -9   3  11    7.49    0.44
   9   3 -11    7.77    0.33
  -9   3  11    7.16    0.28
   7  -3 -11    2.16    0.26
   7   3 -11    2.41    0.29
  -7   3  11    2.17    0.28
   7   3 -11    2.62    0.20
  -7   3  11    2.14    0.14
   5  -3 -11    1.47    0.23
  -5   3  11    1.60    0.10
  -5   3  11    1.20    0.20
   5   3 -11    1.32    0.22
   5   3 -11    1.27    0.15
   3  -3 -11    0.87    0.19
  -3   3  11    0.91    0.19
   3   3 -11    0.84    0.18
   3   3 -11    1.04    0.15
  -1  -3  11    2.43    0.24
  -1  -3  11    2.51    0.24
   1  -3 -11    2.33    0.26
  -1   3  11    2.15    0.27
   1   3 -11    2.51    0.20
   1   3 -11    2.06    0.26
   1  -3  11    4.56    0.29
  -1  -3 -11    5.89    0.35
  -1   3 -11    5.08    0.28
   1   3  11    5.00    0.34
  -1   3 -11    5.57    0.36
   3  -3  11    3.24    0.27
   3  -3  11    3.58    0.26
  -3  -3 -11    3.00    0.30
  -3   3 -11    3.17    0.23
  -3   3 -11    3.30    0.29
   3   3  11    3.28    0.29
  -5  -3 -11    3.90    0.30
   5  -3  11    4.53    0.30
   5  -3  11    4.57    0.33
  -5   3 -11    4.10    0.27
   5   3  11    4.54    0.33
  -5   3 -11    4.18    0.32
   7  -3  11    4.78    0.35
   7  -3  11    4.28    0.29
  -7  -3 -11    5.00    0.34
   7   3  11    4.73    0.35
  -7   3 -11    4.98    0.30
  -7   3 -11    4.85    0.34
   9  -3  11    4.93    0.32
   9  -3  11    4.92    0.38
  -9   3 -11    5.42    0.32
   9   3  11    4.67    0.36
  -9   3 -11    4.60    0.34
  11  -3  11    3.92    0.40
  11  -3  11    3.77    0.29
 -11   3 -11    3.73    0.31
  11   3  11    4.01    0.35
 -11   3 -11    3.91    0.29
  13  -3  11    0.82    0.22
 -13   3 -11    1.05    0.23
  16  -4 -11   17.14    0.72
  14  -4 -11    9.68    0.53
 -14   4  11    9.85    0.56
  12  -4 -11    2.88    0.33
  12   4 -11    2.69    0.17
 -12   4  11    4.05    0.36
  10  -4 -11    1.21    0.23
  10   4 -11    1.19    0.23
  10   4 -11    1.29    0.13
 -10   4  11    2.21    0.29
   8  -4 -11    0.27    0.15
  -8   4  11    0.12    0.13
   8   4 -11    0.02    0.06
   8   4 -11    0.11    0.13
   6  -4 -11   42.60    1.16
   6   4 -11   43.13    1.16
   6   4 -11   43.79    0.94
  -6   4  11   47.48    1.27
   4  -4 -11    2.07    0.27
  -4  -4  11    1.68    0.21
   4   4 -11    2.28    0.18
  -4   4  11    1.41    0.24
   4   4 -11    2.26    0.27
  -2  -4  11    0.10    0.11
   2  -4 -11    0.94    0.19
   2   4 -11    1.11    0.15
   2   4 -11    1.04    0.21
  -2   4  11    0.18    0.13
   0  -4 -11    4.36    0.34
   0  -4  11    3.39    0.28
   0   4  11    3.68    0.32
   0   4 -11    4.35    0.25
   0   4 -11    4.70    0.35
   2  -4  11    6.57    0.38
  -2  -4 -11    8.01    0.43
   2   4  11    6.07    0.38
  -2   4 -11    7.26    0.42
  -2   4 -11    7.53    0.33
  -4  -4 -11   26.42    0.82
   4  -4  11   26.25    0.82
  -4   4 -11   25.98    0.83
   4   4  11   26.88    0.88
  -4   4 -11   27.07    0.72
   6  -4  11    0.25    0.16
  -6  -4 -11    0.10    0.14
   6   4  11    0.12    0.14
  -6   4 -11    0.19    0.10
  -6   4 -11    0.16    0.13
   8  -4  11   17.90    0.71
   8   4  11   18.63    0.72
  -8   4 -11   23.91    0.78
  -8   4 -11   23.62    0.69
  10  -4  11    0.80    0.21
  10  -4  11    0.61    0.16
  10   4  11    0.77    0.21
 -10   4 -11    1.21    0.22
 -10   4 -11    1.32    0.19
  12  -4  11    9.43    0.55
 -12   4 -11   10.40    0.50
  12   4  11    9.73    0.55
  13  -5 -11    9.94    0.57
  11  -5 -11    1.25    0.26
 -11   5  11    1.37    0.27
   9  -5 -11    4.79    0.38
  -9  -5  11    3.14    0.29
  -9   5  11    2.99    0.36
   9   5 -11    4.80    0.38
  -7  -5  11   14.80    0.57
   7  -5 -11   17.70    0.71
   7   5 -11   16.44    0.44
   7   5 -11   17.32    0.69
  -7   5  11   15.40    0.66
  -5  -5  11   20.40    0.69
   5  -5 -11   18.16    0.71
   5   5 -11   18.34    0.45
   5   5 -11   18.47    0.71
  -5   5  11   20.09    0.77
   3  -5 -11    9.28    0.50
  -3  -5  11   11.47    0.51
   3   5 -11    9.30    0.49
   3   5 -11    9.12    0.30
  -3   5  11   11.03    0.55
   1  -5 -11    2.80    0.33
  -1  -5  11    2.83    0.30
   1   5 -11    2.61    0.30
  -1   5  11    2.27    0.29
   1   5 -11    2.65    0.18
  -1  -5 -11   81.85    1.85
   1  -5  11   84.36    1.86
  -1   5 -11   82.76    1.60
  -1   5 -11   83.33    1.86
   1   5  11   84.48    1.93
   3  -5  11    1.59    0.25
  -3  -5 -11    1.52    0.24
   3   5  11    1.94    0.28
  -3   5 -11    2.19    0.29
  -3   5 -11    1.68    0.18
  -5  -5 -11    1.21    0.22
   5  -5  11    1.41    0.25
  -5   5 -11    1.03    0.15
   5   5  11    1.15    0.22
  -5   5 -11    1.18    0.22
   7  -5  11   30.58    0.98
  -7   5 -11   26.80    0.72
   7   5  11   28.83    0.97
  -7   5 -11   25.91    0.85
   9  -5  11    9.64    0.56
  -9   5 -11    9.72    0.50
   9   5  11    9.63    0.55
 -11   5 -11    3.93    0.34
 -10  -6  11    9.65    0.50
   8  -6 -11    5.77    0.44
  -8  -6  11    4.87    0.37
   8   6 -11    5.78    0.41
  -8   6  11    4.82    0.40
   6  -6 -11    0.63    0.20
  -6  -6  11    0.85    0.20
   6   6 -11    0.76    0.21
  -6   6  11    0.70    0.22
   4  -6 -11    2.70    0.33
  -4  -6  11    2.31    0.29
   4   6 -11    2.04    0.29
  -4   6  11    2.25    0.33
  -2  -6  11    1.01    0.22
   2  -6 -11    1.32    0.26
  -2   6  11    0.86    0.22
   2   6 -11    1.25    0.23
   0  -6 -11    8.07    0.49
   0  -6  11    7.80    0.46
   0   6  11    7.98    0.49
   0   6 -11    8.08    0.47
  -2  -6 -11    8.02    0.48
   2  -6  11    8.29    0.49
  -2   6 -11    7.40    0.27
  -2   6 -11    7.24    0.44
   2   6  11    9.32    0.53
   4  -6  11    6.19    0.45
  -4  -6 -11    5.08    0.39
  -4   6 -11    5.40    0.23
  -4   6 -11    5.13    0.39
   4   6  11    6.38    0.45
   6  -6  11    7.62    0.50
   6   6  11    6.65    0.47
  -6   6 -11    7.19    0.44
  -3  -7  11   16.28    0.77
  -1  -7  11    0.55    0.23
   1  -7 -11    1.15    0.38
  -1  -7 -11   19.60    0.78
  -3  -7 -11    1.96    0.44
 -16   0  12   11.20    0.59
 -14   0  12    0.70    0.17
  14   0 -12    1.89    0.23
 -14   0  12    0.79    0.22
  14   0 -12    2.31    0.28
 -12   0  12   22.62    0.71
 -12   0  12   23.29    0.81
  12   0 -12   20.53    0.72
  12   0 -12   20.89    0.66
  10   0 -12   42.12    1.12
  10   0 -12   42.30    1.04
 -10   0  12   40.90    0.99
 -10   0  12   37.73    1.08
   8   0 -12   32.17    0.85
  -8   0  12   24.03    0.78
   8   0 -12   31.60    0.93
  -8   0  12   23.59    0.69
  -6   0  12    3.80    0.26
   6   0 -12    4.01    0.28
   6   0 -12    3.90    0.32
  -6   0  12    4.04    0.30
  -4   0  12   25.37    0.77
   4   0 -12   31.01    0.90
  -4   0  12   24.91    0.69
   4   0 -12   28.89    0.80
  -2   0  12    1.35    0.18
  -2   0  12    1.14    0.19
   2   0 -12    1.48    0.23
   0   0  12   18.24    0.62
   0   0  12   19.29    0.57
   0   0 -12   23.89    0.76
  -2   0 -12   70.61    1.60
   2   0  12   69.56    1.38
   2   0  12   60.67    1.86
  -4   0 -12   34.81    0.96
   4   0  12   38.80    0.91
  -6   0 -12    2.10    0.27
   6   0  12    4.18    0.25
  -8   0 -12    9.25    0.45
   8   0  12    9.54    0.37
  10   0  12   91.15    1.76
  12   0  12    0.70    0.13
 -15  -1  12    4.17    0.33
 -15  -1  12    3.50    0.38
  15  -1 -12    3.82    0.31
 -15   1  12    3.20    0.37
  13  -1 -12    1.27    0.23
 -13  -1  12    1.47    0.25
 -13  -1  12    1.58    0.23
  13   1 -12    1.26    0.18
 -13   1  12    1.14    0.24
 -13   1  12    1.74    0.22
  13   1 -12    1.47    0.25
 -11  -1  12   24.41    0.81
  11  -1 -12   25.64    0.83
 -11  -1  12   24.83    0.75
 -11   1  12   24.15    0.83
  11   1 -12   25.38    0.73
 -11   1  12   23.94    0.70
  11   1 -12   25.65    0.83
  -9  -1  12    2.12    0.27
  -9  -1  12    1.74    0.21
   9  -1 -12    2.21    0.27
   9   1 -12    1.95    0.21
  -9   1  12    1.96    0.27
   9   1 -12    1.95    0.25
  -9   1  12    1.91    0.21
   7  -1 -12    0.56    0.16
  -7  -1  12    0.83    0.16
  -7  -1  12    0.71    0.17
  -7   1  12    0.57    0.16
  -7   1  12    0.74    0.14
   7   1 -12    0.85    0.19
   7   1 -12    0.56    0.13
  -5  -1  12   16.90    0.56
   5  -1 -12   15.88    0.61
   5   1 -12   15.61    0.54
  -5   1  12   16.72    0.52
   5   1 -12   16.69    0.63
  -5   1  12   16.04    0.62
  -3  -1  12    5.11    0.30
   3  -1 -12    5.25    0.34
   3   1 -12    5.23    0.35
  -3   1  12    5.20    0.34
  -3   1  12    5.54    0.28
   3   1 -12    5.26    0.30
   1  -1 -12    5.53    0.36
  -1  -1  12    3.90    0.27
  -1   1  12    4.48    0.24
   1   1 -12    5.24    0.30
   1   1 -12    6.01    0.37
  -1   1  12    4.54    0.31
   1  -1  12    5.23    0.30
  -1  -1 -12    5.52    0.36
  -1   1 -12    5.08    0.36
   1   1  12    5.09    0.33
  -1   1 -12    5.33    0.31
   1   1  12    5.24    0.26
  -3  -1 -12    8.23    0.43
   3  -1  12   10.47    0.42
  -3   1 -12    8.54    0.39
   3   1  12   11.28    0.49
  -3   1 -12    8.40    0.43
   3   1  12   11.69    0.38
  -5  -1 -12    1.14    0.21
   5  -1  12    1.01    0.16
  -5   1 -12    0.95    0.20
   5   1  12    0.92    0.19
   5   1  12    0.73    0.11
  -7  -1 -12    3.22    0.28
   7  -1  12    2.72    0.23
   7   1  12    2.34    0.16
  -7   1 -12    2.89    0.29
   7   1  12    2.73    0.30
   9  -1  12    6.03    0.32
  -9   1 -12    5.73    0.37
   9   1  12    5.71    0.22
  11  -1  12    5.07    0.31
  14  -2 -12    0.12    0.16
 -14   2  12    0.22    0.17
  12  -2 -12    2.62    0.31
 -12   2  12    2.18    0.30
  12   2 -12    2.27    0.29
 -12   2  12    2.96    0.24
  12   2 -12    2.61    0.25
  10  -2 -12    4.70    0.36
  10   2 -12    4.47    0.28
  10   2 -12    5.08    0.37
 -10   2  12    4.43    0.27
 -10   2  12    3.94    0.35
   8  -2 -12    7.07    0.43
  -8  -2  12    6.33    0.36
  -8   2  12    6.62    0.41
   8   2 -12    7.63    0.36
   8   2 -12    8.03    0.45
  -8   2  12    7.10    0.31
  -6  -2  12    0.43    0.14
   6  -2 -12    0.54    0.17
   6   2 -12    0.51    0.17
   6   2 -12    0.66    0.14
  -6   2  12    0.62    0.16
  -6   2  12    0.48    0.11
  -4  -2  12    1.47    0.21
   4  -2 -12    2.69    0.30
   4   2 -12    3.48    0.31
   4   2 -12    2.81    0.23
  -4   2  12    3.02    0.28
  -4   2  12    1.87    0.16
   2  -2 -12    1.80    0.24
  -2  -2  12    1.95    0.23
  -2   2  12    1.82    0.15
   2   2 -12    1.79    0.25
   2   2 -12    1.57    0.18
  -2   2  12    1.91    0.25
   0  -2  12   10.83    0.45
   0  -2 -12   12.94    0.55
   0   2 -12   12.47    0.55
   0   2  12   11.21    0.51
   0   2  12   11.38    0.32
   0   2 -12   12.80    0.47
   2  -2  12   13.15    0.49
  -2  -2 -12   12.99    0.54
  -2   2 -12   12.91    0.48
   2   2  12   12.70    0.54
  -2   2 -12   13.59    0.56
   2   2  12   13.39    0.32
   4  -2  12    7.31    0.37
  -4  -2 -12    7.04    0.40
  -4   2 -12    6.79    0.35
  -4   2 -12    7.97    0.43
   4   2  12    7.40    0.42
   6  -2  12    1.29    0.18
  -6  -2 -12    0.94    0.19
  -6   2 -12    0.48    0.14
  -6   2 -12    0.53    0.16
   6   2  12    0.95    0.20
   8  -2  12    0.52    0.14
  -8   2 -12    0.72    0.18
  -8   2 -12    0.91    0.17
   8   2  12    0.90    0.20
  10  -2  12   15.21    0.55
  10   2  12   15.39    0.65
 -10   2 -12   14.57    0.56
 -10   2 -12   14.05    0.59
  12   2  12    1.25    0.25
 -14  -2 -12    2.24    0.31
  15  -3 -12   16.98    0.70
  13  -3 -12    1.86    0.28
 -13   3  12    1.39    0.27
  11  -3 -12   64.06    1.57
  11   3 -12   64.02    1.35
 -11   3  12   62.11    1.60
 -11   3  12   64.33    1.27
  11   3 -12   65.94    1.57
   9  -3 -12    2.82    0.33
   9   3 -12    2.14    0.28
   9   3 -12    2.50    0.21
  -9   3  12    2.02    0.29
  -9   3  12    2.35    0.16
   7  -3 -12    7.86    0.44
   7   3 -12    7.54    0.45
   7   3 -12    7.59    0.34
  -7   3  12    9.86    0.52
  -7   3  12    9.85    0.29
   5  -3 -12   39.03    1.09
   5   3 -12   38.45    1.10
  -5   3  12   39.34    1.11
   5   3 -12   39.51    0.94
   3  -3 -12    9.73    0.49
   3   3 -12   10.36    0.40
   3   3 -12    9.82    0.50
  -3   3  12    9.74    0.50
   1  -3 -12    7.71    0.44
  -1  -3  12    4.29    0.30
   1   3 -12    8.15    0.45
   1   3 -12    8.20    0.36
  -1   3  12    4.24    0.33
  -1  -3 -12    6.46    0.40
   1  -3  12    6.24    0.36
   1   3  12    6.80    0.42
  -1   3 -12    6.79    0.41
  -1   3 -12    6.62    0.33
  -3  -3 -12   24.15    0.79
   3  -3  12   32.04    0.87
  -3   3 -12   24.72    0.81
   3   3  12   31.85    0.97
  -3   3 -12   23.54    0.69
  -5  -3 -12    0.59    0.17
   5  -3  12    0.43    0.14
  -5   3 -12    0.46    0.17
   5   3  12    0.28    0.15
  -5   3 -12    0.61    0.13
   7  -3  12    2.22    0.30
   7  -3  12    2.57    0.27
   7   3  12    2.41    0.31
  -7   3 -12    4.13    0.29
  -7   3 -12    3.72    0.33
   9  -3  12   13.84    0.62
   9  -3  12   13.56    0.54
   9   3  12   13.61    0.62
  -9   3 -12   15.56    0.63
  -9   3 -12   15.80    0.58
  11  -3  12   10.55    0.56
 -11   3 -12   11.64    0.54
  11   3  12   10.30    0.56
  13  -3  12   10.90    0.60
  12  -4 -12    7.13    0.47
 -12   4  12    8.75    0.55
  10  -4 -12   13.11    0.61
 -10   4  12   13.11    0.63
  10   4 -12   12.75    0.41
  10   4 -12   13.28    0.61
   8  -4 -12   11.26    0.56
  -8   4  12    9.79    0.54
   8   4 -12   11.72    0.39
   8   4 -12   11.34    0.56
   6  -4 -12   11.28    0.56
   6   4 -12   10.63    0.38
  -6   4  12   10.32    0.54
   6   4 -12   11.02    0.55
   4  -4 -12   14.43    0.61
   4   4 -12   14.04    0.62
   4   4 -12   13.43    0.45
  -4   4  12   11.96    0.57
   2  -4 -12    4.54    0.37
   2   4 -12    4.72    0.27
  -2   4  12    4.48    0.36
   2   4 -12    4.20    0.34
   0  -4 -12    5.45    0.39
   0   4 -12    5.79    0.30
   0   4 -12    5.57    0.39
   0   4  12    4.54    0.35
  -2  -4 -12   13.00    0.58
   2  -4  12   11.73    0.52
  -2   4 -12   13.69    0.48
   2   4  12   11.57    0.56
  -2   4 -12   12.61    0.58
  -4  -4 -12    4.57    0.36
   4  -4  12    4.76    0.37
  -4   4 -12    4.63    0.37
   4   4  12    4.97    0.38
  -4   4 -12    4.68    0.29
   6  -4  12    2.21    0.30
  -6  -4 -12    2.45    0.42
  -6   4 -12    2.05    0.29
  -6   4 -12    2.08    0.21
   6   4  12    1.73    0.26
   8  -4  12    4.24    0.33
   8  -4  12    4.31    0.38
   8   4  12    4.83    0.40
  -8   4 -12    4.19    0.35
  10  -4  12   25.44    0.88
  10   4  12   20.72    0.86
 -10   4 -12   19.12    0.71
   9  -5 -12    1.91    0.31
   9   5 -12    1.94    0.31
  -9   5  12    2.17    0.33
   7  -5 -12   20.88    0.78
   7   5 -12   17.99    0.44
   7   5 -12   18.38    0.74
  -7   5  12   20.97    0.82
   5  -5 -12    0.63    0.21
   5   5 -12    0.72    0.11
   5   5 -12    0.90    0.23
  -5   5  12    0.88    0.22
  -3  -5  12    1.55    0.25
   3  -5 -12    0.89    0.23
  -3   5  12    1.13    0.23
   3   5 -12    0.53    0.10
   3   5 -12    0.70    0.22
   1  -5 -12   10.01    0.53
  -1  -5  12    9.15    0.48
   1   5 -12   10.17    0.36
  -1   5  12    9.96    0.54
   1   5 -12   10.21    0.54
  -1  -5 -12    2.62    0.32
   1  -5  12    2.12    0.29
  -1   5 -12    1.98    0.29
  -1   5 -12    2.59    0.20
   1   5  12    1.60    0.26
  -3  -5 -12    4.32    0.37
   3  -5  12    5.05    0.39
   3   5  12    5.50    0.42
  -3   5 -12    3.52    0.37
   5  -5  12    2.08    0.31
  -5   5 -12    1.41    0.25
   5   5  12    2.26    0.32
   7  -5  12    2.80    0.36
  -7   5 -12    2.41    0.31
   8   6 -12   14.92    0.78
  -6  -6  12    0.78    0.21
   6   6 -12    0.95    0.23
  -4  -6  12    9.23    0.51
   4   6 -12   11.24    0.59
   2  -6 -12    0.18    0.17
  -2  -6  12    0.30    0.17
   2   6 -12    0.08    0.16
   0  -6  12   10.02    0.54
   0  -6 -12   11.42    0.59
   0   6 -12   14.04    0.88
   2  -6  12   20.55    0.79
  -2  -6 -12   21.95    0.82
   4  -6  12    6.30    0.56
  14   0 -13    0.15    0.25
 -14   0  13    0.00    0.14
 -12   0  13    0.22    0.15
  12   0 -13    0.06    0.13
  12   0 -13    0.04    0.12
 -10   0  13    0.07    0.14
  10   0 -13    0.00    0.13
  10   0 -13    0.11    0.12
 -10   0  13    0.11    0.11
  -8   0  13    0.31    0.13
  -8   0  13   -0.05    0.12
   8   0 -13   -0.11    0.10
   8   0 -13    0.01    0.13
   6   0 -13   -0.05    0.10
   6   0 -13   -0.07    0.11
  -6   0  13    0.01    0.11
  -6   0  13    0.14    0.10
  -4   0  13    0.13    0.10
  -4   0  13    0.03    0.11
   4   0 -13    0.15    0.13
  -2   0  13   -0.03    0.09
   2   0 -13   -0.08    0.11
   0   0  13    0.00    0.08
   0   0 -13    0.08    0.13
   2   0  13   -0.02    0.08
  -2   0 -13    0.16    0.13
   4   0  13    0.13    0.09
  -4   0 -13   -0.04    0.12
  -6   0 -13    0.06    0.12
   6   0  13   -0.03    0.08
   8   0  13   -0.04    0.08
  -8   0 -13   -0.07    0.12
 -15  -1  13    3.47    0.40
  13  -1 -13    0.42    0.18
 -13  -1  13    0.63    0.25
  13   1 -13    0.47    0.18
 -13   1  13    0.76    0.22
  11  -1 -13    1.80    0.27
 -11  -1  13    1.38    0.21
 -11   1  13    1.41    0.25
  11   1 -13    1.92    0.23
  11   1 -13    1.66    0.26
   9  -1 -13   40.32    1.13
  -9  -1  13   49.01    1.16
  -9   1  13   45.01    1.25
   9   1 -13   40.12    1.02
   9   1 -13   41.22    1.14
  -9   1  13   46.61    1.10
  -7  -1  13    6.52    0.36
   7  -1 -13    7.71    0.45
  -7   1  13    6.78    0.42
   7   1 -13    7.42    0.44
   7   1 -13    7.70    0.38
  -7   1  13    6.43    0.33
  -5  -1  13    1.95    0.23
   5  -1 -13    3.92    0.33
  -5   1  13    1.71    0.18
   5   1 -13    3.75    0.33
  -5   1  13    1.94    0.27
   5   1 -13    2.92    0.26
   3  -1 -13   11.66    0.53
  -3  -1  13   12.79    0.49
   3   1 -13   11.93    0.48
   3   1 -13   12.75    0.56
  -3   1  13   12.57    0.55
  -3   1  13   12.45    0.44
  -1  -1  13   21.98    0.67
   1  -1 -13   23.36    0.79
  -1   1  13   23.48    0.77
  -1   1  13   22.92    0.62
   1   1 -13   24.32    0.71
   1   1 -13   23.98    0.80
   1  -1  13   22.92    0.68
  -1  -1 -13   22.97    0.77
  -1   1 -13   22.65    0.78
  -1   1 -13   23.39    0.70
   1   1  13   21.37    0.74
   1   1  13   22.97    0.60
   3  -1  13    0.63    0.15
  -3  -1 -13    0.40    0.16
   3   1  13    0.72    0.18
   3   1  13    0.68    0.11
  -3   1 -13    0.64    0.18
   5  -1  13   33.97    0.89
  -5  -1 -13   38.88    1.08
   5   1  13   36.49    0.78
  -5   1 -13   41.18    1.11
   7  -1  13    1.12    0.17
  -7  -1 -13    1.55    0.25
   7   1  13    1.13    0.12
  -7   1 -13    1.45    0.24
  -9   1 -13   10.71    0.52
  14  -2 -13    1.71    0.28
  12  -2 -13    8.18    0.49
  12   2 -13    7.88    0.48
 -12   2  13    5.62    0.43
  10  -2 -13   19.02    0.73
 -10   2  13   18.63    0.64
  10   2 -13   18.77    0.68
 -10   2  13   19.09    0.76
  10   2 -13   19.34    0.73
   8  -2 -13   24.30    0.84
  -8  -2  13   28.33    0.83
   8   2 -13   25.52    0.85
   8   2 -13   24.12    0.71
  -8   2  13   27.71    0.92
  -8   2  13   28.59    0.72
  -6  -2  13    9.24    0.44
   6  -2 -13    6.63    0.43
  -6   2  13    9.36    0.50
   6   2 -13    6.33    0.34
  -6   2  13    9.08    0.34
   6   2 -13    6.61    0.42
  -4  -2  13    3.91    0.30
   4  -2 -13    3.69    0.36
   4   2 -13    4.14    0.34
  -4   2  13    3.73    0.33
   4   2 -13    4.16    0.29
  -4   2  13    3.86    0.21
  -2  -2  13   96.12    1.95
   2  -2 -13   86.79    1.96
   2   2 -13   90.68    1.84
  -2   2  13   91.97    2.05
   2   2 -13   91.66    2.00
  -2   2  13   93.89    1.72
   0  -2  13    3.32    0.30
   0  -2 -13    3.36    0.33
   0   2 -13    3.49    0.31
   0   2  13    2.74    0.31
   0   2  13    3.13    0.16
   0   2 -13    3.12    0.26
   2  -2  13    2.35    0.24
  -2  -2 -13    1.59    0.25
  -2   2 -13    1.38    0.19
   2   2  13    2.11    0.27
  -2   2 -13    1.32    0.24
   4  -2  13   29.21    0.82
  -4  -2 -13   25.18    0.81
  -4   2 -13   25.74    0.84
   4   2  13   29.08    0.92
  -4   2 -13   24.39    0.74
   6  -2  13    9.78    0.44
  -6  -2 -13    9.57    0.48
  -6   2 -13    9.61    0.45
   6   2  13    9.32    0.50
  -6   2 -13    9.86    0.51
  -8   2 -13   12.03    0.51
   8   2  13    8.06    0.48
  -8   2 -13   11.62    0.55
 -10   2 -13    5.32    0.39
  10   2  13    4.01    0.38
  11  -3 -13    1.63    0.27
  11   3 -13    2.45    0.31
 -11   3  13    1.53    0.28
   9  -3 -13    0.17    0.16
  -9   3  13    0.26    0.08
   9   3 -13    0.25    0.17
  -9   3  13    0.19    0.15
   7  -3 -13    0.34    0.18
  -7   3  13    0.51    0.18
   7   3 -13    0.64    0.20
   7   3 -13    0.69    0.14
   5  -3 -13    0.21    0.15
  -5   3  13    0.40    0.16
   5   3 -13    0.30    0.16
   5   3 -13    0.27    0.11
   3  -3 -13    2.47    0.31
  -3   3  13    2.45    0.31
   3   3 -13    2.49    0.31
   3   3 -13    2.91    0.24
  -1  -3  13    3.53    0.30
   1  -3 -13    3.27    0.34
   1   3 -13    3.38    0.26
  -1   3  13    3.87    0.34
   1   3 -13    3.66    0.37
  -1  -3 -13    2.50    0.31
   1  -3  13    2.66    0.28
  -1   3 -13    2.40    0.24
  -1   3 -13    2.49    0.30
   1   3  13    2.65    0.31
   3  -3  13    3.72    0.31
  -3  -3 -13    3.89    0.34
   3   3  13    3.71    0.35
  -3   3 -13    3.70    0.28
  -3   3 -13    3.24    0.35
   5  -3  13    4.26    0.32
  -5  -3 -13    4.27    0.36
  -5   3 -13    4.10    0.35
  -5   3 -13    4.12    0.30
   5   3  13    3.50    0.34
   7   3  13    2.69    0.35
  -7   3 -13    2.15    0.29
  -9   3 -13    2.22    0.30
   9   3  13    2.46    0.33
  10   4 -13    7.20    0.48
   8  -4 -13    9.01    0.52
  -8   4  13    9.45    0.55
   8   4 -13    9.63    0.54
   6  -4 -13    9.50    0.52
  -6   4  13   12.16    0.61
   6   4 -13   10.41    0.55
   4  -4 -13    0.28    0.17
  -4   4  13    0.81    0.22
   4   4 -13    0.47    0.19
   2  -4 -13   42.79    1.21
   2   4 -13   43.53    1.23
  -2   4  13   42.38    1.22
   0  -4 -13    0.09    0.14
   0   4  13    0.02    0.14
   0   4 -13    0.01    0.15
  -2  -4 -13    6.92    0.45
  -2   4 -13    6.98    0.46
   2   4  13    8.86    0.51
  -4  -4 -13    6.31    0.43
   4   4  13   10.06    0.55
  -4   4 -13    7.48    0.47
   6   4  13    1.27    0.26
  -6   4 -13    1.07    0.24
   5   5 -13    1.69    0.30
   3   5 -13    6.23    0.48
   1  -5 -13   14.16    0.66
   1   5 -13   13.29    0.80
  -1  -5 -13   11.26    0.58
  -3  -5 -13    3.64    0.37
 -12   0  14    2.64    0.34
  12   0 -14    2.34    0.35
  10   0 -14    3.14    0.34
 -10   0  14    5.40    0.42
   8   0 -14   23.86    0.75
   8   0 -14   23.66    0.82
   6   0 -14    5.57    0.40
  -6   0  14    6.12    0.39
   4   0 -14   10.91    0.54
  -4   0  14    7.35    0.37
  -2   0  14    8.32    0.38
   2   0 -14    7.85    0.46
   0   0 -14   20.76    0.75
   0   0  14   27.33    0.74
  -2   0 -14    2.47    0.31
   2   0  14    1.86    0.20
  -4   0 -14    7.48    0.46
  -6   0 -14   18.13    0.70
  -8   0 -14   14.96    0.63
  11  -1 -14    6.19    0.50
  11   1 -14    6.43    0.43
 -11   1  14    4.57    0.40
   9  -1 -14    1.96    0.28
   9   1 -14    1.34    0.23
  -9   1  14    1.75    0.28
  -7  -1  14    6.17    0.41
   7  -1 -14    6.75    0.44
   7   1 -14    6.48    0.43
  -7   1  14    5.65    0.41
   7   1 -14    7.22    0.38
  -5  -1  14    0.31    0.13
   5  -1 -14    0.34    0.16
   5   1 -14    0.35    0.14
  -5   1  14    0.28    0.16
  -5   1  14    0.22    0.11
   5   1 -14    0.50    0.19
  -3  -1  14    2.25    0.25
   3  -1 -14    2.82    0.33
  -3   1  14    2.17    0.20
   3   1 -14    3.19    0.36
  -3   1  14    2.02    0.28
   3   1 -14    3.17    0.28
  -1  -1  14   11.42    0.47
   1  -1 -14   11.39    0.54
   1   1 -14   10.98    0.48
  -1   1  14   11.47    0.54
  -1   1  14   11.57    0.41
   1   1 -14   11.17    0.56
   1  -1  14    5.54    0.33
  -1  -1 -14    5.32    0.39
   1   1  14    5.87    0.28
  -1   1 -14    4.68    0.38
  -3  -1 -14    0.77    0.20
   3   1  14    1.35    0.15
  -3   1 -14    0.83    0.21
  -5  -1 -14    2.97    0.33
   5   1  14    3.34    0.19
  -5   1 -14    3.04    0.33
  -7  -1 -14   14.66    0.63
  -7   1 -14   13.82    0.62
  -9   1 -14    0.17    0.17
  10   2 -14    5.16    0.41
   8  -2 -14    2.10    0.29
   8   2 -14    2.71    0.33
  -8   2  14    3.03    0.36
   6  -2 -14    0.35    0.17
  -6  -2  14    0.57    0.17
   6   2 -14    0.34    0.18
  -6   2  14    0.37    0.17
  -6   2  14    0.35    0.12
   4  -2 -14    2.26    0.29
  -4  -2  14    1.40    0.22
   4   2 -14    2.02    0.28
   4   2 -14    2.53    0.26
  -4   2  14    1.27    0.24
  -4   2  14    1.30    0.14
  -2  -2  14    0.21    0.13
   2  -2 -14    0.41    0.17
   2   2 -14    0.26    0.12
   2   2 -14    0.16    0.16
  -2   2  14    0.31    0.16
  -2   2  14    0.24    0.08
   0  -2  14    5.98    0.37
   0  -2 -14    4.33    0.35
   0   2 -14    4.17    0.36
   0   2 -14    4.36    0.31
   0   2  14    6.23    0.43
   2  -2  14    0.51    0.22
  -2  -2 -14    0.83    0.21
   2   2  14    0.54    0.19
  -2   2 -14    0.76    0.19
  -2   2 -14    0.44    0.15
  -4  -2 -14    0.98    0.23
   4   2  14    0.26    0.17
  -4   2 -14    0.76    0.20
  -4   2 -14    1.03    0.20
  -6  -2 -14    5.28    0.40
   6   2  14    3.86    0.41
  -6   2 -14    4.94    0.39
   7   3 -14   16.02    0.69
  -7   3  14   14.82    0.79
   5  -3 -14    0.28    0.17
  -5   3  14    0.17    0.16
   5   3 -14    0.24    0.17
   3  -3 -14   13.05    0.62
  -3  -3  14   11.19    0.52
   3   3 -14   13.55    0.64
  -3   3  14   11.02    0.57
   1  -3 -14   30.39    0.97
  -1  -3  14   31.27    0.90
  -1   3  14   29.41    0.98
   1   3 -14   30.99    1.00
  -1  -3 -14   13.57    0.62
   1   3  14   14.11    0.64
  -1   3 -14   13.86    0.63
  -3  -3 -14    0.93    0.23
   3   3  14    2.75    0.34
  -3   3 -14    1.31    0.29
  -5  -3 -14    3.68    0.36
   5   3  14    3.42    0.38
  -7   1  15    1.75    0.30
  -5   1  15   50.97    1.77
  -4   2  15   19.84    0.95
  -2   2  15   12.87    0.63
   0   2  15    0.98    0.23
   2   2  15   31.45    1.08
   0   0   0    0.00    0.00
;
_shelx_hkl_checksum              68813
_shelx_res_file
;
TITL AJC_Li4CdGe2S7_141_2_0m in Cc
    AJC_Li4CdGe2S7_141_2_0m.res
    created by SHELXL-2018/3 at 13:37:33 on 01-Aug-2022
CELL 0.71073  16.83540   6.78700  10.14990  90.0000  93.7102  90.0000
ZERR 4.00000 0.00100 0.00040 0.00060 0.0000 0.0029 0.0000
LATT -7
SYMM X, -Y, 0.5+Z
SFAC Cd Ge Li S
UNIT 4 8 16 28
ACTA
LIST 6 ! automatically inserted. Change 6 to 4 for CHECKCIF!!
TEMP 20.00
SIZE 0.105 0.115 0.21
L.S. 4
BOND
FMAP 2
PLAN 20
OMIT 6 8 -2
OMIT  -9 7 5
OMIT -10 6 4
OMIT -5 5 3
OMIT 6 8 -3
OMIT -12 6 4
SHEL 999 0.77
TWIN
WGHT    0.009700    0.029300
EXTI    0.001828
BASF   0.00075
FVAR       0.06055
LI1   3    0.330877    0.184226    0.501171    11.00000    0.02161    0.02543 =
         0.02091   -0.00081    0.00617   -0.00119
LI2   3    0.120695    0.327628    0.419038    11.00000    0.02803    0.02110 =
         0.02490    0.00075    0.00025   -0.00160
LI3   3    0.976448    0.329710    0.718046    11.00000    0.02148    0.02253 =
         0.01601    0.00185    0.00408   -0.00043
LI4   3    0.767446    0.161859    0.642261    11.00000    0.02617    0.02541 =
         0.02397   -0.00089   -0.00332    0.00268
CD    1    0.548486    0.363290    0.563272    11.00000    0.01709    0.01891 =
         0.01720    0.00054    0.00176    0.00053
GE1   2    0.405376    0.334941    0.842800    11.00000    0.00954    0.01114 =
         0.01056   -0.00022    0.00062   -0.00010
GE2   2    0.194650    0.176875    0.774673    11.00000    0.00921    0.01191 =
         0.01018   -0.00008    0.00025   -0.00051
S1    4    0.500892    0.294601    0.000907    11.00000    0.01241    0.01644 =
         0.01352    0.00052   -0.00199   -0.00047
S2    4    0.438947    0.168382    0.668286    11.00000    0.01601    0.01379 =
         0.01242   -0.00207    0.00316   -0.00017
S3    4    0.373986    0.358320    0.310166    11.00000    0.01795    0.01170 =
         0.01754   -0.00078    0.00180   -0.00119
S4    4    0.301513    0.169921    0.926542    11.00000    0.00982    0.01626 =
         0.01153    0.00226   -0.00024   -0.00244
S5    4    0.221205    0.333686    0.597897    11.00000    0.01728    0.02028 =
         0.01199    0.00362    0.00107   -0.00209
S6    4    0.666098    0.365066    0.734498    11.00000    0.01501    0.01235 =
         0.01708   -0.00166   -0.00128   -0.00105
S7    4    0.096145    0.326322    0.867076    11.00000    0.01296    0.01463 =
         0.01613   -0.00046    0.00352    0.00201
HKLF 4
REM  AJC_Li4CdGe2S7_141_2_0m in Cc
REM wR2 = 0.0239, GooF = S = 1.076, Restrained GooF = 1.075 for all data
REM R1 = 0.0102 for 2612 Fo > 4sig(Fo) and 0.0104 for all 2634 data
REM 129 parameters refined using 2 restraints
END
WGHT      0.0097      0.0293
REM Highest difference peak  0.269,  deepest hole -0.210,  1-sigma level  0.057
Q1    1   0.2493  0.1760  0.8390  11.00000  0.05    0.27
Q2    1   0.4556  0.2814 -0.0710  11.00000  0.05    0.24
Q3    1   0.6010  0.4081  0.6441  11.00000  0.05    0.22
Q4    1   0.4079  0.4798  0.3563  11.00000  0.05    0.21
Q5    1   0.6903  0.4995  0.7513  11.00000  0.05    0.21
Q6    1   0.4186  0.2262  0.7773  11.00000  0.05    0.20
Q7    1   0.4495  0.3219  0.7490  11.00000  0.05    0.20
Q8    1   0.1973  0.2591  0.6793  11.00000  0.05    0.20
Q9    1   0.1388  0.2052  0.8286  11.00000  0.05    0.19
Q10   1   0.5093  0.2543  0.4955  11.00000  0.05    0.19
Q11   1   0.3913  0.1427  0.5959  11.00000  0.05    0.19
Q12   1   0.3731  0.4424  0.8025  11.00000  0.05    0.19
Q13   1   0.3614  0.1814  0.7988  11.00000  0.05    0.18
Q14   1   0.5986  0.1956  0.6386  11.00000  0.05    0.18
Q15   1   0.4989  0.2724  0.6752  11.00000  0.05    0.18
Q16   1   0.2497  0.2941  0.8496  11.00000  0.05    0.18
Q17   1   0.2673  0.2025  0.6404  11.00000  0.05    0.18
Q18   1   0.4518  0.3897  0.8963  11.00000  0.05    0.18
Q19   1   0.5416  0.2334  0.0461  11.00000  0.05    0.17
Q20   1   0.5418  0.2926 -0.0617  11.00000  0.05    0.16
;
_shelx_res_checksum              43155
loop_
_space_group_symop_operation_xyz
'x, y, z'
'x, -y, z+1/2'
'x+1/2, y+1/2, z'
'x+1/2, -y+1/2, z+1/2'
loop_
_atom_site_type_symbol
_atom_site_label
_atom_site_fract_x
_atom_site_fract_y
_atom_site_fract_z
_atom_site_U_iso_or_equiv
_atom_site_adp_type
_atom_site_calc_flag
_atom_site_occupancy
_atom_site_disorder_assembly
_atom_site_disorder_group
Li Li1 0.3309(6) 0.1842(15) 0.5012(10) 0.0224(18) Uani d 1 . .
Li Li2 0.1207(8) 0.3276(14) 0.4190(13) 0.025(2) Uani d 1 . .
Li Li3 0.9764(7) 0.3297(11) 0.7180(11) 0.0199(19) Uani d 1 . .
Li Li4 0.7674(6) 0.1619(14) 0.6423(10) 0.025(2) Uani d 1 . .
Cd Cd 0.54849(2) 0.36329(3) 0.56327(4) 0.01770(6) Uani d 1 . .
Ge Ge1 0.40538(2) 0.33494(7) 0.84280(2) 0.01042(11) Uani d 1 . .
Ge Ge2 0.19465(2) 0.17688(7) 0.77467(2) 0.01045(10) Uani d 1 . .
S S1 0.50089(4) 0.29460(12) 0.00091(8) 0.01425(15) Uani d 1 . .
S S2 0.43895(5) 0.16838(12) 0.66829(7) 0.01398(16) Uani d 1 . .
S S3 0.37399(5) 0.35832(12) 0.31017(8) 0.01570(17) Uani d 1 . .
S S4 0.30151(5) 0.16992(11) 0.92654(7) 0.01258(16) Uani d 1 . .
S S5 0.22120(5) 0.33369(13) 0.59790(8) 0.01651(18) Uani d 1 . .
S S6 0.66610(5) 0.36507(11) 0.73450(8) 0.01491(16) Uani d 1 . .
S S7 0.09614(4) 0.32632(13) 0.86708(8) 0.01446(16) Uani d 1 . .
loop_
_atom_site_aniso_label
_atom_site_aniso_U_11
_atom_site_aniso_U_22
_atom_site_aniso_U_33
_atom_site_aniso_U_12
_atom_site_aniso_U_13
_atom_site_aniso_U_23
Li1 0.022(4) 0.025(4) 0.021(3) -0.001(3) 0.006(3) -0.001(3)
Li2 0.028(4) 0.021(4) 0.025(4) -0.002(3) 0.000(3) 0.001(3)
Li3 0.021(3) 0.023(4) 0.016(4) 0.000(3) 0.004(3) 0.002(3)
Li4 0.026(4) 0.025(4) 0.024(4) 0.003(3) -0.003(3) -0.001(3)
Cd 0.01709(9) 0.01891(11) 0.01720(9) 0.00053(13) 0.00176(6) 0.00054(13)
Ge1 0.00954(19) 0.0111(2) 0.01056(18) -0.00010(12) 0.00062(14) -0.00022(12)
Ge2 0.00921(18) 0.01191(19) 0.01018(18) -0.00051(13) 0.00025(13) -0.00008(13)
S1 0.0124(3) 0.0164(4) 0.0135(3) -0.0005(3) -0.0020(2) 0.0005(3)
S2 0.0160(3) 0.0138(4) 0.0124(3) -0.0002(3) 0.0032(3) -0.0021(3)
S3 0.0179(4) 0.0117(4) 0.0175(4) -0.0012(3) 0.0018(3) -0.0008(3)
S4 0.0098(3) 0.0163(4) 0.0115(3) -0.0024(3) -0.0002(3) 0.0023(3)
S5 0.0173(4) 0.0203(4) 0.0120(4) -0.0021(3) 0.0011(3) 0.0036(3)
S6 0.0150(4) 0.0124(4) 0.0171(3) -0.0010(3) -0.0013(3) -0.0017(3)
S7 0.0130(4) 0.0146(4) 0.0161(3) 0.0020(3) 0.0035(3) -0.0005(3)
loop_
_atom_type_symbol
_atom_type_description
_atom_type_scat_dispersion_real
_atom_type_scat_dispersion_imag
_atom_type_scat_source
Cd Cd -0.8075 1.2024 'International Tables Vol C Tables 4.2.6.8 and 6.1.1.4'
Ge Ge 0.1547 1.8001 'International Tables Vol C Tables 4.2.6.8 and 6.1.1.4'
Li Li -0.0003 0.0001 'International Tables Vol C Tables 4.2.6.8 and 6.1.1.4'
S S 0.1246 0.1234 'International Tables Vol C Tables 4.2.6.8 and 6.1.1.4'
loop_
_geom_angle_atom_site_label_1
_geom_angle_atom_site_label_2
_geom_angle_atom_site_label_3
_geom_angle_site_symmetry_1
_geom_angle_site_symmetry_3
_geom_angle
_geom_angle_publ_flag
S5 Li1 S2 . . 107.5(4) ?
S5 Li1 S3 . . 113.8(4) ?
S2 Li1 S3 . . 109.5(4) ?
S5 Li1 S4 . 2_554 112.5(4) ?
S2 Li1 S4 . 2_554 106.8(4) ?
S3 Li1 S4 . 2_554 106.5(4) ?
S1 Li2 S5 4_455 . 108.3(5) ?
S1 Li2 S7 4_455 2_564 106.0(5) ?
S5 Li2 S7 . 2_564 104.4(4) ?
S1 Li2 S6 4_455 4_454 113.2(4) ?
S5 Li2 S6 . 4_454 110.4(5) ?
S7 Li2 S6 2_564 4_454 114.0(5) ?
S3 Li3 S1 4 4 109.9(4) ?
S3 Li3 S2 4 3 113.8(5) ?
S1 Li3 S2 4 3 101.4(3) ?
S3 Li3 S7 4 1_655 110.0(4) ?
S1 Li3 S7 4 1_655 112.3(5) ?
S2 Li3 S7 3 1_655 109.3(4) ?
S5 Li4 S3 3_545 4 107.5(4) ?
S5 Li4 S6 3_545 . 111.9(4) ?
S3 Li4 S6 4 . 105.7(4) ?
S5 Li4 S4 3_545 4_554 110.0(4) ?
S3 Li4 S4 4 4_554 115.7(4) ?
S6 Li4 S4 . 4_554 106.1(3) ?
S1 Cd S7 2_565 4_554 112.35(3) ?
S1 Cd S6 2_565 . 112.75(3) ?
S7 Cd S6 4_554 . 105.41(3) ?
S1 Cd S2 2_565 . 110.77(3) ?
S7 Cd S2 4_554 . 109.70(2) ?
S6 Cd S2 . . 105.52(3) ?
S3 Ge1 S2 2_565 . 116.24(3) ?
S3 Ge1 S1 2_565 1_556 112.82(3) ?
S2 Ge1 S1 . 1_556 107.87(3) ?
S3 Ge1 S4 2_565 . 110.03(3) ?
S2 Ge1 S4 . . 106.82(3) ?
S1 Ge1 S4 1_556 . 101.95(3) ?
S5 Ge2 S6 . 3_445 111.99(3) ?
S5 Ge2 S7 . . 109.20(3) ?
S6 Ge2 S7 3_445 . 111.08(3) ?
S5 Ge2 S4 . . 111.93(3) ?
S6 Ge2 S4 3_445 . 104.90(3) ?
S7 Ge2 S4 . . 107.62(3) ?
Ge1 S1 Li2 1_554 4_554 112.5(3) ?
Ge1 S1 Li3 1_554 4_454 123.0(3) ?
Li2 S1 Li3 4_554 4_454 113.2(4) ?
Ge1 S1 Cd 1_554 2_564 105.78(3) ?
Li2 S1 Cd 4_554 2_564 98.4(3) ?
Li3 S1 Cd 4_454 2_564 99.34(19) ?
Ge1 S2 Li1 . . 108.8(2) ?
Ge1 S2 Li3 . 3_445 113.3(3) ?
Li1 S2 Li3 . 3_445 111.3(4) ?
Ge1 S2 Cd . . 107.38(3) ?
Li1 S2 Cd . . 102.5(2) ?
Li3 S2 Cd 3_445 . 113.0(3) ?
Ge1 S3 Li3 2_564 4_454 113.5(2) ?
Ge1 S3 Li4 2_564 4_454 109.1(2) ?
Li3 S3 Li4 4_454 4_454 102.6(4) ?
Ge1 S3 Li1 2_564 . 115.4(2) ?
Li3 S3 Li1 4_454 . 108.3(3) ?
Li4 S3 Li1 4_454 . 107.0(4) ?
Ge1 S4 Ge2 . . 109.01(3) ?
Ge1 S4 Li1 . 2 115.6(2) ?
Ge2 S4 Li1 . 2 110.3(2) ?
Ge1 S4 Li4 . 4_455 108.5(2) ?
Ge2 S4 Li4 . 4_455 110.8(2) ?
Li1 S4 Li4 2 4_455 102.4(4) ?
Ge2 S5 Li1 . . 110.0(2) ?
Ge2 S5 Li4 . 3_455 112.6(3) ?
Li1 S5 Li4 . 3_455 102.9(4) ?
Ge2 S5 Li2 . . 116.5(3) ?
Li1 S5 Li2 . . 102.1(4) ?
Li4 S5 Li2 3_455 . 111.3(3) ?
Ge2 S6 Li4 3 . 117.8(2) ?
Ge2 S6 Li2 3 4 116.6(2) ?
Li4 S6 Li2 . 4 104.7(3) ?
Ge2 S6 Cd 3 . 106.34(3) ?
Li4 S6 Cd . . 105.6(2) ?
Li2 S6 Cd 4 . 104.6(3) ?
Ge2 S7 Li2 . 2_565 114.4(3) ?
Ge2 S7 Li3 . 1_455 110.8(3) ?
Li2 S7 Li3 2_565 1_455 104.3(4) ?
Ge2 S7 Cd . 4_455 112.60(3) ?
Li2 S7 Cd 2_565 4_455 112.1(3) ?
Li3 S7 Cd 1_455 4_455 101.6(2) ?
loop_
_geom_bond_atom_site_label_1
_geom_bond_atom_site_label_2
_geom_bond_site_symmetry_2
_geom_bond_distance
_geom_bond_publ_flag
Li1 S5 . 2.374(10) ?
Li1 S2 . 2.408(10) ?
Li1 S3 . 2.421(10) ?
Li1 S4 2_554 2.559(10) ?
Li2 S1 4_455 2.380(13) ?
Li2 S5 . 2.401(13) ?
Li2 S7 2_564 2.437(10) ?
Li2 S6 4_454 2.447(12) ?
Li3 S3 4 2.385(10) ?
Li3 S1 4 2.420(12) ?
Li3 S2 3 2.428(7) ?
Li3 S7 1_655 2.440(12) ?
Li4 S5 3_545 2.393(9) ?
Li4 S3 4 2.397(10) ?
Li4 S6 . 2.428(10) ?
Li4 S4 4_554 2.567(11) ?
Cd S1 2_565 2.5235(8) ?
Cd S7 4_554 2.5441(9) ?
Cd S6 . 2.5487(10) ?
Cd S2 . 2.5576(9) ?
Ge1 S3 2_565 2.1680(8) ?
Ge1 S2 . 2.2055(9) ?
Ge1 S1 1_556 2.2141(8) ?
Ge1 S4 . 2.2862(8) ?
Ge2 S5 . 2.1577(8) ?
Ge2 S6 3_445 2.2024(10) ?
Ge2 S7 . 2.2045(8) ?
Ge2 S4 . 2.2926(9) ?

_cod_database_fobs_code 2022652
