#------------------------------------------------------------------------------
#$Date: 2020-05-14 06:47:12 +0300 (Thu, 14 May 2020) $
#$Revision: 252049 $
#$URL: file:///home/coder/svn-repositories/cod/cif/2/02/21/2022118.cif $
#------------------------------------------------------------------------------
#
# This file is available in the Crystallography Open Database (COD),
# http://www.crystallography.net/. The original data for this entry
# were provided by IUCr Journals, http://journals.iucr.org/.
#
# The file may be used within the scientific community so long as
# proper attribution is given to the journal article from which the
# data were obtained.
#
data_2022118
loop_
_publ_author_name
'Senior, Levi'
'Linden, Anthony'
_publ_section_title
;
 Halobismuth(III) salts with substituted aminopyridinium cations
;
_journal_coeditor_code           FP3085
_journal_issue                   6
_journal_name_full               'Acta Crystallographica Section C'
_journal_page_first
;
;
_journal_paper_doi               10.1107/S2053229620006130
_journal_volume                  76
_journal_year                    2020
_chemical_formula_iupac          '(C5 H7 N2) [Bi Br4]'
_chemical_formula_moiety         'C5 H7 N2 1+, Bi Br4 1-'
_chemical_formula_sum            'C5 H7 Bi Br4 N2'
_chemical_formula_weight         623.75
_chemical_name_systematic
;
<i>catena</i>-Poly[2,6-diaminopyridinium
[[<i>cis</i>-dibromidobismuth(III)]-di-\m-bromido]]
;
_space_group_crystal_system      monoclinic
_space_group_IT_number           14
_space_group_name_Hall           '-P 2ybc'
_space_group_name_H-M_alt        'P 1 21/c 1'
_atom_sites_solution_hydrogens   mixed
_atom_sites_solution_primary     dual
_atom_sites_solution_secondary   difmap
_audit_creation_method           SHELXL-2018/3
_cell_angle_alpha                90
_cell_angle_beta                 94.7149(13)
_cell_angle_gamma                90
_cell_formula_units_Z            4
_cell_length_a                   11.66220(15)
_cell_length_b                   14.08143(19)
_cell_length_c                   7.35193(9)
_cell_measurement_reflns_used    13232
_cell_measurement_temperature    160(2)
_cell_measurement_theta_max      29.3060
_cell_measurement_theta_min      3.4980
_cell_volume                     1203.25(3)
_computing_cell_refinement
;
CrysAlis PRO (Rigaku OD, 2018)
;
_computing_data_collection
;
CrysAlis PRO (Rigaku OD, 2018)
;
_computing_data_reduction
;
CrysAlis PRO (Rigaku OD, 2018)
;
_computing_molecular_graphics
;
OLEX2 (Dolomanov <i>et al.</i>, 2009) and Mercury (Macrae <i>et al.</i>,
2020)
;
_computing_publication_material
;
SHELXL2018 (Sheldrick, 2015b) and PLATON (Spek, 2015,
2020)
;
_computing_structure_refinement
;
SHELXL2018 (Sheldrick, 2015b)
;
_computing_structure_solution
;
SHELXT2018 (Sheldrick, 2015a)
;
_diffrn_ambient_temperature      160(2)
_diffrn_detector                 'CCD area detector'
_diffrn_detector_area_resol_mean 10.3801
_diffrn_measured_fraction_theta_full 0.999
_diffrn_measured_fraction_theta_max 0.933
_diffrn_measurement_device       'four-circle \k-geometry diffractometer'
_diffrn_measurement_device_type  'Oxford Diffraction SuperNova dual radiation'
_diffrn_measurement_method       '\w scans'
_diffrn_radiation_monochromator  mirror
_diffrn_radiation_probe          x-ray
_diffrn_radiation_type           'Mo K\a'
_diffrn_radiation_wavelength     0.71073
_diffrn_reflns_av_R_equivalents  0.0404
_diffrn_reflns_av_unetI/netI     0.0256
_diffrn_reflns_limit_h_max       15
_diffrn_reflns_limit_h_min       -16
_diffrn_reflns_limit_k_max       19
_diffrn_reflns_limit_k_min       -19
_diffrn_reflns_limit_l_max       9
_diffrn_reflns_limit_l_min       -10
_diffrn_reflns_number            26081
_diffrn_reflns_theta_full        25.242
_diffrn_reflns_theta_max         29.483
_diffrn_reflns_theta_min         2.893
_diffrn_source                   'micro-focus sealed X-ray tube'
_exptl_absorpt_coefficient_mu    27.891
_exptl_absorpt_correction_T_max  1.000
_exptl_absorpt_correction_T_min  0.735
_exptl_absorpt_correction_type   gaussian
_exptl_absorpt_process_details
;
(CrysAlis PRO; Rigaku OD, 2018)
;
_exptl_crystal_colour            colourless
_exptl_crystal_density_diffrn    3.443
_exptl_crystal_description       block
_exptl_crystal_F_000             1096
_exptl_crystal_size_max          0.21
_exptl_crystal_size_mid          0.08
_exptl_crystal_size_min          0.06
_refine_diff_density_max         1.256
_refine_diff_density_min         -2.215
_refine_ls_extinction_method     none
_refine_ls_goodness_of_fit_ref   1.049
_refine_ls_hydrogen_treatment    mixed
_refine_ls_matrix_type           full
_refine_ls_number_parameters     121
_refine_ls_number_reflns         3127
_refine_ls_number_restraints     0
_refine_ls_restrained_S_all      1.049
_refine_ls_R_factor_all          0.0290
_refine_ls_R_factor_gt           0.0231
_refine_ls_shift/su_max          0.001
_refine_ls_shift/su_mean         0.000
_refine_ls_structure_factor_coef Fsqd
_refine_ls_weighting_details
'w=1/[\s^2^(Fo^2^)+(0.0231P)^2^+0.9774P] where P=(Fo^2^+2Fc^2^)/3'
_refine_ls_weighting_scheme      calc
_refine_ls_wR_factor_gt          0.0473
_refine_ls_wR_factor_ref         0.0496
_reflns_number_gt                2794
_reflns_number_total             3128
_reflns_threshold_expression     'I > 2\s(I)'
_cod_data_source_file            fp3085sup1.cif
_cod_data_source_block           6
_cod_depositor_comments
;
The following automatic conversions were performed:

data item '_atom_sites_solution_hydrogens' value 'geom & difmap' was
changed to 'mixed'.

Automatic conversion script
Id: cif_fix_values 7556 2019-12-06 15:28:31Z antanas 
;
_cod_original_sg_symbol_H-M      'P 21/c'
_cod_database_code               2022118
_shelx_space_group_comment
;
The symmetry employed for this shelxl refinement is uniquely defined
by the following loop, which should always be used as a source of
symmetry information in preference to the above space-group names.
They are only intended as comments.
;
_shelx_estimated_absorpt_t_min   0.067
_shelx_estimated_absorpt_t_max   0.285
_shelx_hkl_file
;
  -2   0   0 1564.79   27.19
   2   0   0 1601.56   27.19
   2   0   0 1504.81   28.61
  -2   0   0 1548.13   27.06
  -2   0   0 1559.77   26.63
   2   0   0 1525.93   26.57
  -2   0   0 1556.14   26.26
  -2   0   0 1524.16   28.05
  -2   0   0 1540.49   28.58
   2   0   0 1615.38   26.85
  -3   0   0   58.96    3.15
   3   0   0   61.05    3.24
  -3   0   0   55.09    3.57
  -3   0   0   59.72    2.90
   3   0   0   61.17    3.43
  -3   0   0   57.43    3.92
  -3   0   0   56.32    2.99
  -3   0   0   58.97    3.42
  -3   0   0   55.80    3.27
   3   0   0   59.58    4.17
   3   0   0   55.23    3.02
   4   0   0  407.78   10.96
   4   0   0  400.77   10.80
  -4   0   0  406.68   13.11
  -4   0   0  399.66   10.93
   4   0   0  410.24   11.66
  -4   0   0  389.22   11.86
  -4   0   0  395.99   10.20
  -4   0   0  382.63   10.70
   4   0   0  403.77   13.87
  -4   0   0  407.47   11.90
  -4   0   0  405.88   11.52
  -4   0   0  406.79   11.74
   5   0   0  137.12    6.77
  -5   0   0  131.08    6.68
  -5   0   0  133.31    6.39
  -5   0   0  129.48    6.93
  -5   0   0  135.13    6.88
   5   0   0  143.22    6.43
  -5   0   0  137.09    7.83
  -5   0   0  132.06    6.79
  -5   0   0  130.41    6.17
   5   0   0  133.57    8.35
  -5   0   0  133.84    5.69
   6   0   0 1950.48   38.53
  -6   0   0 2032.86   40.51
  -6   0   0 1996.17   39.08
  -6   0   0 2005.74   43.58
  -6   0   0 1978.59   37.04
  -6   0   0 2024.93   41.04
   6   0   0 2014.10   40.36
   6   0   0 1961.47   45.97
  -6   0   0 2023.63   40.26
  -6   0   0 1891.11   41.23
  -6   0   0 1890.74   40.11
  -7   0   0 2496.59   53.95
  -7   0   0 2669.88   56.68
   7   0   0 2721.20   61.09
   7   0   0 2700.71   50.67
  -7   0   0 2631.76   53.93
  -7   0   0 2739.46   52.59
  -7   0   0 2742.21   54.19
  -7   0   0 2645.63   48.71
   7   0   0 2635.12   52.79
  -7   0   0 2732.11   52.85
  -7   0   0 2736.97   51.57
  -8   0   0 1376.20   29.50
  -8   0   0 1400.32   32.46
  -8   0   0 1416.58   33.72
  -8   0   0 1380.61   32.83
  -8   0   0 1400.81   37.06
  -8   0   0 1403.18   35.06
  -8   0   0 1365.48   35.64
   8   0   0 1394.11   31.33
  -8   0   0 1291.31   35.12
  -9   0   0  294.16   15.34
  -9   0   0  250.28   14.26
  -9   0   0  270.98   12.98
   9   0   0  264.19   11.65
  -9   0   0  270.62   12.46
  -9   0   0  277.45   14.12
  -9   0   0  279.41   12.58
  -9   0   0  288.13   15.49
  -9   0   0  264.54   10.56
 -10   0   0   11.36    3.10
 -10   0   0   14.94    3.62
  10   0   0   11.85    2.72
 -10   0   0   14.76    3.34
 -10   0   0   12.22    2.66
 -10   0   0   17.70    3.49
 -10   0   0   13.28    2.42
 -11   0   0   36.09    5.73
 -11   0   0   43.48    5.51
 -11   0   0   41.93    4.25
 -11   0   0   50.73    7.04
 -11   0   0   44.35    6.42
 -11   0   0   43.59    5.15
  11   0   0   45.60    5.01
 -12   0   0   59.96    7.83
 -12   0   0   57.85    5.06
 -12   0   0   61.20    7.87
 -12   0   0   62.89    6.93
 -13   0   0  663.16   28.35
 -13   0   0  643.99   24.96
 -14   0   0   26.47    5.15
 -14   0   0   27.13    5.86
 -15   0   0  550.10   28.30
 -15   0   0  598.67   26.05
  -2  -1   0   72.71    3.71
  -2  -1   0   70.00    3.06
  -2   1   0   69.31    4.21
  -2  -1   0   68.18    4.19
   2  -1   0   75.25    3.43
  -2   1   0   76.23    2.58
   2   1   0   77.42    4.30
  -2  -1   0   71.22    2.62
   2   1   0   74.39    2.63
  -2   1   0   74.41    3.29
   2  -1   0   67.22    3.70
   2   1   0   70.27    3.06
  -2   1   0   68.53    3.20
   2  -1   0   75.49    3.34
   3   1   0    7.27    0.95
   3  -1   0    9.30    1.45
   3  -1   0    7.99    1.31
   3   1   0    5.69    0.99
  -3   1   0    7.03    1.28
  -3  -1   0    7.28    1.29
   3  -1   0    4.05    0.96
  -3   1   0    7.25    0.96
  -3  -1   0    4.60    1.31
  -3  -1   0    6.30    1.57
   3   1   0    6.23    1.30
  -3   1   0    6.76    1.20
  -3   1   0    6.29    0.84
   3  -1   0    7.16    0.99
  -3  -1   0    5.74    1.13
  -3  -1   0    7.31    1.58
   3   1   0    5.70    1.37
   3  -1   0    9.99    1.59
  -3   1   0    6.11    1.62
  -3  -1   0   10.88    1.38
  -3  -1   0    6.86    0.94
   3   1   0    7.49    1.62
   4  -1   0    8.70    1.52
  -4  -1   0    9.09    1.92
  -4  -1   0   10.50    1.53
  -4  -1   0   12.13    1.78
   4  -1   0   12.10    2.07
  -4  -1   0   10.82    1.27
   4  -1   0   11.23    1.63
  -4  -1   0    9.65    1.22
   4  -1   0    9.98    1.33
  -4  -1   0   12.33    2.01
  -4  -1   0   12.38    2.25
  -4   1   0   10.57    1.38
  -4  -1   0   10.56    2.13
  -4   1   0   11.26    2.05
  -4   1   0   11.08    1.50
   4   1   0   10.05    1.50
   4   1   0    9.97    2.22
  -4   1   0   11.91    1.74
   4   1   0    9.70    1.76
  -4   1   0    9.77    1.69
  -4   1   0   11.09    1.56
  -5   1   0  572.60   16.83
  -5  -1   0  615.63   13.62
   5   1   0  583.70   15.06
  -5  -1   0  552.96   18.11
   5   1   0  606.10   20.79
   5  -1   0  586.01   18.19
  -5  -1   0  572.78   15.98
   5   1   0  586.16   16.80
   5  -1   0  582.28   14.04
  -5  -1   0  575.57   13.50
  -5   1   0  584.09   16.02
   5  -1   0  606.39   15.21
  -5  -1   0  573.01   16.95
   5  -1   0  570.78   15.96
  -5   1   0  609.95   18.49
  -5   1   0  578.95   15.18
  -5   1   0  588.06   14.57
  -5   1   0  593.15   15.18
  -5  -1   0  546.24   17.96
  -5  -1   0  560.86   18.70
  -5  -1   0  602.52   15.52
   6   1   0  297.62   11.67
   6  -1   0  282.82   11.21
  -6   1   0  311.49   10.21
  -6  -1   0  292.73   13.76
   6   1   0  292.00   10.48
   6  -1   0  300.16    9.64
  -6   1   0  298.43   10.71
  -6   1   0  278.32   11.98
  -6   1   0  294.04   10.69
  -6   1   0  288.52   13.24
  -6  -1   0  283.54    9.50
  -6  -1   0  281.99   13.07
  -6  -1   0  295.49   10.75
  -6  -1   0  304.46   11.50
  -6  -1   0  290.96   12.10
  -6  -1   0  293.74    9.16
   6  -1   0  291.86   13.47
  -6  -1   0  289.72   12.71
  -6   1   0  278.90   10.67
  -6   1   0  319.13   11.64
   7   1   0 1745.95   37.63
  -7   1   0 1892.35   40.21
  -7  -1   0 1866.12   37.45
  -7  -1   0 1896.33   38.91
  -7   1   0 1868.83   37.25
  -7  -1   0 1759.17   43.62
  -7  -1   0 1880.69   35.43
  -7   1   0 1916.86   40.07
  -7   1   0 1855.18   38.65
   7  -1   0 1857.50   36.64
  -7  -1   0 1867.47   44.91
  -7   1   0 1821.59   41.76
   7  -1   0 1913.68   46.14
  -7   1   0 1859.58   44.72
   7  -1   0 1831.15   39.97
  -7   1   0 1921.67   38.08
  -7   1   0 1763.16   39.23
  -7  -1   0 1806.86   41.72
   7   1   0 1874.27   39.95
  -7  -1   0 1888.15   40.12
  -7  -1   0 1927.35   42.12
  -8  -1   0  595.04   18.63
  -8  -1   0  611.34   21.14
  -8   1   0  614.53   23.51
  -8   1   0  630.01   18.90
  -8   1   0  592.46   21.01
   8  -1   0  613.45   24.79
   8  -1   0  586.51   19.55
  -8  -1   0  613.35   23.20
  -8   1   0  593.12   17.41
  -8  -1   0  604.86   19.67
  -8   1   0  581.38   19.42
   8   1   0  608.73   19.24
   8  -1   0  598.82   16.98
  -8  -1   0  597.38   15.87
  -8   1   0  596.01   19.36
  -8  -1   0  565.02   22.44
  -8  -1   0  596.45   20.55
  -8   1   0  607.04   20.06
  -8  -1   0  549.42   18.27
  -8   1   0  612.76   17.47
  -9  -1   0  154.76    9.79
  -9  -1   0  148.49   11.49
  -9  -1   0  147.23    7.15
  -9  -1   0  143.07    8.96
  -9  -1   0  140.04   11.32
  -9   1   0  149.84    8.13
   9  -1   0  159.23    8.17
  -9   1   0  163.42   12.33
  -9   1   0  146.82    8.15
  -9  -1   0  168.44   10.11
  -9   1   0  149.83    9.00
   9   1   0  146.92    9.12
  -9  -1   0  167.58   11.02
  -9  -1   0  144.32    9.83
  -9   1   0  153.87    9.58
   9  -1   0  150.22    9.69
  -9   1   0  161.76   11.01
  -9   1   0  150.24    9.87
  -9   1   0  150.26   10.10
 -10   1   0   25.29    4.66
 -10   1   0   24.25    3.52
  10   1   0   28.05    4.04
 -10  -1   0   29.10    4.47
 -10  -1   0   33.31    4.78
 -10  -1   0   26.09    4.66
 -10   1   0   27.84    5.10
 -10   1   0   27.45    3.54
 -10  -1   0   23.99    3.75
 -10   1   0   28.35    4.54
 -10   1   0   28.65    4.68
 -10   1   0   26.33    4.03
 -10  -1   0   29.15    3.27
 -10  -1   0   20.44    4.24
 -11  -1   0    0.98    1.10
 -11   1   0    0.47    0.98
 -11   1   0    0.51    1.47
 -11  -1   0    0.42    1.94
 -11   1   0    0.76    1.05
 -11   1   0    3.92    2.36
 -11  -1   0   -1.23    1.51
 -11   1   0   -3.21    2.79
 -11  -1   0   -0.22    1.64
 -11  -1   0   -1.24    2.92
 -11   1   0   -2.42    3.17
 -11  -1   0    1.79    1.45
  11   1   0    2.90    2.09
 -12   1   0  109.48   11.48
 -12   1   0   91.96    8.35
 -12  -1   0  116.41    9.82
  12   1   0   97.38    8.24
 -12  -1   0   95.83    8.60
 -12  -1   0  102.83    6.37
 -12   1   0  104.10    7.44
 -12   1   0   97.84    9.57
 -12  -1   0  105.80   10.58
 -13   1   0   64.82    8.23
 -13   1   0   66.07    7.60
 -13  -1   0   54.99    6.86
 -13  -1   0   68.71    9.32
  13   1   0   67.40    7.08
 -14  -1   0  470.76   21.81
 -14  -1   0  452.08   24.70
 -14   1   0  424.56   23.10
 -14   1   0  448.06   21.51
 -15  -1   0   13.45    3.82
 -15  -1   0   21.50    6.15
 -15   1   0   22.75    5.20
 -15   1   0   21.63    5.41
   0   2   0  173.54    8.70
   0   2   0  201.14    6.47
   0   2   0  188.04    7.74
   0  -2   0  207.71    6.53
  -1   2   0    2.26    1.09
   1   2   0    4.78    1.11
  -1  -2   0    5.43    1.26
   1  -2   0    6.83    0.93
  -1  -2   0    6.44    1.29
   1   2   0    5.85    1.66
  -1   2   0    6.09    0.92
   1  -2   0    7.28    1.10
  -1  -2   0    5.30    0.98
   1   2   0    5.20    1.08
  -1  -2   0    5.74    1.12
   1   2   0    8.21    1.17
   2  -2   0  508.88   16.05
   2  -2   0  544.66   11.50
  -2  -2   0  514.39   11.85
   2   2   0  524.47   12.34
   2   2   0  538.18   12.07
  -2  -2   0  510.15   16.40
  -2   2   0  528.16   11.28
  -2   2   0  513.91   12.48
  -2  -2   0  539.32   12.67
   2  -2   0  530.42   12.59
   2   2   0  512.96   16.22
  -2   2   0  508.76   16.90
  -2  -2   0  536.36   12.51
  -2  -2   0  515.43   13.76
   3  -2   0  319.02    9.23
  -3   2   0  280.21   12.48
  -3  -2   0  290.00   10.29
  -3  -2   0  298.63    8.24
  -3   2   0  307.72    6.33
  -3   2   0  282.06    8.43
   3  -2   0  309.94    9.45
   3   2   0  298.17    8.86
  -3   2   0  293.66    9.21
   3   2   0  308.91   10.44
   3   2   0  299.61    7.85
   3  -2   0  303.84    6.97
  -3  -2   0  302.88    9.04
   3   2   0  283.38   11.54
   3  -2   0  288.80   10.92
  -3  -2   0  273.04   12.03
  -4   2   0  438.11   10.48
  -4  -2   0  419.45   15.77
   4  -2   0  424.80   13.79
   4  -2   0  428.45   11.73
  -4  -2   0  425.12   17.27
   4   2   0  450.69   12.19
  -4  -2   0  394.30   15.77
   4   2   0  421.38   10.59
  -4   2   0  444.29   12.34
   4   2   0  447.65   14.01
  -4  -2   0  443.28   12.32
   4   2   0  417.49   15.00
  -4   2   0  441.73    9.47
  -4  -2   0  445.22   14.13
  -4   2   0  446.79   12.73
   4  -2   0  457.43   12.93
   4  -2   0  451.72   13.35
  -4  -2   0  450.65   10.77
  -4   2   0  429.64   16.62
  -5  -2   0  129.07    7.59
   5  -2   0  118.14    7.20
  -5   2   0  133.15    9.31
  -5  -2   0  142.42    7.24
  -5  -2   0  124.74    5.24
  -5   2   0  137.75    6.93
   5  -2   0  134.83    7.28
   5  -2   0  129.68    6.91
  -5  -2   0  118.19    8.54
   5   2   0  129.52    8.02
   5   2   0  124.11    5.33
  -5   2   0  132.97    5.59
   5   2   0  138.63    6.45
  -5  -2   0  121.46    8.78
  -5  -2   0  122.34    8.54
  -5  -2   0  132.94    6.52
  -5   2   0  138.71    7.00
  -5   2   0  133.61    4.89
  -6  -2   0  181.07    6.71
   6  -2   0  187.47    8.85
   6  -2   0  188.53   10.08
  -6  -2   0  162.32   10.85
  -6   2   0  194.99    6.75
   6  -2   0  170.83    8.63
  -6  -2   0  173.24    9.59
   6   2   0  175.96    8.10
  -6  -2   0  175.34    8.28
  -6  -2   0  182.88    8.95
  -6   2   0  192.90    8.98
  -6   2   0  185.22    8.32
  -6  -2   0  162.01   10.63
   6   2   0  186.04   10.07
  -6  -2   0  184.99   11.12
  -6  -2   0  185.37    6.35
  -6   2   0  178.57   11.62
  -6   2   0  200.79    7.81
  -6   2   0  177.45    8.83
  -7   2   0   15.61    2.06
   7  -2   0   17.88    2.83
   7  -2   0   14.57    2.58
  -7  -2   0   16.37    2.86
  -7   2   0   12.84    2.52
  -7  -2   0   10.14    3.11
  -7  -2   0   16.55    3.62
   7  -2   0   16.35    3.28
   7   2   0   15.17    3.08
  -7   2   0   18.48    3.88
  -7  -2   0   12.85    1.73
  -7   2   0   18.48    2.83
  -7  -2   0   19.84    3.39
  -7  -2   0   10.26    2.82
  -7  -2   0   15.63    2.60
  -7  -2   0    9.56    1.60
  -7   2   0   13.70    2.22
  -7   2   0   16.17    2.69
  -8  -2   0  136.90    9.97
  -8   2   0  133.15    7.84
  -8  -2   0  148.31    9.10
  -8   2   0  136.42    8.38
  -8   2   0  161.52   12.46
  -8  -2   0  147.19    7.24
   8   2   0  139.82    9.41
  -8  -2   0  142.78    6.46
   8  -2   0  144.32   10.92
  -8  -2   0  137.92    8.23
  -8   2   0  135.59    8.90
  -8  -2   0  136.88    9.74
  -8  -2   0  138.62   11.17
  -8  -2   0  137.70   10.97
  -8   2   0  137.73    8.64
  -8   2   0  142.83    6.73
  -8   2   0  140.97    8.27
   8  -2   0  132.53    8.63
  -9   2   0  103.21    7.56
  -9  -2   0  107.35    7.65
  -9  -2   0   99.50    8.83
  -9   2   0  110.18    8.13
   9  -2   0  112.04    8.42
  -9  -2   0   98.25    5.62
  -9  -2   0  106.73    8.27
  -9   2   0  108.32    7.63
  -9   2   0  108.16    8.36
   9   2   0  106.71    8.36
  -9  -2   0  114.86    9.42
  -9  -2   0  102.05    6.86
   9  -2   0  125.48   11.24
  -9   2   0  105.79   10.71
  -9   2   0  112.84    7.71
  -9  -2   0   91.56    9.41
  -9   2   0  114.12    8.37
  -9   2   0  105.00    6.09
   9   2   0  113.49    7.67
  -9  -2   0  103.97   10.34
 -10  -2   0   -0.19    1.80
 -10   2   0    0.45    1.44
 -10  -2   0    0.89    1.33
 -10  -2   0    1.45    1.79
 -10  -2   0   -0.21    1.31
 -10   2   0   -2.33    2.72
 -10  -2   0    5.01    2.19
  10  -2   0    0.88    1.60
 -10   2   0    0.96    1.90
 -10   2   0   -0.16    1.13
 -10   2   0    0.76    1.02
 -10  -2   0    0.78    0.73
  10   2   0   -0.56    1.54
 -10   2   0    0.86    1.37
 -10   2   0    3.06    1.37
 -11   2   0  248.17   13.52
 -11   2   0  245.72   10.56
 -11   2   0  242.67   13.68
 -11   2   0  246.92   12.36
 -11   2   0  296.31   19.83
  11  -2   0  266.70   14.84
 -11  -2   0  300.34   14.20
 -11   2   0  233.41   14.54
 -11  -2   0  246.20   15.79
 -11  -2   0  250.81   13.49
 -11  -2   0  262.97   17.95
  11   2   0  242.98   13.67
 -11  -2   0  254.17    9.96
 -12   2   0    4.79    1.97
 -12   2   0    6.95    2.99
 -12   2   0   -1.38    3.16
 -12  -2   0    7.89    3.35
  12   2   0    2.41    1.68
 -12   2   0    8.41    2.83
 -12  -2   0    9.03    4.06
 -13   2   0   40.45    6.47
 -13  -2   0   37.49    7.07
  13   2   0   34.44    5.45
 -13  -2   0   36.20    5.70
 -13   2   0   39.86    5.98
 -14   2   0  122.85   10.97
 -14  -2   0  134.58   13.44
 -14   2   0  136.67   12.57
 -14  -2   0  132.25   11.35
 -15  -2   0   37.99    7.82
 -15   2   0   28.10    5.91
 -15  -2   0   37.22    6.49
 -15   2   0   25.52    5.30
   0   3   0   -0.60    1.33
   0  -3   0    0.44    1.10
   0   3   0    1.41    0.88
   0  -3   0    0.93    0.74
   0   3   0   -1.37    1.63
   0  -3   0    0.38    0.60
  -1   3   0  117.09    8.83
  -1  -3   0  128.33    6.23
  -1  -3   0  121.54    5.66
   1  -3   0  122.77    5.74
   1   3   0  114.85    5.60
  -1  -3   0  117.30    7.78
   1   3   0  120.43    7.37
  -1   3   0  116.33    5.80
   1   3   0  104.77    6.71
   1   3   0  123.28    8.41
  -1   3   0  117.26    5.01
   1  -3   0  118.83    5.04
   2   3   0   17.91    2.42
   2   3   0   14.69    2.95
   2  -3   0   21.55    3.59
  -2  -3   0   21.34    2.70
   2  -3   0   19.92    2.27
   2   3   0   17.52    2.07
  -2   3   0   16.41    3.17
   2  -3   0   18.40    1.31
   2  -3   0   20.08    1.81
  -2  -3   0   17.09    2.42
  -2   3   0   18.41    2.19
   2   3   0   19.54    2.29
  -2   3   0   18.86    1.93
  -2  -3   0   19.23    2.27
  -2  -3   0   16.82    2.44
   3   3   0  190.59    7.52
  -3   3   0  192.23    7.69
  -3  -3   0  191.76    7.62
   3   3   0  187.04   10.77
  -3  -3   0  184.49    7.88
  -3  -3   0  190.03    8.82
   3  -3   0  189.95   10.60
   3  -3   0  185.37    4.48
  -3   3   0  181.87   11.34
   3  -3   0  187.86    7.75
  -3  -3   0  182.95    7.29
   3   3   0  186.48    7.08
  -3   3   0  184.81    6.44
  -3  -3   0  186.44   10.93
   3  -3   0  194.85    6.85
  -4   3   0  102.02    5.11
   4   3   0  113.13    5.85
   4   3   0  105.47    8.11
   4   3   0  105.92    5.01
  -4  -3   0  103.37    5.88
  -4  -3   0  110.22    8.15
  -4  -3   0  104.58    8.46
   4  -3   0  110.22    5.76
  -4  -3   0  107.29    5.65
   4  -3   0  115.15    6.24
  -4   3   0  111.43    3.34
  -4   3   0  111.07    9.15
   4   3   0  113.42    7.09
  -4  -3   0  110.74    7.08
  -4   3   0  108.99    6.04
  -4  -3   0  112.08    4.99
   4  -3   0  106.02    3.85
   4  -3   0   97.68    7.10
  -5   3   0    9.09    1.38
   5   3   0   -0.67    1.55
   5   3   0    1.73    0.97
   5  -3   0    1.73    0.98
   5  -3   0    2.93    1.36
   5   3   0    1.64    0.75
   5  -3   0    3.37    1.33
   5   3   0    3.66    1.44
  -5  -3   0    1.82    0.79
  -5   3   0    1.35    1.94
  -5  -3   0    3.33    1.30
  -5   3   0    1.37    0.84
  -5  -3   0    2.91    1.39
  -5  -3   0    1.87    0.88
  -5  -3   0    3.39    1.44
  -5   3   0    2.81    0.61
  -5  -3   0    3.45    1.63
  -5   3   0    2.73    0.99
   5  -3   0   11.64    2.40
  -6  -3   0   23.65    4.00
  -6   3   0   31.47    3.64
  -6   3   0   29.10    5.02
  -6  -3   0   32.25    2.89
  -6   3   0   29.19    3.52
  -6  -3   0   22.73    4.28
  -6  -3   0   28.77    4.66
   6  -3   0   28.61    3.73
   6  -3   0   29.71    3.90
   6   3   0   26.45    4.04
   6   3   0   31.73    3.41
   6  -3   0   30.48    3.65
  -6  -3   0   29.31    3.74
   6   3   0   30.42    2.83
  -6  -3   0   30.86    4.28
  -6   3   0   29.24    2.10
  -6   3   0   31.46    2.80
  -6  -3   0   35.30    3.71
  -7  -3   0   35.90    2.64
  -7  -3   0   30.85    5.24
  -7   3   0   34.49    3.98
  -7   3   0   42.58    4.59
  -7   3   0   40.27    3.50
  -7  -3   0   28.65    3.96
  -7   3   0   36.83    4.08
  -7  -3   0   33.75    3.96
  -7   3   0   32.18    2.49
  -7  -3   0   35.39    5.34
   7  -3   0   30.60    3.79
  -7   3   0   32.26    5.50
   7  -3   0   31.14    4.33
   7   3   0   32.81    4.93
  -7  -3   0   32.01    4.51
   7   3   0   38.13    3.22
  -7  -3   0   37.31    3.21
  -7  -3   0   36.81    5.58
   7  -3   0   46.05    4.95
  -8   3   0   80.84    5.54
  -8  -3   0   94.71    6.88
  -8  -3   0   74.10    8.39
  -8  -3   0   77.76    7.69
  -8  -3   0   79.10    6.91
  -8  -3   0   74.58    8.74
  -8  -3   0   75.79    4.43
  -8   3   0   91.52    6.86
  -8   3   0   71.49    8.84
   8   3   0   76.63    6.01
  -8   3   0   75.00    6.44
   8  -3   0   75.62    7.49
   8   3   0   73.14    7.39
  -8   3   0   83.01    4.42
  -8  -3   0   82.98    8.46
  -8  -3   0   78.21    4.90
   8  -3   0   84.05    6.92
  -8   3   0   83.26    6.51
  -9  -3   0    0.95    1.85
  -9   3   0    2.59    0.91
  -9  -3   0    3.85    1.66
   9  -3   0    0.48    1.90
  -9  -3   0    3.20    1.11
   9   3   0    6.78    2.80
   9  -3   0    4.67    2.06
  -9   3   0    4.07    1.94
  -9   3   0    3.79    3.22
  -9   3   0    6.47    1.89
  -9  -3   0    7.76    2.81
   9   3   0    5.08    1.72
  -9   3   0    6.98    2.38
  -9  -3   0    5.41    2.33
  -9   3   0    6.51    2.39
  -9  -3   0    8.82    2.08
  -9  -3   0    2.65    1.78
 -10  -3   0   55.85    7.38
 -10   3   0   51.72    8.68
 -10   3   0   44.40    5.72
 -10  -3   0   48.62    5.69
 -10  -3   0   56.09    4.83
  10  -3   0   50.24    6.11
 -10   3   0   52.86    6.17
  10   3   0   51.01    6.28
 -10   3   0   46.03    3.76
 -10   3   0   55.33    6.15
  10   3   0   49.28    5.49
  10  -3   0   54.68    7.87
 -10  -3   0   56.98    8.35
 -10   3   0   48.64    5.18
 -10   3   0   46.51    5.61
 -10  -3   0   43.93    3.94
  11  -3   0   15.81    3.92
 -11   3   0   11.26    4.44
 -11   3   0   17.78    4.04
 -11  -3   0   15.03    2.36
 -11   3   0   14.03    2.71
 -11  -3   0   15.22    2.56
 -11   3   0   14.24    3.56
  11   3   0   15.03    3.60
 -11  -3   0    6.17    3.10
 -11   3   0   15.57    2.20
 -11   3   0    9.03    2.78
 -11  -3   0    9.16    2.88
 -11  -3   0   19.42    4.62
 -11   3   0   13.51    3.15
 -12   3   0   -4.30    3.94
 -12  -3   0    1.43    2.13
 -12   3   0    0.05    1.95
  12  -3   0   -0.02    1.88
 -12   3   0   -0.36    1.34
 -12  -3   0    0.66    2.37
  12   3   0    3.13    2.32
 -12   3   0    0.76    1.63
 -13  -3   0    0.53    1.82
 -13   3   0    6.08    4.33
 -13  -3   0    1.48    3.05
  13   3   0    0.15    2.40
 -13   3   0    2.17    2.32
 -13   3   0    0.11    1.95
 -14  -3   0   22.68    5.02
 -14  -3   0   19.94    5.71
 -14   3   0   24.06    5.54
 -14   3   0   24.69    4.76
 -15   3   0   13.52    4.14
 -15  -3   0   17.70    4.26
 -15  -3   0   17.02    5.32
 -15   3   0   13.17    4.19
   0  -4   0  312.73   11.11
   0  -4   0  298.04   11.28
   0  -4   0  284.14   12.23
   0   4   0  297.53   15.22
   0  -4   0  310.54   16.90
   0   4   0  294.60   10.87
   0   4   0  314.81   14.20
   1  -4   0   48.40    4.05
   1   4   0   46.14    4.04
  -1  -4   0   43.62    5.58
   1   4   0   47.07    5.12
  -1   4   0   38.03    5.53
  -1  -4   0   40.62    3.89
   1   4   0   37.10    4.76
  -1   4   0   43.03    4.36
  -1  -4   0   44.93    3.93
  -1   4   0   44.06    3.48
  -1   4   0   49.61    4.04
   1   4   0   40.37    5.40
   1  -4   0   42.41    3.50
   1   4   0   42.90    4.17
   2   4   0  292.16   10.65
  -2  -4   0  278.19   13.03
   2  -4   0  307.27   10.78
  -2   4   0  298.35    9.51
  -2  -4   0  307.38   10.73
  -2   4   0  302.34   16.68
  -2   4   0  296.11   10.73
   2   4   0  295.25   11.89
  -2   4   0  293.36   10.27
   2   4   0  295.15   15.70
   2   4   0  311.08   12.76
  -2  -4   0  289.61   11.61
   3  -4   0  244.53    8.24
   3  -4   0  246.79   14.32
   3   4   0  243.92    9.20
  -3  -4   0  251.58   14.18
   3   4   0  233.13   13.86
  -3  -4   0  221.52   10.84
   3  -4   0  235.96    9.64
  -3  -4   0  252.69   10.78
  -3   4   0  240.27    9.59
   3   4   0  247.35    9.96
  -3  -4   0  243.37    9.72
   3  -4   0  257.46    6.14
   3   4   0  258.46    9.91
  -3   4   0  235.62   14.68
  -3  -4   0  240.78   10.97
  -3   4   0  232.09    8.60
   4  -4   0  337.48   16.08
  -4  -4   0  332.10   12.69
   4  -4   0  344.71   10.89
   4  -4   0  341.53    7.36
   4  -4   0  324.20   12.19
   4   4   0  324.00   16.49
  -4   4   0  333.54   18.27
  -4  -4   0  339.33   11.69
   4   4   0  345.70   11.10
  -4   4   0  335.38   12.07
  -4  -4   0  347.81   12.12
  -4  -4   0  323.42   13.58
   4   4   0  334.72   11.74
  -4   4   0  318.96   10.15
  -4  -4   0  336.55   17.19
   5  -4   0   64.38    3.22
   5   4   0   73.19    7.61
  -5  -4   0   52.56    5.59
   5  -4   0   65.92    4.93
   5   4   0   64.06    4.34
  -5   4   0   76.05    5.60
   5   4   0   79.04    5.51
  -5  -4   0   66.18    5.09
  -5  -4   0   64.71    4.45
  -5   4   0   65.49    4.43
   5  -4   0   69.49    5.55
  -5  -4   0   63.13    5.11
  -5  -4   0   67.47    7.71
   5  -4   0   61.69    6.40
  -5   4   0   57.72    7.54
  -5   4   0   67.28    2.63
   6   4   0  316.70   12.29
  -6  -4   0  335.78   11.95
   6   4   0  310.07   10.38
  -6  -4   0  319.74   18.19
  -6   4   0  325.90   19.40
   6   4   0  329.98   14.67
  -6   4   0  315.42    7.47
   6  -4   0  325.60   15.08
   6  -4   0  320.01   12.88
  -6   4   0  317.29    9.70
  -6  -4   0  341.47   18.63
  -6  -4   0  316.47   10.38
  -6  -4   0  316.60   14.65
  -6   4   0  308.93   12.68
  -6  -4   0  310.51   12.36
   6  -4   0  314.50   13.09
  -6  -4   0  310.31   16.55
   6   4   0  327.68   16.69
  -6   4   0  297.99   11.25
  -7  -4   0    0.10    1.03
   7   4   0    1.51    1.78
  -7  -4   0    0.72    1.14
  -7  -4   0    2.60    2.12
  -7  -4   0    3.23    1.40
  -7  -4   0    1.18    0.84
  -7  -4   0   -0.45    1.89
   7   4   0    0.41    0.59
  -7  -4   0   -1.04    2.17
   7  -4   0    0.55    1.31
  -7  -4   0   -0.80    1.65
  -7   4   0    0.01    1.01
  -7   4   0   -0.96    3.50
  -7   4   0   -0.79    0.99
  -7   4   0    1.53    0.70
  -7   4   0    1.65    0.62
   7  -4   0    1.51    1.59
  -8  -4   0   97.50    8.89
  -8   4   0   93.38    6.90
  -8  -4   0  103.61   10.01
  -8  -4   0   93.65    6.03
  -8  -4   0  100.78    4.66
   8   4   0   99.91    5.68
   8   4   0  110.82    7.52
  -8   4   0   99.95    7.38
  -8   4   0  106.50   11.91
   8  -4   0   95.70    8.38
  -8  -4   0  106.28   11.33
  -8  -4   0  101.35   10.10
  -8   4   0  108.82    4.46
   8   4   0   97.53    9.24
   8  -4   0  101.37    7.93
  -8   4   0  107.72    8.04
   8  -4   0  109.84    8.55
  -8   4   0   98.80    5.91
  -8  -4   0  104.62    7.64
  -8  -4   0  101.07    5.34
  -8  -4   0  110.13    8.35
  -9   4   0   58.19    5.94
  -9   4   0   82.14   10.97
  -9  -4   0   56.44    7.69
  -9   4   0   57.68    6.11
  -9  -4   0   58.48    3.93
   9  -4   0   47.18    6.56
  -9  -4   0   62.59    8.97
  -9   4   0   51.95    5.49
  -9  -4   0   63.74    7.67
  -9   4   0   56.62    4.76
  -9   4   0   68.65    3.76
   9   4   0   59.59    5.80
  -9  -4   0   58.57    6.07
   9  -4   0   62.43    6.61
  -9  -4   0   55.57    3.59
   9  -4   0   59.34    6.38
   9   4   0   59.51    7.38
  -9  -4   0   53.83    4.58
 -10   4   0    4.20    2.30
  10   4   0    1.61    2.52
 -10  -4   0    2.54    1.87
 -10   4   0    2.18    1.51
 -10   4   0    0.60    0.76
 -10  -4   0    1.44    0.95
  10  -4   0   -1.60    3.09
 -10  -4   0    0.90    1.23
 -10  -4   0   -1.58    1.93
  10  -4   0   -1.10    1.82
 -10  -4   0    0.97    0.65
 -10   4   0   -0.35    2.53
 -10  -4   0    0.98    1.96
 -10   4   0    0.96    1.40
 -11  -4   0  147.02   10.59
 -11  -4   0  152.10    7.91
 -11   4   0  147.92   10.60
 -11   4   0  142.35   10.47
 -11  -4   0  190.19    7.27
  11   4   0  154.52   12.20
 -11   4   0  182.76   17.36
 -11   4   0  151.92   10.76
 -11   4   0  156.73   11.32
 -11  -4   0  147.51   12.89
  11  -4   0  143.63   11.21
 -12  -4   0    9.68    3.58
  12  -4   0   17.73    4.21
 -12  -4   0   14.05    3.65
 -12   4   0   14.66    3.61
 -12   4   0   14.51    3.92
  12   4   0   13.67    3.98
 -12   4   0    9.05    4.03
 -12   4   0   13.44    3.49
 -13   4   0   76.91    8.02
 -13   4   0   81.33   11.96
 -13  -4   0   71.35    9.91
 -13   4   0   69.17    7.96
  13   4   0   61.47    8.22
 -13   4   0   81.17    8.72
  13  -4   0   67.35    8.37
 -13  -4   0   68.31    8.07
 -14   4   0   94.08    9.88
 -14  -4   0   91.35   11.57
 -14  -4   0   93.02    9.67
  14   4   0  102.32   10.59
 -14   4   0   88.76    9.65
 -15  -4   0   25.36    6.69
 -15  -4   0   29.11    6.10
 -15   4   0   30.91    6.52
   0   5   0    7.08    2.04
   0  -5   0    4.92    1.75
   0   5   0   -1.35    2.22
   0  -5   0    0.49    1.07
   0   5   0    0.83    0.79
   0  -5   0    0.87    1.96
   0   5   0   -2.20    2.50
   0  -5   0    1.45    1.28
   1   5   0 1155.34   34.58
  -1   5   0 1240.92   31.80
  -1   5   0 1209.88   27.31
  -1  -5   0 1188.94   29.14
   1  -5   0 1165.21   28.83
  -1  -5   0 1235.37   38.45
  -1   5   0 1177.42   38.24
   1   5   0 1163.18   28.49
   1  -5   0 1187.80   27.15
   1   5   0 1077.73   33.09
   1   5   0 1189.22   29.57
  -1  -5   0 1243.07   34.14
   1   5   0 1340.41   38.13
  -2   5   0   13.67    2.76
   2  -5   0   12.63    2.18
   2   5   0    9.60    2.16
  -2   5   0   13.42    4.10
   2   5   0    8.07    2.29
  -2  -5   0   10.90    2.89
   2   5   0   10.19    3.02
   2   5   0    7.06    2.22
  -2  -5   0   13.86    2.42
  -2   5   0    7.91    1.84
  -2   5   0   10.76    1.95
   2   5   0   16.39    2.76
   2  -5   0    9.12    1.93
  -2  -5   0    9.99    2.32
  -3  -5   0 1114.67   29.44
  -3   5   0 1103.06   38.12
  -3   5   0 1130.16   25.08
   3   5   0 1137.12   29.37
  -3  -5   0 1146.41   31.62
   3   5   0 1138.81   27.99
  -3   5   0 1121.76   27.14
   3  -5   0 1162.88   24.18
   3   5   0 1091.22   27.00
  -3  -5   0 1122.70   27.25
   3  -5   0 1128.10   21.32
   3  -5   0 1089.44   26.99
   3   5   0 1104.82   36.27
  -4   5   0  234.66   10.59
   4  -5   0  222.65   10.47
  -4  -5   0  214.29   11.63
   4  -5   0  232.81    8.81
  -4  -5   0  213.48   11.63
  -4  -5   0  230.81   11.49
   4   5   0  230.70   15.02
  -4   5   0  235.62   16.77
  -4  -5   0  235.06   15.23
   4   5   0  225.10   10.13
   4   5   0  236.13   10.51
   4  -5   0  254.45   15.49
   4  -5   0  226.51    5.89
  -4   5   0  234.89    9.31
  -4  -5   0  233.15   10.55
   5  -5   0  479.16   14.85
  -5   5   0  498.84   25.26
   5   5   0  463.03   15.91
   5   5   0  475.84   14.88
  -5  -5   0  482.43   16.36
   5   5   0  447.21   21.73
   5  -5   0  485.36   10.02
  -5  -5   0  474.66   18.57
  -5  -5   0  494.53   16.49
  -5  -5   0  452.21   17.18
  -5   5   0  466.72   16.18
  -5  -5   0  494.42   23.16
   5  -5   0  459.97   16.35
   6   5   0  120.87    9.33
  -6  -5   0  130.09    8.32
  -6  -5   0  122.14    8.03
  -6   5   0  144.93   13.70
  -6  -5   0  139.30   12.26
   6   5   0  119.99   10.91
  -6  -5   0  141.51    7.65
  -6  -5   0  124.13    9.49
   6  -5   0  115.45    7.96
  -6   5   0  127.68    8.18
  -6   5   0  127.71    6.84
   6   5   0  128.72    6.79
  -6   5   0  123.90    5.97
  -6  -5   0  133.59   12.41
   6  -5   0  140.24    8.15
  -7  -5   0  732.57   25.99
  -7   5   0  742.84   17.92
  -7  -5   0  768.95   31.17
  -7   5   0  740.60   20.44
   7  -5   0  766.03   26.93
  -7  -5   0  745.10   19.96
  -7  -5   0  786.13   23.16
  -7   5   0  764.18   23.30
  -7  -5   0  803.12   32.51
  -7  -5   0  738.54   22.04
   7   5   0  735.62   19.26
   7   5   0  772.38   26.13
  -7   5   0  805.79   35.23
  -7  -5   0  687.29   28.38
   7  -5   0  759.61   23.67
   7  -5   0  744.52   22.94
   7   5   0  694.55   28.25
   7   5   0  750.92   22.42
   8  -5   0  160.44   11.37
   8  -5   0  152.96   10.31
  -8  -5   0  148.72   10.15
   8   5   0  152.99   12.50
   8   5   0  143.91    9.06
  -8   5   0  152.32    7.09
  -8   5   0  150.04    9.86
  -8  -5   0  153.32    9.68
  -8  -5   0  168.40   13.90
  -8  -5   0  151.67   11.43
   8  -5   0  146.30    9.96
   8   5   0  153.73    7.48
  -8  -5   0  150.93   13.97
  -8  -5   0  160.03    7.68
  -8   5   0  166.66   16.32
  -8   5   0  155.10    8.75
  -8  -5   0  142.71    8.49
  -9  -5   0  326.75   15.09
   9  -5   0  344.06   17.05
  -9   5   0  351.24   24.09
  -9  -5   0  304.62    8.85
  -9   5   0  309.17   14.45
   9   5   0  327.80   18.94
  -9   5   0  314.07    7.72
  -9  -5   0  311.28   17.45
  -9   5   0  328.20   11.62
   9   5   0  299.60   14.18
  -9  -5   0  317.78   13.19
   9  -5   0  323.53   16.92
   9   5   0  299.87   11.13
   9  -5   0  311.70   15.61
  -9  -5   0  314.39   10.85
  -9   5   0  294.47   13.34
  -9  -5   0  330.63   21.65
  10  -5   0  520.28   21.52
 -10  -5   0  512.97   24.13
 -10   5   0  515.10   11.37
 -10  -5   0  501.92   17.23
 -10  -5   0  524.31   20.75
 -10  -5   0  533.54   12.66
 -10   5   0  487.87   18.94
  10   5   0  552.00   25.51
 -10  -5   0  566.73   14.09
 -10   5   0  582.98   32.26
  10  -5   0  526.73   24.75
 -10   5   0  503.46   16.09
 -10   5   0  509.33   20.23
  10  -5   0  515.75   21.63
 -11  -5   0    2.49    1.12
 -11  -5   0    6.96    3.13
 -11   5   0    3.24    2.24
  11   5   0    3.85    3.20
 -11   5   0    4.54    2.42
 -11   5   0    0.67    3.13
  11  -5   0    1.65    1.74
  11  -5   0    4.13    2.24
 -11  -5   0    6.55    3.47
 -12  -5   0  226.86   14.50
 -12   5   0  241.22   14.16
  12  -5   0  216.25   14.79
 -12  -5   0  218.64   16.96
  12   5   0  229.33   16.44
 -12   5   0  221.44   14.16
 -12   5   0  242.66   15.24
 -12   5   0  252.02   21.64
  13   5   0   59.00    8.40
  13  -5   0   63.42    8.22
 -13  -5   0   64.65    8.02
 -13  -5   0   62.39    9.65
 -13   5   0   66.26    7.90
 -13   5   0   56.72    7.24
 -13   5   0   67.16    7.87
 -13   5   0   78.55   12.10
  14   5   0  133.11   13.00
 -14  -5   0  127.60   11.89
 -14   5   0  119.20   11.01
 -14   5   0  139.66   12.26
 -14  -5   0  136.74   14.62
  14  -5   0  113.60   12.33
 -15   5   0   84.42   10.17
   0  -6   0 4309.68   82.09
   0  -6   0 4471.45   85.50
   0  -6   0 4225.48   80.46
   0   6   0 4218.06   80.71
   0   6   0 4316.23   93.43
   1   6   0   11.35    2.37
   1  -6   0    9.35    2.57
   1   6   0   14.96    3.06
  -1  -6   0    9.84    2.56
  -1   6   0    9.30    3.52
  -1  -6   0   10.90    3.52
   1   6   0   12.31    3.17
   1   6   0   12.51    3.51
   1   6   0   13.21    4.08
  -1   6   0   10.75    2.86
  -1   6   0   10.42    2.21
   1  -6   0   12.67    2.51
   2   6   0  864.22   24.22
  -2  -6   0  867.68   24.05
   2   6   0  855.54   32.80
   2   6   0  805.77   27.00
   2  -6   0  832.34   24.00
  -2  -6   0  818.04   24.68
  -2   6   0  757.27   32.23
  -2   6   0  813.69   24.89
  -2   6   0  776.22   22.94
   2   6   0  817.93   28.25
  -2  -6   0  910.43   32.67
   2  -6   0  806.78   21.65
  -2   6   0  802.48   21.42
  -3   6   0    4.26    1.34
   3  -6   0    5.36    1.43
  -3   6   0    3.71    2.85
   3  -6   0    4.25    1.62
  -3  -6   0    6.54    1.79
   3   6   0   10.78    3.00
  -3  -6   0   -0.34    2.23
  -3  -6   0    3.59    1.65
  -3   6   0    3.07    1.53
   3   6   0    3.85    2.25
   3   6   0    2.41    1.16
  -3   6   0    5.22    1.99
   3   6   0    4.53    1.74
   4   6   0   14.15    2.78
  -4  -6   0   16.54    3.05
   4  -6   0   17.00    1.63
   4   6   0   15.19    2.97
   4  -6   0   11.56    2.05
  -4   6   0   12.76    2.71
  -4   6   0   14.39    2.69
   4   6   0   14.62    2.97
  -4   6   0   12.39    2.20
   4   6   0    8.57    3.23
  -4  -6   0   12.67    3.10
   4  -6   0   14.48    3.02
  -4   6   0   13.76    4.68
  -4  -6   0   13.77    3.42
   5   6   0  362.68   14.22
  -5  -6   0  378.20   15.28
   5  -6   0  381.72   15.37
  -5   6   0  382.24   13.51
  -5   6   0  412.29   24.20
   5  -6   0  362.13   20.58
  -5  -6   0  371.02   17.07
   5  -6   0  371.18    8.43
  -5   6   0  390.99   15.39
  -5  -6   0  421.19   17.34
   5   6   0  395.70   21.69
   5  -6   0  389.31   13.16
  -5  -6   0  398.71   21.68
   6  -6   0  787.74   24.44
   6  -6   0  793.04   30.24
   6  -6   0  798.44   22.32
   6   6   0  772.08   31.83
  -6  -6   0  858.15   33.88
  -6  -6   0  746.83   29.64
   6   6   0  797.14   27.58
   6   6   0  784.89   21.79
  -6  -6   0  887.97   35.48
  -6   6   0  872.62   37.45
  -6  -6   0  801.50   24.29
  -6   6   0  802.13   24.29
  -6  -6   0  802.94   27.45
  -6  -6   0  845.79   25.10
   7  -6   0  652.75   21.12
   7   6   0  641.89   18.93
   7   6   0  662.28   21.66
   7   6   0  629.74   28.36
  -7  -6   0  674.11   22.79
  -7   6   0  634.97   16.98
   7  -6   0  662.98   22.68
  -7  -6   0  709.36   31.27
  -7  -6   0  635.58   24.92
  -7   6   0  651.28   22.13
  -7  -6   0  724.03   21.64
   7  -6   0  660.78   26.74
  -7  -6   0  697.50   31.13
  -7   6   0  696.86   34.03
  -7  -6   0  652.73   22.07
  -8  -6   0 1327.84   39.90
   8  -6   0 1353.22   40.67
  -8   6   0 1287.06   31.35
  -8  -6   0 1393.46   35.28
   8   6   0 1331.81   34.66
   8   6   0 1345.56   44.01
  -8   6   0 1469.63   52.71
  -8   6   0 1330.52   35.52
   8   6   0 1326.36   30.09
  -8   6   0 1274.70   27.97
   8  -6   0 1292.67   35.09
  -8  -6   0 1419.00   32.70
  -8  -6   0 1302.02   34.93
   8  -6   0 1313.26   36.21
  -9  -6   0  112.70   10.54
   9  -6   0  112.26    9.45
   9   6   0  114.52   11.79
  -9   6   0  118.69    6.45
   9   6   0  121.60    9.08
  -9   6   0  111.08    7.83
  -9   6   0  128.31   15.13
   9   6   0  113.09    6.75
   9  -6   0  114.58    9.61
  -9  -6   0  129.45    9.60
  -9  -6   0  131.81    7.58
  10   6   0   39.01    7.15
 -10   6   0   36.44    5.17
 -10   6   0   36.58    3.62
 -10  -6   0   46.45    3.57
  10  -6   0   44.08    6.53
  10  -6   0   40.43    6.04
 -10  -6   0   31.96    2.15
 -10   6   0   34.13    4.46
 -10  -6   0   42.20    6.88
 -10  -6   0   32.41    4.79
 -10   6   0   33.96    8.10
 -11  -6   0    9.54    3.04
  11  -6   0    4.71    2.72
 -11   6   0    3.19    1.75
 -11   6   0   12.87    5.80
  11   6   0    4.85    3.17
 -11  -6   0    9.99    3.65
  11  -6   0   11.68    4.34
 -12  -6   0    0.52    2.29
 -12   6   0   -1.55    1.78
 -12   6   0   -1.19    2.86
 -12  -6   0   -2.00    2.27
 -12   6   0    0.47    1.89
 -12   6   0    5.26    2.97
  12  -6   0   -1.37    2.80
  12   6   0    0.92    2.11
 -13  -6   0  295.24   20.91
 -13  -6   0  276.12   16.93
  13   6   0  282.85   19.94
 -13   6   0  272.24   16.83
  13  -6   0  276.44   17.95
 -13   6   0  272.95   15.88
 -13   6   0  275.27   17.38
 -14  -6   0  101.05   12.97
  14  -6   0   81.78   10.28
 -14   6   0   84.76    9.78
  14   6   0   78.80   10.53
 -14  -6   0   80.77    9.43
 -15   6   0  445.51   23.83
  15  -6   0  391.66   23.55
   0   7   0   -0.01    1.17
   0   7   0    0.38    2.49
   0  -7   0    2.38    2.00
   0  -7   0    0.79    1.21
   0  -7   0    1.34    1.53
   0   7   0   -2.01    2.35
   0  -7   0    1.94    2.36
   1   7   0 2936.47   71.68
  -1   7   0 3071.78   61.58
   1   7   0 3373.74   77.73
   1  -7   0 3124.30   61.83
  -1   7   0 3181.57   78.01
   1   7   0 3056.53   64.67
   1   7   0 3058.71   63.55
   1   7   0 3157.18   74.25
   1  -7   0 3096.67   64.56
  -1   7   0 3401.92   71.94
  -1  -7   0 2877.47   63.21
   2   7   0    3.24    1.83
   2  -7   0    3.75    1.61
   2   7   0    1.30    0.94
  -2   7   0    2.85    2.36
   2   7   0    5.12    2.90
  -2  -7   0    6.23    2.86
   2  -7   0    4.48    1.77
  -2   7   0    2.03    1.86
   2   7   0   -0.10    2.13
  -2  -7   0    3.01    2.06
  -2   7   0    3.41    1.24
  -3   7   0  109.50    7.86
  -3   7   0   72.24    5.75
  -3  -7   0   85.32    9.65
   3   7   0   73.45    9.80
   3   7   0   77.84    7.69
   3  -7   0   73.75    6.68
  -3   7   0   71.26   10.11
  -3  -7   0   77.90    6.84
  -3   7   0   68.52    6.55
   3   7   0   85.94    8.44
  -3  -7   0   66.15    6.96
  -4   7   0   86.86    7.23
  -4   7   0   83.21   11.07
  -4  -7   0   88.72    7.25
   4  -7   0   94.70    4.68
  -4   7   0   88.02    6.34
   4   7   0  101.72    8.49
   4  -7   0  100.32   11.57
  -4  -7   0  101.41    9.89
  -4   7   0   89.49    7.02
  -4  -7   0   87.13    7.93
   4   7   0   92.94    7.66
   4  -7   0   88.70    5.96
   4   7   0   83.24   10.51
   4  -7   0   89.77    7.39
  -5  -7   0  189.28   12.59
  -5  -7   0  224.44   16.55
  -5   7   0  201.21   17.52
  -5  -7   0  239.08   14.40
  -5   7   0  194.79    9.75
   5  -7   0  204.02    9.29
  -5  -7   0  195.20   11.21
  -5   7   0  201.68   10.07
   5   7   0  205.31   16.53
   5   7   0  191.30   11.01
  -5  -7   0  176.76   13.71
  -5   7   0  206.25   11.60
   5  -7   0  183.61   11.01
   5  -7   0  196.27   15.71
   5  -7   0  189.60    5.87
  -6  -7   0  512.86   24.94
  -6   7   0  538.69   17.23
  -6  -7   0  585.56   28.59
   6   7   0  543.62   19.71
  -6  -7   0  623.54   23.64
  -6  -7   0  547.53   20.34
   6  -7   0  582.52   27.07
   6  -7   0  540.29   20.49
   6   7   0  559.74   18.87
  -6   7   0  530.97   17.75
   6  -7   0  562.04   17.74
  -6  -7   0  526.25   22.70
  -6   7   0  559.68   31.01
  -6  -7   0  561.15   29.16
  -6   7   0  559.95   20.43
   6   7   0  571.41   23.74
   6   7   0  547.70   28.00
  -7   7   0 1632.46   37.83
  -7  -7   0 1714.55   41.83
   7   7   0 1587.31   37.24
  -7  -7   0 1687.63   46.13
   7   7   0 1675.05   53.11
   7  -7   0 1510.43   41.15
  -7  -7   0 1900.83   44.31
   7   7   0 1616.26   40.37
   7  -7   0 1650.16   38.54
   7  -7   0 1709.25   50.07
  -7   7   0 1747.05   59.45
  -7   7   0 1638.54   41.48
  -8   7   0  972.66   23.46
  -8  -7   0  987.96   34.54
   8   7   0 1005.99   39.72
   8   7   0 1015.75   26.34
   8  -7   0 1030.32   29.78
   8  -7   0  994.30   31.30
  -8  -7   0 1017.05   30.84
   8   7   0  953.65   29.51
   9  -7   0  121.02   10.02
   9   7   0  122.03    7.51
  -9   7   0  122.05    6.61
   9  -7   0  125.54    9.80
   9   7   0  123.88   13.21
  -9   7   0  155.38   17.18
  -9  -7   0  161.05    9.43
  -9  -7   0  122.53   11.66
  -9  -7   0  125.01    9.88
  10  -7   0    5.29    2.61
 -10  -7   0    0.57    1.54
  10   7   0    4.43    3.74
 -10   7   0    2.28    2.91
  10  -7   0    0.19    1.65
 -10  -7   0    4.05    3.71
  11  -7   0   -1.33    3.07
 -11   7   0    0.36    3.12
 -11  -7   0   -0.58    2.30
 -11  -7   0    1.82    2.67
 -11   7   0    0.17    1.75
  11   7   0    1.10    2.32
  11  -7   0    1.06    2.15
 -12  -7   0   44.03    6.56
 -12  -7   0   49.12    8.22
 -12   7   0   44.14    9.29
  12   7   0   33.07    7.34
  12  -7   0   35.52    6.47
 -12   7   0   38.27    5.93
 -13   7   0   32.73    6.17
 -13   7   0   29.58    5.64
 -13  -7   0   25.01    5.34
 -13   7   0   45.14   10.39
  13   7   0   29.95    7.21
 -13   7   0   26.66    4.94
 -13  -7   0   25.85    6.52
  13  -7   0   30.30    5.96
  14  -7   0  499.94   26.21
  14   7   0  519.15   29.19
 -14   7   0  536.91   25.72
 -14  -7   0  518.44   25.21
   0   8   0 1184.86   42.61
   0  -8   0 1162.08   33.05
   0   8   0 1221.20   33.65
   0  -8   0 1170.49   34.55
   0   8   0 1251.69   43.83
   1   8   0  275.72   19.26
  -1   8   0  267.60   19.23
   1  -8   0  285.60   22.00
   1  -8   0  251.21   12.76
   1   8   0  270.15   18.24
   1   8   0  263.92   14.26
  -1   8   0  260.41   16.68
  -1  -8   0  310.06   21.78
   1  -8   0  243.83   13.95
   1   8   0  238.97   16.77
  -1   8   0  255.43   12.79
  -1  -8   0  252.64   13.81
  -2   8   0   28.41    4.13
   2   8   0   24.62    5.27
   2   8   0   21.27    4.82
  -2  -8   0   29.88    6.51
   2  -8   0   22.16    3.64
  -2  -8   0   25.05    4.39
   2  -8   0   23.51    4.36
  -2   8   0   24.74    4.76
   2   8   0   21.29    4.15
   2   8   0   27.50    6.81
  -2   8   0   18.44    4.99
  -3   8   0   53.35    8.77
   3   8   0   45.05    8.43
  -3   8   0   41.83    4.70
  -3   8   0   42.83    5.93
   3  -8   0   45.18    5.66
   3   8   0   48.46    5.79
   3   8   0   57.56    7.66
   3   8   0   40.67    5.86
  -3  -8   0   50.64    6.48
  -3  -8   0   58.45    9.00
  -3  -8   0   48.42    5.66
  -3   8   0   48.99    5.62
   3   8   0   44.61    6.33
  -4  -8   0    4.26    2.56
   4   8   0    5.05    2.93
   4   8   0    2.66    1.97
   4   8   0    2.42    1.53
   4  -8   0    3.45    1.78
   4  -8   0    2.44    0.93
  -4  -8   0    0.99    1.53
   4   8   0    2.67    2.19
   4  -8   0    1.18    1.23
  -4  -8   0    2.27    2.28
   4   8   0    2.18    1.46
   4  -8   0    3.50    3.17
  -4   8   0    1.39    0.91
  -4   8   0    8.73    4.32
  -4  -8   0    1.99    1.77
  -4   8   0   -0.36    1.47
  -4   8   0    0.49    1.35
  -5   8   0   39.31    5.01
   5   8   0   35.71    6.05
  -5   8   0   46.72    5.75
   5  -8   0   41.68    2.91
   5   8   0   40.15    5.48
   5   8   0   39.35    5.14
   5  -8   0   39.61    7.80
   5  -8   0   38.68    4.19
   5  -8   0   40.64    5.36
  -5  -8   0   47.00    7.95
   5   8   0   44.98    8.08
  -5  -8   0   41.59    6.58
  -5  -8   0   38.23    5.19
  -5  -8   0   39.92    7.04
  -5   8   0   48.97    9.18
  -5   8   0   41.14    4.47
  -5  -8   0   47.59    6.57
  -6   8   0  640.07   20.98
  -6  -8   0  632.66   23.12
   6  -8   0  637.29   19.53
  -6   8   0  622.92   22.98
   6   8   0  635.31   31.87
   6  -8   0  613.74   12.48
  -6  -8   0  626.21   25.87
  -6   8   0  619.95   20.16
   6  -8   0  613.09   23.07
   6   8   0  621.27   22.62
  -6   8   0  649.66   34.53
   6   8   0  601.33   21.65
  -7   8   0  177.51   18.35
   7  -8   0  157.09   11.26
  -7  -8   0  148.43   12.43
  -7  -8   0  156.32   10.85
  -7  -8   0  185.85   13.01
   7  -8   0  164.19    9.66
   7   8   0  145.67    9.35
   7   8   0  148.19   10.48
   7   8   0  152.22   15.43
  -7   8   0  153.94    9.20
  -7   8   0  154.26    9.31
   8   8   0   38.93    4.76
   8  -8   0   27.84    4.95
  -8   8   0   54.02   10.50
  -8  -8   0   41.66    5.84
  -8   8   0   46.75    4.84
  -8  -8   0   44.20    6.13
  -8   8   0   34.41    3.61
  -8   8   0   41.72    5.08
   8  -8   0   37.41    4.90
   8   8   0   50.13    8.81
  -8  -8   0   40.79    6.77
  -9   8   0   38.20    4.91
  -9  -8   0   46.38    7.30
   9  -8   0   32.99    5.45
   9  -8   0   40.33    5.67
  -9  -8   0   54.26    5.71
  -9   8   0   37.37    9.11
  -9   8   0   40.75    4.55
  -9  -8   0   38.39    5.87
   9   8   0   29.92    6.85
  -9   8   0   42.47    3.97
   9   8   0   40.77    4.70
  10  -8   0   39.05    6.04
 -10   8   0   34.49    8.99
 -10  -8   0   33.57    5.74
  10   8   0   40.25    8.57
  10  -8   0   33.41    5.81
 -10  -8   0   30.11    6.39
  11  -8   0    3.29    2.43
 -11   8   0    0.07    2.10
  11  -8   0   -1.57    2.65
 -11  -8   0    3.36    2.86
 -11  -8   0    5.67    3.11
 -11   8   0   -1.52    4.89
  11   8   0    2.94    2.50
 -12   8   0   82.85   13.83
 -12  -8   0   68.98   10.44
  12   8   0   63.68   10.53
 -12   8   0   60.74    7.61
 -12  -8   0   75.18    9.26
  12  -8   0   61.67    8.43
 -13   8   0  127.95   11.97
 -13  -8   0  138.91   12.81
 -13  -8   0  153.20   15.84
  13  -8   0  128.52   12.89
  13   8   0  141.38   15.69
 -13   8   0  168.54   20.15
  14  -8   0   34.31    7.37
 -14   8   0   30.20    6.20
  14   8   0   29.87    7.63
   0   9   0    1.09    1.66
   0   9   0    2.05    2.91
   0  -9   0    1.04    2.11
   0   9   0    2.71    2.72
   0   9   0   -0.05    2.70
   0  -9   0    0.01    1.90
   0   9   0    1.91    2.05
   0  -9   0    1.40    1.81
   1   9   0  116.69   13.03
  -1  -9   0   96.60    8.85
   1   9   0   85.39    8.26
  -1   9   0  111.92    9.46
   1   9   0   96.35   11.47
  -1  -9   0   93.29    8.86
  -1   9   0   95.01   10.55
   1  -9   0   98.05    8.45
   1  -9   0  100.46    9.22
  -1  -9   0  117.71   10.86
  -1   9   0  109.22    8.65
  -1   9   0   95.98   11.98
   1   9   0  102.48   11.40
   1  -9   0  153.20   16.72
  -1  -9   0  133.86   14.81
   1   9   0  110.45    9.53
   2  -9   0   92.82   13.08
   2   9   0   62.83    8.49
  -2   9   0   74.94    7.04
  -2   9   0   75.98    8.74
   2   9   0   62.88    7.31
  -2  -9   0  104.86   12.96
   2   9   0   77.65    7.86
   2   9   0   81.65   10.22
  -2  -9   0   82.08    9.70
   2   9   0   99.51   12.11
  -2   9   0   67.75   10.46
  -2  -9   0   62.10    7.33
   2  -9   0   66.71    7.39
   2  -9   0   70.83    6.80
  -3  -9   0   10.92    3.37
   3   9   0    5.32    2.40
  -3   9   0   18.69    6.10
   3   9   0   11.04    4.51
  -3  -9   0   16.74    4.86
  -3  -9   0   10.46    4.43
   3   9   0   12.98    3.12
  -3   9   0   16.64    4.20
   3  -9   0   10.28    3.28
  -3   9   0   16.48    3.34
   3  -9   0   22.68    6.91
   3   9   0    9.76    3.33
   3   9   0   11.23    3.91
   4  -9   0   12.33    2.15
  -4  -9   0   18.23    5.36
  -4   9   0    8.22    2.68
   4   9   0   14.29    3.97
   4   9   0    9.63    2.98
   4  -9   0   11.92    3.40
   4   9   0   11.84    4.52
  -4  -9   0    8.78    2.55
  -4   9   0   12.15    3.23
  -4   9   0    8.07    4.25
  -4   9   0   11.72    2.51
  -4  -9   0   10.31    3.18
   4   9   0   13.58    3.41
   4   9   0   15.35    3.60
   4  -9   0   14.49    2.89
  -5  -9   0   16.99    4.21
   5  -9   0   23.53    2.43
  -5   9   0   21.66    4.14
   5   9   0   20.97    4.45
   5   9   0   15.51    6.27
   5   9   0   26.62    4.91
  -5   9   0   30.82    7.59
  -5  -9   0   30.47    6.05
   5  -9   0   25.56    3.72
  -5   9   0   21.61    3.63
   5   9   0   25.83    4.58
  -5  -9   0   25.27    4.38
   5  -9   0   25.86    4.62
   6  -9   0   75.93    6.27
   6   9   0   86.89    8.27
  -6   9   0   82.98    7.78
  -6  -9   0   67.22    7.50
   6   9   0   82.00    7.94
   6  -9   0   74.67    8.15
  -6   9   0   85.61   12.63
   6  -9   0   73.64    3.47
   6   9   0   83.16   11.75
  -6   9   0   79.84    6.82
  -6  -9   0   87.72   10.02
  -6  -9   0   89.55    9.78
  -7  -9   0    9.00    3.07
   7   9   0   12.61    5.07
  -7   9   0    8.82    2.93
  -7   9   0    8.39    2.32
   7  -9   0    6.86    2.55
   7  -9   0    8.31    2.32
  -7  -9   0   14.26    3.72
  -7   9   0    5.82    3.85
  -7  -9   0    8.79    3.62
   7   9   0   11.28    3.16
   8   9   0   21.25    3.81
  -8   9   0   24.40    7.81
   8  -9   0   25.35    4.14
   8   9   0   18.72    5.94
  -8  -9   0   27.02    5.14
  -8  -9   0   30.16    5.06
   8  -9   0   21.84    4.76
  -8   9   0   27.13    4.07
  -8  -9   0   14.82    4.60
  -8   9   0   25.28    3.94
  -9  -9   0   38.02    5.98
  -9  -9   0   45.71    7.71
   9   9   0   41.68    8.39
  -9   9   0   42.47    5.14
   9  -9   0   41.56    6.63
  -9   9   0   44.94   10.44
   9  -9   0   39.24    5.54
  10   9   0   22.68    6.46
 -10  -9   0   26.36    5.32
  10  -9   0   27.72    5.49
  10  -9   0   24.31    4.81
 -10   9   0   30.45    8.39
 -10  -9   0   33.69    7.19
  11   9   0    2.10    3.11
 -11   9   0    9.12    5.63
  11  -9   0    5.05    3.28
 -11  -9   0    6.22    3.11
 -11  -9   0    7.28    3.86
  12   9   0   -0.05    3.03
 -12  -9   0    4.35    2.58
 -12   9   0    0.35    2.27
  12  -9   0   -1.55    3.48
 -12  -9   0    2.40    2.20
 -13  -9   0   12.33    3.46
  13  -9   0   12.04    4.12
 -13   9   0   15.53    4.72
  13   9   0   25.33    7.20
 -13   9   0   21.76    8.48
  14   9   0    3.81    3.25
  14  -9   0    9.88    4.44
   0  10   0 1251.73   37.76
   0 -10   0 1204.62   38.49
   0 -10   0 1207.93   36.51
   0  10   0 1255.66   37.28
   0  10   0 1286.39   47.43
   0  10   0 1332.05   48.93
   1  10   0   93.25   11.63
   1  10   0   91.95    9.15
  -1 -10   0  101.45    9.73
  -1  10   0   88.60   11.90
  -1 -10   0  137.38   15.48
  -1 -10   0   92.57    8.82
   1  10   0  101.91   12.22
   1 -10   0  105.77   10.09
   1 -10   0  128.34   16.06
   1 -10   0   87.35    8.39
   1  10   0   91.54    9.04
  -1  10   0   96.87    9.21
  -1  10   0   90.41    8.35
  -1  10   0  111.51   12.34
  -1  10   0  107.01   13.01
   1  10   0  114.85   13.00
  -2  10   0  141.73   12.90
  -2 -10   0  172.94   17.07
  -2  10   0  138.38   15.05
   2  10   0  110.83   12.66
   2 -10   0  126.21   11.11
  -2  10   0  132.28    9.84
   2  10   0  121.82   10.91
  -2 -10   0  126.57   12.40
  -2 -10   0  122.76   10.50
   2 -10   0  124.97    9.79
   2  10   0  130.66   14.80
   2  10   0  128.88   10.77
   2  10   0  107.19   11.61
   3  10   0   14.50    3.77
   3  10   0   18.79    4.94
  -3  10   0   19.39    4.46
   3  10   0   15.23    5.77
  -3  10   0   19.47    6.29
  -3  10   0   14.97    3.24
   3 -10   0   14.31    3.68
  -3 -10   0   12.54    3.74
  -3 -10   0   17.02    5.57
   3  10   0   11.89    3.40
  -4 -10   0   33.37    5.92
   4 -10   0   20.01    2.86
   4  10   0   16.84    3.83
  -4 -10   0   32.73    7.46
   4 -10   0   12.77    3.19
  -4  10   0   18.84    3.62
   4  10   0   36.85    6.96
   4 -10   0   21.15    3.71
  -4  10   0   23.53    6.52
  -4  10   0   20.81    4.21
   4  10   0   20.26    5.16
   4  10   0   21.60    6.20
  -5  10   0   -6.65    4.94
  -5 -10   0    0.19    2.57
   5  10   0    0.56    4.74
  -5 -10   0   -0.59    2.02
  -5  10   0    1.11    1.32
   5 -10   0    0.78    1.37
   5 -10   0    0.61    0.85
  -5  10   0   -3.25    3.07
   5  10   0    0.86    2.01
  -5 -10   0   -0.64    2.20
   5 -10   0    0.66    1.89
   5  10   0   -1.55    2.94
  -6  10   0  513.54   32.40
  -6  10   0  481.61   19.08
  -6 -10   0  513.30   22.48
   6 -10   0  468.43   17.61
   6 -10   0  474.45   12.09
  -6  10   0  551.95   22.71
   6  10   0  511.08   31.09
   6  10   0  487.33   22.45
   6 -10   0  477.27   22.12
  -6 -10   0  505.82   24.86
  -7  10   0  275.44   15.16
   7  10   0  232.41   14.14
  -7  10   0  272.14   23.99
   7 -10   0  238.39   12.34
  -7 -10   0  244.67   15.48
  -7  10   0  237.68   13.07
   7 -10   0  229.04   15.25
   7  10   0  236.38   21.20
  -7 -10   0  258.25   17.68
  -8 -10   0   72.65    8.41
  -8  10   0   85.40   13.52
   8 -10   0   72.05    6.97
  -8  10   0   77.46    7.56
   8  10   0   83.10   13.17
   8  10   0   59.03    6.68
  -8 -10   0   87.34   10.72
  -8  10   0   61.20    6.50
   8 -10   0   65.60    8.18
   9 -10   0   43.42    7.13
   9 -10   0   47.55    6.08
  -9  10   0   60.48   12.07
  -9 -10   0   52.67    8.35
  -9  10   0   54.26    6.22
  -9 -10   0   47.83    6.88
   9  10   0   58.97   10.98
 -10 -10   0   -0.28    1.96
  10 -10   0   -1.04    2.59
 -10  10   0   -1.31    3.55
 -10 -10   0   -2.03    3.11
  10  10   0   -1.41    3.37
  11  10   0    4.11    4.90
  11 -10   0    7.55    3.78
 -11 -10   0    5.76    2.93
 -11 -10   0    1.45    3.11
 -11  10   0    6.10    4.30
  12  10   0   55.89   10.72
 -12  10   0   57.61    8.08
 -12 -10   0   49.09    9.18
 -12  10   0   62.89   13.40
 -12 -10   0   60.74    8.48
  12 -10   0   63.61    9.18
  13  10   0  157.26   18.03
 -13  10   0  201.15   22.74
  13 -10   0  156.36   14.80
 -13 -10   0  152.63   13.92
   0 -11   0    1.01    1.83
   0  11   0    3.45    2.37
   0 -11   0    1.51    1.82
   0  11   0   -0.06    3.21
   0  11   0    3.78    4.40
   1  11   0  572.42   31.15
  -1  11   0  579.25   29.71
  -1 -11   0  479.13   23.28
  -1  11   0  477.10   21.46
   1 -11   0  502.47   23.89
  -1 -11   0  479.28   22.25
  -1  11   0  508.82   29.98
   1 -11   0  449.52   20.86
   1  11   0  523.11   28.79
  -2 -11   0  186.51   13.76
  -2  11   0  200.20   12.95
   2  11   0  194.67   18.57
   2 -11   0  218.55   15.20
  -2  11   0  193.42   18.72
  -2 -11   0  181.40   13.93
  -2  11   0  229.59   17.75
   2  11   0  197.70   16.79
   2 -11   0  178.99   12.46
  -3  11   0  188.84   18.55
   3  11   0  163.50   14.71
   3 -11   0  163.49   13.18
  -3  11   0  166.48   11.65
   3  11   0  181.61   16.34
   3 -11   0  140.26   10.81
  -3 -11   0  143.85   12.53
  -3  11   0  188.09   15.02
   3  11   0  161.75   17.18
   4 -11   0   31.63    5.95
   4  11   0   24.63    5.76
  -4 -11   0   33.11    6.19
  -4  11   0   24.84    7.04
   4  11   0   25.42    6.61
   4 -11   0   24.37    4.11
   4  11   0   33.40    7.34
  -4  11   0   26.23    4.59
  -4  11   0   25.01    5.68
  -4 -11   0   33.42    7.57
   5  11   0  592.93   28.21
   5 -11   0  594.73   26.43
  -5  11   0  704.80   28.61
   5 -11   0  590.46   20.80
  -5 -11   0  565.55   27.07
  -5  11   0  647.83   36.67
   5 -11   0  582.82   17.33
  -5  11   0  588.75   22.65
   5  11   0  663.59   36.24
   5  11   0  607.28   26.82
   6 -11   0   26.70    4.09
   6 -11   0   37.47    4.76
  -6  11   0   27.94    5.36
  -6 -11   0   38.68    7.62
   6 -11   0   27.71    5.94
   6 -11   0   23.89    2.50
  -6  11   0   31.62    4.99
   6  11   0   30.06    5.51
  -6 -11   0   25.03    5.55
   6  11   0   36.63    9.01
  -6 -11   0   29.77    5.70
  -6  11   0   39.36    9.39
   7 -11   0  532.94   25.54
   7  11   0  629.54   36.32
   7  11   0  581.18   25.04
  -7  11   0  687.27   26.92
  -7 -11   0  553.21   25.46
  -7 -11   0  590.45   28.68
  -7 -11   0  778.88   32.77
   7 -11   0  568.70   20.67
  -7  11   0  669.03   38.99
  -8  11   0  186.94   20.67
  -8 -11   0  150.93   12.65
   8 -11   0  145.30   10.00
  -8  11   0  157.32   11.93
   8  11   0  149.20   17.82
  -8 -11   0  140.76   13.99
   8 -11   0  121.18   11.80
   9 -11   0   12.25    3.87
  -9 -11   0   20.18    5.78
  -9 -11   0   19.88    4.98
   9  11   0   20.16    7.39
  -9  11   0   20.46    7.52
 -10  11   0  133.60   18.44
  10  11   0  149.58   17.95
  10 -11   0   97.30   11.19
 -10 -11   0  140.03   14.83
 -10 -11   0  123.24   11.87
  11  11   0   15.48    7.81
 -11 -11   0    3.63    2.13
 -11 -11   0   13.84    6.14
 -11  11   0    9.70    6.48
  11 -11   0    6.01    3.21
  12  11   0  173.82   19.91
 -12 -11   0  150.23   13.70
 -12  11   0  151.79   13.57
  12 -11   0  137.97   13.97
 -13  11   0   80.59   14.68
   0 -12   0 1381.16   44.57
   0  12   0 1447.27   53.80
   0 -12   0 1381.66   42.14
  -1 -12   0   11.34    3.72
  -1  12   0   12.11    5.49
   1 -12   0   20.81    5.03
  -1 -12   0   14.70    4.35
   1  12   0   21.31    5.65
  -1  12   0   23.04    6.40
   1 -12   0   10.28    3.30
   1  12   0   17.53    6.82
   2 -12   0  700.87   27.52
  -2  12   0  821.42   35.82
  -2 -12   0  715.07   29.28
  -2  12   0  708.89   37.53
   2  12   0  818.04   39.70
   2  12   0  737.44   34.88
   2 -12   0  728.03   30.56
  -2 -12   0  680.70   29.47
  -3 -12   0   24.11    5.81
   3 -12   0   23.01    5.63
  -3  12   0   24.63    7.68
   3  12   0   31.78    8.51
   3  12   0   13.76    5.17
  -3  12   0   22.32    6.39
   4  12   0  109.55   11.92
   4 -12   0  123.78    9.58
   4 -12   0  108.12   11.26
  -4  12   0  152.10   13.83
  -4 -12   0  113.63   11.67
  -4  12   0  107.16   14.95
   4  12   0  150.10   17.34
  -5 -12   0  237.17   17.47
  -5  12   0  248.52   23.00
  -5 -12   0  299.94   22.31
   5 -12   0  225.46   12.87
   5 -12   0  232.79   10.67
   5 -12   0  208.54   15.89
   5  12   0  220.60   16.47
   5  12   0  249.84   22.97
  -5  12   0  264.76   18.15
  -6 -12   0  288.62   20.07
  -6  12   0  327.56   26.99
  -6  12   0  344.56   20.09
   6  12   0  325.19   26.54
   6 -12   0  291.74   19.06
   6 -12   0  285.70   10.34
   6 -12   0  279.97   14.14
  -7 -12   0  168.18   13.94
   7  12   0  165.42   19.15
  -7 -12   0  163.83   15.04
  -7  12   0  190.45   14.36
   7 -12   0  163.71   10.60
  -7  12   0  189.88   20.99
   7 -12   0  159.96   14.16
   8  12   0  577.28   36.63
  -8 -12   0  545.76   26.39
  -8 -12   0  563.95   29.91
  -8  12   0  648.62   26.59
   8 -12   0  493.60   25.95
  -8  12   0  639.93   39.82
  -9  12   0  158.50   20.07
   9  12   0  157.98   19.35
  -9 -12   0  145.87   13.41
  -9 -12   0  165.87   16.17
   9 -12   0  133.25   13.56
 -10 -12   0   27.38    5.96
 -10  12   0   38.70   10.31
  10  12   0   29.15    7.88
  10 -12   0   35.40    6.97
 -10 -12   0   29.34    7.30
 -11  12   0  147.41   20.25
  11 -12   0  122.88   13.34
 -11 -12   0  123.72   12.51
  11  12   0  170.02   20.26
  12 -12   0    6.48    4.56
 -12  12   0    3.75    5.73
 -12 -12   0    1.89    2.60
   0  13   0   -0.53    2.33
   0  13   0    5.16    4.49
   0 -13   0    0.25    1.95
   0 -13   0   -3.34    3.31
  -1 -13   0  804.80   33.61
   1  13   0  869.07   40.76
   1 -13   0  811.57   33.86
   1 -13   0  785.65   30.89
  -1 -13   0  820.26   32.13
   1  13   0  979.09   43.97
  -1  13   0  903.17   42.96
  -1  13   0 1002.00   42.44
  -2 -13   0  104.72   11.05
   2  13   0  140.13   16.54
   2 -13   0  100.26   10.19
  -2  13   0  136.65   14.80
   2  13   0  110.45   13.69
  -2  13   0  110.57   14.84
  -2 -13   0  107.54   11.56
   2 -13   0  107.11   11.85
  -3 -13   0   36.36    6.70
   3  13   0   43.55    9.49
  -3  13   0   40.22    8.95
  -3 -13   0   23.23    5.79
  -3  13   0   36.84    8.13
   3 -13   0   36.57    7.35
   3  13   0   30.89    7.16
   4  13   0   22.37    6.18
  -4  13   0   17.47    5.79
   4  13   0   37.54    9.91
  -4  13   0   33.23    6.78
  -4 -13   0   18.78    5.24
   4 -13   0   18.44    5.38
   4 -13   0   23.41    4.40
   5  13   0    4.32    3.13
   5 -13   0    6.96    2.06
   5 -13   0    7.16    2.69
  -5  13   0   14.94    6.77
   5 -13   0    3.66    3.21
   5  13   0   14.71    6.87
  -5 -13   0   13.41    4.90
  -5  13   0    9.55    4.91
  -6 -13   0  261.68   19.50
   6  13   0  297.12   25.95
  -6  13   0  285.94   25.95
   6 -13   0  231.24   13.27
  -6  13   0  286.90   19.40
   6 -13   0  255.68   18.46
  -7 -13   0  554.35   29.95
   7 -13   0  487.63   26.60
  -7  13   0  632.05   28.50
   7  13   0  610.49   38.42
  -7  13   0  583.66   38.01
   8  13   0  183.01   21.25
  -8 -13   0  156.27   15.76
  -8  13   0  164.61   20.73
   8 -13   0  137.56   13.95
   9  13   0  344.31   29.22
  -9 -13   0  316.74   23.20
   9 -13   0  272.31   19.78
  -9  13   0  337.70   29.75
  -9 -13   0  290.16   19.86
  10  13   0   28.79    9.52
  10 -13   0   25.02    6.72
 -10 -13   0   19.87    5.17
 -10  13   0   29.52    9.58
 -11 -13   0   13.81    4.54
  11 -13   0   12.30    5.31
   0  14   0  595.05   34.75
   0 -14   0  612.34   29.58
   0 -14   0  559.52   26.50
   1  14   0   19.83    6.50
  -1 -14   0   16.94    4.62
   1 -14   0   10.56    4.41
  -1  14   0   10.95    5.39
   1 -14   0    9.41    3.57
  -1 -14   0   15.70    4.30
   1  14   0   23.75    7.53
  -1  14   0   21.30    6.55
  -2  14   0   30.01    7.76
   2 -14   0   19.40    4.90
   2 -14   0   18.48    5.91
   2  14   0   34.56    9.06
   2  14   0   26.98    7.04
  -2  14   0   11.50    5.07
  -2 -14   0   23.12    5.47
  -2 -14   0   23.30    6.35
  -3  14   0    0.76    3.30
  -3  14   0   -0.32    2.91
   3  14   0   -2.14    4.39
  -3 -14   0    1.82    3.47
   3  14   0   -2.49    5.14
   3 -14   0    2.37    3.66
  -3 -14   0   -1.72    3.16
   4 -14   0   30.95    6.60
   4 -14   0   39.53    6.06
  -4  14   0   29.58    6.85
  -4 -14   0   29.98    6.75
   4  14   0   28.27    6.56
  -4 -14   0   23.06    5.99
  -4  14   0   35.50    9.33
   4  14   0   40.85    9.35
   5 -14   0   -0.23    3.33
   5  14   0    9.19    5.90
   5 -14   0    2.44    2.28
  -5 -14   0   -1.47    2.68
   5  14   0   -1.19    2.69
  -5  14   0    2.67    3.70
  -5  14   0   -2.23    3.90
  -6  14   0  169.54   20.26
  -6  14   0  181.07   15.95
   6 -14   0  145.25   14.73
   6  14   0  194.40   21.68
  -6 -14   0  172.94   16.30
  -7 -14   0  127.14   14.56
  -7  14   0  157.62   19.94
   7 -14   0  110.49   13.08
   7  14   0  167.93   20.10
   8 -14   0   86.13   11.71
  -8 -14   0   93.09   12.53
  -8  14   0  104.45   16.27
   8  14   0   98.71   15.84
   9 -14   0   22.61    6.38
  -9  14   0   16.78    7.85
   9  14   0   21.53    8.58
  10 -14   0    2.51    2.57
   0  15   0    0.17    3.28
   0 -15   0    3.17    3.78
   0 -15   0   -1.90    2.60
   0  15   0    1.17    3.25
   1 -15   0    1.79    4.18
   1 -15   0   -0.40    1.95
  -1 -15   0    4.70    3.01
  -1  15   0    2.70    2.98
   1  15   0    2.20    4.42
  -1  15   0    3.20    3.48
  -1 -15   0    0.42    2.66
   1  15   0    4.52    4.39
  -2 -15   0  177.09   16.38
  -2  15   0  201.36   18.91
  -2  15   0  166.48   19.41
   2  15   0  196.64   20.74
  -2 -15   0  154.47   14.44
   2  15   0  177.42   18.77
   2 -15   0  197.88   17.26
   2 -15   0  153.00   13.61
  -3 -15   0  116.37   13.21
  -3  15   0  103.72   15.48
   3 -15   0   97.00   12.21
   3  15   0  103.78   15.38
   3  15   0  117.81   14.76
  -3 -15   0  102.20   11.90
  -3  15   0  108.31   13.49
   4  15   0   45.98   10.46
  -4  15   0   45.41    8.76
   4  15   0   39.68    8.61
  -4 -15   0   37.13    7.39
   4 -15   0   42.54    5.76
  -4  15   0   42.54   10.55
   4 -15   0   38.09    7.64
  -4 -15   0   39.55    7.81
   4 -15   0   41.09    6.24
  -5  15   0   31.28    7.05
   5  15   0   26.87    8.70
  -5 -15   0   29.46    6.67
   5 -15   0   31.51    7.06
   5  15   0   19.59    5.71
  -5 -15   0   33.87    7.51
  -5  15   0   17.95    7.35
  -6  15   0   34.00    9.31
  -6  15   0   60.21    9.60
   6  15   0   36.73   10.01
  -6 -15   0   37.89    7.82
   6 -15   0   39.35    7.96
  -7 -15   0    6.69    4.21
   7 -15   0    8.96    4.64
   7  15   0    2.64    5.98
  -7  15   0    5.25    4.92
   8 -15   0    0.15    3.50
   0 -16   0  268.07   20.69
   0  16   0  259.54   24.31
   0  16   0  308.69   25.33
   0 -16   0  251.35   18.63
  -1  16   0   21.02    7.96
   1 -16   0   15.56    4.69
   1 -16   0   15.93    5.65
  -1 -16   0   15.53    5.20
   1  16   0   25.92    8.51
  -1 -16   0   14.56    5.22
   1  16   0   28.53    8.79
  -1  16   0   18.36    7.81
  -2  16   0  170.29   17.86
   2  16   0  143.58   17.99
   2 -16   0  122.55   12.82
   2 -16   0  140.74   15.06
  -2 -16   0  146.15   15.12
  -2 -16   0  135.88   13.89
   2  16   0  133.15   16.43
  -2  16   0  121.47   17.33
   3  16   0    6.96    5.11
  -3  16   0    2.05    4.78
  -3 -16   0    2.97    4.28
  -3 -16   0   -3.29    3.49
  -3  16   0    1.38    3.61
   3  16   0   -3.75    3.72
   3 -16   0   -1.46    3.00
   4  16   0   21.54    8.84
  -4  16   0   18.29    5.68
  -4 -16   0   14.15    5.46
  -4 -16   0   13.58    5.21
   4  16   0   13.53    5.80
   4 -16   0   17.17    5.59
  -4  16   0   26.36    9.23
   5  16   0   92.23   12.66
  -5 -16   0   89.69   12.05
  -5 -16   0   85.11   12.05
   5 -16   0   97.68   13.04
   5  16   0   97.68   15.44
  -5  16   0   75.33   13.48
  -5  16   0  110.92   13.77
  -6  16   0   55.38   12.38
  -6 -16   0   42.28    8.49
   6 -16   0   37.35    8.18
  -6 -16   0   34.80    7.78
   6  16   0   50.70   12.43
   7 -16   0   62.80   10.61
   0  17   0    4.20    4.28
   0 -17   0    4.33    4.26
   0 -17   0   -2.46    2.48
   0  17   0   -4.23    4.55
  -1  17   0  466.19   31.26
  -1  17   0  483.38   34.40
   1 -17   0  418.53   27.20
  -1 -17   0  442.34   27.83
   1  17   0  467.01   32.69
  -1 -17   0  415.37   25.31
   1  17   0  466.38   32.65
   1 -17   0  412.86   24.74
  -2  17   0   68.97   13.46
   2 -17   0   61.85    9.60
   2  17   0   63.48   11.99
  -2 -17   0   68.12   10.64
   2 -17   0   69.37   10.73
  -2  17   0   80.89   12.58
  -2 -17   0   80.79   11.75
   2  17   0   97.50   15.12
  -3  17   0   45.28   10.87
  -3  17   0   72.15   11.83
   3  17   0   82.50   14.43
  -3 -17   0   67.12   10.31
   3 -17   0   55.16   10.26
   3  17   0   70.93   12.09
  -3 -17   0   44.62    8.99
   4 -17   0    4.35    3.27
  -4 -17   0    6.50    4.95
  -4 -17   0    8.21    6.07
   4  17   0    5.34    6.46
  -4  17   0    2.53    3.88
  -4  17   0   -2.81    4.91
   4  17   0    1.02    3.87
   5  17   0  236.66   20.76
   0  18   0  616.57   39.84
   0 -18   0  545.69   29.72
   0  18   0  658.90   39.32
   1  18   0   71.95   13.58
   1  18   0   48.08   11.08
   1 -18   0   37.32    7.57
  -1 -18   0   63.37   10.09
  -1  18   0   58.17   11.31
  -1  18   0   47.62   11.14
  -2 -18   0  112.47   13.51
   2  18   0  118.40   16.60
  -2  18   0  116.85   15.85
   3  18   0   35.91    9.17
  -3  18   0   37.77    8.96
  -3 -18   0   33.85    7.25
  -4  18   0   62.61   11.18
   4  18   0   63.56   11.44
   0 -19   0   -0.82    3.93
   1 -19   0  262.55   20.53
  -2  19   0    0.77    4.33
   3  19   0    8.98    4.37
 -16   0   1   -5.90    4.01
 -15   0   1   -1.15    3.43
 -15   0   1   -4.30    3.89
 -14   0   1   -5.06    3.54
 -14   0   1   -4.08    3.62
 -13   0   1    1.00    2.17
 -13   0   1   -1.57    3.07
 -12   0   1    2.33    2.14
 -12   0   1   -1.51    2.52
  12   0  -1    0.25    1.25
 -11   0   1    0.14    1.66
 -11   0   1    1.01    0.70
  11   0  -1   -0.03    1.24
 -11   0   1    3.16    2.39
 -11   0   1   -0.84    1.09
  11   0  -1   -1.45    2.63
 -11   0   1    2.08    2.20
 -11   0   1   -0.11    1.52
 -10   0   1   -0.98    1.53
 -10   0   1   -0.02    1.44
 -10   0   1   -0.61    1.37
 -10   0   1   -0.07    0.77
  10   0  -1    1.07    1.28
 -10   0   1    2.02    1.80
  10   0  -1   -1.18    2.12
 -10   0   1   -0.71    1.28
  -9   0   1   -1.00    1.34
  -9   0   1    0.62    0.67
   9   0  -1   -2.66    2.87
   9   0  -1    0.12    1.07
  -9   0   1    0.97    1.21
  -9   0   1    1.12    1.35
  -9   0   1    1.90    1.43
  -9   0   1   -0.91    2.10
  -9   0   1   -1.57    1.66
   8   0  -1    0.95    1.28
  -8   0   1    0.80    0.75
   8   0  -1    1.61    2.02
  -8   0   1   -2.52    1.83
  -8   0   1    0.61    1.16
  -8   0   1    0.62    1.01
  -8   0   1   -0.21    1.22
  -8   0   1    0.51    1.66
  -8   0   1    0.15    1.39
  -8   0   1   -1.07    1.56
   8   0  -1   -0.11    0.98
   7   0  -1    1.19    1.79
  -7   0   1    0.33    0.50
  -7   0   1    1.29    1.27
   7   0  -1    0.46    1.14
  -7   0   1   -1.38    1.87
  -7   0   1   -0.35    1.04
  -7   0   1   -0.33    1.04
  -7   0   1   -0.41    1.45
  -7   0   1    0.21    1.07
   7   0  -1    1.12    0.84
   6   0  -1   -0.02    0.60
   6   0  -1    0.13    1.23
  -6   0   1   -0.78    1.24
   6   0  -1    0.80    0.98
  -6   0   1    0.78    1.28
   6   0  -1    0.21    0.53
  -6   0   1    1.26    0.87
  -6   0   1   -0.28    1.37
  -6   0   1   -0.32    1.12
  -5   0   1    0.93    0.72
  -5   0   1    2.34    1.65
  -5   0   1   -0.40    1.37
   5   0  -1    3.19    0.79
   5   0  -1   -0.48    1.05
   5   0  -1    0.60    1.36
   5   0  -1    0.17    0.75
  -5   0   1    0.47    0.80
  -5   0   1    0.52    0.87
   5   0  -1    0.23    0.57
  -4   0   1    0.05    0.51
   4   0  -1    0.36    0.75
  -4   0   1    0.21    0.88
   4   0  -1    0.78    0.72
   4   0  -1    1.16    0.95
  -4   0   1    0.42    0.76
  -4   0   1   -0.15    0.72
   4   0  -1    0.28    0.84
  -4   0   1    0.05    0.76
   4   0  -1    0.49    0.69
  -4   0   1   -0.19    0.66
  -3   0   1    1.45    0.62
   3   0  -1    0.75    0.87
  -3   0   1   -0.20    0.60
  -3   0   1    0.16    0.54
  -3   0   1    1.04    0.72
   3   0  -1    0.09    0.58
   3   0  -1    1.47    0.60
   3   0  -1    0.31    0.61
   2   0  -1    0.27    0.35
  -2   0   1    0.29    0.42
   2   0  -1    0.78    0.56
  -2   0   1    1.13    0.37
   2   0  -1    0.17    0.35
   1   0  -1    0.83    0.41
   1   0  -1    0.35    0.22
   1   0  -1    0.84    0.60
  -1   0   1    0.10    0.26
  -1   0   1    0.39    0.32
  -1   0   1    0.58    0.40
   1   0  -1    0.85    0.47
  -1   0   1    0.20    0.29
   0   0   1    0.50    0.24
   0   0   1    0.22    0.40
   0   0  -1   -0.13    0.26
   0   0  -1    0.16    0.22
   1   0   1    2.30    0.75
   1   0   1    0.12    0.37
  -1   0  -1    0.43    0.40
   1   0   1    0.69    0.34
  -1   0  -1    2.28    0.48
  -2   0  -1    0.49    0.50
   2   0   1    0.00    0.49
  -2   0  -1    0.58    0.37
   2   0   1    0.72    0.50
  -2   0  -1    1.25    0.63
  -2   0  -1    0.35    0.23
  -2   0  -1    0.17    0.50
   2   0   1   -0.18    0.53
   2   0   1   -0.32    0.52
   3   0   1    1.53    0.86
   3   0   1    0.26    0.66
  -3   0  -1    0.37    0.73
  -3   0  -1    0.45    0.61
  -3   0  -1    0.94    0.66
  -3   0  -1    1.12    0.73
  -3   0  -1    0.41    0.35
   3   0   1    0.14    0.58
  -3   0  -1    0.75    0.37
   4   0   1    0.16    0.71
   4   0   1    1.03    1.25
  -4   0  -1    0.75    0.78
  -4   0  -1    0.26    0.63
  -4   0  -1    0.46    0.52
  -4   0  -1    0.97    0.78
  -4   0  -1    0.55    0.61
  -4   0  -1    0.33    0.79
  -4   0  -1   -0.53    0.58
  -5   0  -1    0.64    0.61
  -5   0  -1   -0.30    0.92
  -5   0  -1    0.89    0.99
   5   0   1    2.74    1.17
  -5   0  -1    0.14    0.53
  -5   0  -1   -0.47    0.83
   5   0   1    2.07    1.28
  -5   0  -1    0.33    0.88
  -5   0  -1    0.14    0.46
  -5   0  -1    1.50    1.17
  -6   0  -1    0.67    0.73
   6   0   1    1.77    1.41
  -6   0  -1   -0.80    0.93
  -6   0  -1   -0.55    1.27
  -6   0  -1    1.77    1.13
  -6   0  -1    0.16    0.94
   6   0   1   -1.87    2.16
  -6   0  -1   -0.56    1.32
  -6   0  -1    0.62    0.80
  -6   0  -1   -0.22    0.59
  -7   0  -1   -0.59    0.94
   7   0   1    0.82    0.95
  -7   0  -1    1.09    0.96
  -7   0  -1    0.44    1.15
  -7   0  -1    0.12    0.79
  -7   0  -1   -1.99    1.82
  -7   0  -1    0.05    1.04
  -7   0  -1    1.27    0.91
  -7   0  -1   -1.03    1.24
  -8   0  -1   -0.40    1.28
  -8   0  -1    1.82    1.51
  -8   0  -1   -0.31    1.57
  -8   0  -1    0.99    0.81
  -8   0  -1    0.85    1.11
  -8   0  -1    2.07    1.30
  -8   0  -1   -0.80    1.17
   8   0   1   -0.20    1.07
  -8   0  -1    0.69    1.21
   9   0   1    0.64    1.38
  -9   0  -1   -0.92    1.36
  -9   0  -1    0.76    1.09
  -9   0  -1   -0.81    1.12
  -9   0  -1    0.89    1.07
  -9   0  -1    3.05    1.93
  -9   0  -1    1.16    1.13
  -9   0  -1    1.10    1.20
  -9   0  -1    0.07    1.80
 -10   0  -1   -0.36    1.28
 -10   0  -1   -0.13    1.08
 -10   0  -1    2.89    2.65
 -10   0  -1    1.38    1.55
  10   0   1    1.18    1.61
 -10   0  -1   -0.08    1.51
 -10   0  -1   -0.33    1.62
 -10   0  -1    0.87    1.35
 -10   0  -1   -3.15    1.87
 -11   0  -1    0.35    1.33
 -11   0  -1    0.88    2.17
 -11   0  -1    0.73    2.64
 -11   0  -1    0.19    1.19
 -11   0  -1    0.64    1.21
 -11   0  -1    4.58    2.91
 -12   0  -1    3.43    2.60
 -12   0  -1    1.50    1.72
 -12   0  -1   -0.52    1.15
 -12   0  -1    2.48    2.18
 -13   0  -1    5.96    3.75
 -13   0  -1   -0.12    1.64
 -14   0  -1    0.14    1.97
 -14   0  -1   -2.59    3.05
 -15   0  -1   -0.40    2.81
 -16   1   1   28.06    7.33
 -16  -1   1   29.94    6.34
 -15   1   1   94.28   11.26
 -15   1   1   84.66    9.89
 -15  -1   1   88.64   11.59
 -15  -1   1   97.35   10.40
 -14  -1   1   -0.79    2.95
 -14   1   1    1.03    2.32
 -14  -1   1    7.79    3.69
 -14   1   1    5.64    3.46
 -13   1   1   13.54    3.94
 -13   1   1   11.96    3.82
 -13  -1   1   19.65    5.14
 -13  -1   1   13.85    3.61
  12  -1  -1  179.82   17.03
  12   1  -1  174.89   10.16
 -12   1   1  172.16   12.14
 -12   1   1  194.55   12.88
 -12  -1   1  177.78   12.23
 -12   1   1  167.87   12.95
 -12  -1   1  187.54   14.22
 -11  -1   1    2.05    0.72
 -11  -1   1    1.46    2.18
 -11   1   1    1.08    1.34
  11  -1  -1    7.92    3.77
 -11   1   1    3.10    1.23
  11   1  -1    1.54    1.44
 -11  -1   1    2.41    2.26
 -11   1   1    3.09    2.18
 -11   1   1    2.11    1.62
 -11   1   1    0.30    1.19
 -11   1   1    2.34    2.32
 -11  -1   1   -0.64    1.37
 -11  -1   1    0.74    1.75
 -10  -1   1   43.91    3.73
 -10  -1   1   43.77    6.13
 -10   1   1   51.60    6.26
 -10   1   1   59.47    6.43
 -10   1   1   42.62    3.85
  10   1  -1   47.20    4.90
 -10  -1   1   50.81    5.80
 -10  -1   1   45.78    2.55
 -10  -1   1   40.05    5.51
 -10   1   1   43.08    4.51
 -10   1   1   45.06    5.49
 -10  -1   1   58.61    7.77
 -10   1   1   67.07    8.45
  10  -1  -1   44.68    3.80
  10   1  -1   50.25    8.16
  10  -1  -1   44.49    5.84
  10  -1  -1   47.22    7.22
  -9  -1   1  296.15   16.89
  -9  -1   1  302.88   18.48
   9  -1  -1  287.41   14.43
   9   1  -1  296.69   12.57
   9  -1  -1  296.13    9.94
   9   1  -1  323.51   19.08
   9  -1  -1  304.78   17.88
  -9  -1   1  294.24   15.19
  -9  -1   1  296.79   13.90
  -9   1   1  301.84   12.05
  -9   1   1  334.34   19.15
  -9   1   1  295.46   10.44
  -9  -1   1  291.82   14.95
  -9   1   1  312.43   15.50
  -9  -1   1  288.61    7.56
  -9  -1   1  329.04   11.68
  -9   1   1  288.14   13.66
  -9   1   1  297.60   15.82
  -8  -1   1  178.55    8.23
   8  -1  -1  160.77   11.67
  -8  -1   1  169.40   10.14
   8  -1  -1  162.91    7.52
  -8   1   1  148.92   10.26
   8   1  -1  144.89    8.71
  -8  -1   1  163.13    9.45
  -8  -1   1  153.17   11.37
  -8   1   1  169.21   10.00
  -8  -1   1  158.48   12.96
   8  -1  -1  160.90    9.93
  -8   1   1  172.56   13.74
  -8  -1   1  158.62   10.63
   8   1  -1  157.91   12.26
  -8   1   1  162.38    9.30
   8   1  -1  151.93    8.45
  -8  -1   1  153.72   10.00
  -8  -1   1  154.89    4.83
  -8   1   1  151.99   10.45
  -8   1   1  161.81    7.20
   8  -1  -1  155.01    6.47
  -8   1   1  162.89    8.31
  -7   1   1  119.00    8.76
  -7   1   1  161.03   10.14
  -7  -1   1  168.26   12.77
  -7  -1   1  167.98    4.67
  -7  -1   1  176.94    9.25
   7  -1  -1  166.01    7.59
   7  -1  -1  168.44   11.18
  -7   1   1  182.28    9.82
  -7  -1   1  172.45    9.62
  -7  -1   1  172.46    9.88
  -7  -1   1  169.13   11.27
  -7   1   1  164.59    8.85
   7  -1  -1  178.01    6.31
   7   1  -1  164.53   11.61
  -7   1   1  172.48   13.63
  -7  -1   1  191.31    7.96
   7  -1  -1  170.75    9.58
  -7   1   1  161.71    8.17
   7   1  -1  168.58    8.78
  -6  -1   1  220.30   14.16
   6  -1  -1  260.67   11.27
   6  -1  -1  262.73   12.99
  -6   1   1  248.93   12.00
  -6   1   1  263.26   11.25
  -6   1   1  201.73   10.47
   6  -1  -1  251.67    9.58
  -6  -1   1  255.50   11.10
  -6   1   1  235.52   15.54
   6   1  -1  243.57   10.43
   6   1  -1  255.34   13.38
  -6  -1   1  291.06   11.85
  -6  -1   1  246.13   10.54
  -6  -1   1  264.35   13.21
   6  -1  -1  255.12    7.26
  -6   1   1  247.87   10.02
  -6   1   1  260.43   10.53
  -6  -1   1  265.46    8.37
   5   1  -1   37.17    4.64
   5  -1  -1   42.24    4.66
   5  -1  -1   40.39    3.99
  -5   1   1   43.36    4.09
  -5  -1   1   42.54    3.88
  -5   1   1   41.01    4.25
   5  -1  -1   39.32    2.16
   5  -1  -1   42.33    4.03
   5   1  -1   49.86    4.00
  -5  -1   1   43.98    4.14
  -5   1   1   40.57    3.74
   5   1  -1   38.50    3.92
  -5   1   1   34.16    3.21
  -5   1   1   40.85    5.78
  -5  -1   1   38.12    4.59
  -5  -1   1   33.78    4.77
  -4   1   1   34.10    3.30
   4   1  -1   35.29    3.75
   4  -1  -1   36.85    3.45
   4  -1  -1   58.40    4.88
   4   1  -1   44.22    4.55
  -4   1   1   40.41    3.30
  -4   1   1   35.36    3.67
  -4  -1   1   36.10    3.24
  -4  -1   1   39.16    4.29
  -4  -1   1   32.51    4.12
  -4   1   1   42.77    5.26
   4  -1  -1   39.79    4.07
  -4  -1   1   41.55    3.59
   4   1  -1   38.77    3.23
  -3   1   1   17.31    2.47
   3   1  -1   19.98    2.69
   3   1  -1   19.57    2.66
  -3  -1   1   20.05    2.19
  -3   1   1   21.37    2.52
  -3   1   1   16.34    2.38
   3  -1  -1   20.01    2.59
  -3   1   1   19.83    2.05
   3  -1  -1   17.55    2.78
   3  -1  -1   19.96    2.24
  -2   1   1  601.39   14.65
  -2   1   1  577.86   12.97
   2   1  -1  611.93   15.37
  -2   1   1  561.74   14.47
  -2  -1   1  573.95   13.49
  -2   1   1  609.01   11.26
   2  -1  -1  598.54   14.77
   2  -1  -1  556.86   15.35
  -2   1   1  558.95   14.93
   2  -1  -1  545.52   14.86
   2  -1  -1  580.19   13.67
  -1  -1   1    3.89    0.79
   1  -1  -1    4.28    0.75
   1  -1  -1    5.78    1.14
  -1   1   1    4.56    1.01
   1  -1  -1    4.90    0.94
  -1   1   1    5.06    0.65
   1  -1  -1    4.07    0.65
  -1   1   1    5.64    1.27
   1  -1  -1    5.64    0.71
   1   1  -1    4.22    0.99
  -1  -1   1    3.73    0.88
   1  -1  -1    5.12    1.03
   1   1  -1    5.08    0.80
  -1   1   1    4.08    0.61
   0   1   1  705.74   14.33
   0  -1  -1  707.82   13.72
   0   1   1  739.52   14.86
   0   1   1  779.11   15.84
   0  -1  -1  732.09   14.49
   0   1  -1  709.49   14.31
   0  -1   1  742.88   14.28
   0  -1  -1  694.46   14.82
   0   1   1  734.97   13.77
   0   1  -1  741.49   14.07
   0   1  -1  742.56   14.86
   0  -1   1  748.05   14.42
   0  -1  -1  748.48   14.86
   1   1   1   40.50    2.85
  -1  -1  -1   42.72    2.75
   1  -1   1   44.06    2.56
  -1   1  -1   47.48    2.58
   1   1   1   40.74    2.84
  -1   1  -1   39.88    2.39
  -1  -1  -1   44.09    2.91
   1   1   1   39.98    2.84
  -2   1  -1   65.70    2.60
   2   1   1   65.97    3.89
  -2  -1  -1   65.13    4.06
  -2   1  -1   60.22    3.99
   2  -1   1   69.79    2.58
  -2   1  -1   64.14    3.25
  -2   1  -1   66.57    3.75
   2   1   1   67.97    4.16
  -2  -1  -1   69.53    4.22
   2   1   1   66.22    3.91
  -2  -1  -1   63.49    4.09
  -2  -1  -1   66.23    3.88
   2  -1   1   58.79    3.23
   3  -1   1   22.80    1.80
   3   1   1   21.81    2.37
   3   1   1   26.92    2.89
  -3  -1  -1   22.23    2.62
  -3   1  -1   26.27    2.84
   3   1   1   24.90    1.57
   3  -1   1   21.16    2.15
  -3  -1  -1   24.39    1.65
  -3   1  -1   19.55    1.72
   3   1   1   22.16    2.40
  -3   1  -1   18.81    2.21
  -3  -1  -1   22.13    2.32
  -3   1  -1   23.96    2.16
  -3   1  -1   18.35    1.95
  -3   1  -1   20.72    1.78
  -3  -1  -1   26.07    2.74
  -3   1  -1   23.17    2.43
   3   1   1   21.96    2.76
  -3  -1  -1   23.18    2.68
  -4  -1  -1  181.97    7.59
  -4   1  -1  192.81    7.96
  -4   1  -1  181.62    7.61
  -4  -1  -1  176.51    8.26
   4   1   1  172.11    8.18
   4   1   1  177.10    5.76
  -4  -1  -1  175.78    8.34
  -4   1  -1  172.17    7.31
  -4  -1  -1  181.99    6.57
   4   1   1  178.15    7.63
  -4   1  -1  174.52    6.69
  -4  -1  -1  171.42    8.44
   4  -1   1  183.38    6.46
  -4   1  -1  170.90    8.01
  -4  -1  -1  183.43    6.03
  -4   1  -1  195.87    7.18
  -4   1  -1  175.27    6.37
   4   1   1  186.55    7.75
   4  -1   1  185.77    7.71
   4   1   1  183.21    9.17
  -5  -1  -1  363.02   12.05
  -5   1  -1  363.39   12.27
   5   1   1  376.34   13.40
  -5  -1  -1  350.72   13.00
  -5  -1  -1  334.44   13.97
  -5  -1  -1  373.88   13.93
  -5   1  -1  355.88   12.20
   5  -1   1  362.19   12.68
   5   1   1  352.71   12.18
  -5  -1  -1  359.75   10.98
   5   1   1  355.34   15.00
   5   1   1  366.57   12.25
  -5   1  -1  362.47   10.44
   5  -1   1  346.08   10.75
  -5   1  -1  339.35   11.22
  -5   1  -1  353.99   12.39
  -5  -1  -1  357.09   13.29
  -5  -1  -1  351.09   10.17
  -5   1  -1  379.42   11.47
  -5   1  -1  357.12   12.70
  -5   1  -1  356.95   10.76
  -6   1  -1  143.56    7.91
  -6   1  -1  141.49    7.97
  -6   1  -1  139.69    7.97
  -6   1  -1  134.39    7.71
   6   1   1  138.24   10.04
  -6  -1  -1  160.91    8.81
  -6  -1  -1  151.00    7.19
   6  -1   1  143.69    7.04
  -6  -1  -1  144.62    6.52
  -6   1  -1  142.48    7.07
  -6   1  -1  143.05    6.91
  -6   1  -1  138.22    6.48
  -6  -1  -1  138.71    8.36
  -6  -1  -1  137.22    9.07
  -6   1  -1  136.66    7.34
  -6  -1  -1  143.18    8.93
   6   1   1  135.19    8.15
   6  -1   1  141.46    8.56
  -6  -1  -1  138.58    7.35
  -7  -1  -1  397.44   13.61
  -7   1  -1  379.83   14.87
  -7  -1  -1  395.17   17.04
   7  -1   1  398.03   17.27
  -7   1  -1  404.03   13.59
  -7  -1  -1  399.58   13.33
  -7  -1  -1  388.92   15.77
  -7   1  -1  407.74   12.99
   7   1   1  398.13   15.47
  -7   1  -1  404.10   13.62
  -7   1  -1  380.67   14.51
  -7  -1  -1  403.66   12.93
  -7  -1  -1  403.19   15.69
  -7   1  -1  399.62   15.35
  -7   1  -1  390.48   14.32
  -7   1  -1  397.28   15.18
   7  -1   1  418.31   13.92
  -7  -1  -1  399.86   13.86
  -7  -1  -1  409.67   16.95
  -8  -1  -1  129.48    8.86
  -8  -1  -1  142.02   10.28
  -8  -1  -1  137.95    8.07
  -8  -1  -1  127.99    7.26
  -8   1  -1  129.90    7.31
   8   1   1  134.22    8.94
  -8   1  -1  134.51    7.92
  -8  -1  -1  125.72    7.58
  -8  -1  -1  129.94    7.75
  -8   1  -1  132.28    8.94
  -8   1  -1  124.02    8.58
  -8   1  -1  133.63    7.77
  -8   1  -1  124.19    8.32
  -8   1  -1  142.65    9.38
   8  -1   1  124.67    7.78
  -8  -1  -1  133.23    9.36
  -8   1  -1  134.31    8.38
  -8  -1  -1  108.88    9.15
  -9  -1  -1    4.12    2.36
  -9   1  -1    0.05    1.48
  -9   1  -1   -0.26    1.03
  -9   1  -1    1.07    1.47
  -9   1  -1    1.83    1.52
  -9  -1  -1    6.49    2.95
  -9  -1  -1    1.21    1.01
  -9  -1  -1    2.00    1.33
   9   1   1    5.96    2.52
  -9   1  -1    3.17    1.56
  -9   1  -1    4.80    2.65
  -9  -1  -1    1.67    1.44
  -9  -1  -1    1.03    1.43
  -9  -1  -1    0.41    0.99
  -9  -1  -1    3.40    1.78
  -9   1  -1    3.83    1.42
  -9   1  -1    1.22    1.59
 -10  -1  -1  179.80   13.33
 -10   1  -1  186.04   10.75
 -10   1  -1  178.99   11.96
  10   1   1  201.04   12.02
 -10   1  -1  200.49   12.20
 -10  -1  -1  181.14   10.04
 -10   1  -1  195.97   12.54
 -10   1  -1  183.20   10.05
 -10   1  -1  185.20   12.57
 -10   1  -1  208.18   10.72
 -10  -1  -1  182.96   10.73
 -10   1  -1  191.78   10.91
 -10  -1  -1  189.14   10.88
 -10  -1  -1  186.56   12.71
 -10  -1  -1  181.60    9.98
 -10  -1  -1  187.28   11.71
  11   1   1   31.90    5.08
 -11   1  -1   24.74    4.31
 -11  -1  -1   35.72    5.24
 -11  -1  -1   32.56    4.29
 -11   1  -1   28.28    4.53
 -11   1  -1   35.05    5.69
 -11   1  -1   34.28    4.48
 -11  -1  -1   26.25    5.19
 -11   1  -1   37.03    4.90
 -11  -1  -1   30.33    5.53
 -11  -1  -1   34.83    4.64
 -11   1  -1   31.17    5.62
  12   1   1   18.90    4.28
 -12   1  -1   19.97    4.11
 -12  -1  -1   17.11    3.29
 -12   1  -1   17.26    4.05
 -12  -1  -1   17.93    3.73
 -12  -1  -1   13.94    3.49
 -12   1  -1   17.80    3.81
 -12  -1  -1   21.74    5.00
 -12   1  -1   18.41    4.37
 -13   1  -1  134.17   10.28
 -13  -1  -1  139.08   12.70
 -13   1  -1  144.36   12.29
 -13  -1  -1  155.07   10.98
 -14  -1  -1   33.64    5.47
 -14   1  -1   35.38    6.63
 -14  -1  -1   34.64    7.82
 -14   1  -1   32.20    5.46
 -15  -1  -1   61.62    9.44
 -15   2   1    5.05    2.57
 -15  -2   1    7.12    3.10
 -15  -2   1    9.84    5.16
 -15   2   1    3.88    2.88
 -14  -2   1  219.45   17.28
 -14   2   1  189.37   15.14
 -14   2   1  186.76   14.28
 -14  -2   1  204.98   14.76
  13   2  -1  242.19   13.37
 -13  -2   1  232.11   16.93
 -13  -2   1  224.00   14.84
 -13   2   1  225.75   15.76
 -13   2   1  233.32   15.15
 -12  -2   1  235.26   16.41
  12  -2  -1  235.78   15.45
 -12   2   1  256.00   15.63
 -12   2   1  261.57   17.34
  12   2  -1  223.69   12.82
 -12  -2   1  217.09   13.92
 -12   2   1  242.62   14.61
 -12   2   1  221.33   10.46
  12  -2  -1  254.78   19.65
  11   2  -1  278.14   14.06
  11  -2  -1  268.74   15.73
 -11   2   1  269.97   10.70
 -11   2   1  274.54   15.50
 -11  -2   1  312.12   17.68
 -11  -2   1  278.47   16.13
 -11   2   1  282.69   15.08
 -11  -2   1  301.87   19.58
 -11   2   1  282.47   11.80
 -11   2   1  289.37   11.79
 -11   2   1  311.55   19.84
  11  -2  -1  288.80   19.52
 -11  -2   1  268.48   14.82
 -10   2   1  176.34   10.95
 -10   2   1  184.38    9.60
 -10  -2   1  191.61   15.61
  10  -2  -1  173.18   13.87
 -10   2   1  178.49    9.08
 -10  -2   1  166.27   12.23
 -10   2   1  208.71   16.65
 -10  -2   1  175.48   12.44
 -10   2   1  164.80    7.87
  10  -2  -1  165.32   11.48
  10   2  -1  173.69   10.66
 -10  -2   1  158.26   10.67
   9  -2  -1   18.33    3.65
  -9   2   1   14.27    4.44
  -9  -2   1   19.01    5.28
   9   2  -1   20.20    3.57
   9  -2  -1   20.59    3.06
  -9   2   1   24.09    2.75
  -9   2   1   20.32    3.31
  -9  -2   1   20.74    4.11
   9   2  -1   19.70    5.03
  -9   2   1   17.97    3.66
   9  -2  -1   20.34    4.38
  -9  -2   1   19.04    3.49
  -9  -2   1   23.56    4.57
   9   2  -1   24.82    4.08
  -9   2   1   22.62    3.75
  -8   2   1  234.05    8.73
  -8  -2   1  244.75   12.58
  -8   2   1  228.64   11.36
   8   2  -1  242.15   15.76
  -8  -2   1  230.02   12.73
   8   2  -1  245.34   12.34
  -8   2   1  246.23   12.40
  -8  -2   1  239.14   11.84
  -8  -2   1  238.60   14.74
  -8  -2   1  249.87   17.48
  -8   2   1  237.90   10.81
   8  -2  -1  239.45   12.40
   8  -2  -1  249.68   14.49
  -8   2   1  240.45   12.85
  -8  -2   1  217.87   14.32
   8   2  -1  238.91   11.56
   8  -2  -1  240.63   10.81
  -8   2   1  245.03   18.63
   7  -2  -1  566.65   21.24
   7  -2  -1  561.17   17.84
  -7  -2   1  560.80   26.23
  -7   2   1  532.36   19.18
  -7   2   1  578.16   18.14
   7   2  -1  554.25   17.72
  -7   2   1  584.33   14.42
  -7   2   1  565.44   18.81
  -7  -2   1  569.57   18.32
   7  -2  -1  564.50   18.99
  -7  -2   1  588.87   19.42
  -7  -2   1  545.69   22.10
   7   2  -1  577.67   23.33
   7   2  -1  563.89   19.64
  -7  -2   1  579.05   19.92
  -7   2   1  511.11   16.07
  -6   2   1   88.78    6.66
  -6   2   1   77.31    9.82
  -6   2   1   89.21    5.98
  -6  -2   1   72.81    8.58
   6  -2  -1   80.19    6.48
  -6   2   1   77.58    4.24
   6  -2  -1   89.04    7.19
  -6  -2   1   87.13    6.56
  -6   2   1   82.15    4.48
  -6  -2   1   83.92    5.99
   6   2  -1   83.29    7.79
   6   2  -1   74.57    6.48
  -6   2   1   88.66    6.37
   6  -2  -1   74.62    6.03
  -6  -2   1   89.29    6.43
  -6  -2   1   71.50    7.16
   5   2  -1 1762.82   41.30
   5  -2  -1 1767.63   38.55
   5  -2  -1 1689.50   36.34
   5   2  -1 1694.41   39.76
  -5   2   1 1705.80   36.25
   5  -2  -1 1685.32   39.81
   5   2  -1 1706.95   35.35
  -5  -2   1 1788.18   35.89
  -5  -2   1 1639.57   45.22
  -5   2   1 1750.73   35.26
  -5   2   1 1701.51   30.92
  -5   2   1 1677.68   36.91
  -5  -2   1 1698.15   36.80
  -5   2   1 1548.17   48.93
   4  -2  -1   22.99    3.87
  -4  -2   1   23.92    4.05
  -4   2   1   24.61    2.97
  -4  -2   1   22.97    2.86
  -4   2   1   23.19    2.82
   4  -2  -1   25.90    3.16
  -4   2   1   25.08    2.72
  -4   2   1   21.25    4.60
   4   2  -1   27.04    3.67
  -4  -2   1   21.93    2.70
   4   2  -1   24.17    2.70
  -4  -2   1   22.06    2.79
   4  -2  -1   21.85    2.65
   4   2  -1   23.61    3.50
   3  -2  -1  881.64   20.01
  -3   2   1  832.41   26.26
   3   2  -1  863.59   19.36
   3   2  -1  856.52   22.00
  -3  -2   1  773.48   22.55
   3  -2  -1  855.78   20.41
  -3   2   1  848.80   19.99
   3   2  -1  780.91   23.07
  -3   2   1  773.49   25.28
  -3  -2   1  844.14   19.71
   3  -2  -1  706.15   24.16
  -3  -2   1  844.06   19.39
  -2  -2   1    9.94    1.55
  -2   2   1    9.79    0.80
   2  -2  -1   12.38    1.79
   2   2  -1    9.60    1.97
  -2  -2   1   11.59    1.68
   2   2  -1    9.36    0.95
  -2   2   1    8.35    2.07
   2  -2  -1    9.79    2.29
   2  -2  -1   12.14    1.85
  -2   2   1    8.09    2.03
  -2   2   1   11.53    1.74
   2   2  -1    9.40    1.61
   2  -2  -1   12.20    0.92
  -1   2   1  936.93   17.96
  -1  -2   1  935.59   17.67
   1  -2  -1  920.80   16.99
  -1   2   1  943.07   17.07
   1  -2  -1  937.55   18.19
  -1  -2   1  924.81   19.53
  -1  -2   1  913.28   19.99
   1   2  -1  918.39   17.81
  -1   2   1  921.05   22.21
  -1   2   1  880.59   22.27
   1  -2  -1  863.37   18.89
   1  -2  -1  897.56   22.12
   1   2  -1  942.69   19.66
   1   2  -1  933.01   18.42
  -1  -2   1  930.26   18.38
   0  -2   1   56.16    2.58
   0   2   1   56.64    4.09
   0  -2   1   59.80    3.32
   0   2  -1   55.20    2.52
   0  -2   1   51.22    3.26
   0   2   1   57.80    4.07
   0  -2  -1   54.29    3.10
   0  -2  -1   52.16    3.43
   0   2   1   55.71    3.20
   0   2  -1   54.33    3.17
   0  -2  -1   54.20    3.18
   0   2  -1   58.10    2.82
   0  -2  -1   55.89    3.43
   0   2   1   52.61    3.09
   0   2  -1   56.37    3.46
   0  -2   1   61.53    3.00
   0   2   1   57.21    3.51
   1   2   1 1951.50   33.56
   1   2   1 1919.67   37.02
  -1   2  -1 2021.64   36.02
   1   2   1 1958.98   37.26
  -1  -2  -1 2006.47   36.80
  -1  -2  -1 1892.98   37.24
   1   2   1 1991.68   37.01
   1  -2   1 1944.00   34.51
  -1   2  -1 1914.01   36.17
   1  -2   1 1976.95   34.42
  -1  -2  -1 1913.96   36.54
  -1   2  -1 1986.45   34.35
   2  -2   1  100.98    4.40
  -2  -2  -1  102.81    3.90
  -2  -2  -1  105.50    6.05
  -2   2  -1  101.58    4.30
   2   2   1  100.57    5.70
  -2  -2  -1  111.95    6.16
   2   2   1  107.14    3.82
  -2  -2  -1  108.48    5.41
   2   2   1  104.57    6.04
   2   2   1   99.09    5.26
  -2   2  -1  103.60    4.31
  -2   2  -1   98.84    5.33
   2  -2   1  102.67    4.11
  -3   2  -1 1596.90   27.10
  -3  -2  -1 1551.44   33.99
   3   2   1 1555.13   33.87
   3   2   1 1579.17   32.60
  -3   2  -1 1561.55   28.72
  -3   2  -1 1563.14   32.32
   3   2   1 1587.05   31.31
   3   2   1 1565.42   34.86
  -3  -2  -1 1557.00   30.97
   3  -2   1 1515.73   29.05
   3   2   1 1576.36   27.56
  -3  -2  -1 1502.77   33.39
  -3  -2  -1 1602.18   33.85
   3  -2   1 1585.90   28.81
  -3  -2  -1 1561.02   28.28
  -3   2  -1 1558.53   28.96
  -4   2  -1  130.49    5.68
   4  -2   1  123.90    5.47
  -4   2  -1  122.78    5.13
  -4  -2  -1  128.18    5.21
  -4   2  -1  120.53    5.20
  -4  -2  -1  112.38    7.16
  -4  -2  -1  117.04    6.06
   4   2   1  109.74    7.81
  -4  -2  -1  115.68    7.40
   4   2   1  128.53    6.43
   4   2   1  123.89    7.53
   4  -2   1  120.32    5.72
   4   2   1  124.31    6.93
  -4  -2  -1  121.34    7.68
  -4   2  -1  109.22    6.70
   4   2   1  122.18    4.92
  -4   2  -1  132.82    6.35
   5   2   1  213.70    9.88
   5   2   1  220.92   10.82
  -5   2  -1  207.07    8.08
   5   2   1  220.02    7.50
  -5  -2  -1  223.95   11.22
  -5  -2  -1  194.86   10.50
  -5  -2  -1  220.33    8.66
   5   2   1  228.15    9.22
  -5   2  -1  209.64   10.08
  -5   2  -1  218.57    7.93
   5  -2   1  206.86    8.21
   5  -2   1  213.98    8.78
  -5  -2  -1  196.72   11.21
  -5   2  -1  225.26    9.04
  -5  -2  -1  209.84   10.60
  -5  -2  -1  210.68    8.80
  -5   2  -1  222.32    8.43
  -5  -2  -1  206.46    7.67
  -5   2  -1  214.38    7.71
  -6  -2  -1  368.46   12.50
  -6  -2  -1  355.65   12.54
  -6   2  -1  353.06   11.58
  -6   2  -1  368.12   12.48
  -6  -2  -1  363.95   15.26
  -6   2  -1  358.12   12.19
  -6   2  -1  371.16   14.75
   6   2   1  349.62   12.63
  -6   2  -1  343.81   12.54
  -6   2  -1  375.48   14.58
   6   2   1  382.09   14.04
  -6  -2  -1  371.24   15.82
  -6  -2  -1  349.77   14.80
  -6   2  -1  374.92   11.37
   6   2   1  361.36   11.09
  -6  -2  -1  318.46   15.35
  -6  -2  -1  369.09   11.51
   6  -2   1  366.41   12.18
   6  -2   1  359.24   13.33
   6   2   1  370.49   15.09
  -6   2  -1  353.14   11.84
  -7   2  -1  111.37    8.36
  -7   2  -1  101.58    6.45
   7  -2   1   96.13    6.33
   7   2   1   95.36    7.75
  -7  -2  -1   96.16    7.83
  -7  -2  -1  103.98    6.73
   7  -2   1  106.64    7.85
  -7  -2  -1  104.10    6.13
  -7   2  -1  102.44    7.62
  -7  -2  -1  104.90    8.70
  -7   2  -1  100.02    5.81
  -7   2  -1   95.40    6.47
  -7   2  -1  100.88    6.82
  -7   2  -1  104.96    6.80
  -7  -2  -1  122.52    8.83
   7   2   1  111.80    6.08
   7   2   1  106.45    6.97
  -7  -2  -1   98.71    8.66
  -7  -2  -1  101.44    6.56
  -7   2  -1  110.19    6.34
  -8  -2  -1  446.41   14.35
  -8  -2  -1  433.43   18.29
  -8  -2  -1  440.65   14.63
  -8   2  -1  433.70   16.32
  -8  -2  -1  431.29   18.41
  -8   2  -1  432.79   14.67
  -8  -2  -1  406.47   19.29
  -8  -2  -1  417.11   19.34
  -8   2  -1  435.83   15.75
  -8   2  -1  431.75   16.01
  -8   2  -1  414.49   15.23
   8  -2   1  424.77   15.42
  -8   2  -1  420.52   18.47
  -8   2  -1  427.00   16.88
  -8  -2  -1  447.19   15.85
  -8   2  -1  445.78   14.09
  -8  -2  -1  427.18   15.04
   8   2   1  418.32   17.74
  -9  -2  -1  524.24   17.50
  -9   2  -1  525.74   19.00
   9   2   1  552.48   21.31
  -9  -2  -1  521.45   23.07
  -9   2  -1  527.63   22.32
  -9   2  -1  544.97   19.82
  -9  -2  -1  561.71   19.09
  -9   2  -1  541.64   16.65
   9  -2   1  538.59   18.69
  -9  -2  -1  543.95   21.46
  -9  -2  -1  527.77   23.30
  -9  -2  -1  518.04   21.60
  -9   2  -1  532.62   17.75
  -9   2  -1  529.14   19.56
  -9  -2  -1  543.77   17.29
  -9  -2  -1  535.93   17.54
  -9   2  -1  519.98   18.33
  -9   2  -1  518.84   19.05
  10  -2   1  373.50   16.05
  10   2   1  378.75   17.89
 -10   2  -1  384.89   16.08
 -10  -2  -1  345.85   19.58
 -10   2  -1  364.38   16.49
 -10   2  -1  352.54   13.50
 -10  -2  -1  382.43   19.00
 -10  -2  -1  368.67   14.69
 -10  -2  -1  356.96   14.36
 -10   2  -1  367.16   19.58
 -10   2  -1  374.84   15.24
 -10   2  -1  360.09   16.30
 -10   2  -1  360.82   16.84
 -10  -2  -1  357.73   15.86
 -10   2  -1  368.54   16.42
 -10  -2  -1  377.72   15.14
 -11  -2  -1  121.48   11.06
 -11  -2  -1  115.64    8.51
 -11  -2  -1  122.61    8.12
 -11   2  -1  119.35   11.63
  11   2   1  113.53    9.91
 -11   2  -1  113.26    9.07
 -11   2  -1  109.85    8.34
 -11   2  -1  112.35    9.53
 -11  -2  -1  122.61    8.72
 -11   2  -1  103.35    7.32
 -11   2  -1  102.74    9.06
 -11   2  -1  111.28    9.31
 -12   2  -1  184.34   11.97
 -12  -2  -1  193.11   14.71
 -12  -2  -1  166.69    9.96
 -12  -2  -1  176.73   11.33
 -12   2  -1  184.18   15.32
 -12   2  -1  175.70   12.59
  12   2   1  179.42   12.88
 -12  -2  -1  201.14   12.23
 -12   2  -1  188.17   11.81
 -13   2  -1   23.44    4.96
  13   2   1   28.80    5.70
 -13   2  -1   18.19    4.31
 -13   2  -1   33.10    5.29
 -13  -2  -1   30.99    6.39
 -13   2  -1   27.11    4.71
 -13  -2  -1   31.33    5.04
 -14   2  -1  108.10    9.86
 -14   2  -1  111.13   11.21
 -14  -2  -1   91.03   11.10
 -14  -2  -1  107.80    9.85
 -15  -2  -1    3.56    3.65
 -15   3   1    3.56    3.06
 -15   3   1    6.44    3.16
 -15  -3   1    9.99    3.87
 -14  -3   1   75.47   10.58
 -14  -3   1   63.94    8.24
 -14   3   1   59.24    8.90
 -14   3   1   74.83    8.93
  13   3  -1  579.51   23.63
 -13  -3   1  642.23   29.69
 -13   3   1  585.53   25.83
 -13  -3   1  587.62   25.13
  13  -3  -1  661.19   34.47
  13  -3  -1  586.44   26.48
 -13   3   1  578.05   24.91
 -12  -3   1  438.21   20.52
 -12   3   1  463.89   20.89
 -12   3   1  536.41   28.03
 -12   3   1  447.28   17.29
 -12   3   1  463.58   21.56
  12  -3  -1  481.73   27.04
  12  -3  -1  434.35   21.69
 -12  -3   1  469.81   24.03
  12   3  -1  475.90   20.58
 -11  -3   1  926.00   37.29
  11  -3  -1  847.44   34.46
  11  -3  -1  788.59   29.10
  11   3  -1  833.65   28.32
 -11   3   1  829.86   28.05
 -11   3   1  854.94   25.34
 -11  -3   1  833.68   31.61
 -11  -3   1  845.33   28.49
 -10   3   1   80.71    4.47
 -10   3   1   75.47    7.81
  10  -3  -1   97.05    8.79
 -10  -3   1   93.61    9.83
  10  -3  -1   90.29   10.07
 -10  -3   1  103.17   11.98
 -10   3   1   92.10    8.03
 -10   3   1  106.05   12.88
 -10  -3   1   89.77    8.09
  10   3  -1   86.61    8.26
 -10  -3   1   87.90    8.92
  -9   3   1    7.93    1.42
   9   3  -1    4.33    1.91
  -9  -3   1    4.90    2.79
  -9   3   1    5.97    1.14
  -9  -3   1    2.42    1.56
  -9  -3   1    8.08    3.02
   9  -3  -1    3.06    1.84
  -9   3   1    9.66    2.39
   9   3  -1    6.48    2.82
  -9  -3   1    7.34    2.23
  -9   3   1    5.31    2.44
   9  -3  -1    5.71    2.73
  -9   3   1   10.32    5.20
   8   3  -1    9.17    2.91
  -8  -3   1    7.45    3.10
  -8  -3   1    6.24    1.77
   8  -3  -1    6.50    1.88
   8  -3  -1    8.92    3.22
  -8   3   1    8.29    2.39
  -8   3   1   12.30    5.62
  -8   3   1    9.36    1.31
  -8  -3   1    6.90    2.24
   8   3  -1    8.80    2.22
  -8   3   1    7.99    2.56
  -8   3   1    4.39    1.61
   8  -3  -1    8.85    2.39
  -8  -3   1   10.58    3.47
  -8  -3   1    6.04    2.18
   7  -3  -1   10.89    2.50
  -7  -3   1   13.07    3.03
  -7  -3   1   14.79    3.66
  -7   3   1   10.52    2.65
  -7   3   1   13.12    2.56
  -7  -3   1   14.49    4.08
   7  -3  -1   12.49    2.74
   7   3  -1   11.41    3.33
  -7   3   1   12.74    1.31
  -7   3   1   11.30    4.72
  -7  -3   1   10.52    2.58
  -7  -3   1    9.52    2.13
  -7   3   1    8.98    2.17
   7   3  -1   10.36    2.41
   7  -3  -1   15.15    3.21
   7   3  -1   11.58    3.06
   6  -3  -1 2609.87   54.17
  -6   3   1 2562.71   50.73
  -6   3   1 2400.31   51.27
  -6  -3   1 2596.41   52.74
  -6   3   1 2593.33   52.10
   6   3  -1 2534.75   57.12
  -6  -3   1 2532.15   65.98
   6  -3  -1 2584.37   56.42
   6  -3  -1 2562.15   52.41
   6   3  -1 2673.88   59.50
  -6  -3   1 2588.86   51.39
  -6  -3   1 2539.44   53.25
  -6   3   1 2599.39   41.29
  -6   3   1 2480.81   72.26
   5   3  -1  618.45   23.13
  -5   3   1  601.44   29.98
  -5  -3   1  645.67   19.70
  -5  -3   1  639.64   18.63
  -5   3   1  661.30   18.99
  -5   3   1  644.15   18.71
   5   3  -1  668.16   22.98
   5  -3  -1  642.69   19.70
   5  -3  -1  658.41   19.35
   5   3  -1  654.22   18.48
   5  -3  -1  624.85   23.63
  -5  -3   1  646.30   26.79
   4  -3  -1 4412.63   78.75
  -4   3   1 4217.07   96.93
   4   3  -1 4610.04   83.56
   4   3  -1 4349.87   77.61
  -4   3   1 4480.39   78.18
  -4   3   1 4397.50   77.78
   4   3  -1 4582.40   71.24
  -4  -3   1 4441.94   78.00
   4   3  -1 4426.80   87.20
  -4  -3   1 4398.30   89.56
  -4  -3   1 4505.00   79.16
   4  -3  -1 4309.62   89.59
   4  -3  -1 4362.92   78.42
  -3  -3   1  145.02    7.04
   3   3  -1  139.06    9.39
  -3  -3   1  118.56    8.72
  -3   3   1  133.50    6.70
   3   3  -1  119.98    5.58
  -3   3   1  132.86   11.26
   3  -3  -1  140.45    7.09
  -3  -3   1  139.89    7.10
   3  -3  -1  138.87    6.96
  -3   3   1  124.38   10.45
   3   3  -1  125.16    6.59
  -3  -3   1  137.77    4.38
   3   3  -1  148.30    8.39
   3  -3  -1  119.78    9.89
  -2   3   1   65.22    6.71
   2  -3  -1   73.10    4.82
   2   3  -1   70.00    4.58
   2  -3  -1   72.74    4.64
   2   3  -1   66.60    5.61
   2   3  -1   68.14    4.37
  -2  -3   1   61.87    5.03
  -2   3   1   73.33    3.90
  -2  -3   1   73.29    4.52
   2  -3  -1   71.55    4.10
  -2   3   1   80.06    3.12
  -2  -3   1   74.49    3.73
  -2   3   1   72.37    6.94
  -2  -3   1   74.27    4.76
   2  -3  -1   64.93    6.54
   2   3  -1   81.07    5.41
   2  -3  -1   71.43    2.67
   1  -3  -1    1.23    0.73
  -1  -3   1    0.13    0.43
  -1   3   1    0.26    0.77
  -1  -3   1    0.21    0.81
  -1   3   1    0.97    1.47
  -1  -3   1    0.40    0.71
   1  -3  -1    0.18    0.32
   1   3  -1    0.72    0.53
  -1   3   1    0.44    0.42
   1   3  -1    1.29    1.12
   1  -3  -1    0.60    0.50
   1   3  -1    0.49    0.54
   1  -3  -1    0.84    0.85
  -1  -3   1    0.51    0.66
  -1   3   1    0.50    0.86
   0  -3   1  209.66    8.22
   0  -3  -1  203.18    8.46
   0  -3  -1  208.01    8.31
   0  -3  -1  203.29    7.99
   0   3  -1  207.50    8.37
   0  -3   1  214.13    8.28
   0   3   1  223.52    8.12
   0   3  -1  199.49    6.88
   0   3   1  209.85    8.76
   0   3   1  199.61    9.55
   0   3  -1  209.45    8.25
   0   3   1  195.52    9.68
   0  -3   1  199.39    6.68
   0  -3  -1  206.45    7.85
   0  -3   1  195.08    6.95
   0   3   1  205.79    7.69
  -1  -3  -1  476.71   14.76
   1   3   1  488.58   12.71
   1   3   1  493.34   15.14
  -1   3  -1  525.55   14.68
   1  -3   1  494.15   12.68
  -1  -3  -1  498.84   15.29
   1   3   1  481.39   14.70
  -1  -3  -1  502.53   15.16
  -1   3  -1  492.46   11.28
  -1   3  -1  487.74   14.51
   1  -3   1  488.59   13.27
   1  -3   1  517.69   11.07
  -1  -3  -1  502.29   15.44
  -1  -3  -1  476.39   13.97
   1   3   1  487.26   15.62
   2  -3   1 6762.42  108.96
   2   3   1 6743.16  108.15
   2   3   1 6830.29  112.32
  -2   3  -1 6819.73  109.79
   2   3   1 6758.94  114.23
  -2  -3  -1 6742.24  112.37
  -2  -3  -1 6794.88  114.99
  -2   3  -1 6830.57  105.48
   2  -3   1 6447.19  107.78
  -2   3  -1 6642.17  107.80
  -2   3  -1 6930.48  113.50
   2   3   1 6884.77  116.02
  -2  -3  -1 6688.19  115.15
  -2  -3  -1 6902.19  109.08
  -2  -3  -1 6971.77  111.84
  -3  -3  -1 1019.00   22.18
  -3   3  -1 1075.21   21.22
   3   3   1 1084.67   26.67
   3  -3   1 1098.16   26.07
   3  -3   1 1095.59   22.71
   3   3   1 1078.90   28.16
   3   3   1 1093.29   21.79
  -3   3  -1 1086.32   26.46
   3   3   1 1082.14   24.69
  -3   3  -1 1071.56   22.99
   3  -3   1 1065.42   21.58
  -3  -3  -1 1061.14   24.56
  -3  -3  -1 1097.04   28.46
  -3  -3  -1 1076.44   27.46
  -3  -3  -1 1103.78   27.71
  -4  -3  -1 1236.54   31.88
  -4  -3  -1 1224.02   27.61
   4  -3   1 1291.17   29.77
   4   3   1 1261.51   27.93
  -4  -3  -1 1222.32   32.48
   4  -3   1 1255.63   24.97
  -4   3  -1 1241.45   30.74
  -4   3  -1 1220.19   22.86
   4   3   1 1243.95   25.04
  -4   3  -1 1300.46   24.66
   4   3   1 1255.74   32.44
  -4   3  -1 1271.26   26.58
   4   3   1 1303.68   30.52
   4  -3   1 1271.20   26.45
  -4  -3  -1 1312.00   25.95
  -4  -3  -1 1209.37   31.20
   5   3   1   10.51    1.66
  -5  -3  -1    8.15    2.48
   5   3   1   12.15    2.94
   5   3   1    9.78    2.57
  -5  -3  -1   12.31    2.24
   5  -3   1   12.15    2.46
  -5   3  -1    8.85    1.47
   5   3   1   13.89    2.29
   5  -3   1   11.67    1.80
  -5   3  -1   11.49    2.03
   5  -3   1   11.84    2.05
  -5   3  -1   10.28    1.88
  -5   3  -1   12.48    3.07
  -5   3  -1   12.92    1.69
  -5  -3  -1   12.07    1.88
  -5  -3  -1   12.11    2.95
  -5  -3  -1   16.37    3.31
   6   3   1   35.52    3.77
   6   3   1   38.15    5.01
  -6  -3  -1   36.92    3.89
  -6   3  -1   40.52    5.23
  -6   3  -1   35.50    3.20
  -6  -3  -1   35.76    5.13
  -6   3  -1   33.34    2.96
  -6  -3  -1   38.51    5.09
  -6  -3  -1   39.67    5.29
  -6   3  -1   36.75    3.68
   6   3   1   38.10    3.34
   6  -3   1   37.33    3.75
   6  -3   1   39.67    3.88
  -6  -3  -1   37.00    3.90
  -6  -3  -1   32.52    5.04
  -6   3  -1   40.74    3.90
  -6  -3  -1   35.84    3.55
  -7  -3  -1   35.84    5.23
  -7   3  -1   39.14    4.13
   7   3   1   40.86    4.19
   7   3   1   36.69    3.51
  -7  -3  -1   34.12    5.34
  -7   3  -1   47.15    6.10
   7  -3   1   34.81    3.87
  -7  -3  -1   42.51    4.16
   7   3   1   33.49    5.22
  -7  -3  -1   43.11    6.07
  -7  -3  -1   34.75    5.39
  -7   3  -1   43.69    4.36
  -7   3  -1   31.96    3.40
   7   3   1   38.83    4.86
  -7   3  -1   36.01    3.25
  -7  -3  -1   38.68    3.89
  -7   3  -1   35.03    3.66
   7  -3   1   36.00    4.27
  -7  -3  -1   41.76    4.43
   8  -3   1  380.50   14.75
  -8  -3  -1  383.47   18.35
  -8  -3  -1  366.93   18.96
   8   3   1  382.62   18.03
  -8   3  -1  386.44   14.90
   8  -3   1  410.23   17.46
  -8   3  -1  399.65   12.53
  -8   3  -1  397.55   17.17
  -8  -3  -1  385.44   14.12
  -8   3  -1  400.59   14.44
  -8   3  -1  405.73   19.59
  -8  -3  -1  394.86   14.26
  -8   3  -1  372.04   14.10
  -8   3  -1  392.30   14.41
  -8   3  -1  375.56   14.56
   8   3   1  396.39   14.88
  -8  -3  -1  406.82   19.98
  -8  -3  -1  359.42   17.56
  -8  -3  -1  410.05   15.64
  -9  -3  -1 1854.15   38.52
  -9  -3  -1 1861.93   40.90
  -9   3  -1 1857.23   41.02
  -9   3  -1 1833.45   45.33
  -9   3  -1 1790.46   41.01
  -9  -3  -1 1813.69   40.07
  -9   3  -1 1831.47   50.47
  -9  -3  -1 1889.10   43.14
   9  -3   1 1839.38   42.29
  -9   3  -1 1808.90   37.41
  -9  -3  -1 1802.05   47.97
  -9  -3  -1 1739.27   50.52
  -9   3  -1 1880.02   42.35
  -9  -3  -1 1819.29   47.79
   9   3   1 1833.85   47.31
  -9   3  -1 1850.21   41.71
  -9   3  -1 1884.89   42.41
 -10   3  -1  364.74   16.14
  10  -3   1  364.49   16.15
 -10   3  -1  370.69   17.44
 -10   3  -1  362.74   12.93
 -10   3  -1  376.24   15.58
 -10   3  -1  355.76   15.91
 -10   3  -1  336.03   15.24
  10   3   1  381.62   18.99
 -10  -3  -1  369.72   14.52
 -10  -3  -1  378.35   15.50
 -10   3  -1  364.33   15.96
 -10  -3  -1  356.70   19.06
 -10  -3  -1  372.48   13.99
 -10   3  -1  358.52   20.67
 -11  -3  -1  479.50   23.41
 -11   3  -1  484.41   15.91
 -11   3  -1  505.26   19.31
  11   3   1  501.40   22.60
  11  -3   1  483.12   20.08
 -11  -3  -1  509.60   19.29
 -11   3  -1  474.97   19.83
 -11   3  -1  500.66   25.95
 -11  -3  -1  475.56   17.45
 -11  -3  -1  503.20   17.42
 -11   3  -1  465.78   19.25
 -11   3  -1  481.09   20.62
 -11   3  -1  478.09   19.84
 -12   3  -1   14.64    4.06
  12   3   1    8.61    3.08
 -12   3  -1   22.28    4.71
 -12   3  -1   18.18    3.70
  12  -3   1   18.13    3.98
 -12  -3  -1   16.74    3.68
 -12   3  -1   15.67    3.84
 -12  -3  -1   16.17    4.74
 -12  -3  -1   18.55    3.19
 -13   3  -1    2.21    1.57
 -13   3  -1    2.09    1.86
 -13   3  -1   -0.04    3.60
 -13  -3  -1    2.55    2.36
  13   3   1    6.37    3.41
 -13  -3  -1    5.20    3.26
 -13   3  -1    4.05    2.28
 -14   3  -1    9.59    3.22
  14   3   1    8.15    4.03
 -14  -3  -1    9.97    5.00
 -15  -3  -1  240.10   19.47
 -15  -4   1    3.76    2.97
 -15   4   1    3.92    2.87
 -15   4   1    5.96    3.72
  14  -4  -1   61.53    8.89
 -14   4   1   54.23    7.84
 -14   4   1   49.47    7.56
 -14  -4   1   61.54    9.57
 -14  -4   1   53.06    7.79
  13   4  -1   81.96    9.08
 -13  -4   1  106.52   12.18
  13  -4  -1   90.92   10.12
 -13   4   1   95.99    9.97
 -13   4   1   88.72    9.56
  13  -4  -1  104.62   13.41
 -13  -4   1   94.17    9.74
 -12   4   1  850.69   27.29
  12  -4  -1  851.02   31.77
 -12  -4   1  831.03   30.01
  12  -4  -1  908.37   37.62
 -12   4   1  970.00   41.16
 -12  -4   1  877.00   34.71
  12   4  -1  823.42   30.78
 -12   4   1  843.09   30.02
  11   4  -1  400.39   20.18
 -11  -4   1  401.35   19.03
 -11   4   1  388.91   18.45
  11  -4  -1  398.79   17.44
 -11   4   1  473.11   28.87
 -11  -4   1  393.94   21.13
  11  -4  -1  396.15   19.79
  11  -4  -1  419.71   23.12
 -10   4   1   85.64    7.88
 -10   4   1   72.98    7.60
  10  -4  -1   79.27    9.00
  10   4  -1   96.28    9.44
 -10  -4   1   75.90    8.81
 -10  -4   1   85.70    8.27
  10  -4  -1   74.72    7.99
 -10  -4   1  106.42   12.66
  10  -4  -1   86.99    7.86
 -10   4   1   83.96    3.07
 -10   4   1   94.59   12.62
  -9  -4   1    8.78    2.80
  -9  -4   1    2.83    1.81
  -9  -4   1    8.66    3.54
   9  -4  -1    6.19    2.46
  -9   4   1    5.93    0.68
  -9  -4   1    3.15    1.81
  -9   4   1   11.16    5.13
  -9   4   1    6.37    2.28
   9  -4  -1    2.06    1.35
   9   4  -1    7.67    2.77
  -9   4   1    6.08    2.24
   9  -4  -1   12.56    3.74
  -8  -4   1   49.88    5.62
   8   4  -1   48.29    5.30
  -8  -4   1   50.37    6.23
   8  -4  -1   46.37    6.05
  -8   4   1   48.50    5.43
   8  -4  -1   43.41    5.42
   8   4  -1   39.97    6.05
  -8  -4   1   39.13    5.22
  -8  -4   1   50.27    8.98
  -8   4   1   45.03    5.28
  -8   4   1   50.27   10.08
  -8   4   1   42.35    5.21
  -7  -4   1  155.84   14.51
   7  -4  -1   99.07    7.90
  -7  -4   1  116.36    8.54
  -7  -4   1  113.29    8.00
  -7   4   1  103.27    7.48
  -7   4   1  109.08    7.67
  -7   4   1  101.49    7.67
  -7  -4   1  105.37    8.52
   7   4  -1  108.12    9.75
   7   4  -1  117.06    8.00
   7  -4  -1  112.16    8.67
  -7   4   1  141.21   15.86
  -7  -4   1   99.06    9.86
   6  -4  -1  483.24   17.53
  -6   4   1  491.64   16.79
  -6   4   1  482.38   17.17
   6  -4  -1  505.09   18.07
  -6   4   1  492.68   29.86
  -6  -4   1  493.29   17.87
  -6  -4   1  516.09   26.11
   6   4  -1  489.56   10.45
   6   4  -1  486.51   21.76
  -6  -4   1  479.17   18.24
  -6  -4   1  483.82   17.05
   6  -4  -1  505.46   22.49
  -5   4   1 3737.50   68.94
   5   4  -1 3705.35   79.42
   5  -4  -1 3700.69   81.29
   5   4  -1 3660.45   60.86
   5  -4  -1 3663.87   69.20
  -5  -4   1 3937.19   85.84
  -5  -4   1 3732.96   70.63
  -5  -4   1 3656.46   68.64
   5  -4  -1 3677.47   69.57
  -5   4   1 3814.47   95.65
  -5   4   1 3658.52   67.67
  -4   4   1  137.10    6.13
  -4   4   1  134.21   13.85
  -4  -4   1  141.11    5.39
   4   4  -1  134.78    6.65
  -4  -4   1  146.58    8.43
   4   4  -1  146.13    5.73
   4   4  -1  151.01    7.97
   4  -4  -1  140.58    7.69
   4  -4  -1  145.31   12.13
   4  -4  -1  136.56    7.91
  -4  -4   1  142.32    7.86
   4   4  -1  150.41   11.30
  -4   4   1  138.68    7.45
  -4  -4   1  133.59   11.31
   3   4  -1  700.48   24.73
  -3  -4   1  675.96   24.45
   3  -4  -1  684.71   19.11
  -3   4   1  640.51   17.97
   3   4  -1  630.46   18.44
  -3  -4   1  636.58   21.67
  -3  -4   1  683.15   19.38
   3  -4  -1  719.05   19.07
  -3  -4   1  700.02   19.04
  -3  -4   1  701.60   17.15
   3   4  -1  663.63   19.12
  -3   4   1  646.52   29.22
  -3   4   1  652.48   28.26
   3   4  -1  720.54   20.01
   3  -4  -1  650.06   26.74
  -2   4   1   49.17    4.01
  -2   4   1   50.98    7.06
   2  -4  -1   50.35    2.86
   2  -4  -1   48.57    4.24
  -2  -4   1   48.00    4.91
  -2   4   1   41.32    6.09
  -2  -4   1   55.39    4.45
  -2  -4   1   52.21    4.38
  -2  -4   1   51.69    4.38
   2  -4  -1   40.59    5.90
   2  -4  -1   47.92    4.00
  -2   4   1   48.57    4.56
   2   4  -1   46.86    5.33
   2   4  -1   47.18    4.21
   2   4  -1   44.07    4.36
  -1   4   1  451.95   16.06
  -1  -4   1  449.51   14.98
   1   4  -1  461.82   15.85
   1  -4  -1  471.97   14.32
   1   4  -1  408.14   15.06
  -1  -4   1  457.25   13.46
   1   4  -1  463.30   14.11
  -1   4   1  458.18   19.39
   1  -4  -1  456.72   13.08
  -1   4   1  471.97   14.00
   1  -4  -1  439.53   14.82
  -1  -4   1  477.86   14.58
   1  -4  -1  462.20   14.25
  -1   4   1  462.62   19.32
  -1  -4   1  452.17   15.04
   0  -4  -1   26.10    3.10
   0  -4  -1   22.17    3.19
   0   4   1   21.80    3.55
   0   4  -1   22.06    2.59
   0  -4   1   19.51    2.91
   0  -4  -1   23.53    3.15
   0   4   1   19.49    2.54
   0  -4  -1   21.01    3.55
   0   4  -1   21.24    3.16
   0  -4   1   23.75    2.76
   0   4   1   23.20    3.72
   0   4   1   22.46    3.82
   0  -4   1   24.98    3.17
   0  -4  -1   23.94    3.05
   0  -4   1   22.23    2.37
  -1  -4  -1 2456.85   50.94
  -1  -4  -1 2239.02   48.91
   1   4   1 2551.02   50.15
  -1  -4  -1 2333.63   48.90
  -1  -4  -1 2410.35   49.56
   1   4   1 2464.29   50.55
  -1  -4  -1 2455.81   47.83
  -1   4  -1 2421.99   43.62
   1   4   1 2379.60   51.54
  -1   4  -1 2412.13   48.21
   1  -4   1 2446.98   46.48
   1   4   1 2374.08   45.24
  -1  -4  -1 2435.74   50.45
   1  -4   1 2403.56   49.33
   1  -4   1 2359.07   42.89
   1  -4   1 2486.17   43.09
  -1   4  -1 2521.86   49.64
   2   4   1  617.67   21.60
  -2   4  -1  654.71   14.86
  -2  -4  -1  690.57   19.71
  -2   4  -1  654.34   17.69
   2  -4   1  658.87   14.16
  -2   4  -1  657.41   20.46
   2   4   1  677.30   16.95
  -2  -4  -1  659.31   19.85
  -2  -4  -1  651.53   22.13
  -2  -4  -1  635.87   20.42
   2  -4   1  654.37   17.18
   2   4   1  659.52   19.59
   2  -4   1  644.06   15.60
   3   4   1 3010.75   54.24
  -3  -4  -1 3005.04   64.47
   3   4   1 3114.38   57.94
   3  -4   1 3044.01   54.88
  -3  -4  -1 3079.12   55.03
   3  -4   1 3035.67   60.42
   3   4   1 3200.68   60.96
  -3   4  -1 3093.18   51.10
  -3   4  -1 3037.81   55.66
  -3  -4  -1 3098.33   61.44
  -3   4  -1 2942.33   60.90
  -3  -4  -1 3062.94   58.57
   3  -4   1 2944.84   52.34
  -3  -4  -1 3014.28   57.43
   3   4   1 3089.78   63.68
  -4  -4  -1  407.07   16.48
  -4  -4  -1  422.00   12.99
   4  -4   1  401.52   10.31
   4   4   1  417.28   16.27
  -4   4  -1  400.72   16.74
   4  -4   1  420.21   11.22
  -4  -4  -1  419.08   18.61
   4  -4   1  411.99   13.11
   4  -4   1  393.52   15.65
   4   4   1  402.08   12.20
  -4  -4  -1  400.45   16.95
   4   4   1  412.76   14.18
  -4   4  -1  407.32   13.29
  -4  -4  -1  407.60   14.41
   4   4   1  411.12   17.86
  -4  -4  -1  395.86   13.54
  -4   4  -1  423.19   11.01
   5  -4   1   12.33    2.23
  -5   4  -1   13.22    2.31
   5  -4   1   12.12    1.82
  -5   4  -1   14.28    1.58
   5   4   1   13.21    2.41
   5   4   1   14.13    2.16
  -5  -4  -1   12.09    2.35
  -5   4  -1   12.92    1.73
  -5  -4  -1   10.72    1.98
  -5   4  -1   17.56    3.66
  -5  -4  -1   11.80    2.90
   5   4   1    8.99    2.55
  -5  -4  -1    9.04    2.91
  -5  -4  -1   18.07    2.73
   5  -4   1   12.22    1.93
  -5  -4  -1   15.44    3.67
  -6  -4  -1  112.45    9.83
   6  -4   1  118.95    6.16
  -6  -4  -1  107.33    9.61
   6   4   1  104.56    9.18
   6  -4   1  119.23    7.27
  -6  -4  -1  107.03    8.87
  -6   4  -1  102.32    6.51
   6   4   1  116.19    7.17
  -6   4  -1  116.19    5.48
  -6   4  -1  109.86    5.32
  -6   4  -1  125.04    9.98
  -6   4  -1  120.12    7.20
   6   4   1  108.38    6.27
  -6  -4  -1  117.91    7.31
  -6  -4  -1  124.54    7.05
  -6  -4  -1  107.73    9.48
   6   4   1  108.50    8.35
  -7  -4  -1  147.47   11.77
   7  -4   1  147.96    7.90
  -7   4  -1  150.40    8.56
  -7   4  -1  134.92    6.86
  -7  -4  -1  142.34   11.58
   7   4   1  137.71    8.10
   7  -4   1  140.72    8.38
  -7  -4  -1  139.64   11.18
   7   4   1  157.52   10.32
   7   4   1  148.68    7.69
  -7  -4  -1  133.78    8.07
   7   4   1  132.59   10.66
  -7  -4  -1  141.44   10.52
  -7   4  -1  132.08   10.93
  -7  -4  -1  147.94    8.14
  -7   4  -1  136.86    7.71
  -7   4  -1  143.12    6.42
  -7  -4  -1  139.10    8.45
   8   4   1  534.51   20.57
  -8  -4  -1  486.37   23.43
  -8   4  -1  487.61   16.78
  -8  -4  -1  524.59   22.89
  -8  -4  -1  487.90   23.27
   8   4   1  519.56   22.45
  -8  -4  -1  504.23   21.81
   8   4   1  485.56   17.08
  -8  -4  -1  553.25   17.85
  -8  -4  -1  544.43   18.84
  -8   4  -1  479.74   15.65
   8  -4   1  533.60   18.85
   8  -4   1  474.43   17.45
  -8  -4  -1  476.54   16.83
  -8   4  -1  499.26   17.92
  -8   4  -1  518.28   14.24
  -8   4  -1  495.78   23.50
  -9   4  -1  591.42   27.35
  -9   4  -1  555.94   19.98
  -9   4  -1  550.79   17.99
  -9  -4  -1  553.67   18.67
  -9  -4  -1  578.34   24.54
  -9   4  -1  598.38   19.63
   9  -4   1  569.18   20.17
  -9   4  -1  585.49   23.01
   9   4   1  562.05   18.28
  -9  -4  -1  558.80   20.38
  -9   4  -1  553.30   18.86
  -9   4  -1  561.16   15.62
  -9  -4  -1  591.53   19.50
   9   4   1  560.13   18.94
  -9   4  -1  550.83   18.64
   9   4   1  546.22   24.04
  10   4   1 1135.57   37.23
 -10  -4  -1 1191.64   27.57
  10   4   1 1091.93   29.43
 -10   4  -1 1042.05   29.16
  10  -4   1 1146.94   32.37
 -10   4  -1 1198.87   35.80
 -10   4  -1 1097.49   30.49
 -10   4  -1 1143.37   41.61
 -10   4  -1 1091.51   30.49
 -10   4  -1 1119.25   25.97
 -10   4  -1 1153.84   31.22
 -10  -4  -1 1168.93   31.47
 -10  -4  -1 1164.46   38.15
 -10  -4  -1 1108.20   29.56
 -11  -4  -1    7.92    3.15
 -11  -4  -1    9.45    2.66
 -11  -4  -1    7.53    2.01
 -11   4  -1   12.59    2.70
 -11  -4  -1    9.77    2.42
  11   4   1   12.39    3.44
 -11   4  -1   10.94    2.94
 -11   4  -1    8.53    3.26
 -11   4  -1    7.75    2.70
 -11   4  -1    6.09    2.59
  11  -4   1    3.68    2.01
 -12  -4  -1    7.99    3.61
  12  -4   1   11.02    3.55
 -12   4  -1    3.02    2.12
 -12  -4  -1   11.10    3.51
 -12   4  -1    5.52    3.14
 -12   4  -1    7.20    2.92
  12   4   1    2.63    1.94
 -12   4  -1    4.00    2.48
 -13  -4  -1    8.18    3.05
  13   4   1    5.52    2.11
 -13   4  -1    7.04    3.99
  13  -4   1    6.40    2.91
 -13   4  -1    5.34    2.24
 -13  -4  -1   10.05    4.18
 -13   4  -1    7.12    3.13
 -13   4  -1    7.77    2.69
  14   4   1   27.49    5.49
 -14  -4  -1   36.01    7.85
 -14   4  -1   35.32    6.00
 -15  -4  -1    0.10    3.77
 -15   5   1   18.85    5.08
 -15  -5   1   19.42    5.77
 -15   5   1   23.80    5.53
  15  -5  -1   21.95    6.13
 -14  -5   1    2.16    2.93
 -14  -5   1    3.43    3.99
  14  -5  -1    1.79    2.93
 -14   5   1    1.86    2.55
 -14   5   1    5.97    3.28
 -13   5   1   35.85    6.20
  13   5  -1   40.09    7.28
 -13  -5   1   28.98    6.82
 -13  -5   1   36.79    6.13
 -13   5   1   33.37    5.90
  13  -5  -1   49.97    9.26
 -13   5   1   35.34    8.50
  13  -5  -1   47.94    7.53
  12  -5  -1  117.00   11.07
 -12   5   1  109.31   10.16
  12  -5  -1  123.49   13.10
 -12  -5   1  111.29   11.97
 -12  -5   1  110.92   10.43
 -12   5   1  144.88   16.09
  12   5  -1  119.47   11.73
 -11  -5   1   30.69    5.25
  11   5  -1   34.83    6.43
  11  -5  -1   27.86    5.27
 -11  -5   1   45.87    7.39
  11  -5  -1   29.43    5.66
  11  -5  -1   33.97    5.42
 -11   5   1   47.14    9.92
 -11   5   1   26.38    4.73
 -10   5   1  158.66   17.50
  10  -5  -1  123.87   10.44
 -10   5   1  131.59   10.08
  10  -5  -1  132.39   10.96
 -10  -5   1  129.95   11.61
 -10  -5   1  107.70    9.60
  10  -5  -1  122.94   11.16
 -10   5   1  121.41    9.68
  10   5  -1  122.53   11.51
   9  -5  -1   42.42    6.19
  -9  -5   1   52.84    7.20
   9   5  -1   48.00    7.23
  -9   5   1   55.63   10.62
  -9  -5   1   42.66    5.43
  -9   5   1   37.15    4.92
  -9   5   1   45.18    5.50
   9  -5  -1   50.26    6.86
   9  -5  -1   56.04    6.59
  -9  -5   1   53.93    9.09
   8  -5  -1    5.48    2.84
  -8  -5   1    2.60    1.91
  -8   5   1    1.17    1.42
   8  -5  -1    3.77    2.36
  -8   5   1    4.67    1.69
  -8  -5   1    6.19    3.74
  -8  -5   1    6.38    2.40
   8   5  -1    5.09    3.00
   8  -5  -1    1.39    1.58
   8   5  -1    4.08    1.88
  -8   5   1    8.13    3.55
  -7  -5   1  174.56   10.81
  -7  -5   1  172.92   13.50
  -7   5   1  170.07    9.79
  -7  -5   1  209.31   17.42
  -7  -5   1  182.28   10.72
  -7   5   1  171.66   10.45
  -7  -5   1  172.50   11.48
   7  -5  -1  165.21   10.70
  -7   5   1  192.90   19.72
   7   5  -1  169.14    5.75
   7   5  -1  175.87   10.38
   7   5  -1  155.26   12.96
   7  -5  -1  176.62   10.91
  -6   5   1  151.69   16.89
  -6  -5   1  135.91   13.60
   6   5  -1  132.01    5.69
   6  -5  -1  140.84    8.90
  -6   5   1  125.71    7.96
  -6   5   1  132.45    8.81
  -6  -5   1  131.16    9.30
   6  -5  -1  129.69    8.76
  -6  -5   1  131.32    8.75
   6   5  -1  133.18    8.64
  -6   5   1  113.65    5.35
  -6   5   1  126.68    3.76
   6   5  -1  150.64   12.69
   5  -5  -1   16.93    3.28
  -5  -5   1   12.64    2.65
  -5   5   1   23.50    6.77
  -5  -5   1   18.69    2.21
   5   5  -1   11.79    3.70
  -5   5   1   10.23    1.85
   5  -5  -1   16.26    2.85
  -5   5   1   21.05    3.19
  -5  -5   1   20.80    3.79
   5   5  -1   14.61    2.26
  -5  -5   1   11.24    3.82
  -4   5   1  415.22   26.51
  -4  -5   1  432.80   16.29
  -4  -5   1  461.72   22.63
   4  -5  -1  438.50   15.13
  -4  -5   1  439.69   15.74
   4  -5  -1  460.12   23.79
  -4  -5   1  444.13   15.11
   4   5  -1  423.41   21.23
   4   5  -1  431.69   15.52
   4   5  -1  457.17   15.78
   4  -5  -1  438.39   15.84
   4   5  -1  425.40   13.94
  -3   5   1   66.99    6.67
  -3  -5   1   99.22    7.45
  -3   5   1   94.94    6.18
   3   5  -1   72.43    6.38
  -3  -5   1   86.08    6.40
   3  -5  -1   78.80    9.44
  -3  -5   1   80.08    8.42
   3  -5  -1   93.30    6.28
   3  -5  -1   83.94    3.52
  -3   5   1   78.85   10.36
   3  -5  -1   86.07    6.38
   3   5  -1   84.63    6.69
  -3   5   1   74.70   10.13
  -3  -5   1   90.12    6.54
   3   5  -1   93.23    9.10
   3   5  -1   81.16    6.98
  -3  -5   1   78.21    7.42
  -2   5   1  169.17    8.32
  -2  -5   1  153.79    9.99
  -2   5   1  155.54   13.51
   2   5  -1  167.08   11.21
   2   5  -1  143.56    9.56
   2  -5  -1  192.37    9.37
   2   5  -1  163.49    9.17
  -2   5   1  147.81   13.32
   2  -5  -1  173.91    8.82
  -2  -5   1  164.75    8.59
   2  -5  -1  168.66    7.28
  -2   5   1  169.85   10.87
  -2  -5   1  165.31    8.75
  -2  -5   1  179.43   10.78
  -1  -5   1    4.50    2.08
  -1  -5   1    2.72    1.11
   1   5  -1    1.63    1.55
   1  -5  -1    2.40    1.09
  -1   5   1    5.81    1.50
   1  -5  -1    3.53    1.47
  -1   5   1    3.42    1.64
   1   5  -1    3.02    1.32
   1  -5  -1    3.11    1.43
   1   5  -1    2.77    1.92
   1  -5  -1    4.95    1.61
  -1  -5   1    3.32    1.29
  -1  -5   1    4.38    1.67
  -1   5   1    0.84    1.80
  -1   5   1    7.20    2.81
   0   5   1  461.03   20.03
   0  -5  -1  450.72   17.14
   0   5   1  441.60   19.17
   0  -5  -1  479.60   16.43
   0  -5  -1  485.03   16.45
   0   5  -1  474.43   14.94
   0   5   1  477.72   20.21
   0  -5   1  431.49   13.77
   0   5  -1  452.96   17.89
   0  -5  -1  463.10   18.24
   0  -5  -1  422.38   18.55
   0  -5   1  433.94   18.31
   0   5   1  462.25   15.72
   0  -5   1  433.32   15.56
   1   5   1   46.13    5.65
  -1  -5  -1   52.85    5.88
  -1  -5  -1   47.14    6.04
   1   5   1   49.57    5.67
  -1   5  -1   48.54    5.04
  -1  -5  -1   46.87    5.37
   1  -5   1   54.34    4.94
  -1   5  -1   42.80    3.85
  -1   5  -1   36.06    4.83
   1   5   1   45.77    6.01
   1  -5   1   48.18    5.65
  -1  -5  -1   48.39    4.94
   1   5   1   44.57    4.17
   1  -5   1   46.76    3.82
  -1  -5  -1   47.73    5.39
  -1  -5  -1   48.85    5.21
   2   5   1  651.82   18.28
   2  -5   1  655.00   16.78
  -2  -5  -1  668.86   22.15
  -2   5  -1  604.28   22.25
  -2  -5  -1  637.87   21.61
   2  -5   1  646.52   18.90
   2   5   1  648.40   21.52
   2   5   1  586.24   23.53
  -2   5  -1  639.53   16.56
  -2  -5  -1  669.74   25.53
  -2  -5  -1  644.64   21.16
   2  -5   1  671.12   15.70
   2   5   1  678.14   21.35
  -3  -5  -1   88.33    6.74
  -3   5  -1   77.76    7.53
   3  -5   1   83.99    4.69
  -3  -5  -1   80.64    5.66
  -3   5  -1   82.95    4.58
  -3   5  -1   80.47    5.88
  -3  -5  -1   83.00    7.23
  -3  -5  -1   74.91    8.19
   3   5   1   80.86    6.58
   3   5   1   87.86    5.70
   3  -5   1   83.99    3.03
  -3  -5  -1   84.05    6.94
   3  -5   1   80.59    5.74
   3   5   1   77.97    7.88
  -4   5  -1   12.41    3.47
   4   5   1   11.19    2.48
   4  -5   1   12.27    1.74
  -4  -5  -1   10.96    2.40
   4  -5   1    8.62    2.00
  -4  -5  -1   11.45    3.03
  -4   5  -1   10.72    1.58
   4   5   1    9.13    2.74
  -4   5  -1   11.07    2.21
  -4  -5  -1   12.45    2.25
  -4  -5  -1   11.32    2.68
   4   5   1   11.36    1.92
   4  -5   1   12.06    1.29
  -4  -5  -1   12.71    3.21
  -5  -5  -1  167.85    9.84
   5  -5   1  161.52    6.79
  -5   5  -1  175.28    7.18
  -5  -5  -1  172.37   12.17
   5   5   1  182.14    9.60
  -5   5  -1  166.77   12.19
   5   5   1  166.59   12.38
  -5   5  -1  168.38    6.66
   5  -5   1  170.41    8.88
  -5  -5  -1  177.03    9.45
  -5  -5  -1  168.81   12.82
   5   5   1  187.89    8.59
  -5  -5  -1  171.82   11.37
  -5   5  -1  173.85    9.08
   5  -5   1  172.31    6.93
  -5  -5  -1  180.88    9.01
  -6  -5  -1    8.95    2.72
  -6   5  -1    8.88    1.53
   6  -5   1    5.18    1.69
   6   5   1    7.16    1.82
   6   5   1    8.43    3.56
  -6   5  -1    7.63    2.06
   6   5   1    6.53    1.97
   6  -5   1    5.81    1.32
   6  -5   1    6.60    2.61
  -6  -5  -1    7.66    2.04
   6  -5   1    5.29    1.68
  -6   5  -1    6.82    2.93
  -6  -5  -1    7.39    1.98
  -6  -5  -1    7.10    2.88
  -6   5  -1    6.15    1.09
  -6  -5  -1   15.55    3.81
  -6  -5  -1    8.66    2.24
   6   5   1    6.73    2.27
  -7  -5  -1   85.97    9.62
   7   5   1   83.60    8.96
   7  -5   1   98.44    8.67
   7   5   1   93.97    8.48
   7  -5   1   99.32    6.03
  -7  -5  -1   95.85    6.88
   7  -5   1   91.49    7.12
  -7   5  -1   90.72    6.91
   7   5   1   91.48    6.86
  -7  -5  -1   98.82    9.84
  -7  -5  -1   93.59    7.32
  -7  -5  -1   91.87    9.81
  -7   5  -1   85.76    9.67
  -7  -5  -1   93.81    6.71
  -7  -5  -1   83.48    8.56
  -7   5  -1   91.04    5.18
  -7   5  -1   99.99    4.98
  -7   5  -1   97.98    6.66
  -8   5  -1  308.12   10.09
   8  -5   1  325.30   16.61
   8   5   1  312.47   13.45
  -8   5  -1  322.62   11.55
   8  -5   1  322.62   13.18
  -8  -5  -1  324.09   13.88
  -8  -5  -1  295.29   18.71
   8   5   1  321.34   18.47
  -8   5  -1  313.27   12.71
  -8   5  -1  321.34   19.80
  -8  -5  -1  305.84   17.34
  -8  -5  -1  331.04   14.58
  -8  -5  -1  321.12   12.95
  -8   5  -1  324.72   14.37
  -8  -5  -1  315.03   13.93
   8  -5   1  330.78   14.52
  -9  -5  -1   84.96    7.50
   9  -5   1  113.26    8.54
  -9   5  -1   80.81    5.95
   9   5   1   83.76    6.82
  -9   5  -1   90.26    5.12
  -9  -5  -1   91.09    7.33
  -9  -5  -1   76.22    6.77
  -9   5  -1   83.17   10.29
   9   5   1   85.95    9.77
   9   5   1   88.26    6.90
  -9   5  -1   82.89    6.57
  -9  -5  -1   84.75    6.50
  -9  -5  -1   81.64    8.99
  -9   5  -1   88.30    7.66
  10   5   1   72.00    9.17
 -10  -5  -1   72.27    5.42
 -10   5  -1   74.91   10.13
 -10   5  -1   75.47    4.86
 -10   5  -1   76.44    6.62
 -10   5  -1   70.14    6.38
 -10   5  -1   73.61    6.92
 -10   5  -1   72.24    8.53
 -10   5  -1   63.08    5.71
 -10  -5  -1   81.69    7.29
 -10  -5  -1   62.45    6.26
  10   5   1   69.22    6.55
 -10  -5  -1   66.55    5.77
 -10  -5  -1   68.24    8.77
  10  -5   1   70.84    7.14
 -11  -5  -1   22.62    3.96
  11  -5   1   19.40    4.28
 -11  -5  -1   30.18    4.62
 -11   5  -1   26.93    5.11
 -11  -5  -1   24.38    3.23
 -11   5  -1   28.38    4.70
 -11   5  -1   19.36    3.77
 -11  -5  -1   28.74    6.04
 -11   5  -1   25.55    6.27
  11   5   1   20.91    4.86
 -12   5  -1   32.59    5.27
  12  -5   1   27.10    5.27
 -12   5  -1   35.91    6.23
 -12   5  -1   33.21    7.96
 -12   5  -1   22.39    4.21
 -12  -5  -1   24.25    5.09
 -12  -5  -1   33.09    5.31
  12   5   1   31.20    6.20
 -13  -5  -1   19.96    5.63
 -13   5  -1   23.09    5.08
 -13  -5  -1   20.46    4.30
  13   5   1   24.69    5.91
 -13   5  -1   24.29    4.94
  13  -5   1   31.08    5.82
 -13   5  -1   22.82    6.06
  14   5   1    2.12    3.07
  14  -5   1   -0.53    2.09
 -14   5  -1   -1.03    2.49
 -14  -5  -1    5.85    2.91
 -15  -5  -1  100.46   13.20
 -15  -6   1   25.83    6.28
  14  -6  -1    3.00    3.02
 -14   6   1    1.07    2.37
 -14  -6   1    7.97    3.70
 -14   6   1    4.74    2.22
 -14  -6   1    7.22    3.63
 -13  -6   1    6.65    4.12
  13   6  -1    4.75    3.74
 -13   6   1    9.64    5.42
  13  -6  -1    0.26    2.96
 -13   6   1    2.05    2.54
 -13  -6   1    5.99    3.24
  13  -6  -1    2.30    2.82
 -12   6   1   70.49    8.40
 -12  -6   1   91.66    9.49
  12  -6  -1   77.11   10.06
 -12   6   1   87.91   13.07
  12  -6  -1   75.91    9.34
 -12  -6   1   90.01   10.99
  12   6  -1   77.55    9.99
 -11  -6   1    0.06    2.26
 -11  -6   1    1.50    3.44
  11   6  -1    5.83    3.86
  11  -6  -1    0.19    2.33
  11  -6  -1   -0.52    2.27
 -11   6   1   -3.41    4.37
 -11   6   1    2.90    2.34
 -10   6   1    0.95    1.55
  10  -6  -1    1.57    2.58
  10   6  -1    2.38    2.62
 -10  -6   1    1.28    2.69
 -10  -6   1    2.80    2.39
 -10   6   1   -0.43    5.04
 -10   6   1   -0.51    1.67
  10  -6  -1   -2.10    2.40
  -9   6   1    3.02    3.04
  -9  -6   1   -2.65    2.09
   9  -6  -1    0.69    1.66
  -9   6   1   -1.69    2.24
  -9   6   1    1.75    1.75
   9  -6  -1   -0.17    2.38
   9  -6  -1   -0.12    1.53
   9   6  -1   -4.06    4.07
  -9  -6   1    2.71    2.23
   8  -6  -1  157.01   12.95
  -8   6   1  198.68   20.62
  -8  -6   1  142.49   11.43
  -8  -6   1  157.15   10.68
   8  -6  -1  143.57   10.70
   8   6  -1  147.69    5.77
   8   6  -1  159.21   14.13
  -8   6   1  132.76    9.19
  -8  -6   1  159.41   15.96
   8  -6  -1  158.10   10.96
  -7  -6   1    9.74    2.72
   7  -6  -1   18.95    3.93
   7   6  -1   14.47    5.04
  -7   6   1   12.09    1.10
   7  -6  -1    8.66    2.82
   7   6  -1   10.29    1.75
   7   6  -1   13.40    2.98
   7  -6  -1   16.23    4.54
  -7   6   1    8.98    5.88
  -7   6   1    9.95    1.43
  -7  -6   1   14.67    3.76
  -7   6   1   12.64    2.83
  -7  -6   1   15.38    4.50
   6  -6  -1   34.32    4.69
  -6  -6   1   33.75    5.15
   6  -6  -1   35.07    4.45
  -6   6   1   54.95   10.52
  -6  -6   1   43.17    7.81
  -6   6   1   46.44    5.40
   6   6  -1   37.76    5.39
  -6  -6   1   44.83    3.61
   6  -6  -1   38.70    6.95
  -6  -6   1   39.01    4.81
  -6   6   1   30.10    3.68
   6   6  -1   35.78    6.84
  -6  -6   1   40.96    6.49
   6   6  -1   37.61    4.84
   6   6  -1   34.07    3.38
  -5  -6   1  199.14   16.03
   5  -6  -1  161.56   10.03
   5   6  -1  184.39    9.44
  -5  -6   1  172.49   10.86
  -5   6   1  183.43    9.73
   5   6  -1  177.64    8.17
   5   6  -1  195.56   15.52
  -5  -6   1  199.33   10.41
   5  -6  -1  171.33    9.66
  -5   6   1  182.19   10.29
  -5  -6   1  172.53   10.20
  -5   6   1  177.07   18.30
   5   6  -1  184.08   10.45
  -4  -6   1   70.88    8.91
  -4  -6   1   68.38    6.91
   4  -6  -1   62.33    5.64
  -4   6   1   60.69    5.32
  -4  -6   1   63.12    6.27
   4  -6  -1   62.48    5.97
   4   6  -1   62.16    6.26
  -4  -6   1   63.43    5.87
  -4   6   1   67.06   10.76
   4   6  -1   60.09    8.21
  -4   6   1   46.12    5.99
   4   6  -1   52.47    5.28
   4  -6  -1   62.20    2.36
   3  -6  -1    9.98    2.15
   3  -6  -1    9.86    2.59
   3   6  -1   10.19    3.52
   3  -6  -1    8.36    1.60
  -3  -6   1    6.88    2.26
   3   6  -1    9.07    2.54
  -3  -6   1    7.74    2.35
  -3   6   1    4.85    3.33
   3   6  -1    8.14    2.24
  -3  -6   1    9.66    2.71
  -3  -6   1    9.21    2.87
  -3   6   1    7.92    1.88
  -3   6   1    6.67    3.97
   3   6  -1    5.24    1.89
  -3   6   1   10.60    3.25
  -2   6   1    4.25    2.62
   2   6  -1    9.37    2.40
  -2  -6   1    4.39    2.43
   2   6  -1   10.83    2.98
  -2  -6   1   13.81    3.29
   2  -6  -1   11.79    2.63
  -2   6   1   12.72    2.47
   2   6  -1   11.64    3.08
  -2   6   1    6.21    2.41
  -2  -6   1   11.92    2.47
  -2  -6   1   10.48    2.38
  -2   6   1    6.41    3.80
   2  -6  -1    7.09    1.86
   2  -6  -1   10.26    2.54
   2  -6  -1    8.32    2.16
  -1   6   1  371.07   19.40
   1   6  -1  339.80   17.07
  -1  -6   1  351.12   13.51
  -1   6   1  354.71   13.79
   1  -6  -1  362.37   14.95
   1  -6  -1  348.17   16.54
  -1   6   1  381.03   21.34
   1   6  -1  374.67   14.88
  -1   6   1  349.55   20.40
   1  -6  -1  342.24   14.25
  -1  -6   1  355.34   14.61
   1   6  -1  351.03   16.56
  -1  -6   1  361.42   19.27
   1  -6  -1  365.04   15.76
  -1  -6   1  317.18   15.45
   0   6  -1    5.68    1.87
   0   6   1    5.40    2.42
   0  -6  -1    4.88    1.92
   0  -6  -1    8.90    2.50
   0  -6   1    6.18    1.67
   0  -6  -1    5.54    2.14
   0   6  -1    6.93    2.41
   0  -6  -1    5.66    2.06
   0  -6   1    6.87    3.07
   0   6  -1    1.35    2.43
   0  -6  -1    5.31    2.37
   0   6   1    8.05    2.93
   0   6   1    3.79    2.62
  -1  -6  -1   44.45    5.33
   1   6   1   45.57    6.84
   1  -6   1   40.81    3.91
  -1  -6  -1   33.45    5.06
  -1  -6  -1   43.36    6.66
  -1   6  -1   45.78    4.38
   1  -6   1   48.56    6.61
   1   6   1   44.34    4.70
   1  -6   1   42.60    4.87
   1   6   1   44.00    6.24
   1   6   1   39.11    5.45
  -1  -6  -1   55.94    6.65
  -1   6  -1   32.77    5.08
  -1  -6  -1   47.06    5.37
  -1  -6  -1   36.65    5.25
   2   6   1  118.07   11.06
  -2   6  -1  116.17    6.64
   2  -6   1  117.85    6.60
  -2  -6  -1  127.02    9.33
  -2   6  -1   96.77    9.10
  -2  -6  -1  125.66   11.63
  -2  -6  -1  102.25    8.95
   2  -6   1  121.27    6.40
  -2  -6  -1  125.22    9.48
   2   6   1  112.96    9.18
   2   6   1  106.98    8.80
   2   6   1  103.35    7.17
   2  -6   1  112.79    7.73
   3   6   1  175.93   13.71
   3  -6   1  185.48    5.93
   3   6   1  179.17    9.28
  -3  -6  -1  163.14   10.59
  -3   6  -1  182.36    9.85
  -3  -6  -1  161.13   11.07
   3   6   1  170.16   10.69
  -3  -6  -1  174.26   11.26
  -3   6  -1  165.01   12.18
   3  -6   1  177.46    7.61
  -3  -6  -1  171.92   14.01
  -3  -6  -1  177.76    9.62
  -3   6  -1  176.11    7.93
   3  -6   1  176.21    9.43
   4   6   1   22.23    4.71
   4   6   1   21.34    3.18
  -4   6  -1   19.77    3.16
  -4  -6  -1   14.77    4.30
   4  -6   1   24.16    3.40
  -4  -6  -1   21.10    3.52
   4  -6   1   23.57    1.92
   4  -6   1   23.29    2.51
  -4  -6  -1   27.65    3.68
  -4   6  -1   19.48    4.18
  -4  -6  -1   19.08    3.50
   4   6   1   28.86    4.24
  -4   6  -1   21.36    2.51
  -4  -6  -1   20.85    4.04
   5   6   1   24.67    3.40
   5   6   1   21.79    4.23
  -5   6  -1   25.75    3.69
   5  -6   1   22.79    2.49
  -5  -6  -1   20.07    4.29
  -5  -6  -1   14.71    3.67
  -5  -6  -1   20.48    3.55
  -5   6  -1   20.59    2.53
  -5  -6  -1   21.12    3.59
   5  -6   1   26.95    2.36
  -5  -6  -1   18.78    4.93
   5   6   1   15.05    3.76
   5   6   1   19.66    3.60
   5  -6   1   19.31    4.07
  -5   6  -1   21.11    4.91
   5  -6   1   20.11    3.40
  -5  -6  -1   27.65    4.50
  -6  -6  -1  193.02   14.44
  -6  -6  -1  206.68   15.72
  -6  -6  -1  190.61   11.53
   6   6   1  204.30   11.04
  -6   6  -1  208.43    8.85
   6   6   1  206.89   10.12
  -6  -6  -1  209.20   13.61
   6  -6   1  202.30   13.46
   6  -6   1  189.44    7.67
  -6   6  -1  212.87   11.14
  -6   6  -1  203.55   15.36
  -6  -6  -1  214.66   11.17
  -6  -6  -1  223.10   11.04
   6  -6   1  200.33    8.64
   6   6   1  209.93   13.18
   6  -6   1  194.50   10.56
   6   6   1  196.37   14.85
   7  -6   1   -0.03    1.04
   7   6   1   -1.42    3.09
  -7  -6  -1    0.10    1.22
   7  -6   1    0.92    2.04
  -7   6  -1    0.22    1.14
   7  -6   1   -0.75    1.69
  -7  -6  -1    0.92    2.31
  -7   6  -1    0.37    0.95
   7   6   1    2.08    1.66
  -7  -6  -1    3.69    2.08
  -7   6  -1    1.58    2.74
  -7  -6  -1    1.61    2.04
   7  -6   1    1.04    1.48
  -7  -6  -1   -0.87    2.24
   8   6   1   10.50    2.42
   8  -6   1   10.24    2.76
  -8   6  -1    9.99    2.70
  -8  -6  -1   13.86    3.34
   8  -6   1   10.56    2.28
  -8   6  -1   11.00    2.35
  -8  -6  -1   13.78    2.82
  -8   6  -1   12.87    2.17
   8   6   1   12.68    2.78
   8   6   1    8.54    3.08
  -8  -6  -1   17.15    3.56
  -8   6  -1    7.01    2.10
  -8  -6  -1    6.86    2.81
   9   6   1    1.27    1.06
  -9   6  -1    0.22    1.13
  -9  -6  -1    1.79    1.18
   9   6   1    1.69    1.07
  -9  -6  -1    2.26    2.00
  -9  -6  -1    1.77    1.63
  -9   6  -1    1.08    0.89
   9  -6   1    1.25    1.61
  -9  -6  -1    3.96    1.88
   9  -6   1   -1.95    2.41
  -9   6  -1    6.32    2.75
   9   6   1    4.13    3.31
  -9   6  -1    1.45    1.08
 -10  -6  -1   96.31   10.60
 -10   6  -1   90.95    6.64
 -10  -6  -1  109.13    8.76
 -10   6  -1  115.68    9.04
 -10  -6  -1   96.88    7.38
 -10   6  -1   94.32    7.33
  10   6   1  102.95   11.63
 -10  -6  -1  107.85    8.81
  10   6   1  103.02    8.11
 -10   6  -1   83.75   11.55
  10   6   1   92.34    7.45
  10  -6   1   88.68    8.42
  11   6   1    2.82    2.53
  11  -6   1    4.19    2.86
 -11   6  -1    2.84    2.05
 -11   6  -1    1.61    1.77
 -11   6  -1    3.19    2.57
 -11  -6  -1   -0.82    1.47
 -11  -6  -1    1.61    1.51
 -11  -6  -1    3.11    2.02
 -12  -6  -1   12.60    3.59
 -12   6  -1   10.74    3.78
 -12   6  -1   15.36    3.55
  12  -6   1   20.50    4.85
 -12   6  -1    8.33    4.01
 -12   6  -1   17.05    4.06
  12   6   1   13.92    3.94
 -12  -6  -1   16.23    4.98
 -13  -6  -1   41.16    8.17
  13   6   1   52.34    9.02
 -13  -6  -1   35.99    5.76
  13  -6   1   45.08    6.90
 -13   6  -1   40.88    6.37
 -13   6  -1   36.06    8.03
 -13   6  -1   34.14    6.79
 -14   6  -1    5.58    3.26
 -14  -6  -1    6.45    3.68
  14  -6   1    1.05    2.52
  14   6   1   -3.35    3.49
 -14  -7   1   -2.80    2.87
 -14   7   1   -4.29    3.92
  14  -7  -1   -3.72    3.23
 -14   7   1    4.32    3.25
  14   7  -1    0.36    3.88
  13   7  -1   41.61    8.01
 -13   7   1   55.60   10.52
 -13   7   1   48.82    7.72
 -13  -7   1   45.69    8.41
  13  -7  -1   45.81    7.85
 -13  -7   1   54.90    7.68
 -12  -7   1   87.30   11.23
 -12  -7   1   74.85    9.04
 -12   7   1   94.88   14.52
  12  -7  -1   88.98   11.35
  12  -7  -1   78.04    9.56
  12   7  -1   78.75   10.81
 -12   7   1   75.34    8.71
  11  -7  -1  120.38   11.55
 -11  -7   1  112.84   12.18
 -11   7   1  157.20   18.68
 -11  -7   1  121.32   10.86
  11  -7  -1  122.61   11.93
  11   7  -1  133.53   14.02
 -11   7   1  120.90   10.59
  10  -7  -1  194.15   14.02
  10  -7  -1  182.30   13.64
 -10  -7   1  180.38   14.52
 -10  -7   1  181.99   12.83
  10   7  -1  176.08   16.02
 -10   7   1  180.50   12.58
   9  -7  -1   34.89    5.68
  -9  -7   1   32.73    5.21
  -9  -7   1   36.75    6.33
   9   7  -1   31.64    2.62
  -9   7   1   41.35    9.79
   9  -7  -1   33.83    5.75
   9   7  -1   30.66    6.74
   8  -7  -1   16.03    3.96
   8  -7  -1   10.46    3.43
  -8  -7   1    9.37    2.97
   8   7  -1    8.01    3.67
  -8  -7   1   13.81    4.18
   8   7  -1    9.02    1.74
  -8   7   1    7.97    4.99
  -7   7   1  120.09   16.59
  -7   7   1   92.81    7.71
   7   7  -1  101.82    6.18
  -7   7   1  100.46    6.51
  -7  -7   1  131.07   14.02
  -7  -7   1   98.95    5.24
   7  -7  -1  114.82   12.54
   7   7  -1  104.26   12.05
  -7  -7   1  106.42    8.88
   7  -7  -1   90.72    8.58
   7   7  -1  102.66    8.61
   7  -7  -1  108.13    8.57
  -7  -7   1   93.94    9.02
  -6   7   1  145.32    9.83
  -6   7   1  134.85    8.96
  -6  -7   1  128.57   10.11
  -6   7   1  142.68    9.91
   6   7  -1  132.89    9.62
   6  -7  -1  130.33    9.90
  -6   7   1  167.17   18.66
   6   7  -1  142.24    8.26
  -6  -7   1  154.91    9.03
   6   7  -1  135.22   13.48
  -6  -7   1  143.79    9.99
   6  -7  -1  129.67   13.83
   6  -7  -1  136.48    9.29
  -6  -7   1  118.59   11.83
   5   7  -1   66.41    6.74
  -5  -7   1   55.17    6.19
   5   7  -1   60.34    6.18
   5   7  -1   58.09    8.79
  -5  -7   1   48.08    6.04
  -5  -7   1   49.14    7.29
  -5  -7   1   59.81    8.89
   5  -7  -1   47.45    5.84
  -5   7   1   69.42    7.49
  -5   7   1   57.30    5.60
   5   7  -1   60.49    7.09
   5   7  -1   57.55    5.36
   5  -7  -1   54.27    5.72
  -5   7   1   67.60   11.21
  -5   7   1   55.98    5.96
   5  -7  -1   64.38    9.98
  -5  -7   1   59.18    6.74
   4   7  -1  810.36   33.49
  -4  -7   1  876.51   34.07
  -4   7   1  671.88   27.65
   4  -7  -1  745.74   16.09
  -4   7   1  838.80   40.50
   4   7  -1  721.96   24.30
  -4   7   1  729.21   22.14
   4   7  -1  777.94   26.62
  -4  -7   1  671.50   27.98
  -4  -7   1  722.95   24.63
  -4  -7   1  725.81   23.80
  -4  -7   1  669.67   28.00
  -4   7   1  816.83   38.90
   4   7  -1  754.41   24.66
   4  -7  -1  764.01   22.92
   4  -7  -1  864.81   37.34
   4  -7  -1  700.69   23.77
   4   7  -1  747.24   26.18
  -3   7   1   80.80   11.49
   3   7  -1   83.45    8.46
  -3   7   1   90.78   12.10
  -3  -7   1   84.70    7.25
   3   7  -1   78.95    7.57
   3  -7  -1   80.14    5.95
  -3   7   1   69.17    8.73
  -3  -7   1   78.88    9.98
   3   7  -1   82.64    8.08
   3  -7  -1   81.54    7.23
  -3  -7   1   82.15    7.19
   3   7  -1   90.54    9.84
  -3   7   1   75.15    6.23
   2   7  -1  191.30   13.79
   2  -7  -1  165.05   10.30
   2   7  -1  171.46   10.95
  -2   7   1  150.71   15.27
  -2   7   1  181.02   16.53
  -2  -7   1  170.87   12.42
  -2   7   1  171.85   14.41
   2  -7  -1  180.62   11.70
  -2   7   1  178.40    9.88
   2   7  -1  154.83   11.95
   2  -7  -1  195.43   10.91
   2  -7  -1  169.16   10.61
  -2  -7   1  174.02   10.22
  -2  -7   1  185.06   15.28
  -2  -7   1  179.25   10.54
   1  -7  -1    0.65    1.20
   1   7  -1    0.77    1.04
  -1   7   1   -2.12    3.42
  -1   7   1    1.93    2.37
   1   7  -1   -0.84    2.04
   1  -7  -1    1.58    1.48
  -1   7   1   -0.09    1.06
   1  -7  -1   -1.64    3.13
   1   7  -1    0.48    1.39
  -1   7   1    0.40    2.34
  -1  -7   1    0.35    1.04
   1  -7  -1    0.77    1.26
  -1  -7   1    1.05    1.73
  -1  -7   1   -0.64    1.79
   0  -7  -1  386.46   18.11
   0  -7  -1  332.16   21.10
   0   7  -1  375.85   17.33
   0  -7   1  406.10   22.69
   0  -7  -1  361.75   20.34
   0   7  -1  326.65   18.54
   0  -7   1  381.92   14.79
   0   7   1  367.44   20.74
   0   7   1  385.87   22.37
   0  -7  -1  393.75   16.74
   0  -7  -1  376.05   16.74
   0   7   1  390.61   16.09
   0   7   1  371.10   21.29
   0   7  -1  359.26   15.31
   1   7   1   47.43    7.69
   1   7   1   43.41    4.88
  -1  -7  -1   33.62    6.63
   1   7   1   44.97    6.93
   1  -7   1   45.73    4.57
  -1   7  -1   48.59    5.79
  -1  -7  -1   36.70    5.44
  -1   7  -1   46.92    4.95
   1  -7   1   33.30    6.52
  -1  -7  -1   39.11    6.18
   1   7   1   41.49    6.25
  -1  -7  -1   39.42    5.36
   1  -7   1   40.02    5.10
  -1   7  -1   31.82    5.28
   2   7   1  934.86   32.09
   2  -7   1  956.08   27.76
  -2  -7  -1  893.44   37.60
  -2   7  -1  978.63   25.02
   2   7   1  954.25   36.70
  -2  -7  -1  907.85   31.36
  -2  -7  -1  868.97   31.44
  -2   7  -1  876.70   32.44
  -2  -7  -1  895.65   29.35
   2  -7   1  945.51   23.73
   2   7   1  953.34   26.74
   2   7   1  920.92   31.06
  -3   7  -1  111.16   10.73
   3   7   1  124.65    9.71
  -3   7  -1  125.49    7.29
   3   7   1  120.74    8.30
  -3  -7  -1  112.16    9.87
  -3  -7  -1  120.83   12.77
   3   7   1  120.63    9.73
  -3  -7  -1  122.41   10.09
   3  -7   1  122.18    6.81
  -3  -7  -1  114.77    9.81
   3   7   1  116.20   12.07
   3  -7   1  120.78    8.45
   4   7   1   27.30    3.83
   4  -7   1   36.63    3.45
   4   7   1   31.95    4.89
  -4  -7  -1   30.98    5.00
  -4  -7  -1   32.29    5.31
  -4  -7  -1   32.91    5.09
  -4  -7  -1   24.29    5.74
  -4  -7  -1   34.55    4.52
   4  -7   1   32.07    2.46
   4  -7   1   29.93    4.10
  -4   7  -1   32.25    3.54
   4   7   1   32.87    5.54
  -4   7  -1   26.40    4.96
  -4   7  -1   34.80    4.56
  -5  -7  -1  109.75   10.84
   5   7   1  105.86    8.43
   5  -7   1  102.95    7.87
   5  -7   1  101.03    4.77
   5  -7   1   97.42   10.14
   5   7   1  101.04   11.19
  -5  -7  -1  104.63    8.65
   5   7   1  118.44   10.36
   5  -7   1  102.09    5.46
  -5  -7  -1  108.97    8.06
  -5  -7  -1  106.86   11.88
  -5   7  -1   87.91    9.92
  -5  -7  -1  105.78    9.93
  -5   7  -1   95.94    7.70
  -5  -7  -1  102.84    9.14
  -5   7  -1   98.59    6.11
   6  -7   1   11.33    1.64
   6   7   1   12.60    3.89
   6  -7   1   21.13    4.86
   6   7   1   17.49    3.33
  -6   7  -1   15.34    3.48
  -6  -7  -1   15.71    4.18
  -6  -7  -1   12.70    2.94
  -6   7  -1   17.91    2.66
   6  -7   1   10.80    2.72
   6  -7   1   15.45    2.06
  -6  -7  -1   15.72    3.70
  -6  -7  -1   12.18    2.64
  -6   7  -1    8.26    2.80
   7   7   1   82.10   10.50
  -7  -7  -1   82.28    7.33
   7  -7   1   84.60    5.15
   7  -7   1   90.83    6.35
   7  -7   1   86.73    7.58
   7   7   1   81.97    6.90
  -7   7  -1   89.61    6.13
  -7   7  -1   84.71    7.68
  -7  -7  -1   93.10    7.74
   7   7   1   89.35    7.56
  -7   7  -1   77.55   10.32
  -7  -7  -1   82.68    9.21
  -7  -7  -1   81.62    8.10
   8   7   1  339.73   15.49
   8  -7   1  332.96   16.18
   8   7   1  367.86   22.51
  -8   7  -1  343.81   16.32
  -8  -7  -1  318.58   15.06
  -8   7  -1  348.00   13.44
  -8  -7  -1  344.53   17.03
   8  -7   1  357.74   12.42
  -8  -7  -1  318.23   19.20
  -8  -7  -1  342.04   15.78
  -8   7  -1  341.55   23.02
   8   7   1  341.86   15.05
  -8   7  -1  327.73   13.93
   9   7   1  229.37   12.42
  -9   7  -1  223.49   11.07
   9  -7   1  261.49   11.62
  -9  -7  -1  251.55   13.75
  -9  -7  -1  227.95   12.55
   9  -7   1  224.90   13.55
   9   7   1  256.24   18.98
  -9  -7  -1  224.96   13.77
   9   7   1  230.20   12.41
  -9   7  -1  255.22   20.54
  -9   7  -1  226.05   11.27
  -9  -7  -1  257.03   17.56
 -10  -7  -1   55.18    6.45
 -10   7  -1   52.91    9.28
  10  -7   1   36.54    6.22
 -10  -7  -1   47.04    6.08
  10   7   1   41.88    8.02
 -10  -7  -1   46.75    7.53
  11   7   1   42.09    8.05
 -11   7  -1   29.13    5.51
  11  -7   1   28.08    5.31
 -11  -7  -1   34.67    5.57
 -11  -7  -1   35.88    7.28
 -11   7  -1   32.42    4.69
 -11   7  -1   41.90    8.99
 -12  -7  -1    1.06    2.24
  12  -7   1    5.19    2.96
 -12   7  -1    2.99    2.50
 -12   7  -1    7.63    5.06
  12   7   1    2.66    2.90
 -12   7  -1    7.76    3.23
 -12  -7  -1    9.98    3.56
  13   7   1   16.31    5.12
 -13   7  -1   17.57    6.14
 -13   7  -1   15.78    4.35
 -13   7  -1   20.50    5.28
 -13  -7  -1   27.79    7.04
  13  -7   1   22.91    5.14
  14  -7   1   -0.18    2.02
 -14   7  -1    5.95    3.25
 -14  -7  -1    4.64    3.40
  14   7   1   -0.91    2.76
  14  -8  -1  137.85   14.29
 -14  -8   1  149.30   13.90
  14   8  -1  146.41   15.93
 -13  -8   1  126.61   12.47
  13  -8  -1  121.04   12.63
 -13   8   1  128.22   17.00
 -13  -8   1  136.01   14.79
 -13   8   1  119.12   11.65
  13   8  -1  135.47   14.89
 -12  -8   1   68.12    9.97
  12  -8  -1   82.74   10.59
  12   8  -1   62.71   10.46
 -12  -8   1   70.32    8.99
 -12   8   1   64.41    8.44
 -12   8   1   89.63   14.47
  12  -8  -1   67.30    9.18
  11   8  -1  245.59   20.24
 -11  -8   1  237.55   16.09
 -11   8   1  236.55   15.52
  11  -8  -1  253.22   17.10
 -11  -8   1  237.67   18.00
 -11   8   1  294.33   26.64
  11  -8  -1  242.06   16.77
  10  -8  -1  105.18   10.51
  10  -8  -1  113.21   10.69
 -10  -8   1  103.81   10.07
 -10   8   1  116.54   17.08
 -10   8   1   89.87    8.91
 -10  -8   1  100.43   11.21
  10   8  -1  107.80   13.35
   9  -8  -1   89.35    9.33
   9  -8  -1   96.39    9.32
  -9  -8   1   89.85   10.17
  -9  -8   1  100.68    9.47
   9   8  -1   89.27    5.44
   9   8  -1   96.46   12.77
  -8  -8   1  272.38   15.60
  -8   8   1  314.42   27.08
   8   8  -1  312.11   22.37
  -8  -8   1  249.94    7.98
   8  -8  -1  285.09   15.25
  -8   8   1  265.99    9.77
   8  -8  -1  274.07   15.89
   8   8  -1  279.85   11.19
  -8  -8   1  284.76   17.35
  -8   8   1  276.86    7.76
  -7   8   1  413.74   16.49
   7  -8  -1  374.80   18.60
  -7   8   1  385.70   16.71
  -7  -8   1  401.64   20.01
  -7  -8   1  406.74   14.49
   7  -8  -1  397.34   17.63
   7   8  -1  391.37   15.00
   7   8  -1  416.02   25.99
  -7  -8   1  409.10   18.90
  -6   8   1   78.21    7.98
   6   8  -1   69.57    7.23
  -6  -8   1   77.03    7.46
  -6   8   1   73.57    6.72
  -6  -8   1   74.43    7.69
   6  -8  -1   73.74    7.15
   6   8  -1   67.44   10.13
  -6   8   1   68.72   12.37
  -6  -8   1   74.30    8.16
   6   8  -1   75.86    6.87
   6  -8  -1   64.21    7.20
  -5   8   1  732.20   28.10
   5   8  -1  699.53   33.00
   5  -8  -1  604.65   23.37
   5  -8  -1  715.20   35.61
   5   8  -1  681.48   24.87
  -5  -8   1  609.84   24.15
   5  -8  -1  628.34   21.89
  -5  -8   1  582.10   27.83
  -5   8   1  737.37   38.47
   5   8  -1  649.97   22.64
  -5  -8   1  724.17   33.29
   5   8  -1  633.49   23.85
  -5   8   1  625.98   21.48
  -5  -8   1  631.15   23.33
   5   8  -1  660.39   26.44
  -5   8   1  745.24   39.95
  -5  -8   1  696.38   27.38
  -5   8   1  640.17   23.24
  -4   8   1    1.51    1.88
  -4   8   1   11.15    5.37
  -4  -8   1    1.89    1.55
   4  -8  -1    1.51    3.12
   4   8  -1    2.54    1.29
  -4   8   1   -1.91    3.52
   4   8  -1    2.74    2.19
  -4  -8   1    0.59    1.89
   4  -8  -1   -1.02    1.50
   4  -8  -1    1.29    1.69
  -4   8   1    1.01    1.20
   4   8  -1    1.61    2.49
  -4  -8   1    1.83    1.40
   4   8  -1   -0.86    1.53
   4  -8  -1    2.12    1.35
  -4  -8   1    1.70    1.56
  -4   8   1    0.26    1.11
  -4  -8   1    1.03    2.05
   4   8  -1    2.85    1.44
   3  -8  -1  460.38   18.19
   3   8  -1  524.26   26.21
   3   8  -1  495.90   21.19
  -3   8   1  456.06   29.29
   3   8  -1  442.64   21.15
  -3  -8   1  461.04   19.16
  -3  -8   1  418.46   22.02
   3   8  -1  468.84   19.74
  -3   8   1  483.80   17.90
  -3   8   1  549.46   31.62
  -3  -8   1  473.53   19.42
   3   8  -1  507.58   23.31
  -3  -8   1  407.22   25.53
   3  -8  -1  473.17   19.74
  -3   8   1  503.49   25.92
  -2   8   1    2.63    1.89
   2   8  -1   -3.97    3.60
   2  -8  -1    1.15    1.76
  -2   8   1   -1.52    3.52
  -2  -8   1   -0.89    1.79
  -2  -8   1    0.49    1.30
  -2   8   1   -2.23    3.33
   2   8  -1   -0.24    1.44
   2   8  -1    1.23    1.82
   2  -8  -1    1.10    1.41
  -2   8   1    1.99    3.43
   2  -8  -1   -1.39    2.57
   2  -8  -1    1.51    1.49
  -2  -8   1   -2.99    3.37
  -1   8   1  766.09   34.86
   1  -8  -1  701.72   24.62
   1  -8  -1  766.32   26.52
  -1  -8   1  726.72   23.79
   1  -8  -1  701.96   32.81
  -1   8   1  777.69   24.77
  -1  -8   1  748.38   28.73
   1   8  -1  775.72   29.80
   1  -8  -1  783.81   26.55
  -1  -8   1  834.22   36.78
  -1   8   1  797.74   34.83
   1   8  -1  768.38   26.05
  -1   8   1  766.14   35.28
   1   8  -1  676.33   29.07
   0   8  -1   17.65    4.06
   0   8   1   11.61    3.97
   0   8  -1    9.91    3.72
   0   8   1   15.07    4.77
   0  -8  -1   18.28    4.02
   0  -8   1   15.02    3.21
   0   8   1   12.87    2.89
   0  -8  -1   17.11    3.70
   0   8   1   11.57    4.21
   0  -8   1   18.75    3.63
   0  -8   1   16.94    5.46
   0   8  -1   14.57    3.12
   0  -8  -1   18.11    4.22
   0  -8  -1   12.71    4.06
  -1   8  -1  790.20   27.61
   1   8   1  850.96   33.23
   1  -8   1  848.63   27.44
  -1  -8  -1  874.45   28.92
  -1  -8  -1  831.14   33.11
  -1   8  -1  885.98   26.03
   1   8   1  861.99   34.05
   1   8   1  868.35   28.02
   1   8   1  852.67   37.11
  -1   8  -1  758.91   31.96
   1  -8   1  861.41   37.42
   1  -8   1  849.12   24.54
  -1  -8  -1  823.75   28.13
  -1  -8  -1  710.85   36.24
  -2   8  -1   23.72    3.70
  -2  -8  -1   24.24    4.38
   2   8   1   26.70    6.50
  -2  -8  -1   19.17    4.45
  -2  -8  -1   22.15    6.57
  -2   8  -1   26.69    4.47
  -2  -8  -1   18.15    4.41
   2  -8   1   26.65    3.57
  -2  -8  -1   22.74    4.70
   2   8   1   16.84    4.27
  -2   8  -1   22.72    5.39
  -2   8  -1   22.40    4.34
   2   8   1   21.52    4.86
   2  -8   1   25.85    4.54
  -3  -8  -1  557.54   23.44
   3   8   1  541.95   23.98
  -3   8  -1  477.01   25.19
   3  -8   1  538.98   20.48
  -3   8  -1  521.34   17.75
  -3  -8  -1  521.91   24.70
  -3  -8  -1  544.42   30.48
   3   8   1  525.17   22.74
  -3  -8  -1  504.96   23.32
   3  -8   1  523.86   17.04
   3   8   1  503.62   27.83
   4  -8   1  134.62    9.66
   4  -8   1  140.40    6.13
   4   8   1  136.08   11.01
  -4  -8  -1  151.41   12.08
   4   8   1  141.27   14.36
   4   8   1  159.65   12.22
  -4   8  -1  139.05    8.22
  -4  -8  -1  140.93   15.10
  -4   8  -1  129.45   12.62
  -4  -8  -1  136.40   11.25
   4  -8   1  143.07   13.63
  -4  -8  -1  124.80   11.99
   4  -8   1  135.27    7.28
  -4  -8  -1  132.85   11.43
  -4   8  -1  141.63   10.11
   5   8   1  203.52   17.23
   5   8   1  204.40   12.93
  -5  -8  -1  193.40   13.78
  -5   8  -1  184.33   11.66
   5  -8   1  188.07   11.63
  -5   8  -1  190.14    9.48
   5  -8   1  196.66    7.28
   5  -8   1  198.28    8.32
  -5  -8  -1  196.00   13.13
  -5   8  -1  202.01   16.64
  -5  -8  -1  179.06   13.66
  -5  -8  -1  200.14   11.88
   6   8   1  428.27   25.69
   6  -8   1  406.12   17.73
  -6   8  -1  425.79   18.46
  -6  -8  -1  427.78   21.91
  -6  -8  -1  403.80   20.05
   6   8   1  409.03   18.25
   6   8   1  407.33   16.84
  -6  -8  -1  420.31   19.36
  -6   8  -1  420.80   14.75
  -6   8  -1  404.54   24.73
   6  -8   1  405.95   12.39
   6  -8   1  395.93   11.86
  -6  -8  -1  443.30   18.44
   7  -8   1  197.45    8.03
  -7   8  -1  204.29   12.66
   7   8   1  184.73   11.13
  -7  -8  -1  193.46   13.40
  -7  -8  -1  196.58   14.90
  -7   8  -1  198.92   17.47
   7   8   1  199.28   12.18
   7   8   1  209.10   17.78
  -7   8  -1  194.40    9.73
  -7  -8  -1  205.47   12.43
  -7  -8  -1  187.86   12.49
   7  -8   1  186.37   11.91
   7  -8   1  198.90    8.98
  -8  -8  -1  196.27   15.43
  -8   8  -1  199.59   10.09
   8   8   1  199.88   17.61
  -8  -8  -1  191.78   12.33
   8   8   1  189.41   11.51
  -8  -8  -1  195.58   13.55
   8  -8   1  210.36   13.09
  -8  -8  -1  210.35   12.77
   8   8   1  189.97   11.94
   8  -8   1  204.55    8.57
  -8   8  -1  175.46   10.31
  -8   8  -1  181.09   17.55
   9  -8   1  431.96   13.94
  -9  -8  -1  369.84   17.36
   9   8   1  373.86   17.02
  -9   8  -1  360.31   25.79
  -9  -8  -1  387.98   22.86
  -9  -8  -1  395.61   19.72
  -9  -8  -1  407.06   18.62
   9  -8   1  356.67   18.16
  -9   8  -1  364.32   15.14
   9   8   1  374.31   16.93
  -9   8  -1  362.30   14.90
   9   8   1  397.90   25.39
  10  -8   1  102.09    9.78
 -10  -8  -1  102.55   11.71
 -10  -8  -1  117.74   10.44
 -10  -8  -1   95.90    9.11
  10   8   1  103.03   13.07
 -10   8  -1  123.80   15.68
  11  -8   1   44.93    6.75
 -11  -8  -1   39.83    7.52
 -11  -8  -1   41.46    6.15
  11   8   1   42.68    8.90
 -11   8  -1   43.64    9.46
 -12  -8  -1  177.76   16.81
 -12   8  -1  148.92   14.15
 -12   8  -1  178.94   13.21
 -12  -8  -1  179.86   13.26
 -12   8  -1  164.14   19.08
  12  -8   1  161.58   13.30
  12   8   1  165.82   16.78
  13   8   1   30.82    8.24
 -13   8  -1   33.21    6.97
 -13   8  -1   33.31    6.00
  13  -8   1   28.19    5.58
 -13  -8  -1   33.02    7.57
 -13   8  -1   30.50    8.35
 -14   8  -1  158.17   13.39
  14  -8   1  151.46   13.76
  14   8   1  146.60   16.18
  14   9  -1   85.57   12.45
 -14  -9   1   71.53    9.91
 -13  -9   1  253.73   18.16
 -13   9   1  252.42   17.85
 -13   9   1  299.23   27.07
  13  -9  -1  252.93   19.13
  13   9  -1  248.15   21.66
  12  -9  -1  345.37   21.85
 -12   9   1  485.25   34.87
 -12   9   1  373.41   20.91
 -12  -9   1  393.05   24.69
 -12  -9   1  391.26   22.12
  12   9  -1  447.57   29.25
 -11  -9   1  179.61   14.36
 -11   9   1  178.17   13.73
 -11   9   1  238.17   24.73
  11  -9  -1  168.66   14.51
  11  -9  -1  202.87   15.51
 -11  -9   1  182.35   16.27
  11   9  -1  221.16   20.39
  10   9  -1    7.90    3.09
  10  -9  -1    4.46    2.92
 -10  -9   1    5.52    2.48
  10  -9  -1    2.77    2.29
 -10  -9   1    3.12    3.42
   9   9  -1  163.43   17.27
  -9  -9   1  144.02   13.15
   9  -9  -1  151.83   11.87
  -9   9   1  178.25   21.55
   9  -9  -1  137.77   12.36
  -9  -9   1  140.35   11.82
  -8   9   1   71.35    5.84
   8   9  -1   74.53    6.18
  -8   9   1   99.33   15.38
  -8  -9   1   73.29    5.06
  -8  -9   1   71.62    8.15
   8   9  -1   84.25   12.47
   8  -9  -1   77.27    8.06
  -8  -9   1   66.65    8.70
   8  -9  -1   73.67    8.71
  -7   9   1   35.07    5.16
   7   9  -1   21.07    5.77
  -7  -9   1   31.59    6.10
  -7  -9   1   38.43    4.88
   7   9  -1   25.17    4.20
   7  -9  -1   24.99    4.42
  -7   9   1   31.62    8.53
   7  -9  -1   30.94    5.61
  -7  -9   1   25.12    4.66
  -6   9   1 1769.98   46.09
   6  -9  -1 1487.94   39.12
  -6   9   1 1724.46   65.78
   6   9  -1 1535.27   37.81
  -6  -9   1 1462.90   43.59
   6   9  -1 1530.82   40.87
  -6   9   1 1433.46   38.23
   6  -9  -1 1419.44   41.97
  -6  -9   1 1461.38   41.57
   6   9  -1 1636.39   56.80
  -6  -9   1 1642.10   44.26
  -5  -9   1   35.64    5.91
   5   9  -1   29.15    5.34
  -5   9   1   33.03    4.84
   5  -9  -1   33.02    2.51
  -5  -9   1   43.78    7.15
   5  -9  -1   33.74    5.74
   5   9  -1   30.15    7.19
   5  -9  -1   38.99    5.10
  -5   9   1   37.77    6.65
  -5   9   1   36.37    8.78
   5   9  -1   29.55    5.00
   5  -9  -1   30.26    2.24
  -5  -9   1   33.40    5.44
  -4   9   1 1165.52   40.97
   4   9  -1 1053.68   36.52
  -4   9   1 1049.23   48.06
   4  -9  -1  958.14   32.02
  -4   9   1  973.27   29.16
   4  -9  -1  998.60   26.26
   4   9  -1 1089.41   43.07
  -4  -9   1 1196.48   42.78
   4  -9  -1  988.36   29.91
  -4  -9   1  972.18   32.22
  -4  -9   1 1014.24   31.90
   4   9  -1 1054.96   35.51
  -4   9   1 1154.11   49.69
  -4  -9   1  904.02   36.62
   4   9  -1  992.84   32.81
   4   9  -1 1017.85   34.13
   3   9  -1  339.12   22.06
  -3   9   1  309.16   14.87
  -3   9   1  303.93   15.58
   3   9  -1  295.30   16.45
  -3   9   1  329.85   21.77
  -3  -9   1  273.12   18.30
   3  -9  -1  296.77   16.15
  -3   9   1  342.78   25.54
  -3  -9   1  287.61   15.42
   3   9  -1  312.18   17.49
   3   9  -1  306.78   19.14
  -3  -9   1  368.61   23.84
  -3   9   1  320.24   24.61
   3  -9  -1  345.12   24.67
   3  -9  -1  299.07   16.40
   3   9  -1  303.15   18.18
  -3  -9   1  297.40   15.83
   2  -9  -1  213.99   19.06
  -2  -9   1  214.21   18.95
   2  -9  -1  166.39   11.54
   2   9  -1  179.00   12.61
  -2  -9   1  173.56   11.64
   2  -9  -1  184.08   14.90
  -2   9   1  192.67   18.73
  -2   9   1  221.20   18.09
   2   9  -1  204.56   13.51
  -2   9   1  168.46   11.00
   2   9  -1  191.43   15.01
  -2   9   1  187.07   18.47
   2   9  -1  220.94   16.61
   2  -9  -1  170.52   12.31
   1   9  -1    3.83    1.45
  -1   9   1    4.14    1.77
   1  -9  -1    4.35    2.30
  -1   9   1    9.78    4.49
   1   9  -1    6.24    2.61
  -1   9   1   10.67    4.62
   1  -9  -1   -0.96    4.45
  -1  -9   1    7.24    4.17
  -1   9   1    7.34    4.59
   1  -9  -1    5.28    2.54
   1   9  -1    2.26    1.24
   1   9  -1    3.49    2.25
  -1  -9   1    3.28    1.81
   1  -9  -1    5.65    4.09
   0   9  -1  477.23   23.21
   0  -9  -1  513.93   31.16
   0  -9  -1  513.39   22.23
   0   9   1  526.06   28.70
   0   9   1  506.24   20.45
   0  -9   1  538.34   31.19
   0   9   1  521.53   29.61
   0  -9   1  513.19   19.61
   0   9   1  497.98   20.58
   0  -9  -1  494.05   27.66
   0  -9  -1  506.97   21.57
   0  -9   1  481.17   20.82
   0   9  -1  432.94   24.46
   0  -9  -1  496.99   22.86
   0   9   1  498.61   27.64
   0   9  -1  544.27   21.31
  -1   9  -1  470.48   19.21
   1   9   1  448.68   24.94
   1   9   1  468.26   28.12
   1  -9   1  473.88   20.57
   1  -9   1  473.66   18.08
  -1   9  -1  415.78   20.54
  -1  -9  -1  463.48   25.81
  -1   9  -1  469.75   21.00
  -1  -9  -1  481.99   30.66
  -1  -9  -1  464.00   21.05
  -1  -9  -1  491.61   21.49
   1   9   1  433.54   18.82
   1  -9   1  468.18   28.47
   1   9   1  460.93   25.57
  -1   9  -1  414.65   23.79
   1   9   1  481.53   20.75
  -1  -9  -1  465.37   22.85
   2   9   1 1610.51   56.19
   2   9   1 1613.08   50.03
  -2  -9  -1 1587.77   44.49
  -2  -9  -1 1572.96   47.48
  -2   9  -1 1494.60   41.98
   2  -9   1 1591.59   42.74
  -2   9  -1 1467.39   49.71
  -2  -9  -1 1585.36   43.54
   2  -9   1 1694.32   56.74
  -2   9  -1 1590.68   43.57
   2  -9   1 1505.62   37.33
   2   9   1 1606.15   44.22
  -2   9  -1 1668.40   39.59
   2   9   1 1519.29   40.56
   2   9   1 1523.92   48.04
  -2  -9  -1 1533.45   49.22
  -2  -9  -1 1611.77   59.69
   3   9   1   55.08    6.41
  -3   9  -1   45.65    7.59
  -3   9  -1   59.18    6.82
  -3  -9  -1   51.80    7.64
   3   9   1   69.11    8.62
   3  -9   1   56.48    6.88
   3   9   1   53.26    9.38
   3  -9   1   60.34    5.68
  -3  -9  -1   55.76    7.93
  -3   9  -1   58.90    5.84
   3   9   1   45.66    7.39
  -3  -9  -1   49.09    7.02
  -3  -9  -1   66.56   10.93
   3  -9   1   60.22    5.55
   3  -9   1   54.71    9.06
   3   9   1   61.15    7.69
  -4   9  -1  950.45   29.38
  -4  -9  -1  936.94   34.29
  -4   9  -1  911.46   38.63
   4   9   1 1011.74   35.10
   4  -9   1  969.99   30.71
  -4  -9  -1  970.98   35.36
   4  -9   1  995.54   22.70
   4  -9   1  982.28   25.02
   4   9   1 1023.47   43.15
   4   9   1  981.28   30.43
  -4   9  -1  952.80   26.83
   5   9   1   53.90    9.51
  -5  -9  -1   42.67    6.93
   5   9   1   55.29    6.52
   5  -9   1   52.80    3.82
  -5   9  -1   42.45    8.22
   5  -9   1   49.03    4.35
   5  -9   1   43.54    5.98
   5   9   1   42.11    6.21
  -5  -9  -1   51.98    7.33
  -5   9  -1   49.15    6.25
  -5   9  -1   47.28    4.97
   6   9   1   26.85    4.48
   6   9   1   27.27    7.31
  -6   9  -1   25.64    3.70
   6  -9   1   24.00    4.59
   6   9   1   20.02    4.68
  -6  -9  -1   18.70    4.69
  -6   9  -1   26.47    6.94
   6  -9   1   29.08    2.88
  -6  -9  -1   23.01    4.33
   6  -9   1   21.55    2.74
  -6  -9  -1   22.18    4.93
   7   9   1  287.96   22.16
   7   9   1  297.60   16.12
   7  -9   1  297.34   10.65
  -7   9  -1  299.55   13.12
  -7  -9  -1  302.79   19.47
   7  -9   1  304.46   10.36
  -7  -9  -1  334.01   16.93
   7  -9   1  293.67   16.09
   7   9   1  321.35   15.79
  -7  -9  -1  280.45   16.80
  -7   9  -1  305.59   23.11
  -8   9  -1   64.30    5.88
   8   9   1   62.64   10.72
  -8  -9  -1   74.57    7.94
  -8  -9  -1   90.39   10.72
   8   9   1   60.22    7.01
   8  -9   1   71.17    4.67
   8  -9   1   64.30    7.47
  -8   9  -1   82.34   12.70
  -8  -9  -1   79.85    8.44
   9  -9   1  396.48   19.77
  -9   9  -1  445.71   30.08
  -9  -9  -1  445.01   24.95
  -9  -9  -1  397.06   19.47
   9   9   1  379.08   18.20
   9   9   1  402.04   26.93
 -10   9  -1  408.93   29.85
  10  -9   1  422.39   21.21
 -10  -9  -1  449.82   26.25
 -10  -9  -1  462.33   21.37
  10   9   1  421.87   27.87
 -11  -9  -1  318.69   22.37
  11   9   1  267.25   22.56
 -11   9  -1  300.11   26.08
 -11  -9  -1  311.56   17.73
  11  -9   1  296.99   18.19
  12  -9   1   16.13    4.52
 -12   9  -1   10.70    3.80
  12   9   1   15.40    6.22
 -12   9  -1   24.08    8.51
 -12  -9  -1   22.08    6.66
 -12  -9  -1   16.30    4.32
  13   9   1   57.82   10.84
 -13   9  -1   57.92    7.96
 -13   9  -1   76.18   13.61
 -13   9  -1   58.59    9.28
  13  -9   1   69.51    9.14
 -13 -10   1  152.97   14.20
  13 -10  -1  133.33   14.79
  13  10  -1  153.25   18.17
 -12 -10   1  422.08   26.60
  12  10  -1  492.21   32.46
 -12  10   1  433.15   23.31
 -12 -10   1  443.88   24.03
  12 -10  -1  423.95   25.25
 -11 -10   1  111.14   11.31
  11 -10  -1  135.71   13.33
  11  10  -1  119.19   15.67
 -11  10   1  163.60   21.16
 -11 -10   1  118.00   13.32
 -11  10   1  112.03   11.30
 -10 -10   1   74.62    9.99
 -10 -10   1   84.49    9.86
  10  10  -1   76.97   12.49
  10 -10  -1   77.58    8.97
 -10  10   1   96.77   16.44
  10 -10  -1   83.68   10.15
  -9 -10   1   19.98    5.34
  -9  10   1   16.17    6.25
   9 -10  -1   17.43    4.69
   9  10  -1   16.39    6.26
   9 -10  -1   13.18    3.74
  -9 -10   1   15.90    4.22
  -8  10   1    7.85    4.44
   8 -10  -1    2.75    2.76
   8  10  -1    5.40    4.01
  -8 -10   1    4.25    2.67
   8  10  -1    8.88    2.63
  -8  10   1    3.82    1.69
   8 -10  -1    5.98    2.82
  -8 -10   1    3.87    2.69
   7  10  -1  266.66   22.39
   7  10  -1  261.75   14.41
  -7 -10   1  248.68   16.92
   7 -10  -1  241.35   14.16
  -7 -10   1  277.79   14.63
   7 -10  -1  226.42   15.54
  -7  10   1  308.93   27.50
  -7  10   1  302.14   16.33
  -7 -10   1  227.07   15.06
  -6 -10   1   63.08    7.70
  -6  10   1   79.32   13.37
  -6  10   1   68.07    8.55
   6  10  -1   54.56    7.26
   6 -10  -1   56.82    7.61
   6  10  -1   63.55    7.06
  -6 -10   1   65.01    8.38
   6 -10  -1   58.92    6.81
   6  10  -1   66.28   11.47
  -6 -10   1   88.38    9.50
   5 -10  -1 2020.29   37.62
   5 -10  -1 1943.45   48.60
  -5  10   1 2420.62   62.54
   5  10  -1 2339.25   69.62
   5  10  -1 2118.42   56.36
  -5 -10   1 2007.77   53.67
   5 -10  -1 1922.36   52.50
  -5  10   1 1939.18   48.10
  -5 -10   1 1938.67   51.71
  -5 -10   1 2393.16   62.88
   5 -10  -1 1963.84   39.00
   5  10  -1 2074.42   53.44
  -5  10   1 2295.66   77.04
   4 -10  -1  156.08   12.46
   4 -10  -1  154.01    9.97
  -4  10   1  165.57   18.97
  -4 -10   1  168.65   12.35
  -4  10   1  168.20   11.22
   4  10  -1  174.45   14.34
   4 -10  -1  143.87   10.61
  -4  10   1  215.90   17.31
   4  10  -1  160.99   13.15
  -4 -10   1  168.74   12.53
  -4 -10   1  200.53   17.30
   4  10  -1  181.88   17.18
  -3  10   1  381.33   24.19
   3  10  -1  317.80   22.34
   3  10  -1  325.69   20.56
   3 -10  -1  324.94   18.18
  -3 -10   1  306.71   16.82
  -3  10   1  281.30   15.08
   3  10  -1  308.54   18.38
  -3 -10   1  324.72   17.62
   3  10  -1  298.52   19.00
  -3 -10   1  378.07   25.55
  -3  10   1  328.17   25.55
   3 -10  -1  316.91   17.93
  -3 -10   1  264.68   18.94
   2  10  -1   24.00    5.03
  -2  10   1   35.87    7.79
   2  10  -1   22.24    5.61
   2 -10  -1   23.67    5.81
   2 -10  -1   27.63    4.99
  -2 -10   1   27.78    6.08
  -2  10   1   32.31    8.59
   2  10  -1   28.91    6.31
   2 -10  -1   23.36    4.46
   2  10  -1   26.50    6.16
  -2 -10   1   26.46    7.48
  -2  10   1   25.89    4.44
  -2 -10   1   21.41    4.52
   1  10  -1   33.49    5.56
   1  10  -1   33.72    6.67
  -1  10   1   35.72    8.35
  -1 -10   1   53.94   10.21
   1 -10  -1   33.89    7.51
   1 -10  -1   36.28    5.69
  -1  10   1   32.20    6.91
   1 -10  -1   35.64    5.89
   1 -10  -1   21.57    4.88
   1  10  -1   30.23    6.47
  -1 -10   1   30.61    4.97
   1 -10  -1   25.14    6.55
  -1  10   1   28.68    5.04
   0 -10   1   68.78    7.98
   0  10  -1   59.60    8.30
   0 -10  -1   79.92    9.06
   0  10   1   75.59   11.58
   0  10  -1   72.02    7.71
   0  10   1   73.67    7.97
   0 -10   1   65.92    6.92
   0 -10  -1   75.36    8.34
   0  10   1   65.25    7.32
   0 -10  -1   75.48   12.86
   0  10   1   69.67   10.90
   0 -10   1   76.04   12.11
   0  10  -1   72.04   10.06
   0 -10  -1   67.98    8.35
   0  10   1   63.68   10.12
   0 -10  -1   76.26   10.91
   1  10   1 1119.54   46.94
  -1  10  -1 1042.32   36.31
   1  10   1  986.26   31.84
   1 -10   1 1024.26   34.01
  -1 -10  -1 1025.61   34.87
   1 -10   1  982.04   29.85
  -1 -10  -1 1006.18   34.37
  -1  10  -1 1084.91   32.72
   1  10   1  944.02   39.78
   1  10   1 1019.25   33.55
   1 -10   1 1139.97   48.49
  -1 -10  -1 1020.82   36.81
  -1 -10  -1 1093.91   43.52
   1  10   1 1111.42   43.28
  -1  10  -1  967.52   40.01
  -1 -10  -1 1217.67   52.12
   2 -10   1  342.28   18.06
   2  10   1  346.81   22.56
   2 -10   1  342.74   15.53
   2  10   1  328.48   21.21
  -2 -10  -1  323.83   18.15
  -2  10  -1  331.32   18.55
   2  10   1  346.54   25.36
  -2 -10  -1  421.32   29.86
  -2  10  -1  321.01   22.19
  -2 -10  -1  351.09   22.80
   2  10   1  337.53   17.18
  -2 -10  -1  335.38   18.76
  -2  10  -1  342.88   16.28
   3  10   1 1809.03   62.32
   3  10   1 1721.38   45.93
   3 -10   1 1744.67   41.68
  -3  10  -1 1578.88   55.40
   3  10   1 1836.19   54.84
  -3  10  -1 1825.56   43.22
  -3  10  -1 1718.06   46.86
   3 -10   1 1745.81   47.16
   3  10   1 1744.32   52.18
  -3 -10  -1 1788.74   55.21
  -3 -10  -1 1776.56   50.14
  -4 -10  -1   43.88    7.55
   4  10   1   40.18    5.77
   4 -10   1   32.47    5.74
   4  10   1   29.87    7.08
   4 -10   1   29.66    3.84
   4  10   1   26.71    5.67
  -4  10  -1   28.52    6.97
  -4 -10  -1   32.17    6.44
   4 -10   1   31.48    3.50
  -4  10  -1   30.43    5.18
  -4  10  -1   38.14    4.91
  -5  10  -1   44.57    6.24
   5 -10   1   43.21    4.47
   5  10   1   50.53    9.59
  -5 -10  -1   38.55    6.60
  -5 -10  -1   41.79    7.15
   5 -10   1   36.32    3.46
   5  10   1   44.60    7.12
  -5  10  -1   40.27    8.55
   5  10   1   36.45    5.63
   5 -10   1   35.12    5.74
  -5  10  -1   43.35    5.01
  -6  10  -1   14.08    2.77
   6  10   1    7.94    3.71
   6 -10   1    8.72    2.92
   6 -10   1   13.90    2.42
   6 -10   1   14.17    2.27
   6  10   1    5.65    2.18
  -6  10  -1   10.42    2.84
  -6  10  -1   11.96    4.69
  -6 -10  -1   12.70    4.14
  -6 -10  -1   15.66    4.27
   6  10   1    8.34    2.98
  -7  10  -1   -0.69    3.25
   7  10   1    4.88    4.85
  -7  10  -1   10.37    3.29
   7 -10   1   -0.08    2.60
  -7 -10  -1   -1.22    1.77
   7 -10   1    0.19    0.69
  -7 -10  -1    0.79    1.64
   7  10   1   -0.55    2.15
  -7 -10  -1    0.69    2.30
   7 -10   1    1.27    0.89
  -7  10  -1    2.05    1.96
  -8 -10  -1  317.85   17.77
  -8  10  -1  327.90   15.82
  -8  10  -1  329.65   14.65
  -8 -10  -1  347.22   19.68
   8 -10   1  328.70   10.42
   8 -10   1  298.30   17.47
  -8 -10  -1  326.86   21.47
   8  10   1  326.09   17.51
  -8  10  -1  286.78   24.19
   8  10   1  346.61   25.81
  -9  10  -1  226.70   12.86
  -9  10  -1  213.85   21.59
   9 -10   1  227.16   15.39
  -9 -10  -1  236.01   18.63
  -9 -10  -1  236.86   15.21
   9  10   1  244.87   22.00
 -10 -10  -1  692.60   28.05
  10 -10   1  637.51   27.70
 -10  10  -1  676.61   40.09
  10  10   1  690.15   38.16
 -10 -10  -1  707.99   34.34
  11 -10   1   93.32   10.47
 -11 -10  -1   86.32   12.06
 -11 -10  -1   79.56    9.36
 -11  10  -1  102.52   16.26
  11  10   1   87.16   13.63
  12  10   1   38.18   10.10
 -12 -10  -1   30.23    7.06
 -12  10  -1   46.55   11.62
  12 -10   1   27.06    5.91
 -13  10  -1    4.96    5.74
 -13  10  -1   -2.01    3.00
 -13  10  -1    3.99    3.86
  13 -10   1    1.27    2.74
 -13  11   1   79.52   14.89
 -13 -11   1   51.18    8.44
  12 -11  -1   51.99    8.65
 -12 -11   1   39.79    7.03
 -11 -11   1   96.68   12.39
 -11 -11   1   93.15   10.81
  11 -11  -1   91.81   11.24
 -11  11   1  122.89   18.29
  11  11  -1  136.93   17.50
  10  11  -1  107.27   15.64
  10 -11  -1   94.38   11.06
 -10 -11   1   86.20   11.33
 -10  11   1  131.29   18.70
 -10 -11   1   98.92   10.83
   9 -11  -1   28.03    5.90
   9 -11  -1   22.03    4.48
   9  11  -1   32.23    8.69
  -9 -11   1   32.77    7.19
  -9  11   1   25.96    8.85
  -9 -11   1   26.20    5.69
   8 -11  -1   40.97    7.16
   8  11  -1   50.43   10.25
   8 -11  -1   38.73    6.01
  -8 -11   1   46.84    7.86
  -8 -11   1   42.61    6.93
  -8  11   1   59.00   12.47
  -7 -11   1   34.75    6.64
   7  11  -1   38.79    8.73
  -7  11   1   34.13    5.71
  -7 -11   1   42.72    6.08
   7 -11  -1   32.72    5.31
   7  11  -1   35.65    5.83
   7 -11  -1   34.43    6.62
  -7  11   1   39.07   10.11
  -7 -11   1   43.77    7.14
  -6  11   1  164.55   13.75
  -6 -11   1   99.83   10.19
   6  11  -1  112.61   11.14
   6  11  -1  153.07   17.41
  -6 -11   1  134.53   12.57
   6 -11  -1  107.81   10.95
   6  11  -1  121.19   10.53
  -6  11   1  159.18   19.56
   6 -11  -1  111.18    9.68
  -6 -11   1  131.77   12.25
  -5  11   1  162.54   14.80
   5  11  -1  128.47   15.65
   5 -11  -1  125.42    6.49
  -5 -11   1  135.31   12.13
   5 -11  -1  127.44    7.42
   5  11  -1  138.24   13.00
  -5  11   1  166.61   19.81
   5 -11  -1  135.03   12.21
   5  11  -1  134.18   12.01
  -5 -11   1  123.37   11.27
  -5 -11   1  155.16   14.81
   5 -11  -1  125.00   10.29
  -4  11   1  860.30   36.72
  -4 -11   1  877.06   38.37
   4  11  -1  742.33   37.08
   4  11  -1  689.58   30.05
   4 -11  -1  632.09   25.07
   4 -11  -1  657.17   23.94
  -4 -11   1  666.09   27.48
  -4  11   1  723.25   40.47
   4  11  -1  686.37   31.63
  -4 -11   1  632.81   26.98
   4 -11  -1  659.57   28.50
   3 -11  -1   83.46    9.56
  -3 -11   1   85.40    9.16
   3  11  -1  101.39   12.34
  -3 -11   1  103.75   13.63
   3 -11  -1   99.30   10.73
   3  11  -1   87.72   10.55
  -3  11   1   84.47   13.22
  -3  11   1  109.44   13.45
   3  11  -1   94.59   12.46
   2  11  -1   37.81    7.72
  -2 -11   1   38.63    7.75
  -2  11   1   46.82    9.25
   2 -11  -1   35.11    6.30
  -2  11   1   51.16    9.99
   2 -11  -1   51.34    8.82
   2  11  -1   35.91    7.35
  -2 -11   1   44.50    8.93
   2 -11  -1   39.22    6.23
   2  11  -1   38.77    7.40
  -2 -11   1   33.86    5.74
  -1  11   1    7.43    3.58
   1  11  -1    2.24    2.25
  -1 -11   1   10.70    3.81
   1  11  -1    2.81    1.74
   1 -11  -1    3.42    2.37
  -1 -11   1    8.62    4.29
  -1 -11   1    7.75    4.38
  -1  11   1    0.11    4.23
  -1 -11   1    4.06    1.89
   1 -11  -1    5.24    2.52
   1  11  -1   -1.01    3.06
   1 -11  -1    3.04    2.83
   0  11  -1   15.48    3.78
   0  11  -1   13.08    3.75
   0 -11  -1   20.00    4.88
   0 -11  -1   28.52    8.11
   0  11   1   14.27    5.30
   0 -11  -1   20.11    4.53
   0 -11  -1   17.89    4.66
   0  11  -1   11.90    4.67
   0 -11   1   15.84    3.45
   0  11   1   24.81    7.79
   0 -11   1   11.92    3.60
  -1 -11  -1   38.65    6.80
  -1  11  -1   26.79    5.96
   1 -11   1   27.85    5.25
   1  11   1   43.09    9.37
  -1 -11  -1   33.51    8.62
  -1  11  -1   35.20    5.60
  -1 -11  -1   28.00    5.40
  -1  11  -1   24.45    6.63
   1 -11   1   33.22    5.23
   1  11   1   38.08    8.00
   2  11   1 1013.94   46.19
  -2  11  -1  925.55   34.54
   2 -11   1  933.45   33.42
  -2 -11  -1  999.55   35.17
  -2  11  -1  963.93   30.78
   2  11   1  920.14   39.03
  -2 -11  -1  887.28   33.62
  -2  11  -1  822.27   39.03
   2 -11   1  940.19   29.39
  -3 -11  -1  252.36   17.24
   3  11   1  282.64   23.52
  -3  11  -1  278.10   17.09
   3 -11   1  257.84   13.88
  -3 -11  -1  280.84   17.59
   3  11   1  251.71   18.76
   3 -11   1  252.04   16.54
  -3 -11  -1  274.43   20.70
  -3  11  -1  226.69   19.73
  -3  11  -1  260.56   14.29
   4 -11   1    7.00    3.64
  -4  11  -1   -1.29    2.31
  -4 -11  -1    2.54    2.73
  -4  11  -1    1.73    1.35
   4 -11   1    0.67    1.01
  -4 -11  -1    1.23    1.96
  -4  11  -1   -2.60    3.44
   4  11   1   -1.63    3.85
  -5 -11  -1   -0.07    3.11
   5  11   1   -1.82    3.95
   5 -11   1    3.35    3.05
   5 -11   1    3.65    1.69
   5 -11   1    2.76    0.81
  -5  11  -1    3.22    2.90
  -5  11  -1    3.74    3.05
  -5  11  -1   -1.69    1.76
  -5 -11  -1    5.50    3.53
   6 -11   1   25.37    2.85
  -6  11  -1   22.85    4.65
  -6  11  -1   27.33    7.15
   6 -11   1   25.64    5.13
   6  11   1   28.10    7.53
  -6 -11  -1   28.88    6.32
   6 -11   1   31.06    3.68
  -6 -11  -1   26.02    5.83
  -6  11  -1   26.38    4.21
   7  11   1    7.38    4.62
  -7  11  -1    6.73    3.10
   7 -11   1   11.29    3.92
   7 -11   1   10.51    1.70
   7 -11   1    8.75    1.88
  -7 -11  -1    2.09    2.47
  -7  11  -1    9.06    2.41
  -7 -11  -1    4.51    1.65
  -7  11  -1   -2.40    3.59
  -8 -11  -1  272.41   17.10
   8  11   1  261.45   23.73
   8 -11   1  238.30   16.21
  -8  11  -1  225.14   22.18
  -8 -11  -1  262.08   19.93
  -8  11  -1  246.74   14.62
  -9 -11  -1  270.38   17.31
  -9  11  -1  268.09   15.19
  -9  11  -1  299.97   26.10
  -9 -11  -1  321.72   22.53
   9 -11   1  248.76   17.35
   9  11   1  278.88   24.90
 -10  11  -1    8.65    6.06
  10 -11   1   20.54    4.86
  10  11   1   19.46    7.33
 -10 -11  -1   10.88    3.72
 -10 -11  -1   16.46    5.47
 -11 -11  -1   41.12    8.59
  11 -11   1   19.93    4.90
  11  11   1   18.26    5.16
 -11  11  -1   32.47    9.34
 -11 -11  -1   36.77    6.57
 -12  11  -1   15.45    6.93
  12 -11   1    8.18    3.43
 -12 -12   1    6.11    3.54
 -12  12   1    8.28    7.32
  11 -12  -1   37.61    7.99
  11  12  -1   35.79    9.30
 -11  12   1   37.93   10.83
 -11 -12   1   31.07    6.40
  10  12  -1   26.05    7.39
  10 -12  -1   14.41    4.63
 -10  12   1   18.11    8.49
 -10 -12   1    5.94    3.51
 -10 -12   1    9.35    4.40
   9 -12  -1    4.71    2.93
   9  12  -1    3.12    4.21
  -9 -12   1   12.31    4.22
  -9  12   1    9.95    5.50
  -9 -12   1   11.69    4.38
   8 -12  -1    2.89    2.10
   8  12  -1    9.50    5.13
   8 -12  -1   -3.31    3.24
  -8 -12   1    1.90    2.62
  -8  12   1    0.07    4.70
  -8 -12   1    3.28    2.46
   7 -12  -1   88.78    9.11
  -7  12   1  118.62   17.24
   7  12  -1  112.00   15.65
  -7 -12   1   96.78   10.74
   7 -12  -1   83.80   10.31
  -7 -12   1   92.62   11.26
  -7  12   1  116.37   11.08
  -6 -12   1   69.40    9.04
  -6  12   1   52.98    8.13
   6  12  -1   64.74   11.81
  -6  12   1   59.75   12.79
   6  12  -1   56.68    7.80
   6 -12  -1   53.95    6.98
  -6 -12   1   47.22    7.93
   6 -12  -1   59.75    3.18
   6  12  -1   53.22    7.99
   6 -12  -1   61.49    8.97
  -6 -12   1   59.59    8.29
   5  12  -1   12.92    5.54
  -5  12   1   22.65    5.82
  -5 -12   1    8.27    3.56
   5 -12  -1   11.99    2.70
   5 -12  -1    9.83    3.76
  -5 -12   1    8.80    3.22
   5 -12  -1    6.18    3.62
   5  12  -1    9.31    3.15
  -5  12   1   14.06    7.06
   5 -12  -1   11.16    2.22
  -5 -12   1   14.92    5.32
   4  12  -1   85.53   13.09
  -4 -12   1   84.16    9.58
  -4 -12   1  114.33   14.12
   4  12  -1   88.57   10.61
   4 -12  -1   80.91    8.70
  -4  12   1   89.70   13.86
   4 -12  -1   69.90    9.48
  -4  12   1  105.29   12.80
   4 -12  -1   76.69    8.21
   3  12  -1    1.75    3.45
   3  12  -1   -1.74    2.56
  -3  12   1    3.91    2.58
   3 -12  -1    3.41    2.15
  -3  12   1    0.27    5.03
   3 -12  -1    1.75    1.83
  -3 -12   1   -0.64    2.45
  -2  12   1   97.08   12.92
   2  12  -1  104.79   13.53
  -2 -12   1   90.85    9.52
   2  12  -1   84.04   11.20
   2 -12  -1  120.17   13.64
  -2  12   1  123.66   16.44
  -2 -12   1   98.46   12.44
   2 -12  -1   88.42    9.40
   2 -12  -1   98.85   11.04
  -1  12   1   29.94    7.79
   1  12  -1   23.21    6.90
  -1 -12   1   18.40    4.32
   1 -12  -1   29.84    6.15
  -1 -12   1   24.58    6.48
   1 -12  -1   22.33    7.14
  -1  12   1   29.39    7.91
   1  12  -1   23.11    6.35
   1 -12  -1   18.57    4.59
  -1 -12   1   21.86    4.81
   0  12   1  199.18   19.90
   0  12  -1  153.92   15.00
   0 -12   1  145.33   11.41
   0 -12  -1  159.00   13.90
   0  12  -1  168.94   16.83
   0 -12   1  164.14   13.46
   0  12   1  160.12   17.14
   0 -12  -1  145.10   12.72
  -1  12  -1    8.60    3.20
  -1  12  -1    1.09    3.10
   1 -12   1    4.39    2.64
  -1 -12  -1    1.80    2.16
   1 -12   1    1.56    1.50
   1  12   1    2.56    3.43
   1  12   1   -0.95    3.20
  -1  12  -1    2.15    3.08
  -1 -12  -1    7.24    3.52
  -2 -12  -1   29.87    6.37
   2  12   1   24.85    7.10
   2 -12   1   30.91    6.14
  -2  12  -1   22.50    5.51
   2 -12   1   27.34    4.96
   2  12   1   30.96    7.68
  -2 -12  -1   23.26    5.58
  -2  12  -1   32.21    8.33
  -2  12  -1   27.77    4.97
   3  12   1   62.38   10.89
  -3  12  -1   41.70    6.83
  -3  12  -1   57.75    6.99
  -3 -12  -1   52.87    8.21
   3  12   1   47.05    8.51
   3 -12   1   39.07    6.70
  -3 -12  -1   42.19    7.08
  -3  12  -1   44.59    9.12
   3 -12   1   40.44    5.47
   3 -12   1   45.89    6.14
   4 -12   1   69.24    6.12
   4 -12   1   67.08    8.69
   4  12   1   56.84   11.06
  -4 -12  -1   58.24    8.63
  -4  12  -1   73.69    7.87
  -4  12  -1   56.99   11.01
   4  12   1   67.87    9.84
  -4 -12  -1   71.66    9.89
  -4  12  -1   55.15    7.96
  -5  12  -1  130.46   12.04
   5 -12   1  121.00    7.43
   5 -12   1  113.32   11.61
  -5  12  -1  115.11    9.54
   5  12   1  118.44   16.48
  -5  12  -1  111.74   14.80
  -5 -12  -1  130.88   13.17
  -6  12  -1   -1.09    2.89
   6 -12   1   -1.50    2.79
   6 -12   1    0.50    0.97
   6  12   1    1.39    3.79
  -6  12  -1    2.61    2.96
  -6 -12  -1   -0.22    3.15
  -6  12  -1    2.92    2.12
   6 -12   1    1.76    1.12
  -7  12  -1   45.57    6.93
   7 -12   1   61.57    8.52
   7  12   1   67.17   12.21
  -7  12  -1   59.59   11.49
  -7 -12  -1   62.97    9.89
   8  12   1   10.03    4.01
   8 -12   1    5.32    3.16
  -8  12  -1    8.18    3.11
  -8  12  -1    1.82    4.02
  -8 -12  -1    9.04    4.99
  -9  12  -1   23.39    6.97
   9  12   1   29.27    8.82
   9 -12   1   18.52    5.21
  -9 -12  -1   25.11    7.10
  10  12   1    1.95    5.56
 -10 -12  -1    8.44    3.52
 -10  12  -1    8.92    6.28
 -10 -12  -1    3.75    3.80
  10 -12   1    8.55    4.04
 -11  12  -1   73.04   14.45
  11 -12   1   70.15   10.03
  12 -12   1   23.73    5.52
 -11  13   1  151.68   22.05
 -11 -13   1   96.99   11.76
  10  13  -1   48.66   11.55
 -10 -13   1   38.45    7.47
  10 -13  -1   43.43    8.22
 -10  13   1   65.55   13.89
   9 -13  -1   -0.17    2.92
   9  13  -1   -1.31    3.23
  -9 -13   1   -1.11    2.71
  -9 -13   1   -1.53    3.32
   8  13  -1   15.29    6.60
   8 -13  -1   21.42    6.59
  -8  13   1   27.23    9.54
  -8 -13   1   11.96    4.16
  -8 -13   1   14.04    4.86
   7  13  -1    4.26    4.07
  -7 -13   1    0.92    2.36
   7 -13  -1   10.25    5.66
   7 -13  -1    3.70    2.13
  -7  13   1    9.32    6.03
  -7 -13   1    7.65    3.95
   6  13  -1  235.67   22.68
  -6 -13   1  228.15   17.51
   6 -13  -1  202.28   16.86
   6  13  -1  205.25   15.58
  -6  13   1  247.25   18.33
   6 -13  -1  193.09   13.86
  -5  13   1   92.46   11.78
   5  13  -1   88.84   14.12
   5 -13  -1   68.50    9.83
   5 -13  -1   58.33    5.39
   5 -13  -1   68.49    8.06
   5  13  -1   64.29    9.15
  -5  13   1   88.09   14.76
  -5 -13   1   66.51    9.11
  -4  13   1  491.31   28.80
   4  13  -1  485.09   31.37
  -4  13   1  427.06   32.17
   4 -13  -1  392.52   19.79
  -4 -13   1  381.65   22.10
   4 -13  -1  375.78   20.02
   4  13  -1  382.87   23.76
   4 -13  -1  404.07   23.64
   3 -13  -1    3.54    2.72
  -3  13   1    5.65    3.79
   3 -13  -1    5.21    2.01
   3  13  -1    4.55    3.67
  -3  13   1    6.17    6.08
  -3 -13   1    4.37    3.00
   3  13  -1    3.75    4.39
  -2  13   1   22.74    8.20
  -2 -13   1    9.77    3.85
  -2 -13   1    9.34    4.23
   2  13  -1    4.02    3.09
   2 -13  -1    7.84    3.92
   2 -13  -1   13.26    5.84
   2 -13  -1    8.91    3.76
  -2  13   1   11.59    4.88
   2  13  -1   19.42    5.55
  -1  13   1    2.53    4.28
  -1  13   1    7.18    4.66
  -1 -13   1    5.17    5.23
   1 -13  -1    2.22    3.04
  -1 -13   1   -1.56    2.46
   1  13  -1    2.67    3.66
   1 -13  -1   -1.71    2.93
   1  13  -1    4.33    4.70
  -1 -13   1    3.01    3.20
   1 -13  -1    3.68    4.46
   0  13   1   33.90    8.89
   0  13   1   33.86    8.64
   0  13  -1   31.74    6.99
   0 -13  -1   40.01    7.06
   0 -13   1   41.29    6.21
   0 -13   1   57.35    9.45
   0 -13   1   39.88    7.27
   0  13  -1   53.17    9.72
   0 -13  -1   36.06    6.66
   1 -13   1   21.67    5.27
  -1 -13  -1   25.79    6.03
  -1  13  -1   25.14    6.34
   1 -13   1   16.75    4.17
   1  13   1   31.71    8.30
  -1 -13  -1   18.88    4.57
  -1  13  -1   19.31    6.01
   1  13   1   35.04    8.72
   2  13   1  571.58   35.52
   2 -13   1  506.14   25.57
  -2 -13  -1  491.88   26.05
   2 -13   1  499.72   22.31
  -2 -13  -1  506.72   26.01
  -2  13  -1  516.38   31.75
   2  13   1  496.28   29.82
  -2  13  -1  520.56   27.66
   3  13   1  105.88   15.33
  -3 -13  -1  104.92   11.95
  -3  13  -1   83.92   10.59
   3 -13   1   92.63    8.77
   3 -13   1   87.43    8.81
  -3 -13  -1  100.85   11.50
   3 -13   1   88.49   10.69
   3  13   1   92.21   12.38
  -3  13  -1   75.91   12.09
   4  13   1  160.42   19.70
  -4  13  -1  145.68   16.75
   4 -13   1  119.38    8.53
  -4 -13  -1  129.73   13.08
  -4 -13  -1  111.68   12.58
   4 -13   1  122.25   12.48
  -4  13  -1  126.13   10.67
   4  13   1  118.39   13.44
   4 -13   1  113.94    9.18
  -4  13  -1  116.78   12.02
   5  13   1   -0.32    3.75
   5 -13   1    3.91    1.89
  -5  13  -1   -3.06    3.60
  -5  13  -1    2.42    4.14
  -5 -13  -1    1.82    2.79
   5 -13   1    1.87    2.69
  -5 -13  -1    5.17    4.18
   6 -13   1    7.79    3.50
   6  13   1    5.68    5.70
  -6  13  -1    7.04    2.99
  -6 -13  -1   10.25    5.14
  -6  13  -1    1.10    3.48
   7  13   1   11.31    7.36
   7 -13   1    7.06    2.70
  -7  13  -1   11.09    5.19
  -7  13  -1   14.04    4.06
   8 -13   1   61.21    9.14
   8  13   1   68.41   13.39
  -8  13  -1   73.68    8.87
  -8 -13  -1   70.35   11.12
  -8  13  -1   70.50   12.95
  -9 -13  -1  213.23   19.48
   9 -13   1  170.56   15.22
   9  13   1  185.07   22.09
  -9  13  -1  201.13   22.40
  10 -13   1   34.69    7.21
 -10  13  -1   22.97    7.74
  11 -13   1   50.59    9.01
 -10 -14   1   61.85    9.56
   9 -14  -1  102.64   12.82
   9  14  -1  107.79   16.94
  -9 -14   1   93.32   12.06
  -9  14   1  137.41   20.07
   8  14  -1   64.67   13.20
   8 -14  -1   43.13    8.41
  -8 -14   1   41.33    7.66
  -8  14   1   50.22   12.73
  -8 -14   1   48.77    9.03
   7  14  -1   38.95   10.01
  -7 -14   1   24.10    6.54
   7 -14  -1   36.56    7.73
  -7  14   1   40.27   11.39
   6  14  -1  249.12   24.05
  -6  14   1  225.14   24.84
  -6 -14   1  189.45   16.83
   6 -14  -1  207.34   14.68
  -6  14   1  242.84   18.56
   6 -14  -1  199.36   17.53
   6  14  -1  209.73   16.50
  -5  14   1  723.36   34.49
   5 -14  -1  538.52   29.10
  -5 -14   1  486.93   27.05
   5  14  -1  580.59   29.60
   5  14  -1  627.59   37.91
  -5  14   1  641.31   40.73
   5 -14  -1  514.00   24.46
  -4  14   1   -4.89    4.39
  -4 -14   1    0.41    3.13
   4 -14  -1    3.04    2.36
   4 -14  -1   -5.40    4.17
   4  14  -1    3.37    4.16
  -4  14   1   11.64    6.41
   4  14  -1    1.24    4.03
  -3  14   1  601.25   33.51
   3  14  -1  566.54   34.16
  -3 -14   1  446.49   24.00
  -3 -14   1  432.89   24.66
  -3  14   1  436.49   32.58
   3  14  -1  443.40   27.47
   3 -14  -1  444.83   26.03
  -2  14   1   78.01   12.61
  -2  14   1   65.29   12.29
   2  14  -1   62.03   11.05
   2 -14  -1   73.21    9.87
   2  14  -1   71.48   10.95
  -2 -14   1   56.86    8.24
   2 -14  -1   70.67   10.15
  -2 -14   1   60.28    9.00
   1  14  -1  132.74   15.47
  -1 -14   1  127.86   13.23
  -1 -14   1  132.46   12.05
  -1  14   1  171.16   18.99
  -1  14   1  138.54   17.39
   1 -14  -1  141.80   13.30
   1  14  -1  134.60   15.60
   1 -14  -1  148.14   14.54
   0  14  -1   65.58   10.74
   0  14   1   72.05   12.51
   0 -14  -1   60.24    8.67
   0 -14  -1   69.62    9.82
   0 -14   1   52.31    7.32
   0  14  -1   66.80   11.86
   0  14   1   61.32   11.28
   0 -14   1   59.38    8.72
   1  14   1  953.84   46.98
  -1  14  -1  897.26   39.58
   1 -14   1  811.71   34.48
  -1 -14  -1  855.20   36.35
  -1 -14  -1  817.75   34.40
   1 -14   1  734.91   29.78
   1  14   1  820.31   41.72
  -1  14  -1  778.89   40.46
   1 -14   1 1054.81   41.20
   2 -14   1   11.70    3.61
  -2 -14  -1   16.33    5.04
   2  14   1   25.08    7.80
  -2  14  -1   13.16    3.99
  -2 -14  -1   18.97    5.50
   2 -14   1   17.53    5.23
   2  14   1   21.57    7.20
  -2  14  -1    9.77    4.45
   3  14   1  451.47   32.63
   3  14   1  389.98   26.68
  -3 -14  -1  372.45   23.23
  -3 -14  -1  400.65   24.27
   3 -14   1  383.89   23.10
   3 -14   1  373.76   19.21
   3 -14   1  376.25   19.63
  -3  14  -1  413.80   29.47
  -3  14  -1  375.86   23.94
   4  14   1  311.85   27.21
  -4  14  -1  237.50   18.30
  -4 -14  -1  274.29   20.04
  -4  14  -1  261.12   23.54
   4 -14   1  254.03   13.20
   4  14   1  231.19   19.82
   4 -14   1  236.33   18.06
  -4 -14  -1  254.05   19.79
   4 -14   1  248.03   14.44
  -5  14  -1    3.18    3.23
  -5  14  -1    1.70    4.67
   5 -14   1    4.16    2.30
  -5 -14  -1    9.19    4.29
   5 -14   1   -0.66    2.82
  -5 -14  -1   -0.62    3.34
   5  14   1    4.46    5.32
  -6 -14  -1   64.05   10.78
   6 -14   1   56.85    8.87
  -6 -14  -1   59.28    9.60
  -6  14  -1   56.36   11.35
   6  14   1   63.29   13.30
  -6  14  -1   55.83    8.32
   7  14   1  250.42   25.77
  -7  14  -1  262.29   18.34
  -7  14  -1  231.19   24.25
   7 -14   1  221.91   17.94
  -7 -14  -1  272.75   21.79
   8 -14   1  160.02   15.34
   8  14   1  171.67   21.43
  -8  14  -1  173.16   21.35
  -8 -14  -1  174.04   17.74
   9 -14   1  278.57   20.39
  10 -14   1  169.86   15.95
   8 -15  -1   36.91    8.14
   7 -15  -1   75.72   11.49
   7  15  -1   67.67   13.70
  -7  15   1   67.85   14.17
  -7 -15   1   74.22   11.35
  -6 -15   1  397.03   25.24
   6 -15  -1  372.20   25.54
  -6  15   1  469.97   35.86
   6  15  -1  459.35   33.26
   6  15  -1  381.26   23.46
  -5  15   1   50.38    9.21
   5  15  -1   37.45    9.55
   5 -15  -1   24.96    5.59
  -5  15   1   34.82    9.38
   5 -15  -1   30.43    7.18
   5  15  -1   36.17    7.60
  -5 -15   1   27.67    6.87
  -4  15   1  666.10   35.04
   4  15  -1  669.03   39.03
   4 -15  -1  552.90   30.80
  -4 -15   1  587.85   29.64
   4 -15  -1  507.39   25.67
   4  15  -1  559.88   31.19
  -4  15   1  596.79   39.52
  -4 -15   1  557.14   29.62
  -3  15   1    6.23    4.82
   3  15  -1    6.59    4.74
  -3 -15   1    1.52    4.41
  -3  15   1    2.31    4.46
  -3 -15   1   -1.13    2.97
   3  15  -1    6.50    4.21
   3 -15  -1   -3.47    3.20
  -2  15   1  164.45   18.04
   2  15  -1  166.62   18.50
  -2 -15   1  127.92   12.63
   2 -15  -1  146.64   14.06
   2  15  -1  137.94   15.99
  -2 -15   1  124.12   13.53
   2 -15  -1  146.68   15.18
  -2  15   1  130.34   17.66
  -1  15   1    4.80    5.48
  -1 -15   1    3.41    3.02
   1  15  -1    0.82    2.99
  -1  15   1    4.94    4.66
   1 -15  -1   -5.53    4.03
   1 -15  -1   -0.34    2.09
   1  15  -1    1.90    3.16
  -1 -15   1    2.75    3.89
   0  15   1  379.69   28.95
   0 -15  -1  300.14   21.66
   0 -15   1  320.54   21.65
   0  15  -1  335.53   25.04
   0  15  -1  316.76   25.46
   0 -15  -1  292.10   20.11
   0 -15   1  260.85   17.88
   0  15   1  343.05   27.69
   1  15   1   26.23    8.55
  -1  15  -1   19.81    7.31
  -1 -15  -1   21.28    6.21
   1 -15   1   14.33    4.35
  -1 -15  -1   16.95    5.48
   1  15   1   15.32    6.91
   1 -15   1   13.72    4.49
  -1  15  -1   21.92    6.84
   2  15   1  868.54   46.41
  -2  15  -1  820.29   38.22
   2 -15   1  715.23   29.78
  -2 -15  -1  760.57   35.36
   2 -15   1  723.08   33.59
   2  15   1  797.26   40.79
  -2  15  -1  768.03   41.63
  -2 -15  -1  730.12   33.87
   3  15   1   88.36   14.52
   3 -15   1   83.45   11.20
  -3 -15  -1   78.46   11.16
   3  15   1   71.02   11.73
  -3 -15  -1   79.79   11.43
  -3  15  -1   91.70   11.84
  -3  15  -1   80.66   13.73
   3 -15   1   69.74    8.52
  -4  15  -1  195.48   17.38
   4 -15   1  186.09   16.63
  -4 -15  -1  195.88   17.62
   4 -15   1  181.04   12.80
  -4 -15  -1  179.85   17.02
   4  15   1  205.36   22.99
   4  15   1  193.40   18.48
  -4  15  -1  213.68   22.12
  -5  15  -1   82.85   14.40
  -5  15  -1   82.21   11.33
  -5 -15  -1   67.15   10.74
  -5 -15  -1   62.86   10.06
   5 -15   1   84.01   11.32
   5  15   1   98.36   16.59
  -6 -15  -1   38.92    8.25
  -6  15  -1   26.08    6.53
   6 -15   1   32.20    7.56
   6  15   1   44.56   11.98
  -6 -15  -1   29.90    7.25
  -6  15  -1   28.13    8.40
   7  15   1  141.20   20.05
  -7 -15  -1  122.07   15.25
  -7 -15  -1  144.59   15.40
  -7  15  -1  126.49   18.44
   7 -15   1  110.46   13.29
   8 -15   1  188.34   17.40
   9 -15   1  179.53   17.02
   6 -16  -1   10.46    6.10
  -6  16   1    9.08    7.25
  -6 -16   1   -2.53    3.16
   6  16  -1   12.15    7.89
   5  16  -1  603.79   38.99
   5  16  -1  520.38   29.95
  -5  16   1  629.76   41.40
  -5 -16   1  541.24   30.55
  -5 -16   1  516.95   29.46
   5 -16  -1  568.15   32.56
  -5  16   1  645.59   33.76
  -4  16   1   80.44   14.86
  -4  16   1   75.34   11.80
   4  16  -1   71.69   12.44
   4 -16  -1   59.57   10.45
  -4 -16   1   39.87    8.22
   4 -16  -1   65.60    8.95
   4  16  -1   74.75   11.43
  -4 -16   1   64.81    9.90
  -3  16   1   64.23   13.12
  -3  16   1   78.21   12.43
   3  16  -1   66.83   12.41
  -3 -16   1   76.86   10.46
  -3 -16   1   72.94   10.58
   3  16  -1   68.51   11.82
   3 -16  -1   66.69   10.84
   2 -16  -1   43.78    8.87
   2  16  -1   73.28   12.48
  -2  16   1   30.37    9.30
   2  16  -1   47.80   10.01
  -2 -16   1   58.76    9.03
  -2  16   1   52.06   10.81
   2 -16  -1   46.00    8.20
  -2 -16   1   56.88    9.53
  -1 -16   1    6.64    3.14
   1  16  -1   20.38    7.27
  -1  16   1   21.47    7.25
   1 -16  -1   16.52    6.01
   1 -16  -1   13.80    5.33
  -1 -16   1   17.29    5.10
  -1  16   1    7.74    5.28
   1  16  -1   17.93    6.82
   0 -16   1  107.39   12.94
   0  16   1  114.51   15.85
   0  16  -1  120.60   15.64
   0  16   1  100.81   15.52
   0 -16   1   98.19   10.86
   0 -16  -1  103.89   12.42
   0  16  -1  106.81   15.28
   0 -16  -1  113.85   13.42
   1 -16   1  218.50   18.40
  -1  16  -1  240.60   23.24
  -1 -16  -1  178.29   16.34
   1  16   1  234.29   22.91
  -1  16  -1  231.46   20.98
   1  16   1  256.85   24.42
   1 -16   1  205.29   15.91
  -1 -16  -1  222.90   19.20
   2  16   1  120.90   17.22
  -2 -16  -1   97.56   12.55
  -2  16  -1  104.40   13.78
  -2  16  -1  115.54   16.53
   2 -16   1   85.41   10.06
   2 -16   1   94.01   12.22
  -2 -16  -1  100.83   12.59
   2  16   1  108.13   15.19
  -3  16  -1  502.46   30.40
  -3 -16  -1  510.05   29.56
   3 -16   1  534.86   29.51
   3  16   1  504.47   32.32
  -3 -16  -1  491.88   28.82
   3 -16   1  513.65   24.50
   3  16   1  589.96   39.12
  -3  16  -1  576.80   37.21
  -4  16  -1    1.54    3.68
   4 -16   1    6.22    4.47
  -4 -16  -1    5.60    4.84
  -4 -16  -1    5.35    4.34
   4  16   1    6.26    5.65
  -4  16  -1    1.84    4.73
   4  16   1   10.44    8.32
  -5 -16  -1  113.15   14.26
  -5  16  -1  130.20   14.77
  -5 -16  -1  110.51   13.65
   5 -16   1  103.74   13.14
   5  16   1  124.38   18.91
  -5  16  -1  104.37   16.64
   6 -16   1   13.32    5.48
  -6  16  -1   18.64    5.64
  -6 -16  -1    6.66    2.93
   7 -16   1   -3.75    4.44
   5  17  -1    8.87    4.34
  -5 -17   1    0.12    2.69
  -4 -17   1   89.08   11.89
   4  17  -1   97.04   13.60
  -4  17   1  100.55   14.01
  -3 -17   1   21.80    6.48
  -3  17   1   38.50    9.04
  -3 -17   1   39.44    7.70
  -3  17   1   29.27    9.72
   3  17  -1   32.28    8.60
   3 -17  -1   35.09    8.71
   3  17  -1   40.09    9.85
   2 -17  -1   15.65    6.52
  -2  17   1    2.19    4.55
   2  17  -1    3.20    4.11
  -2  17   1   11.50    7.07
  -2 -17   1    2.40    2.13
   2  17  -1    3.65    3.62
  -2 -17   1    5.09    3.84
  -1  17   1   -4.48    5.42
  -1 -17   1   -0.97    3.58
   1  17  -1   -4.12    5.42
  -1  17   1    2.25    3.29
  -1 -17   1    0.75    2.95
   1  17  -1   -3.33    4.45
   1 -17  -1    2.30    3.81
   1 -17  -1    3.24    3.02
   0  17   1    9.38    4.76
   0  17  -1   -2.90    4.21
   0  17  -1   10.86    5.13
   0 -17  -1   10.54    4.67
   0 -17   1    2.87    2.78
   0 -17  -1    1.37    3.02
   0 -17   1   -1.23    3.93
   0  17   1    2.93    4.06
   1  17   1   49.37   11.00
  -1  17  -1   65.99   11.71
  -1 -17  -1   49.49    9.68
   1 -17   1   45.64    8.96
   1  17   1   63.78   12.26
  -1 -17  -1   56.77   10.18
   1 -17   1   42.74    7.53
  -1  17  -1   58.96   12.62
   2  17   1  196.84   22.53
   2  17   1  173.32   19.53
   2 -17   1  161.53   14.53
  -2  17  -1  174.54   18.35
  -2 -17  -1  189.86   18.19
  -2 -17  -1  160.03   16.38
   2 -17   1  169.08   16.98
  -2  17  -1  172.62   20.64
   3 -17   1   22.05    6.83
   3  17   1   27.87   10.29
  -3 -17  -1   13.29    5.84
  -3  17  -1   23.29    6.78
  -3 -17  -1   15.21    5.14
  -3  17  -1   14.04    6.88
   3  17   1   15.50    5.59
   4  17   1   93.20   16.36
  -4  17  -1   62.72   10.98
   4 -17   1   74.39   11.63
  -4 -17  -1   69.62   11.62
  -4 -17  -1   71.87   11.35
  -5  17  -1    2.60    3.26
   5 -17   1    1.93    3.32
   4  18  -1   21.18    6.61
  -3  18   1    1.94    3.56
   3  18  -1   -1.45    3.72
  -3 -18   1    5.14    3.84
  -2 -18   1   21.03    5.96
   2  18  -1   32.50    8.66
  -2  18   1   26.63    7.53
  -1  18   1   29.63    8.59
   1  18  -1   28.86    8.21
   1  18  -1   48.93   10.97
  -1 -18   1   21.71    6.12
   1 -18  -1   21.15    6.14
   0  18   1   61.67   12.27
   0  18  -1   85.36   14.00
   0 -18   1   50.30    8.77
   0 -18  -1   67.60   10.78
   0  18  -1   54.34   11.21
   0  18   1   75.97   14.03
  -1  18  -1    1.06    4.57
   1  18   1    8.69    6.20
  -1  18  -1    8.71    4.82
  -1 -18  -1   15.31    6.08
   1  18   1   14.04    6.30
   1 -18   1    0.75    2.87
  -2  18  -1    8.10    4.67
   2 -18   1   14.14    4.74
   2  18   1   13.42    5.24
   2  18   1   17.59    9.08
  -3  18  -1    0.67    3.05
   3  18   1   -3.57    6.21
  -4  18  -1   12.00    4.27
   3  19  -1  113.53   15.97
  -2  19   1   71.85   13.02
  -1  19   1    4.30    5.02
  -1 -19   1   -1.32    3.33
   0 -19   1   50.34    9.07
   1 -19   1  100.57   12.34
 -15   0   2  176.40   15.93
 -15   0   2  178.93   14.83
 -14   0   2   10.73    4.61
 -14   0   2    3.01    2.42
 -13   0   2   13.18    4.53
  13   0  -2   22.85    7.38
 -13   0   2   26.43    5.47
 -12   0   2  108.43    9.87
  12   0  -2  112.82   13.38
 -12   0   2  119.35   11.23
  11   0  -2  442.05   25.12
 -11   0   2  372.02   17.02
 -11   0   2  380.48   19.37
 -11   0   2  385.18   18.57
  11   0  -2  388.73   12.49
  10   0  -2 1470.65   30.98
  10   0  -2 1498.50   47.40
 -10   0   2 1548.85   41.60
 -10   0   2 1525.19   39.39
 -10   0   2 1464.24   39.49
   9   0  -2 1127.88   37.53
   9   0  -2 1033.66   23.76
   9   0  -2 1058.12   31.73
  -9   0   2 1047.20   30.39
  -8   0   2  512.38   10.80
   8   0  -2  542.07   20.15
  -8   0   2  531.11   10.59
   8   0  -2  545.09   13.28
   8   0  -2  543.03   23.43
  -8   0   2  506.92   22.18
   8   0  -2  531.72   15.02
  -8   0   2  526.29   19.86
  -8   0   2  509.68   18.92
   7   0  -2    2.27    1.19
  -7   0   2    2.06    1.60
   7   0  -2    0.72    0.71
   7   0  -2    0.77    1.00
   7   0  -2   -0.39    1.23
  -7   0   2    1.64    0.65
   7   0  -2    5.18    2.61
  -7   0   2    1.53    1.67
  -7   0   2    0.35    1.28
   6   0  -2  284.61   10.62
   6   0  -2  282.18   11.22
   6   0  -2  292.73   12.81
  -6   0   2  274.68    7.37
  -6   0   2  292.37   12.13
  -6   0   2  280.22   14.03
   6   0  -2  302.12   14.91
  -5   0   2    3.08    0.67
   5   0  -2    1.97    0.81
   5   0  -2    6.30    1.75
  -5   0   2    5.08    1.79
   5   0  -2    4.94    2.01
   5   0  -2    3.84    1.51
  -4   0   2 2931.14   55.00
   4   0  -2 3042.29   55.08
   4   0  -2 3069.45   59.45
   4   0  -2 3042.72   53.47
   4   0  -2 3039.69   56.14
  -4   0   2 2977.46   50.22
   3   0  -2   10.24    1.81
  -3   0   2   12.44    1.51
   3   0  -2   19.52    2.24
   3   0  -2   13.56    1.79
  -3   0   2    9.71    1.71
  -3   0   2   12.40    1.94
   3   0  -2   13.68    1.97
  -3   0   2   15.18    2.00
   3   0  -2    9.74    2.01
  -2   0   2 9999.00  154.16
   2   0  -2 9928.94  153.51
   2   0  -2 9491.69  153.34
   2   0  -2 9812.40  153.90
   2   0  -2 9775.49  154.13
   2   0  -2 9569.86  157.23
  -2   0   2 9597.33  153.06
  -2   0   2 9788.47  153.85
  -2   0   2 9900.19  153.79
   1   0  -2   12.22    1.70
  -1   0   2   12.89    2.00
  -1   0   2   13.23    1.56
   1   0  -2   17.17    2.34
   1   0  -2   15.60    1.73
  -1   0   2   12.70    1.74
   1   0  -2   17.35    2.04
   1   0  -2   15.51    1.56
  -1   0   2   21.91    1.96
  -1   0   2   18.05    2.08
   0   0  -2  134.11    5.85
   0   0  -2  135.00    6.21
   0   0  -2  129.20    4.21
   0   0  -2  123.02    6.04
   0   0   2  125.31    4.38
   0   0   2  136.00    4.34
   0   0  -2  127.75    4.25
   0   0   2  134.28    6.27
   1   0   2  174.54    4.74
  -1   0  -2  173.91    6.98
  -1   0  -2  177.30    4.37
   1   0   2  165.45    5.83
   1   0   2  173.05    7.70
  -2   0  -2    8.50    1.63
   2   0   2   10.72    1.98
  -2   0  -2    8.00    1.25
   2   0   2    5.68    1.12
   3   0   2  843.92   21.18
   3   0   2  874.96   22.45
  -3   0  -2  875.94   21.04
   3   0   2  851.30   18.35
  -3   0  -2  819.88   19.76
  -3   0  -2  850.81   22.18
   3   0   2  877.66   22.26
  -3   0  -2  897.35   22.26
   4   0   2 3222.68   61.03
   4   0   2 3261.23   61.52
   4   0   2 3223.06   60.21
   4   0   2 3209.63   55.82
  -4   0  -2 3352.23   59.52
  -4   0  -2 3201.43   52.41
  -4   0  -2 3214.64   61.05
  -4   0  -2 3270.43   52.03
  -4   0  -2 3060.00   59.28
  -4   0  -2 3236.56   60.99
  -5   0  -2 3627.38   61.88
   5   0   2 3798.67   70.24
  -5   0  -2 3722.68   61.15
  -5   0  -2 3685.87   69.39
   5   0   2 3720.13   70.52
  -5   0  -2 3768.52   69.93
   5   0   2 3794.90   64.42
  -5   0  -2 3801.66   68.66
  -5   0  -2 3759.92   70.39
   5   0   2 3730.62   70.08
  -6   0  -2  585.70   18.40
  -6   0  -2  575.22   19.51
   6   0   2  566.12   19.27
  -6   0  -2  548.07   18.71
  -6   0  -2  557.13   18.97
  -6   0  -2  571.05   14.51
  -6   0  -2  549.60   19.04
  -6   0  -2  569.14   13.80
  -7   0  -2   51.36    4.00
  -7   0  -2   53.52    5.97
  -7   0  -2   49.30    5.43
  -7   0  -2   60.02    6.08
  -7   0  -2   54.13    3.86
   7   0   2   46.88    5.24
  -7   0  -2   57.21    5.39
  -7   0  -2   55.74    5.31
  -7   0  -2   54.20    5.61
  -8   0  -2    3.03    1.99
  -8   0  -2    2.45    1.00
   8   0   2    2.40    1.66
  -8   0  -2    3.75    1.44
  -8   0  -2    3.54    2.03
  -8   0  -2    3.72    1.80
  -8   0  -2    4.45    2.22
  -8   0  -2    1.59    1.35
   8   0   2    2.57    1.53
  -8   0  -2    4.38    1.98
  -9   0  -2    6.56    1.88
  -9   0  -2    5.40    2.72
   9   0   2   -0.91    3.00
  -9   0  -2    7.70    1.94
  -9   0  -2    4.43    2.04
  -9   0  -2    5.81    2.50
  -9   0  -2    5.68    1.89
  -9   0  -2    4.79    2.11
  -9   0  -2    6.72    2.53
 -10   0  -2  145.10   10.44
 -10   0  -2  139.33    8.78
 -10   0  -2  144.08   11.49
 -10   0  -2  154.12   10.71
 -10   0  -2  160.72   10.45
 -10   0  -2  153.08    8.54
 -10   0  -2  144.95   11.16
 -11   0  -2 1353.60   33.35
 -11   0  -2 1358.27   41.77
 -11   0  -2 1359.09   37.68
 -11   0  -2 1328.20   34.56
 -11   0  -2 1383.92   39.09
 -12   0  -2    3.26    2.34
 -12   0  -2    0.27    1.41
 -12   0  -2    3.80    1.76
 -12   0  -2    4.96    3.17
 -13   0  -2  505.04   25.50
 -13   0  -2  480.79   21.19
 -13   0  -2  496.01   19.72
 -15  -1   2   15.38    5.28
 -15   1   2   26.33    6.46
 -15  -1   2   11.95    4.48
 -15   1   2   16.07    4.76
 -14  -1   2   13.22    4.38
 -14  -1   2   20.16    5.29
 -14   1   2   14.97    4.77
  14  -1  -2   15.00    6.26
 -14   1   2   18.02    4.77
 -13  -1   2   -4.69    3.12
 -13   1   2    0.03    2.10
 -13   1   2    2.87    2.27
  13   1  -2   -3.71    4.72
 -13  -1   2   -2.02    3.76
  13  -1  -2    3.88    3.38
  12  -1  -2   69.22   10.04
 -12  -1   2   48.83    6.83
 -12  -1   2   61.47    8.10
 -12   1   2   70.48    8.38
  12   1  -2   54.22    9.33
 -12   1   2   74.13    8.29
  12   1  -2   59.12    5.24
 -11   1   2  378.80   15.11
 -11   1   2  380.00    9.98
  11   1  -2  385.67   23.87
  11  -1  -2  378.81   22.93
 -11   1   2  393.55   14.75
 -11  -1   2  373.80   18.35
  11  -1  -2  403.50   19.89
 -11   1   2  392.28   18.66
 -11  -1   2  381.30   18.51
 -11   1   2  385.90   19.29
 -11  -1   2  400.51   20.03
  11   1  -2  366.22   14.24
 -10  -1   2  392.90   19.01
  10   1  -2  424.52   23.35
  10  -1  -2  412.12   22.33
  10  -1  -2  359.66   18.15
 -10   1   2  384.29   10.70
 -10   1   2  383.81   15.37
 -10   1   2  377.83   12.14
 -10  -1   2  385.82   18.65
 -10   1   2  396.58   15.15
 -10   1   2  388.29   17.60
  10   1  -2  404.48   14.57
 -10  -1   2  381.51   17.66
  10  -1  -2  381.89    9.94
  -9   1   2 1076.51   29.36
   9  -1  -2 1096.26   32.52
  -9   1   2 1078.12   25.00
  -9  -1   2 1107.73   32.56
   9  -1  -2 1087.32   36.73
  -9   1   2 1096.67   28.64
   9   1  -2 1103.69   37.83
   9  -1  -2 1089.47   25.05
  -9  -1   2 1110.60   31.57
  -9   1   2 1084.39   31.05
   9  -1  -2 1082.31   21.12
   9   1  -2 1101.78   27.66
   8  -1  -2   59.84    6.43
  -8   1   2   61.20    4.64
  -8  -1   2   63.36    6.42
  -8  -1   2   63.07    7.64
   8  -1  -2   55.83    4.57
  -8   1   2   63.30    7.12
  -8   1   2   60.77    6.15
   8   1  -2   63.67    7.84
   8  -1  -2   56.48    7.16
  -8   1   2   57.59    5.80
   8   1  -2   63.65    5.43
   8   1  -2   61.18    5.90
  -8   1   2   60.02    5.51
  -8  -1   2   59.26    6.05
   8  -1  -2   63.04    3.23
  -7  -1   2   93.09    7.38
   7   1  -2   95.95    9.03
   7   1  -2   88.25    6.55
   7   1  -2   93.07    6.89
   7  -1  -2   91.48    6.75
  -7  -1   2   89.64    8.55
  -7   1   2   90.69    7.18
  -7   1   2   92.93    6.66
   7   1  -2   95.79    3.13
  -7   1   2   90.39    5.63
  -7   1   2   89.14    8.08
   7  -1  -2   96.59    8.79
  -7   1   2   87.29    6.86
   7  -1  -2   88.76    7.31
  -7  -1   2   93.75    7.13
   7  -1  -2   93.80    3.95
  -6  -1   2    2.61    1.24
   6  -1  -2    0.84    0.55
  -6   1   2    1.51    1.12
   6   1  -2    0.31    1.16
   6  -1  -2    1.41    1.96
   6  -1  -2    1.54    1.26
  -6   1   2    5.60    2.14
   6   1  -2   -0.05    1.42
  -6   1   2    0.28    1.15
  -6   1   2    0.46    0.97
   6   1  -2    2.84    0.99
   6  -1  -2    2.09    1.14
   5  -1  -2  256.17    8.31
   5   1  -2  247.01   11.62
   5  -1  -2  269.42   11.50
  -5   1   2  271.11    9.08
  -5   1   2  267.28    9.49
   5   1  -2  287.09   13.58
   5  -1  -2  221.29   12.11
  -5   1   2  274.03   12.75
   5   1  -2  227.43    8.77
   5  -1  -2  254.05   12.59
  -5   1   2  269.98   10.82
  -5  -1   2  268.35   10.96
  -5   1   2  256.43   10.52
   4  -1  -2    8.48    1.80
  -4  -1   2    8.42    1.83
  -4   1   2    9.33    1.78
   4   1  -2   10.69    2.19
  -4   1   2    9.51    1.48
  -4   1   2    9.96    2.35
  -4  -1   2    9.72    1.02
   4   1  -2   10.20    1.31
   4   1  -2    8.98    2.36
   4  -1  -2    7.97    1.57
   4   1  -2   10.44    1.52
   4  -1  -2    7.86    2.16
  -4   1   2    9.74    1.74
   4  -1  -2    9.49    2.22
   3  -1  -2 2868.66   50.85
   3   1  -2 2807.63   48.03
  -3  -1   2 2921.10   47.73
   3  -1  -2 2838.57   52.19
  -3   1   2 2816.54   49.06
  -3   1   2 2717.41   50.82
   3   1  -2 2818.65   55.16
   3  -1  -2 2848.30   53.90
   3  -1  -2 2881.65   52.91
   3  -1  -2 2894.96   55.09
  -3  -1   2 2868.10   51.87
  -3   1   2 2876.70   51.18
  -3  -1   2 2939.92   52.25
  -3   1   2 2954.74   52.38
   2   1  -2  159.79    7.79
  -2  -1   2  168.59    6.75
   2  -1  -2  172.58    6.38
  -2   1   2  170.33    7.08
   2   1  -2  168.78    6.21
  -2  -1   2  172.61    7.42
   2  -1  -2  156.14    6.61
  -2  -1   2  173.26    6.18
  -2   1   2  169.35    6.84
  -2  -1   2  162.91    6.78
  -2   1   2  170.61    6.17
   2  -1  -2  163.01    6.01
   2  -1  -2  169.58    7.36
   2  -1  -2  174.93    8.34
   2   1  -2  169.88    6.75
  -2   1   2  167.64    6.51
  -2  -1   2  168.17    8.24
   2  -1  -2  168.80    6.35
   2  -1  -2  172.89    7.81
   1  -1  -2  512.92   12.72
   1  -1  -2  487.33   12.15
  -1  -1   2  518.21   13.12
  -1   1   2  504.32   13.87
   1  -1  -2  517.82   12.81
  -1  -1   2  511.41   12.12
   1   1  -2  508.12   13.86
   1   1  -2  514.15   13.25
  -1  -1   2  498.55   14.15
  -1   1   2  492.65   12.15
  -1  -1   2  490.22   12.54
  -1  -1   2  484.26   13.35
   1  -1  -2  496.53   14.82
   1   1  -2  497.19   12.31
   1  -1  -2  509.10   11.52
  -1   1   2  473.12   11.58
   1  -1  -2  487.15   13.77
   1   1  -2  494.27   13.42
  -1   1   2  510.04   12.47
   0  -1   2  102.68    3.88
   0   1   2  102.60    5.07
   0  -1   2  112.19    5.65
   0  -1  -2  109.33    5.18
   0  -1   2  112.35    4.71
   0   1   2  100.74    4.99
   0  -1  -2   98.70    3.95
   0  -1   2   97.53    5.16
   0   1  -2   95.38    5.39
   0   1   2   99.12    5.23
   0   1  -2  105.81    5.29
   0   1  -2  101.19    5.06
   0   1   2  109.49    5.75
   0   1   2  111.25    4.23
   0   1   2  105.44    3.74
   0   1  -2  102.85    4.35
   0  -1  -2  107.66    5.41
   1   1   2   41.32    3.14
   1  -1   2   39.43    3.60
  -1  -1  -2   37.20    3.00
   1   1   2   37.94    3.53
  -1   1  -2   37.85    2.83
   1  -1   2   41.43    2.22
   1  -1   2   37.55    2.53
   1   1   2   34.74    2.02
  -1  -1  -2   36.63    3.23
  -1  -1  -2   39.19    1.97
   1   1   2   40.52    3.54
  -1   1  -2   38.26    2.46
  -1   1  -2   42.67    3.30
  -2   1  -2    9.86    1.89
  -2  -1  -2    6.09    1.37
  -2  -1  -2    6.11    0.80
  -2  -1  -2    5.93    1.47
   2  -1   2    7.72    0.97
  -2   1  -2    8.63    1.24
   2  -1   2    5.66    1.46
   2  -1   2    9.69    1.99
   2   1   2    4.80    1.34
   2   1   2    5.19    1.41
  -2   1  -2    7.19    0.85
  -2   1  -2    8.01    1.63
  -2  -1  -2    5.71    1.57
   2   1   2    7.13    1.40
  -3   1  -2 1481.73   24.95
   3   1   2 1468.94   32.16
  -3   1  -2 1452.81   27.20
   3  -1   2 1497.23   24.39
   3  -1   2 1419.46   30.59
  -3   1  -2 1492.65   32.26
  -3  -1  -2 1380.15   31.72
  -3  -1  -2 1451.01   32.38
   3   1   2 1454.06   30.29
   3  -1   2 1482.35   25.82
   3   1   2 1491.23   32.64
  -3  -1  -2 1504.15   31.97
  -3   1  -2 1537.06   30.53
   3   1   2 1470.40   32.89
  -3   1  -2 1432.57   32.73
  -3  -1  -2 1497.10   32.80
   4   1   2  751.33   20.78
  -4  -1  -2  701.80   20.26
   4  -1   2  699.22   14.44
  -4   1  -2  737.61   20.37
   4  -1   2  728.94   19.43
   4   1   2  728.12   21.18
  -4  -1  -2  710.60   14.86
   4   1   2  700.33   18.39
  -4   1  -2  730.42   18.85
  -4   1  -2  700.86   20.79
  -4  -1  -2  729.52   21.10
  -4  -1  -2  753.52   21.21
  -4  -1  -2  719.34   20.40
  -4   1  -2  719.96   14.73
  -4  -1  -2  749.65   13.67
  -4   1  -2  710.53   17.76
   4   1   2  718.59   20.93
  -5  -1  -2 1492.10   27.91
  -5   1  -2 1509.16   32.18
   5   1   2 1515.28   31.69
  -5   1  -2 1496.47   33.12
   5  -1   2 1465.95   33.43
  -5   1  -2 1404.88   31.84
  -5   1  -2 1425.77   32.10
  -5   1  -2 1451.38   34.63
  -5  -1  -2 1503.59   34.26
  -5  -1  -2 1431.20   33.73
   5  -1   2 1434.03   27.60
   5   1   2 1449.32   34.23
  -5  -1  -2 1451.14   35.53
  -5   1  -2 1452.50   27.79
  -5  -1  -2 1494.10   26.61
  -5   1  -2 1479.79   27.39
   5   1   2 1436.51   34.97
  -5   1  -2 1473.38   34.00
  -5  -1  -2 1537.20   35.64
  -6  -1  -2  451.66   16.36
  -6  -1  -2  448.27   17.87
   6   1   2  460.76   14.79
  -6  -1  -2  448.85   16.66
  -6  -1  -2  426.76   12.42
   6   1   2  462.89   16.91
  -6  -1  -2  458.58   17.75
   6  -1   2  438.89   16.37
  -6   1  -2  451.10   15.55
  -6   1  -2  444.55   14.99
  -6   1  -2  437.87   15.16
  -6   1  -2  435.65   16.73
  -6   1  -2  449.49   12.53
  -6   1  -2  445.18   12.08
  -6   1  -2  463.36   16.07
   6   1   2  476.38   17.71
  -6  -1  -2  459.12   11.69
  -6   1  -2  441.07   16.49
  -7   1  -2    9.47    2.38
  -7  -1  -2    7.14    2.38
  -7   1  -2   10.25    1.79
  -7   1  -2   10.64    1.90
  -7   1  -2    7.81    2.00
  -7  -1  -2    7.44    1.71
  -7  -1  -2    4.99    1.80
  -7   1  -2    4.20    1.59
  -7  -1  -2    5.14    1.76
   7   1   2    8.00    2.71
  -7  -1  -2    6.56    2.05
  -7   1  -2   10.38    2.35
   7   1   2    9.94    2.65
  -7   1  -2   10.10    2.52
  -7  -1  -2    9.21    1.62
  -7   1  -2    6.75    2.06
  -7  -1  -2    7.46    2.38
  -8  -1  -2   14.92    3.40
  -8   1  -2   14.91    3.23
   8   1   2   13.41    3.42
  -8  -1  -2   11.55    1.99
  -8  -1  -2   12.96    2.27
  -8   1  -2   13.65    3.27
  -8   1  -2   15.33    2.34
  -8  -1  -2   15.19    3.73
  -8   1  -2   12.60    2.24
  -8  -1  -2   14.75    3.41
  -8  -1  -2   16.46    3.29
  -8  -1  -2   11.25    2.75
  -8   1  -2   14.98    3.14
  -8   1  -2   11.74    2.38
   8   1   2   16.93    4.01
  -8   1  -2   17.95    3.56
  -8  -1  -2   20.67    3.60
  -8   1  -2   15.96    3.35
  -9  -1  -2   14.01    3.04
  -9   1  -2   16.57    3.93
   9   1   2   17.20    3.77
  -9   1  -2   16.14    3.43
  -9  -1  -2   16.06    2.53
  -9  -1  -2   14.44    3.46
  -9   1  -2   13.59    2.31
  -9  -1  -2   18.56    4.03
  -9   1  -2   20.97    4.09
  -9  -1  -2   15.21    2.70
  -9  -1  -2   14.97    3.18
  -9   1  -2   17.41    3.28
  -9   1  -2   11.97    2.61
  -9  -1  -2   20.11    3.69
  -9   1  -2   14.07    2.95
  -9  -1  -2   22.88    4.77
   9  -1   2   13.98    3.57
  -9   1  -2   22.35    4.02
 -10   1  -2  392.12   19.14
 -10  -1  -2  412.05   15.91
 -10   1  -2  416.31   16.83
 -10  -1  -2  395.32   17.43
 -10  -1  -2  439.50   17.89
 -10   1  -2  425.50   19.54
 -10   1  -2  401.58   17.92
 -10   1  -2  383.08   17.88
 -10   1  -2  403.55   15.78
 -10   1  -2  417.09   19.09
 -10  -1  -2  434.04   15.22
 -10  -1  -2  435.26   21.31
 -10   1  -2  415.24   15.14
  10   1   2  423.63   19.61
 -11   1  -2   92.26    9.39
 -11   1  -2   90.00    9.31
 -11  -1  -2   86.83    8.12
 -11  -1  -2   94.04    7.04
 -11  -1  -2   89.90    9.77
 -11   1  -2   78.30    7.04
  11   1   2   92.87    9.28
 -11  -1  -2   72.73    7.40
 -11   1  -2   88.76    7.10
 -11   1  -2   75.87    7.89
 -12   1  -2  615.22   26.68
 -12   1  -2  646.58   27.58
 -12  -1  -2  644.25   28.99
 -12  -1  -2  645.19   21.90
 -12  -1  -2  607.22   23.42
 -12  -1  -2  662.01   25.14
 -12   1  -2  657.91   22.14
 -12   1  -2  645.41   25.02
 -13   1  -2   -0.79    2.36
 -13   1  -2   -1.28    2.05
 -13   1  -2    1.52    2.30
 -13   1  -2    2.49    1.70
 -13  -1  -2    0.05    3.30
 -14  -1  -2   42.41    7.77
 -15   2   2   15.51    4.66
 -15   2   2   18.62    5.69
 -15  -2   2   10.75    4.82
 -15  -2   2   13.60    4.09
 -14   2   2   -3.30    2.84
 -14   2   2    2.87    3.25
  14  -2  -2   -2.33    4.02
 -14  -2   2    6.56    3.86
 -14  -2   2    0.54    2.12
 -13  -2   2  182.37   13.77
 -13   2   2  164.33   13.26
 -13   2   2  168.58   13.97
 -13  -2   2  163.47   14.38
  13  -2  -2  170.89   17.21
  12  -2  -2   21.37    5.81
  12   2  -2   12.22    2.68
 -12   2   2   23.82    5.47
  12   2  -2   10.42    4.77
  12  -2  -2   18.44    4.60
 -12   2   2   15.48    3.82
 -12  -2   2   20.34    4.71
 -12   2   2   20.11    4.17
 -12  -2   2   21.64    5.29
  11   2  -2   62.36    9.60
 -11  -2   2   57.64    7.33
 -11  -2   2   49.02    6.49
 -11   2   2   45.58    5.94
 -11   2   2   43.96    6.08
 -11  -2   2   55.50    7.32
 -11   2   2   53.86    4.35
  11  -2  -2   44.13    6.55
  11   2  -2   46.73    5.44
  11  -2  -2   44.56    7.81
 -10   2   2  149.27   11.04
  10  -2  -2  147.95   12.93
 -10  -2   2  153.99   11.04
 -10   2   2  143.11    9.65
  10  -2  -2  157.50    8.49
 -10  -2   2  163.43   12.11
 -10   2   2  153.51   10.85
 -10   2   2  159.13    7.97
  10  -2  -2  148.19   11.26
  10   2  -2  161.71   14.65
  10   2  -2  156.98   10.12
   9  -2  -2   21.34    4.11
  -9   2   2   28.75    4.44
  -9  -2   2   23.34    4.10
   9   2  -2   33.16    6.44
  -9  -2   2   25.12    4.46
  -9   2   2   24.02    4.02
   9  -2  -2   21.54    4.71
  -9   2   2   20.96    2.87
  -9   2   2   20.36    3.88
   9  -2  -2   21.63    3.20
   9   2  -2   20.74    3.61
   8   2  -2   53.89    5.96
   8   2  -2   49.08    5.38
   8   2  -2   56.26    7.63
  -8   2   2   57.32    6.05
   8  -2  -2   49.76    5.41
   8  -2  -2   45.55    5.67
   8  -2  -2   46.01    6.42
  -8   2   2   53.84    5.72
  -8   2   2   43.72    5.80
  -8  -2   2   53.80    7.19
  -8   2   2   51.60    6.26
  -8  -2   2   47.94    5.50
  -8  -2   2   50.70    6.00
   7  -2  -2   83.34    7.54
   7   2  -2   75.04    7.09
   7   2  -2   87.34    8.71
  -7   2   2   71.94    7.32
   7  -2  -2   84.47    8.01
  -7  -2   2   77.26    6.87
  -7   2   2   80.14    6.55
  -7   2   2   79.51    7.00
  -7  -2   2   84.08    7.11
  -7   2   2   83.81    7.05
  -7   2   2   82.82    7.64
   7  -2  -2   79.68    7.06
  -7  -2   2   80.49    8.36
  -7  -2   2   74.07    6.52
   7   2  -2   75.65    6.34
   6  -2  -2  320.43   13.75
   6   2  -2  320.67   15.33
  -6  -2   2  328.74   13.35
  -6   2   2  325.56    9.47
  -6   2   2  301.98   13.71
  -6   2   2  330.14   14.88
   6   2  -2  318.06   15.84
   6  -2  -2  317.72   15.04
  -6  -2   2  330.63   13.52
  -6   2   2  294.82   14.67
   6  -2  -2  306.02   16.04
  -6   2   2  317.51   12.75
   5   2  -2  114.60    8.61
  -5   2   2  125.92    5.04
  -5   2   2  131.50    7.37
   5  -2  -2  124.50    7.68
  -5   2   2  126.89    8.07
   5   2  -2  130.25    9.25
   5  -2  -2  105.92    9.11
   5  -2  -2  135.71    8.84
  -5   2   2  123.55    8.58
  -5  -2   2  130.09    7.71
  -5   2   2  125.53    8.39
   4  -2  -2  451.66   18.21
  -4   2   2  500.39   11.64
   4   2  -2  507.91   10.44
   4  -2  -2  514.24   17.57
  -4   2   2  514.28   17.27
   4  -2  -2  479.62   15.64
  -4   2   2  495.81   14.86
  -4   2   2  507.77   17.54
  -4   2   2  487.17   16.20
  -4  -2   2  520.09   15.67
   4   2  -2  536.31   18.32
   4  -2  -2  513.64    9.87
   4   2  -2  479.98   16.76
  -3   2   2   -0.11    0.76
   3   2  -2   -0.86    0.99
  -3  -2   2   -0.30    0.89
   3  -2  -2    0.12    1.04
  -3   2   2    0.43    0.72
  -3   2   2    0.52    0.39
   3  -2  -2   -0.24    0.66
  -3   2   2    1.56    0.68
  -3  -2   2   -0.09    0.89
   3  -2  -2   -0.06    0.90
  -3  -2   2    1.25    1.10
   3  -2  -2   -1.15    0.84
   3   2  -2    1.46    0.71
   3  -2  -2    0.45    0.60
  -3   2   2    0.95    0.83
  -3   2   2    0.30    1.06
   3  -2  -2    0.04    0.33
  -2   2   2   76.07    5.33
  -2   2   2   73.83    3.69
   2  -2  -2   90.45    6.13
   2  -2  -2   77.24    5.71
   2  -2  -2   75.08    3.90
   2   2  -2   78.69    5.34
   2  -2  -2   74.00    5.71
   2  -2  -2   74.28    4.72
  -2   2   2   73.20    4.59
  -2  -2   2   73.98    5.52
  -2  -2   2   74.15    4.78
   2   2  -2   76.81    4.75
  -2   2   2   72.91    4.18
   2   2  -2   81.67    4.28
   2  -2  -2   69.69    3.69
  -1  -2   2    2.06    0.88
   1   2  -2    3.96    1.10
   1  -2  -2    2.17    0.83
   1  -2  -2    1.64    1.14
   1  -2  -2    1.94    0.73
  -1   2   2    3.07    0.93
   1  -2  -2    1.82    0.91
   1  -2  -2    2.21    0.68
  -1   2   2    4.52    1.10
  -1   2   2    2.37    0.79
   1  -2  -2    1.32    1.12
   1   2  -2    2.66    1.12
  -1   2   2    3.60    1.09
  -1   2   2    2.42    1.10
   1   2  -2    1.79    0.71
  -1  -2   2    2.47    1.04
  -1   2   2    2.43    0.77
   0   2   2  346.18   12.01
   0   2   2  345.60   10.27
   0  -2  -2  323.24   10.81
   0   2  -2  313.67   11.07
   0   2   2  328.20   10.76
   0   2  -2  349.71   10.92
   0  -2  -2  339.10   10.33
   0   2   2  339.10   10.91
   0   2  -2  339.99    9.72
   0  -2   2  323.92   10.00
   0  -2   2  337.56   10.34
   0  -2  -2  324.80    9.35
   0   2  -2  316.70    9.96
   0   2   2  328.27    9.36
   0  -2  -2  321.89   10.51
  -1   2  -2  297.04    9.98
   1   2   2  295.06    8.69
   1   2   2  315.62   10.78
   1  -2   2  295.80   10.11
   1   2   2  309.78   11.45
   1   2   2  290.27   10.32
  -1  -2  -2  313.91   10.63
  -1  -2  -2  297.12   10.58
   1   2   2  319.11   11.26
   1  -2   2  314.42    9.81
  -1   2  -2  318.14    9.74
  -1   2  -2  298.85    8.24
  -1  -2  -2  304.54    8.52
  -1  -2  -2  303.72   10.80
   2   2   2  657.45   18.45
  -2   2  -2  676.02   14.00
  -2  -2  -2  678.41   15.40
  -2  -2  -2  689.86   18.49
   2   2   2  682.64   18.96
  -2   2  -2  654.94   16.63
  -2  -2  -2  638.42   18.49
   2  -2   2  652.62   16.96
  -2   2  -2  657.51   16.76
  -2  -2  -2  678.80   18.66
   2   2   2  694.29   19.26
   2  -2   2  665.97   13.35
  -3  -2  -2  182.23    8.97
  -3   2  -2  185.53    7.78
  -3  -2  -2  187.35    9.72
  -3   2  -2  193.04    8.72
  -3   2  -2  182.91    6.21
  -3   2  -2  184.74    9.62
   3  -2   2  195.04    8.13
   3   2   2  189.54    9.66
   3   2   2  190.96    8.96
  -3  -2  -2  187.19    9.20
   3   2   2  191.92    9.21
   3  -2   2  191.09    5.58
  -4  -2  -2  286.20   12.31
   4  -2   2  274.57   10.56
  -4   2  -2  277.96    8.45
   4   2   2  286.84    6.60
  -4   2  -2  286.03   12.58
   4   2   2  276.41   12.48
  -4   2  -2  272.34   10.05
   4   2   2  265.05   11.09
   4   2   2  291.41   11.98
  -4  -2  -2  271.29   12.82
  -4  -2  -2  293.39   12.77
   4  -2   2  287.22    7.91
  -4  -2  -2  281.82    7.33
  -4   2  -2  264.02   11.15
  -4  -2  -2  279.12   11.62
  -4   2  -2  290.81   11.71
   4   2   2  277.10   12.54
  -4   2  -2  270.09    8.29
  -5   2  -2    4.54    1.41
  -5  -2  -2    9.50    1.29
  -5   2  -2    9.91    2.46
   5  -2   2    4.13    1.48
  -5  -2  -2    2.24    1.30
  -5   2  -2    5.84    1.35
   5   2   2    3.04    1.84
  -5   2  -2    4.10    1.31
  -5   2  -2    5.35    1.74
  -5  -2  -2    6.17    1.68
   5   2   2    7.25    1.82
  -5   2  -2    5.35    1.67
   5   2   2    7.06    1.92
  -5  -2  -2    5.88    1.83
  -5  -2  -2    6.81    1.41
  -5  -2  -2    2.70    1.65
   5  -2   2    5.58    1.09
  -5   2  -2    5.61    1.19
  -6  -2  -2   43.24    5.38
  -6  -2  -2   49.03    5.89
  -6   2  -2   44.66    4.18
  -6   2  -2   47.25    4.91
  -6   2  -2   51.79    4.18
  -6  -2  -2   50.25    5.47
  -6   2  -2   49.02    4.42
  -6  -2  -2   44.66    3.66
   6  -2   2   48.01    4.76
  -6   2  -2   48.10    5.48
  -6   2  -2   55.14    4.02
   6   2   2   52.47    4.91
  -6   2  -2   55.25    5.43
  -6  -2  -2   48.62    3.36
  -6  -2  -2   43.92    4.73
   6   2   2   47.29    5.02
   6  -2   2   46.37    3.59
   6   2   2   49.74    5.71
  -7  -2  -2  156.63   11.05
  -7  -2  -2  158.84   11.25
  -7   2  -2  166.27   10.60
   7   2   2  147.91    9.57
  -7  -2  -2  167.65    7.93
  -7   2  -2  161.66    8.35
   7   2   2  158.03   11.87
   7  -2   2  159.56    7.68
  -7  -2  -2  151.45   11.04
  -7   2  -2  155.27    8.34
  -7  -2  -2  148.18    9.23
  -7   2  -2  161.57    7.48
  -7   2  -2  153.40    8.68
   7   2   2  164.46   10.95
  -7   2  -2  161.72   10.20
  -7  -2  -2  154.10   10.25
  -7   2  -2  151.96    7.58
  -7  -2  -2  167.72    7.19
  -7   2  -2  160.89    9.68
  -8   2  -2    9.59    2.60
  -8   2  -2    7.46    2.67
  -8   2  -2    7.18    1.76
  -8  -2  -2   11.03    2.34
  -8   2  -2   10.31    2.43
   8   2   2    6.65    2.36
  -8   2  -2    8.07    2.04
   8  -2   2    8.91    2.05
  -8   2  -2    9.57    2.10
  -8  -2  -2    4.41    2.04
  -8   2  -2   10.38    2.86
  -8  -2  -2    5.04    1.98
  -8  -2  -2    9.16    1.84
  -8  -2  -2    4.72    2.11
  -8  -2  -2    9.89    2.85
  -8   2  -2   12.07    3.25
  -8  -2  -2   10.03    3.49
  -9  -2  -2  330.89   13.64
  -9   2  -2  351.87   16.01
  -9   2  -2  337.08   13.96
   9  -2   2  357.80   17.92
  -9  -2  -2  358.20   12.91
  -9  -2  -2  351.06   18.47
  -9  -2  -2  343.82   15.50
  -9  -2  -2  382.97   15.18
  -9   2  -2  369.28   17.77
  -9   2  -2  347.33   13.86
  -9   2  -2  333.87   14.41
  -9   2  -2  354.12   13.24
  -9   2  -2  350.35   16.98
  -9  -2  -2  354.20   18.85
   9   2   2  350.21   17.80
  -9   2  -2  355.30   16.68
 -10   2  -2   46.90    6.05
 -10  -2  -2   39.32    4.39
 -10  -2  -2   39.41    6.28
 -10   2  -2   42.09    5.84
 -10   2  -2   41.47    5.27
 -10   2  -2   43.27    6.05
 -10  -2  -2   39.82    4.92
  10  -2   2   40.13    6.49
 -10   2  -2   40.55    4.71
 -10  -2  -2   39.05    5.13
 -10   2  -2   36.91    4.52
 -10   2  -2   48.83    7.05
  10   2   2   44.90    6.60
 -10  -2  -2   35.24    4.47
 -10   2  -2   41.17    4.53
 -11   2  -2   59.64    7.25
  11   2   2   60.43    7.85
 -11   2  -2   63.38    7.47
 -11  -2  -2   60.32    6.63
 -11   2  -2   65.76    8.32
 -11   2  -2   54.84    6.20
 -11  -2  -2   64.49    6.78
 -11  -2  -2   55.83    5.56
 -11   2  -2   61.23    5.90
 -11  -2  -2   55.58    7.85
 -12  -2  -2  156.32   10.96
 -12  -2  -2  175.43   10.64
 -12   2  -2  157.43   12.38
 -12  -2  -2  170.65   14.77
 -12  -2  -2  158.35   11.18
 -12   2  -2  151.74   11.98
 -12   2  -2  163.48   10.42
 -12   2  -2  170.98   14.45
  12   2   2  168.21   13.29
  13   2   2   18.45    5.01
 -13   2  -2   25.21    5.11
 -13  -2  -2   26.17    6.10
 -13   2  -2   21.61    5.19
 -13   2  -2   27.80    4.55
 -14  -2  -2   28.07    6.64
 -15  -3   2    1.05    3.10
 -15   3   2    1.66    2.03
  15  -3  -2    0.98    4.94
 -14  -3   2    3.25    2.43
 -14   3   2    1.76    2.53
 -14   3   2    4.79    2.58
 -14  -3   2    5.26    3.34
  14  -3  -2    4.08    4.19
 -13  -3   2    6.05    3.23
 -13   3   2    2.85    2.38
  13  -3  -2    6.19    3.73
  13  -3  -2   -0.35    3.19
 -13   3   2    1.63    2.78
 -13  -3   2    5.42    3.88
 -12  -3   2   16.27    4.06
 -12   3   2   15.12    4.05
  12  -3  -2   20.19    5.03
  12  -3  -2   16.56    5.00
  12   3  -2   24.81    4.66
 -12  -3   2   18.83    4.90
 -12   3   2   18.69    4.38
 -11  -3   2    6.33    2.81
 -11  -3   2    3.53    2.69
  11   3  -2    3.63    2.23
  11  -3  -2    2.99    2.80
 -11   3   2    4.78    2.98
 -11   3   2    4.77    1.34
  11   3  -2   -0.19    3.31
  11  -3  -2    1.13    1.90
 -11   3   2    2.03    2.10
  10  -3  -2   70.75    7.85
 -10   3   2   65.28    3.87
  10   3  -2   69.63    7.49
 -10   3   2   76.15    8.48
 -10   3   2   65.42    3.86
 -10  -3   2   65.77    7.19
  10   3  -2   77.51   10.21
  10  -3  -2   65.92    8.72
 -10  -3   2   62.53    7.64
 -10   3   2   64.66    8.14
 -10   3   2   67.21    7.19
   9   3  -2   30.23    4.92
  -9  -3   2   30.20    4.77
  -9   3   2   30.09    4.91
  -9   3   2   25.54    5.21
   9  -3  -2   33.28    5.99
  -9   3   2   27.75    2.53
  -9  -3   2   29.76    4.61
  -9   3   2   31.43    4.98
   9   3  -2   35.64    6.40
  -9   3   2   26.85    5.38
  -9   3   2   30.25    2.39
   9  -3  -2   30.09    4.93
   9  -3  -2   26.76    4.07
   8   3  -2    3.86    2.20
  -8  -3   2    7.59    2.77
  -8   3   2    0.68    1.39
  -8   3   2    4.46    2.72
   8   3  -2    4.31    2.43
  -8   3   2    3.25    0.90
   8  -3  -2    0.53    1.87
   8  -3  -2    6.98    3.45
  -8   3   2    3.09    0.74
  -8   3   2    3.64    1.91
  -8   3   2    1.77    2.61
  -8  -3   2    0.70    1.42
   8  -3  -2    4.08    2.33
  -7   3   2   -0.78    2.64
   7   3  -2    0.25    1.02
   7   3  -2    0.41    1.88
  -7   3   2   -1.18    1.59
  -7   3   2    2.63    2.18
   7   3  -2    2.29    1.80
   7  -3  -2    0.28    1.54
  -7  -3   2    1.60    1.22
   7  -3  -2   -0.71    1.64
  -7   3   2    0.65    1.45
  -7   3   2   -0.15    1.39
  -7  -3   2    0.69    1.35
  -7  -3   2    2.02    1.73
   7  -3  -2    8.31    3.00
  -7  -3   2    0.92    1.00
  -7   3   2    2.43    0.74
   6   3  -2   56.80    7.06
  -6   3   2   59.62    5.38
  -6  -3   2   57.48    5.58
  -6  -3   2   57.65    5.62
  -6   3   2   62.74    6.25
  -6   3   2   53.73    6.96
   6   3  -2   63.94    7.03
   6  -3  -2   56.20    5.74
  -6   3   2   59.62    7.55
   6   3  -2   51.61    5.19
   6  -3  -2   43.06    6.61
   6  -3  -2   57.46    6.32
  -6   3   2   57.76    2.74
   5   3  -2   91.25    8.25
  -5  -3   2  101.33    6.94
  -5   3   2   96.27    3.61
   5  -3  -2   94.92    7.55
  -5   3   2  103.19    7.62
   5  -3  -2   96.90    7.10
  -5  -3   2  101.25    6.94
   5   3  -2  101.57    8.34
   5  -3  -2   86.82    9.01
  -5   3   2   85.71    8.44
  -5   3   2   93.66    8.57
  -5   3   2  101.27    6.65
  -4   3   2   24.96    4.47
   4   3  -2   27.03    1.98
   4   3  -2   27.21    4.16
  -4   3   2   26.72    3.05
   4   3  -2   29.36    4.09
  -4   3   2   27.49    4.57
  -4   3   2   24.77    3.50
  -4  -3   2   27.71    3.47
   4  -3  -2   20.14    3.92
   4   3  -2   28.10    1.99
   4  -3  -2   28.77    3.87
   4  -3  -2   28.03    3.58
  -4  -3   2   26.32    3.32
  -4   3   2   25.15    1.84
   3  -3  -2  138.20    5.19
   3  -3  -2  137.73    9.54
   3   3  -2  141.57    8.26
   3   3  -2  143.78    5.82
  -3  -3   2  145.55    8.81
  -3   3   2  140.12    9.57
   3  -3  -2  129.89    9.06
  -3   3   2  126.30    4.78
  -3  -3   2  136.48    6.94
   3  -3  -2  139.44    5.14
  -3   3   2  121.42    8.39
   3  -3  -2  138.09    8.32
   3  -3  -2  137.28    7.44
  -3   3   2  149.27    7.55
   3   3  -2  137.52    5.27
  -3  -3   2  138.06    7.49
  -2  -3   2    2.47    1.17
   2   3  -2    3.21    1.20
  -2   3   2    3.08    0.90
  -2  -3   2    3.60    1.21
   2  -3  -2    1.92    1.51
   2  -3  -2    2.99    0.82
   2   3  -2    3.12    1.36
  -2   3   2    2.81    0.94
   2   3  -2    1.61    0.76
  -2  -3   2    1.17    1.06
  -2   3   2    1.09    0.66
  -2   3   2    1.15    1.05
  -2   3   2    6.14    2.42
   2  -3  -2    2.87    1.22
   2  -3  -2    2.98    1.39
   2  -3  -2    1.90    0.84
   2  -3  -2    2.33    0.99
   2   3  -2    2.07    0.89
   1  -3  -2   34.40    4.13
   1  -3  -2   34.75    4.30
   1   3  -2   36.44    3.05
  -1  -3   2   32.16    2.71
  -1  -3   2   39.70    3.69
   1   3  -2   35.53    3.32
  -1  -3   2   40.17    3.62
   1   3  -2   32.51    3.30
   1  -3  -2   33.93    3.17
   1  -3  -2   38.53    3.02
  -1   3   2   30.02    3.82
  -1   3   2   35.63    2.85
  -1   3   2   41.33    3.44
  -1   3   2   37.56    3.28
   1  -3  -2   34.33    3.02
   0   3   2    5.68    1.29
   0   3  -2    3.89    1.10
   0   3   2    6.24    1.54
   0  -3  -2    4.60    1.39
   0  -3   2    5.29    0.96
   0   3   2    5.84    1.59
   0   3  -2    4.24    1.32
   0  -3  -2    3.95    1.16
   0  -3   2    4.21    1.25
   0  -3   2    4.21    1.08
   0   3   2    3.57    1.02
   0   3   2    4.74    1.51
   0  -3  -2    5.99    1.73
   0   3  -2    5.08    1.11
   0  -3   2    3.06    1.12
   0  -3  -2    2.90    1.13
   1   3   2  191.10    8.89
  -1   3  -2  185.93    7.90
  -1  -3  -2  197.02    7.79
  -1  -3  -2  184.44    9.03
   1  -3   2  190.39    8.48
  -1  -3  -2  197.62    8.72
   1  -3   2  189.60    8.19
   1  -3   2  194.91    6.31
  -1   3  -2  203.74    6.05
   1   3   2  194.27    9.52
  -1   3  -2  185.02    8.41
  -1   3  -2  183.70    8.14
   1   3   2  193.98    8.57
   1  -3   2  190.93    5.15
   1   3   2  187.74    9.13
  -1  -3  -2  197.65    8.97
   2  -3   2  104.72    5.02
   2  -3   2  104.66    5.80
  -2  -3  -2   99.76    5.74
  -2  -3  -2  108.07    6.90
   2   3   2  110.01    7.04
  -2  -3  -2   98.50    7.01
   2   3   2  110.07    7.05
  -2   3  -2  115.02    5.90
  -2   3  -2  112.79    3.40
  -2   3  -2  103.27    6.42
   2   3   2  102.84    4.33
  -2   3  -2  105.71    6.43
  -2  -3  -2  105.13    6.89
   2   3   2  106.43    7.15
   3  -3   2   15.36    2.29
  -3  -3  -2   15.13    2.73
  -3  -3  -2   15.85    2.66
   3   3   2   17.76    1.54
   3   3   2   17.74    2.94
   3   3   2   17.78    2.92
  -3   3  -2   17.86    2.27
   3  -3   2   14.03    1.68
   3   3   2   17.65    3.08
  -3  -3  -2   15.86    3.03
  -3   3  -2   18.29    2.84
   4  -3   2   70.78    4.11
  -4   3  -2   70.71    4.48
  -4   3  -2   80.95    3.22
  -4   3  -2   73.65    6.53
   4   3   2   69.54    6.04
  -4   3  -2   81.58    5.12
   4  -3   2   75.90    5.14
  -4   3  -2   74.57    3.15
  -4  -3  -2   72.83    5.93
  -4  -3  -2   74.09    6.94
   4   3   2   79.46    6.20
  -4   3  -2   77.25    6.17
   4   3   2   77.17    3.42
  -4  -3  -2   75.52    3.99
   4   3   2   71.07    6.61
  -4  -3  -2   83.26    6.86
   5   3   2   28.18    3.91
   5   3   2   30.55    4.58
   5  -3   2   28.05    3.42
   5   3   2   30.34    2.25
  -5   3  -2   27.62    3.75
  -5   3  -2   28.50    2.48
  -5   3  -2   27.89    3.04
  -5   3  -2   27.51    2.87
  -5   3  -2   26.00    4.08
  -5   3  -2   27.88    3.98
  -5   3  -2   30.45    2.38
   5  -3   2   28.07    2.75
  -5  -3  -2   30.38    3.94
   5   3   2   34.89    4.34
  -5  -3  -2   22.09    3.73
  -5  -3  -2   28.86    4.49
  -5  -3  -2   29.13    2.63
  -5  -3  -2   27.06    4.49
  -6  -3  -2   53.34    6.30
   6  -3   2   58.32    4.29
  -6   3  -2   64.16    4.72
   6   3   2   53.81    6.63
  -6  -3  -2   57.26    4.48
  -6   3  -2   63.12    6.71
  -6   3  -2   52.47    3.73
  -6   3  -2   57.31    4.22
   6  -3   2   60.06    5.21
   6   3   2   56.99    5.68
  -6   3  -2   61.70    4.80
  -6  -3  -2   63.47    7.08
  -6   3  -2   60.03    5.97
  -6  -3  -2   63.44    4.13
  -6  -3  -2   55.04    5.38
  -6  -3  -2   51.72    6.07
  -6   3  -2   60.55    5.64
   6   3   2   59.78    3.70
   6   3   2   54.32    6.37
   7   3   2    3.01    1.62
  -7  -3  -2    4.61    1.29
  -7   3  -2    3.47    1.24
  -7   3  -2    3.22    1.58
   7   3   2    4.15    2.49
  -7  -3  -2    1.39    1.57
   7   3   2    1.87    1.71
   7   3   2    3.77    1.16
  -7  -3  -2    0.88    1.97
  -7  -3  -2    3.98    1.50
  -7   3  -2    1.75    1.27
  -7   3  -2    5.74    2.28
  -7  -3  -2    2.62    1.35
  -7  -3  -2    2.18    1.39
  -7   3  -2    2.29    1.14
  -7   3  -2    4.62    1.46
   7  -3   2    4.16    2.13
   7   3   2    2.38    2.85
   7  -3   2    2.38    1.09
  -7   3  -2    2.17    1.84
  -8  -3  -2   93.21    8.65
  -8   3  -2   86.78    7.31
  -8  -3  -2   79.63    8.81
   8   3   2   82.68    7.36
  -8   3  -2   97.07    8.85
  -8  -3  -2   79.70    7.05
   8  -3   2   79.98    6.06
  -8   3  -2   84.69    6.77
  -8   3  -2   89.59    6.06
  -8  -3  -2   86.28    8.96
  -8   3  -2   83.16    5.86
  -8   3  -2   75.65    5.83
  -8  -3  -2   88.61    9.03
   8   3   2   91.50    7.63
  -8   3  -2   87.93    8.35
  -8  -3  -2   87.51    5.91
  -8   3  -2   85.71    6.26
  -8  -3  -2   93.01    6.57
   8   3   2   92.51    9.02
  -9  -3  -2   26.29    3.45
  -9   3  -2   27.20    4.14
   9   3   2   22.82    4.74
  -9   3  -2   19.68    3.62
  -9   3  -2   24.12    3.31
  -9   3  -2   20.35    3.19
  -9   3  -2   26.77    4.89
  -9  -3  -2   26.39    4.15
  -9   3  -2   23.13    3.44
  -9  -3  -2   23.51    3.60
  -9   3  -2   23.41    3.54
   9  -3   2   25.18    3.66
  -9   3  -2   36.40    6.44
  -9  -3  -2   30.04    5.75
 -10  -3  -2    1.38    1.04
 -10   3  -2    4.35    2.15
  10   3   2    2.94    2.44
 -10   3  -2    1.47    0.95
 -10   3  -2    0.70    1.49
 -10   3  -2    0.24    1.20
 -10  -3  -2    2.12    2.13
  10  -3   2    1.11    1.60
  10  -3   2    1.51    2.91
 -10   3  -2    1.12    1.44
 -10  -3  -2    0.71    1.30
 -10  -3  -2    1.55    1.27
 -10   3  -2    0.31    0.96
 -10   3  -2    4.22    3.38
 -10  -3  -2    1.77    1.99
 -10   3  -2    0.11    1.54
 -11  -3  -2    3.97    1.75
 -11   3  -2    4.83    2.82
  11   3   2    7.04    3.66
 -11  -3  -2    0.95    1.40
 -11   3  -2    3.83    1.59
 -11   3  -2   -1.82    2.19
 -11   3  -2    5.10    3.42
 -11  -3  -2    4.34    2.14
 -11  -3  -2    5.11    3.02
 -12   3  -2   25.69    4.87
 -12  -3  -2   27.68    4.28
  12   3   2   26.20    5.73
 -12   3  -2   27.74    5.62
 -12   3  -2   28.37    4.28
 -12  -3  -2   25.88    4.26
 -12  -3  -2   30.80    4.97
 -12   3  -2   22.44    5.09
 -12  -3  -2   34.61    7.26
  13   3   2   14.43    4.51
 -13   3  -2   16.49    3.53
 -13   3  -2   21.31    5.00
 -13   3  -2   13.90    4.92
 -13  -3  -2   12.74    4.68
  14   3   2    1.27    2.91
 -14  -3  -2   -2.77    3.79
 -15  -4   2   30.94    6.69
  15  -4  -2   49.11   11.07
 -15   4   2   39.98    7.34
  14  -4  -2    3.52    2.84
 -14  -4   2   14.35    4.79
 -14   4   2    4.62    3.66
 -14   4   2    5.26    3.62
 -14  -4   2   -2.24    4.64
  14  -4  -2    5.54    3.60
 -13   4   2   94.42   10.20
 -13  -4   2   94.17   11.47
 -13  -4   2   93.69   10.28
  13  -4  -2   86.61   10.46
  13  -4  -2   94.89   12.26
  13   4  -2   91.92    9.39
  12   4  -2   15.07    3.76
 -12   4   2   16.64    4.51
 -12  -4   2    9.82    4.13
 -12  -4   2    7.86    2.99
  12  -4  -2   16.13    4.48
  12  -4  -2   17.32    4.93
 -12   4   2   18.14    4.76
  11  -4  -2   20.25    4.88
 -11  -4   2   28.99    5.98
  11   4  -2   30.11    5.44
 -11   4   2   25.64    5.01
 -11  -4   2   25.20    4.72
 -11   4   2   28.63    6.78
  11  -4  -2   25.54    4.13
  11  -4  -2   30.71    5.54
  10   4  -2  150.44   12.02
 -10   4   2  139.90   13.89
 -10  -4   2  135.50   10.70
 -10  -4   2  149.99   12.09
  10  -4  -2  147.13   11.73
 -10   4   2  137.17   14.05
  10  -4  -2  140.03   12.61
  10  -4  -2  131.43   10.10
 -10   4   2  147.41   10.82
  -9  -4   2    7.62    3.02
  -9  -4   2    3.24    2.01
   9   4  -2    5.09    3.26
  -9   4   2    0.37    1.42
   9  -4  -2    0.10    1.91
   9  -4  -2    5.45    2.24
   9   4  -2    2.31    1.87
  -9   4   2    3.27    2.08
  -9   4   2    2.47    1.91
  -9   4   2    1.77    2.55
   8   4  -2  146.21   12.13
  -8   4   2  132.06   13.75
  -8  -4   2  152.64   10.31
   8   4  -2  158.77   13.30
   8  -4  -2  122.29    9.74
  -8   4   2  144.37   14.23
  -8   4   2  137.08   10.18
  -8  -4   2  157.71   11.07
   8  -4  -2  133.43   10.90
  -8   4   2  139.17    9.61
   7   4  -2   30.89    4.31
   7   4  -2   30.64    5.69
  -7  -4   2   27.10    4.18
  -7   4   2   33.36    4.50
   7   4  -2   26.47    5.20
  -7  -4   2   29.23    4.56
  -7   4   2   27.88    4.23
  -7   4   2   25.96    5.41
   7  -4  -2   32.74    5.19
  -7   4   2   35.58    6.94
  -7  -4   2   24.94    5.27
   7  -4  -2   25.29    4.18
  -7  -4   2   28.51    4.53
  -7   4   2   28.59    4.48
   6   4  -2  244.69   15.87
   6  -4  -2  232.64   12.84
   6  -4  -2  236.58   12.31
   6   4  -2  240.55   14.32
  -6  -4   2  248.32   12.26
  -6   4   2  232.47   12.23
   6  -4  -2  236.90   16.52
  -6   4   2  218.01   16.97
  -6  -4   2  250.01   12.40
  -6   4   2  202.77   16.14
   6   4  -2  242.41   11.91
  -6   4   2  229.16   11.37
   5   4  -2  100.71    9.37
  -5   4   2   88.28   10.11
  -5   4   2  100.09    7.55
   5   4  -2   98.24    3.89
  -5  -4   2   97.11    7.18
  -5   4   2   86.58    9.74
   5  -4  -2   93.88   10.11
   5  -4  -2   92.03    7.56
   5  -4  -2   94.72    7.32
  -5   4   2  103.47    3.13
   5   4  -2   94.69    4.95
   5   4  -2  100.72    8.56
  -5  -4   2  101.87    7.26
   5   4  -2   89.44    4.16
  -4   4   2  347.41    8.02
   4   4  -2  364.88   15.67
   4   4  -2  337.71   16.18
  -4   4   2  355.95    8.31
  -4   4   2  334.77   18.01
   4  -4  -2  337.67   14.48
  -4   4   2  335.49   18.61
   4  -4  -2  313.45   17.90
   4  -4  -2  339.06    9.44
  -4  -4   2  358.41   13.96
  -4  -4   2  356.98   13.46
   4   4  -2  322.98   10.67
   4  -4  -2  344.68   13.84
   4  -4  -2  361.12    8.59
  -3  -4   2    2.12    1.04
  -3   4   2    1.76    1.71
  -3   4   2    3.25    0.97
  -3  -4   2    4.83    1.88
  -3  -4   2    3.42    1.12
  -3   4   2    2.78    2.04
   3  -4  -2    2.50    0.86
   3  -4  -2    5.08    1.74
   3   4  -2    4.59    2.18
   3  -4  -2    4.76    0.89
  -3   4   2    4.97    0.91
   3   4  -2    4.37    1.70
   3  -4  -2    5.78    2.16
   3  -4  -2    7.67    2.77
   3   4  -2    5.78    1.48
   2  -4  -2  185.89   11.40
   2  -4  -2  174.09    7.66
  -2   4   2  172.03    6.56
  -2   4   2  166.12   10.91
   2  -4  -2  162.35   10.62
   2  -4  -2  177.07    8.71
   2   4  -2  160.54    7.33
   2   4  -2  180.24    9.03
   2  -4  -2  170.94    6.45
   2  -4  -2  179.06    9.70
  -2   4   2  181.82    8.47
  -2  -4   2  159.17    9.11
  -2  -4   2  181.41    8.04
  -2   4   2  166.95   11.17
  -2  -4   2  162.67    8.60
  -2   4   2  169.06    7.34
   1  -4  -2   59.93    4.68
  -1   4   2   65.58    4.91
   1  -4  -2   61.16    6.21
  -1  -4   2   62.35    5.07
   1   4  -2   59.69    4.52
  -1   4   2   58.70    4.13
   1  -4  -2   59.50    4.10
  -1   4   2   60.82    4.59
   1  -4  -2   57.92    4.62
  -1  -4   2   65.16    5.16
  -1  -4   2   58.55    4.06
  -1   4   2   55.49    5.67
  -1   4   2   57.21    6.13
   1   4  -2   59.29    4.44
   1   4  -2   58.80    5.02
   0  -4  -2  186.21    8.99
   0   4   2  199.79    8.58
   0   4   2  190.05    8.47
   0  -4  -2  191.77    8.61
   0   4   2  189.09   10.67
   0   4  -2  205.16    9.57
   0   4  -2  188.67    7.39
   0  -4   2  183.44    6.90
   0   4  -2  193.12    8.70
   0  -4   2  196.98    9.36
   0  -4   2  195.37    9.16
   0  -4   2  195.30    8.00
   0  -4  -2  184.52    9.55
   0  -4  -2  201.32    8.89
   0   4   2  197.30    9.51
  -1  -4  -2  285.73   11.98
   1   4   2  283.54   12.06
  -1  -4  -2  278.86   11.04
   1   4   2  287.76   11.59
  -1  -4  -2  282.55   12.52
   1   4   2  293.17   13.14
  -1   4  -2  286.32   11.46
   1  -4   2  287.32    8.25
  -1  -4  -2  292.02   11.82
   1  -4   2  263.75    7.74
  -1   4  -2  276.52   11.86
  -1   4  -2  296.13    8.05
  -1  -4  -2  288.66   12.73
   1  -4   2  296.80   11.07
   1   4   2  273.66   12.36
  -2  -4  -2  494.01   17.44
  -2  -4  -2  505.61   18.59
   2   4   2  511.48   13.59
  -2  -4  -2  493.05   16.05
  -2  -4  -2  484.31   17.29
   2  -4   2  518.23   15.20
   2   4   2  496.95   17.65
  -2  -4  -2  481.14   16.92
  -2   4  -2  472.74   16.68
   2   4   2  527.84   17.99
  -2   4  -2  510.14   16.87
   2  -4   2  527.40   14.68
  -2   4  -2  508.23   14.59
   2   4   2  515.02   18.51
   3  -4   2  111.50    6.34
  -3  -4  -2  118.35    7.90
  -3  -4  -2  119.49    8.51
  -3  -4  -2  121.26    8.94
   3   4   2  114.68    8.28
   3   4   2  134.46    8.43
   3   4   2  129.20    5.58
  -3   4  -2  121.66    7.99
   3  -4   2  119.55    5.95
  -3   4  -2  119.18    6.31
   3   4   2  124.43    8.98
  -4   4  -2  362.11   12.70
  -4  -4  -2  381.71   15.05
   4   4   2  387.96   15.40
  -4  -4  -2  375.73   16.64
   4  -4   2  393.29   12.87
  -4  -4  -2  371.39   17.32
  -4  -4  -2  389.14   12.09
   4  -4   2  381.42   11.87
  -4   4  -2  379.45   15.55
   4   4   2  386.41   16.19
   4   4   2  388.72   10.66
  -4   4  -2  383.94   12.31
   4   4   2  387.27   17.28
  -5  -4  -2    6.07    2.34
   5   4   2    7.09    2.54
  -5   4  -2    4.74    1.58
   5   4   2    7.18    1.35
  -5   4  -2    5.59    0.99
  -5  -4  -2    6.43    2.63
  -5  -4  -2   12.04    3.40
   5  -4   2    7.22    1.79
   5   4   2    5.91    1.97
  -5  -4  -2    4.03    1.41
   5  -4   2    5.73    1.50
  -5   4  -2    5.94    1.43
  -5   4  -2    3.96    1.91
  -5  -4  -2    6.28    1.59
  -6  -4  -2   24.66    2.91
  -6   4  -2   22.51    3.42
  -6  -4  -2   19.08    3.96
   6   4   2   14.40    2.86
   6   4   2   16.73    3.67
  -6  -4  -2   28.12    5.00
  -6   4  -2   19.37    2.70
   6   4   2   17.98    3.40
   6  -4   2   21.10    3.01
   6  -4   2   19.31    2.62
  -6  -4  -2   19.94    3.42
  -6   4  -2   18.85    1.78
  -6   4  -2   21.65    2.38
  -6   4  -2   18.95    3.93
  -6   4  -2   18.35    2.81
   6   4   2   20.50    2.33
  -6   4  -2   15.22    3.27
  -6  -4  -2   19.47    4.27
  -7  -4  -2   93.40    9.22
  -7  -4  -2  111.66   10.44
  -7  -4  -2   90.75    6.36
  -7   4  -2   89.48    8.57
   7  -4   2   96.94    6.89
   7  -4   2   94.41    6.27
  -7  -4  -2   99.99    9.22
  -7   4  -2   91.59    6.00
   7   4   2   84.68    7.33
  -7   4  -2   99.80    9.01
  -7   4  -2   86.41    4.88
  -7   4  -2   87.34    5.57
   7   4   2   99.33    8.21
  -7  -4  -2   88.31    5.86
   7   4   2   78.51    8.50
   7   4   2   93.61    5.34
  -7   4  -2   79.85    6.87
  -7   4  -2   99.83    6.76
  -7  -4  -2   88.11    7.24
  -8   4  -2   17.43    3.29
   8   4   2   16.08    3.63
  -8   4  -2    7.61    2.02
   8   4   2   10.57    2.74
  -8   4  -2   14.55    2.58
   8   4   2   16.09    3.56
  -8   4  -2   11.99    2.36
   8   4   2   14.15    2.37
  -8  -4  -2   13.02    2.48
  -8  -4  -2   10.61    2.36
  -8   4  -2    9.41    2.08
  -8   4  -2   19.95    4.40
  -8  -4  -2   14.69    3.31
   8  -4   2   11.10    2.47
  -8   4  -2   16.76    4.44
  -8  -4  -2   14.73    3.40
  -9   4  -2  245.24   11.56
   9  -4   2  254.15   12.12
   9   4   2  233.65   13.34
  -9   4  -2  279.80   16.37
  -9   4  -2  249.89   11.04
  -9   4  -2  242.00   10.36
  -9  -4  -2  249.02   16.70
  -9   4  -2  239.03   11.68
  -9  -4  -2  243.03   13.11
  -9  -4  -2  242.07   12.06
  -9   4  -2  242.35   13.10
   9   4   2  251.85   16.29
  -9   4  -2  241.43   16.26
  -9  -4  -2  250.62   11.50
  -9   4  -2  248.42   12.20
 -10  -4  -2   39.92    4.65
 -10   4  -2   39.77    5.06
 -10   4  -2   35.80    4.77
  10  -4   2   42.56    5.19
 -10   4  -2   42.31    4.88
 -10   4  -2   40.04    4.38
 -10  -4  -2   46.17    5.67
 -10  -4  -2   44.02    5.45
 -10   4  -2   44.94    4.61
  10   4   2   34.88    6.27
 -10   4  -2   46.75    6.05
 -10   4  -2   45.11    7.49
 -10   4  -2   37.86    6.18
 -10  -4  -2   53.04    7.85
  11  -4   2  117.22    9.17
 -11   4  -2  114.12   11.05
  11   4   2  121.11   11.97
 -11   4  -2  107.79    9.17
 -11  -4  -2  110.68   12.18
 -11  -4  -2  111.77    9.24
 -11  -4  -2  110.00    8.28
 -11  -4  -2  122.16    8.54
 -11   4  -2  112.75   12.39
 -11   4  -2  116.07    8.75
  12   4   2   92.76   10.65
 -12  -4  -2   83.76    8.09
 -12   4  -2   91.02   10.03
 -12  -4  -2  100.19    8.31
 -12   4  -2   93.03    8.23
 -12   4  -2   94.08   11.84
 -12  -4  -2   85.97   11.08
  13   4   2   24.54    5.88
 -13   4  -2   25.86    4.75
 -13   4  -2   23.81    5.59
 -13   4  -2   18.75    5.30
 -13  -4  -2   24.47    6.06
  14   4   2    0.78    2.89
 -14  -4  -2    1.24    3.44
 -15  -5   2   12.65    4.88
 -15   5   2    7.67    3.76
  14  -5  -2  114.15   14.47
  14  -5  -2  104.57   12.27
 -14  -5   2  114.34   13.14
 -14  -5   2  109.34   11.85
 -14   5   2  109.63   11.53
 -13  -5   2    6.78    3.34
 -13   5   2    2.05    2.17
  13  -5  -2   -2.00    3.10
  13   5  -2    3.52    2.51
  13  -5  -2    2.29    2.39
 -13  -5   2    3.24    3.34
  12  -5  -2  339.12   22.19
 -12  -5   2  339.22   21.10
 -12   5   2  360.14   24.33
 -12  -5   2  354.25   19.70
 -12   5   2  324.75   18.44
  12  -5  -2  305.93   19.26
  12   5  -2  330.98   19.59
  11   5  -2  425.34   22.60
 -11  -5   2  439.20   22.98
  11  -5  -2  453.48   22.56
  11  -5  -2  406.21   23.23
 -11   5   2  442.26   28.03
 -11  -5   2  477.65   22.29
 -11   5   2  456.12   21.15
 -10  -5   2   62.12    7.37
  10   5  -2   73.02    9.25
 -10   5   2   69.67   11.12
  10  -5  -2   65.57    8.04
 -10  -5   2   70.21    8.81
  10  -5  -2   72.13    8.94
 -10   5   2   62.47   10.30
  10  -5  -2   65.96    8.10
 -10   5   2   57.90    6.98
   9   5  -2  390.36   21.49
   9  -5  -2  357.02   19.16
   9  -5  -2  351.04   17.90
  -9  -5   2  360.66   17.63
  -9   5   2  341.24   17.21
  -9  -5   2  356.32   18.52
   9  -5  -2  353.76   19.60
  -9   5   2  308.01   23.73
  -9   5   2  336.61   25.11
  -9   5   2  368.27   17.26
   8   5  -2   88.47   10.14
   8  -5  -2   76.15    9.62
   8   5  -2   84.97    9.91
   8  -5  -2   71.71    7.85
   8  -5  -2   74.69    7.67
  -8   5   2   65.52    7.06
  -8  -5   2   66.34    7.41
  -8  -5   2   78.28    7.62
  -8   5   2   47.36    9.20
  -8   5   2   63.68    6.69
  -8   5   2   75.94   11.40
   7   5  -2  199.26   15.46
  -7   5   2  192.08   11.24
  -7  -5   2  195.66   11.78
   7  -5  -2  201.99   16.09
  -7   5   2  185.72   11.41
  -7   5   2  160.09   16.53
   7  -5  -2  197.81   12.06
   7  -5  -2  181.16   12.07
  -7  -5   2  186.00   11.72
   7   5  -2  200.03   14.33
  -7   5   2  181.55   17.78
   7   5  -2  194.06   11.49
   6   5  -2  147.65   12.96
   6   5  -2  146.95   11.55
   6  -5  -2  135.87    9.71
   6   5  -2  134.19    5.05
  -6  -5   2  148.76    9.77
  -6   5   2  110.82   13.32
  -6   5   2  131.92    9.21
  -6  -5   2  137.30   11.91
   6  -5  -2  142.61    9.77
  -6  -5   2  150.81    9.86
  -6   5   2  137.39    9.27
  -6   5   2  122.86   14.13
   6   5  -2  134.72    9.27
   5   5  -2 1348.95   41.33
   5   5  -2 1378.89   37.91
  -5  -5   2 1253.14   38.58
   5   5  -2 1289.05   28.04
   5  -5  -2 1374.99   35.27
  -5   5   2 1209.34   45.58
  -5  -5   2 1356.23   33.70
   5   5  -2 1338.10   30.33
   5  -5  -2 1307.16   34.11
  -5   5   2 1269.14   46.96
  -5  -5   2 1337.23   33.73
  -4  -5   2   31.66    4.18
   4  -5  -2   31.17    2.93
  -4  -5   2   26.64    3.77
   4  -5  -2   33.61    4.44
   4   5  -2   31.62    5.20
  -4   5   2   31.10    6.36
   4   5  -2   29.31    4.61
   4  -5  -2   29.21    4.23
  -4   5   2   26.43    2.17
  -4   5   2   32.48    6.20
   4   5  -2   22.55    3.18
   4  -5  -2   34.55    2.11
  -4   5   2   30.15    2.43
  -3   5   2 1209.77   39.59
   3   5  -2 1151.14   33.72
  -3  -5   2 1196.02   33.73
  -3   5   2 1245.95   24.89
   3  -5  -2 1160.61   37.83
  -3  -5   2 1222.08   29.55
   3   5  -2 1358.17   33.00
   3  -5  -2 1269.56   23.77
   3  -5  -2 1147.07   27.81
   3  -5  -2 1257.33   31.16
  -3  -5   2 1254.38   31.15
  -3   5   2 1187.59   40.22
   3   5  -2 1173.27   29.02
   3  -5  -2 1271.74   32.35
  -3   5   2 1264.85   26.42
  -2  -5   2    5.68    1.59
  -2   5   2    4.95    1.30
  -2  -5   2    5.53    1.74
  -2   5   2    7.05    1.85
   2  -5  -2    7.67    1.77
   2  -5  -2   10.28    2.43
   2   5  -2    8.58    2.15
  -2   5   2    7.72    3.28
  -2   5   2    7.50    1.90
   2  -5  -2    6.89    1.32
   2   5  -2    6.07    1.78
  -2  -5   2    8.87    2.50
   2  -5  -2    7.33    1.99
  -2   5   2   10.60    3.81
   2   5  -2    9.06    2.23
  -2  -5   2   11.62    2.24
   1  -5  -2  531.05   17.22
  -1   5   2  548.34   16.87
  -1  -5   2  525.05   16.39
   1  -5  -2  525.78   18.01
  -1  -5   2  493.78   16.87
   1  -5  -2  542.30   15.61
  -1  -5   2  521.07   17.42
   1   5  -2  501.01   16.64
   1   5  -2  526.90   16.18
  -1  -5   2  514.29   15.13
  -1   5   2  536.75   21.69
  -1   5   2  530.22   15.59
  -1   5   2  514.30   21.86
   1   5  -2  500.28   15.34
   1  -5  -2  503.24   16.91
  -1   5   2  529.63   17.49
   0   5  -2    3.01    1.70
   0   5   2    1.88    0.94
   0   5   2    1.97    1.01
   0   5   2    3.55    1.97
   0  -5  -2    5.19    2.18
   0   5  -2    1.47    0.94
   0  -5  -2    0.25    1.26
   0  -5  -2    2.84    0.87
   0  -5   2    2.58    1.01
   0   5   2    0.52    1.92
   0   5   2    1.78    1.11
   0  -5  -2    0.55    0.89
   0  -5   2    3.43    1.56
   0   5  -2    5.58    1.95
   0  -5   2    2.61    1.64
   0  -5   2    4.02    1.70
   1  -5   2  793.29   18.05
  -1  -5  -2  811.51   25.24
  -1  -5  -2  819.21   25.17
   1   5   2  832.62   25.94
   1   5   2  820.28   23.17
  -1  -5  -2  833.06   24.14
   1  -5   2  798.43   17.96
  -1   5  -2  732.22   17.95
  -1  -5  -2  821.74   23.09
   1  -5   2  829.58   22.12
  -1   5  -2  764.18   23.55
  -1  -5  -2  765.46   23.30
  -1   5  -2  774.47   22.88
   1  -5   2  763.25   22.83
   1   5   2  816.70   25.43
   2  -5   2  368.30   12.88
  -2   5  -2  334.24    9.55
   2  -5   2  368.03   13.15
  -2  -5  -2  354.61   15.67
  -2   5  -2  340.13   14.91
  -2  -5  -2  344.86   14.30
   2  -5   2  365.79    9.08
   2   5   2  356.07   15.67
   2   5   2  378.72   15.64
  -2  -5  -2  367.86   16.35
  -2  -5  -2  359.45   15.61
  -2  -5  -2  355.04   15.34
   2   5   2  358.03   12.16
   2   5   2  350.88   15.30
  -2   5  -2  362.42   14.88
   2   5   2  352.72   16.48
  -3  -5  -2  816.00   26.78
   3   5   2  777.24   26.97
  -3  -5  -2  806.80   27.10
  -3   5  -2  791.64   16.28
   3  -5   2  814.37   20.88
   3   5   2  816.72   19.71
  -3  -5  -2  752.99   23.90
  -3   5  -2  803.77   24.77
  -3  -5  -2  750.99   24.21
   3   5   2  820.46   24.88
   3  -5   2  776.73   20.59
  -4  -5  -2  160.88   11.80
   4  -5   2  173.45    8.26
  -4   5  -2  176.23    5.62
   4   5   2  161.45   10.17
  -4  -5  -2  169.67   10.37
  -4   5  -2  174.81    9.10
  -4  -5  -2  165.88   11.76
   4  -5   2  176.49    8.38
  -4  -5  -2  163.79    9.83
  -4   5  -2  161.71   10.71
   4   5   2  173.33    7.51
  -4   5  -2  174.81    8.03
   4   5   2  177.17   12.25
  -5  -5  -2  700.33   25.93
  -5  -5  -2  701.17   22.44
  -5  -5  -2  673.65   22.61
  -5   5  -2  678.01   20.35
  -5  -5  -2  687.87   26.65
  -5   5  -2  714.08   14.87
   5  -5   2  726.77   19.49
  -5   5  -2  709.12   18.84
   5   5   2  742.24   25.29
  -5   5  -2  719.20   25.31
  -5  -5  -2  746.85   27.43
   5   5   2  739.66   23.64
   5   5   2  712.91   17.83
  -5  -5  -2  715.20   19.61
   5  -5   2  689.80   19.44
   5   5   2  692.11   26.85
  -6  -5  -2  166.47   12.29
  -6   5  -2  157.31    8.88
  -6   5  -2  166.10    8.03
  -6   5  -2  168.66    6.21
   6   5   2  165.10   10.50
   6  -5   2  160.70    8.37
  -6  -5  -2  169.30   12.66
  -6   5  -2  158.51   11.80
   6   5   2  170.29   11.55
  -6  -5  -2  163.25   12.66
   6  -5   2  162.38    8.54
  -6   5  -2  153.10    6.06
  -6  -5  -2  162.11    8.42
  -6  -5  -2  153.52   10.02
   6   5   2  179.05    7.72
  -6   5  -2  171.07   10.31
   6   5   2  155.01   12.34
  -7  -5  -2  109.63   10.86
  -7   5  -2  135.88    8.50
   7  -5   2  133.82    7.92
   7   5   2  125.25   10.08
  -7  -5  -2  124.81    9.15
   7   5   2  124.90    9.22
   7  -5   2  127.28    7.82
  -7   5  -2  128.10    7.09
  -7   5  -2  127.91    4.74
  -7   5  -2  114.89    5.96
  -7  -5  -2  133.21    7.78
  -7   5  -2  124.29   11.05
   7   5   2  114.35    6.48
  -7   5  -2  130.39    8.98
   7   5   2  124.12   11.43
  -8   5  -2  660.64   21.55
  -8   5  -2  646.54   18.30
   8   5   2  680.21   23.98
  -8  -5  -2  638.33   20.65
  -8   5  -2  661.22   26.73
  -8  -5  -2  721.99   20.95
  -8  -5  -2  647.21   23.05
  -8  -5  -2  697.93   28.99
   8  -5   2  662.44   20.77
  -8   5  -2  658.67   15.88
  -8   5  -2  675.37   19.05
  -8   5  -2  655.02   27.92
   8   5   2  678.47   18.78
  -8   5  -2  678.13   22.69
   8   5   2  665.33   28.23
  -9  -5  -2    1.66    1.38
   9   5   2    2.04    2.04
  -9   5  -2    1.34    1.64
   9   5   2    2.40    2.44
  -9   5  -2    0.61    1.03
  -9   5  -2    4.56    1.82
  -9  -5  -2    2.93    1.41
  -9   5  -2   -0.08    2.71
  -9   5  -2    1.66    1.02
  -9  -5  -2   -0.56    1.77
   9  -5   2   -0.54    1.39
  -9   5  -2    1.67    1.21
  -9   5  -2    2.16    3.29
  -9  -5  -2   -1.81    2.11
 -10  -5  -2  433.98   24.12
 -10   5  -2  431.38   15.00
 -10  -5  -2  395.42   18.18
  10   5   2  377.91   18.22
 -10   5  -2  431.59   22.24
 -10   5  -2  454.53   25.31
  10  -5   2  407.44   17.18
  10   5   2  424.36   15.46
 -10  -5  -2  438.68   17.03
 -10   5  -2  387.69   16.01
 -10   5  -2  431.57   17.22
  10   5   2  421.55   23.21
 -10   5  -2  416.03   17.81
 -10   5  -2  398.52   17.86
 -11   5  -2  161.77   13.69
 -11  -5  -2  151.55    9.38
 -11   5  -2  173.97   16.21
 -11  -5  -2  168.22   15.19
 -11  -5  -2  159.29   11.36
 -11   5  -2  142.95    9.95
  11   5   2  148.24   13.94
  11  -5   2  158.69   10.81
 -11  -5  -2  159.47   10.29
 -11   5  -2  151.05   10.24
  12  -5   2  195.74   12.85
 -12   5  -2  196.72   15.52
 -12  -5  -2  214.80   17.98
 -12   5  -2  202.52   18.33
 -12   5  -2  202.86   12.85
  12   5   2  208.35   17.10
  13   5   2   41.13    8.23
 -13   5  -2   34.81    5.61
  13  -5   2   35.53    5.83
 -13   5  -2   35.40    6.63
 -13   5  -2   35.49    7.52
 -13  -5  -2   45.87    9.06
  14   5   2  121.28   13.56
 -14  -5  -2  122.11   14.59
 -15   6   2   93.81   10.87
 -14  -6   2    7.63    3.31
 -14   6   2    4.86    3.28
  14  -6  -2    3.42    2.88
  14  -6  -2    4.87    3.44
 -13  -6   2    6.36    3.59
 -13  -6   2   15.63    5.27
  13  -6  -2    8.83    3.77
 -13   6   2   13.57    4.39
  13  -6  -2   15.58    5.35
  13   6  -2   16.11    5.04
  12  -6  -2  184.38   16.15
  12  -6  -2  172.84   14.47
 -12  -6   2  181.62   15.46
 -12  -6   2  181.21   14.06
 -12   6   2  207.86   19.85
 -12   6   2  195.25   14.28
  12   6  -2  170.58   15.15
  11  -6  -2  127.76   12.02
 -11  -6   2  147.05   13.38
 -11   6   2  155.79   18.09
  11  -6  -2  150.40   13.70
 -11   6   2  136.86   11.52
 -11  -6   2  127.58   11.54
  11   6  -2  121.54   12.66
  10   6  -2 1333.19   45.64
  10  -6  -2 1273.52   40.31
 -10   6   2 1212.70   52.70
 -10  -6   2 1282.85   41.19
 -10   6   2 1323.87   55.87
 -10  -6   2 1305.63   39.49
  10  -6  -2 1304.33   42.04
 -10   6   2 1242.81   37.72
   9   6  -2  280.76   19.48
  -9   6   2  249.81   14.51
  -9   6   2  248.41   23.09
   9  -6  -2  256.17   15.67
   9  -6  -2  297.73   19.32
   9  -6  -2  267.17   16.43
  -9  -6   2  246.67   14.85
  -9  -6   2  249.18   15.80
  -9   6   2  221.66   21.36
   8   6  -2  214.52   16.96
   8  -6  -2  195.51   13.06
  -8   6   2  164.06   18.63
  -8  -6   2  207.01   12.84
  -8   6   2  162.13   18.41
   8  -6  -2  196.05   16.42
  -8  -6   2  199.46   13.30
  -8   6   2  178.82   11.75
  -8   6   2  186.04   11.86
   8  -6  -2  212.31   13.86
   7   6  -2  107.55   11.89
  -7  -6   2   90.91    8.48
   7  -6  -2  103.15    9.13
   7  -6  -2  102.21    9.06
  -7   6   2   72.27   12.02
   7  -6  -2   93.95   11.64
  -7  -6   2   95.65    8.39
  -7   6   2   85.70   12.86
   7   6  -2  101.19    3.98
  -6  -6   2    7.08    2.47
   6  -6  -2    4.74    2.05
  -6  -6   2    3.58    2.42
  -6   6   2   -2.97    5.72
   6   6  -2    4.30    1.92
   6   6  -2    1.36    2.28
  -6   6   2    4.99    2.45
  -6  -6   2    1.33    1.67
   6   6  -2   13.93    2.23
   6  -6  -2    5.55    2.27
   6   6  -2    6.78    1.28
   6  -6  -2    3.50    1.95
  -6   6   2    6.44    2.15
  -5  -6   2    3.60    1.72
  -5  -6   2    3.14    1.89
   5   6  -2    4.25    1.43
  -5   6   2    3.71    0.91
   5  -6  -2    2.57    1.89
  -5   6   2    2.88    1.71
   5   6  -2    2.66    2.02
  -5   6   2   -0.31    4.16
  -5   6   2    0.02    2.76
  -5  -6   2    4.05    1.49
   5  -6  -2    4.43    2.23
   5   6  -2    2.38    0.90
   5   6  -2    5.02    1.79
   5  -6  -2    4.22    3.01
   4   6  -2 1590.33   45.46
   4  -6  -2 1667.90   33.49
  -4   6   2 1651.78   38.32
  -4   6   2 1498.69   52.63
   4  -6  -2 1613.03   39.17
   4  -6  -2 1549.52   39.21
  -4  -6   2 1532.97   37.60
  -4   6   2 1563.20   54.18
  -4  -6   2 1653.00   39.08
  -4  -6   2 1534.06   31.95
   4  -6  -2 1630.07   27.96
  -4   6   2 1528.96   32.04
   3  -6  -2   41.91    4.46
   3  -6  -2   41.60    5.20
   3   6  -2   39.41    4.74
  -3   6   2   45.68    7.91
   3  -6  -2   50.12    3.48
  -3   6   2   46.19    5.07
   3   6  -2   57.75    6.98
  -3  -6   2   52.14    5.18
  -3  -6   2   50.30    5.48
   3  -6  -2   48.12    5.32
   3   6  -2   42.78    5.05
  -3  -6   2   54.54    4.62
  -3   6   2   47.36    8.21
  -3   6   2   48.70    4.55
   2   6  -2 2843.37   61.22
   2   6  -2 2826.83   56.53
  -2  -6   2 2824.59   54.86
  -2   6   2 2801.77   69.86
  -2   6   2 2836.06   70.46
  -2  -6   2 2839.44   57.83
   2  -6  -2 2754.73   56.57
   2  -6  -2 2796.76   57.58
   2  -6  -2 2806.87   51.78
   2   6  -2 2727.59   58.01
  -2  -6   2 2847.89   55.31
  -2  -6   2 2600.00   59.47
  -2   6   2 2813.51   56.98
  -1  -6   2    3.56    1.22
  -1   6   2   10.24    2.66
   1   6  -2    4.52    1.45
   1  -6  -2    6.75    1.98
  -1  -6   2    8.15    2.37
  -1   6   2    4.74    1.79
   1  -6  -2    6.37    1.96
   1  -6  -2    8.17    2.43
   1   6  -2    7.51    2.57
  -1   6   2    7.11    2.00
  -1  -6   2    7.50    2.16
  -1   6   2   12.74    4.34
   1  -6  -2    6.08    1.65
  -1  -6   2    7.76    2.18
   0  -6  -2  175.36   10.62
   0  -6   2  178.33   10.35
   0   6   2  156.57    9.50
   0  -6  -2  175.07   10.07
   0  -6   2  172.27    8.09
   0  -6   2  168.37   10.26
   0   6  -2  171.10    8.76
   0  -6  -2  171.61   10.81
   0   6   2  186.30    9.83
   0   6   2  173.20   12.52
   0   6  -2  180.92   10.91
   0   6  -2  177.72   10.74
   0   6   2  181.19   12.64
   0  -6   2  169.67    8.87
   0   6   2  178.69   11.57
   0  -6  -2  193.45   10.70
  -1   6  -2   27.02    3.12
  -1  -6  -2   25.06    4.06
  -1  -6  -2   25.67    4.07
  -1   6  -2   24.79    3.85
   1   6   2   22.17    4.24
   1  -6   2   31.80    3.98
   1  -6   2   26.58    2.89
   1   6   2   26.93    4.05
  -1  -6  -2   28.32    4.45
   1  -6   2   29.27    3.03
  -1  -6  -2   27.62    4.49
  -1  -6  -2   20.07    3.90
   1   6   2   28.52    5.02
  -1   6  -2   24.54    4.26
   1  -6   2   26.42    4.27
   2  -6   2   71.50    6.03
   2  -6   2   69.87    4.07
  -2  -6  -2   68.23    6.61
  -2  -6  -2   72.95    7.59
   2   6   2   76.80    7.67
  -2  -6  -2   78.11    7.86
   2  -6   2   62.92    5.33
  -2   6  -2   69.58    6.93
   2  -6   2   72.32    3.36
  -2  -6  -2   70.01    7.36
  -2  -6  -2   68.95    7.03
   2   6   2   64.45    5.34
  -2   6  -2   70.68    7.00
   2   6   2   66.44    7.76
  -3   6  -2  916.16   21.41
  -3  -6  -2  927.00   31.84
  -3  -6  -2  931.59   31.13
   3   6   2  972.13   30.02
  -3   6  -2  952.92   29.82
  -3  -6  -2  965.59   29.08
  -3   6  -2  930.32   28.96
   3   6   2  960.85   24.28
   3   6   2  982.58   29.70
   3  -6   2  962.43   24.31
  -3  -6  -2  952.59   29.56
   3   6   2  914.09   32.28
   3  -6   2  998.72   25.61
  -4  -6  -2 1340.20   40.19
  -4  -6  -2 1317.56   40.80
  -4  -6  -2 1341.78   36.49
   4   6   2 1341.16   30.14
   4   6   2 1361.53   38.20
  -4   6  -2 1372.32   26.72
   4   6   2 1309.10   35.94
  -4  -6  -2 1348.03   35.79
  -4   6  -2 1315.56   38.03
   4  -6   2 1320.88   31.42
   4  -6   2 1290.66   30.06
   4   6   2 1332.93   41.07
  -5  -6  -2  874.69   31.11
  -5   6  -2  939.04   19.75
  -5   6  -2  930.01   26.45
  -5  -6  -2  928.12   33.00
   5   6   2  896.05   33.20
   5  -6   2  908.88   23.41
  -5  -6  -2  915.31   28.89
   5   6   2 1010.07   31.68
   5   6   2  919.74   23.10
   5   6   2  915.42   28.64
  -5  -6  -2  937.91   25.48
  -5  -6  -2  917.30   27.72
   5  -6   2  937.60   24.83
  -5   6  -2  929.46   31.46
   5  -6   2  944.95   30.47
  -5  -6  -2  928.71   33.62
  -6  -6  -2  688.10   20.91
   6  -6   2  702.87   21.04
  -6   6  -2  710.93   22.35
  -6   6  -2  679.98   18.93
   6   6   2  703.95   19.23
  -6  -6  -2  691.70   28.54
  -6  -6  -2  695.39   23.46
   6   6   2  722.46   24.57
  -6   6  -2  691.63   16.21
   6   6   2  760.79   27.47
  -6  -6  -2  676.18   24.21
  -6   6  -2  702.06   27.93
   6  -6   2  700.89   19.73
   6   6   2  679.78   29.09
  -7   6  -2   49.76    4.37
  -7   6  -2   50.48    5.58
   7   6   2   59.63    4.91
   7  -6   2   50.72    4.76
  -7  -6  -2   49.51    6.20
   7  -6   2   56.58    5.51
  -7   6  -2   51.06    3.71
   7   6   2   49.17    6.14
  -7  -6  -2   52.44    5.96
  -7  -6  -2   51.16    5.22
  -7   6  -2   56.46    8.13
  -7  -6  -2   49.24    7.59
  -7   6  -2   50.01    5.70
   7   6   2   59.00    8.44
  -8   6  -2    4.18    1.90
  -8   6  -2    1.72    0.89
   8  -6   2    1.48    1.08
   8   6   2    1.89    1.64
  -8  -6  -2    3.58    1.74
  -8   6  -2    3.79    1.33
  -8  -6  -2    0.01    1.94
  -8  -6  -2    1.37    1.25
  -8   6  -2    3.80    1.31
   8   6   2    2.45    2.26
  -8  -6  -2   -2.13    3.06
   8  -6   2    4.65    1.84
  -8   6  -2    2.63    2.36
  -8   6  -2    0.23    1.07
  -9   6  -2   50.01    5.97
   9   6   2   38.24    6.83
  -9   6  -2   49.99    4.48
  -9   6  -2   35.09    6.94
  -9   6  -2   45.63    7.16
  -9  -6  -2   39.33    4.78
   9   6   2   42.91    5.95
  -9  -6  -2   37.16    5.39
  -9  -6  -2   43.77    5.72
  -9  -6  -2   46.00    5.29
   9  -6   2   45.17    5.37
  -9   6  -2   39.48    5.20
  -9   6  -2   42.03    4.21
  -9  -6  -2   60.89    9.20
 -10   6  -2    5.01    2.02
 -10   6  -2   14.58    5.39
  10  -6   2    9.73    2.71
 -10  -6  -2    5.57    2.54
  10   6   2    9.97    3.04
  10   6   2    3.17    3.05
 -10   6  -2    5.96    2.73
 -10  -6  -2    7.61    2.50
  10   6   2    7.45    2.17
 -10  -6  -2   12.87    5.12
 -11   6  -2  562.65   27.52
 -11  -6  -2  672.20   32.22
 -11  -6  -2  589.27   24.04
 -11  -6  -2  618.30   22.40
 -11   6  -2  580.02   32.16
 -11   6  -2  609.37   22.76
  11   6   2  606.45   30.23
  11  -6   2  568.22   22.52
 -12   6  -2   70.02    9.31
  12  -6   2   70.32    7.84
  12   6   2   70.34   10.31
 -12   6  -2   79.77    8.19
 -12   6  -2   49.31    9.44
 -12  -6  -2   79.77   11.22
 -13  -6  -2  465.94   28.59
 -13   6  -2  470.06   30.63
  13   6   2  396.43   25.45
 -13   6  -2  459.73   25.27
 -13   6  -2  433.51   20.70
  14   6   2   -6.51    4.63
 -14  -6  -2   12.53    6.04
 -14  -7   2   -7.70    4.35
 -13  -7   2   -0.14    3.25
  13   7  -2   -1.41    3.19
 -13   7   2    2.29    2.81
  13  -7  -2    3.09    3.46
 -13  -7   2   -0.88    3.11
  13  -7  -2   -3.82    2.96
 -12  -7   2   19.09    5.12
 -12  -7   2   23.88    6.29
 -12   7   2   16.99    4.44
  12  -7  -2   16.87    4.69
  12   7  -2   16.15    5.14
  12  -7  -2   18.62    5.11
 -12   7   2   20.78    7.76
  11   7  -2  294.79   21.34
  11  -7  -2  299.97   19.04
 -11  -7   2  295.63   19.50
  11  -7  -2  294.33   19.45
 -11   7   2  324.89   27.16
 -11  -7   2  319.01   18.70
 -11   7   2  313.45   17.99
  10   7  -2  747.43   34.90
 -10   7   2  758.47   43.32
 -10  -7   2  683.42   27.59
  10  -7  -2  716.90   29.82
 -10  -7   2  662.77   28.98
  10  -7  -2  677.08   28.61
 -10   7   2  695.43   26.99
   9   7  -2 1058.30   41.79
   9  -7  -2  932.94   33.13
  -9  -7   2  917.08   32.96
  -9   7   2  787.20   44.71
   9  -7  -2  868.96   31.98
  -9   7   2  912.61   30.73
  -9   7   2  862.89   47.91
  -9  -7   2  935.92   31.85
   8   7  -2  142.12   14.25
   8  -7  -2  123.29   10.58
  -8  -7   2  134.87   11.15
   8  -7  -2  124.27   10.59
  -8  -7   2  132.96   10.62
  -8   7   2  107.91   15.89
   8   7  -2  121.42    3.97
  -7   7   2   -0.94    3.55
   7  -7  -2    3.00    2.13
  -7  -7   2    1.77    1.91
  -7  -7   2    3.93    2.28
   7  -7  -2    3.83    2.59
   7   7  -2    2.50    2.73
   7   7  -2    1.95    1.16
   7  -7  -2    1.48    1.59
  -7   7   2    4.78    4.29
  -6  -7   2   35.05    5.25
  -6   7   2   35.47    9.10
   6  -7  -2   31.09    5.02
  -6  -7   2   37.31    5.37
   6   7  -2   34.76    7.27
  -6   7   2   44.65    5.52
   6   7  -2   40.48    4.54
   6  -7  -2   42.32    5.72
   6   7  -2   36.37    3.68
  -6   7   2   42.40    9.57
   6  -7  -2   53.67    8.96
  -6   7   2   37.24    2.40
  -5  -7   2   43.13    5.69
  -5  -7   2   44.32    5.64
   5   7  -2   45.81    5.61
   5   7  -2   43.75    7.42
   5  -7  -2   39.48    5.40
  -5   7   2   42.29    8.37
  -5   7   2   38.55    3.47
  -5  -7   2   28.11    5.68
   5  -7  -2   42.68    5.63
   5   7  -2   43.28    5.20
  -5   7   2   41.90    5.39
   5   7  -2   39.41    4.82
  -5   7   2   37.62    5.00
  -5  -7   2   38.33    3.64
  -5   7   2   39.51    8.24
   5  -7  -2   37.86    7.59
  -4  -7   2    9.39    2.87
  -4  -7   2    5.53    2.29
   4  -7  -2    4.98    3.37
  -4   7   2    3.62    1.35
   4   7  -2    3.58    1.64
   4   7  -2   -3.33    3.15
   4  -7  -2    1.84    1.30
  -4   7   2   -1.80    4.70
   4  -7  -2    2.95    0.82
   4  -7  -2    3.03    2.19
  -4  -7   2    2.18    1.96
   4  -7  -2    2.57    1.94
  -4   7   2    4.09    2.05
   4   7  -2    4.81    2.35
   4   7  -2    0.16    1.33
  -4   7   2    7.54    4.59
  -4  -7   2    3.35    1.41
  -3   7   2 3389.55   69.98
   3  -7  -2 3625.36   69.50
   3   7  -2 3557.22   78.74
   3   7  -2 3527.88   72.23
  -3  -7   2 3690.07   70.24
   3  -7  -2 3657.68   62.51
   3  -7  -2 3600.15   73.03
  -3   7   2 3712.99   71.01
   3   7  -2 3298.58   73.15
  -3   7   2 3515.85   90.99
  -3   7   2 3467.86   91.48
  -3  -7   2 3790.13   72.61
   3  -7  -2 3479.07   85.71
   3  -7  -2 3504.55   71.86
  -3  -7   2 3386.46   67.98
  -2   7   2   50.91    6.09
   2  -7  -2   50.93    5.65
   2   7  -2   50.43    6.84
  -2  -7   2   48.80    5.12
  -2   7   2   45.02    5.26
  -2   7   2   39.61    7.58
   2  -7  -2   50.74    4.50
  -2  -7   2   46.26    6.18
   2  -7  -2   47.37    5.60
   2   7  -2   62.78    6.28
  -2  -7   2   57.56    6.10
  -2  -7   2   54.35    5.92
  -2   7   2   51.59    8.71
   2   7  -2   36.54    5.06
  -1   7   2 1014.72   32.87
   1  -7  -2 1019.16   30.60
   1   7  -2 1053.14   31.66
   1  -7  -2 1053.73   30.92
  -1  -7   2 1075.99   30.14
   1  -7  -2 1055.18   28.41
  -1   7   2  989.75   37.50
  -1  -7   2 1044.38   26.70
  -1  -7   2  961.30   30.16
   1   7  -2 1041.08   28.85
  -1   7   2 1080.76   38.65
   1   7  -2  948.27   30.96
  -1  -7   2  989.59   30.49
   1  -7  -2 1035.40   30.19
   0   7  -2    1.71    1.27
   0   7   2   -1.40    3.00
   0  -7  -2    6.42    2.61
   0   7   2   -3.04    2.95
   0  -7   2    3.49    1.62
   0   7  -2    1.92    1.32
   0  -7  -2    4.52    2.40
   0   7   2    2.22    2.45
   0  -7  -2    3.50    2.16
   0   7  -2    1.46    1.80
   0  -7   2    1.68    0.83
   0  -7   2    4.87    2.67
   1   7   2  176.07   13.47
  -1  -7  -2  156.50   10.76
   1  -7   2  168.91   10.32
   1  -7   2  161.09    8.42
  -1  -7  -2  171.76   12.32
   1   7   2  171.51   12.86
  -1   7  -2  163.60    9.33
   1   7   2  171.34   13.03
   1  -7   2  157.36    8.36
  -1  -7  -2  189.56   12.49
  -1  -7  -2  160.13   11.99
  -1   7  -2  176.05   11.47
  -1   7  -2  170.57   11.87
   1  -7   2  165.47   11.86
   2  -7   2   36.78    4.28
  -2  -7  -2   35.55    5.30
  -2  -7  -2   37.16    5.46
   2   7   2   35.89    5.56
  -2  -7  -2   45.25    6.81
  -2   7  -2   36.04    3.95
   2  -7   2   37.17    3.01
   2  -7   2   37.96    4.83
  -2  -7  -2   29.52    5.10
  -2   7  -2   30.70    5.29
  -2  -7  -2   36.62    5.83
  -2  -7  -2   33.57    5.09
   2  -7   2   34.46    3.40
   2   7   2   30.35    5.73
  -2   7  -2   32.31    4.89
   2   7   2   30.34    3.98
   3  -7   2  854.82   25.02
  -3  -7  -2  796.22   29.04
  -3   7  -2  769.63   28.92
  -3  -7  -2  881.33   28.00
   3   7   2  836.58   28.98
   3   7   2  825.04   23.60
  -3   7  -2  823.53   21.52
  -3  -7  -2  843.36   32.67
   3  -7   2  835.42   23.03
   3   7   2  886.07   29.41
  -3  -7  -2  851.96   30.27
  -3   7  -2  815.44   28.01
  -3  -7  -2  811.83   28.10
  -3  -7  -2  794.04   28.60
   3   7   2  763.92   31.61
  -4  -7  -2 1100.67   36.35
  -4  -7  -2 1207.05   38.48
   4  -7   2 1167.47   28.17
   4   7   2 1188.08   36.21
   4   7   2 1161.30   34.75
  -4  -7  -2 1117.41   33.80
  -4  -7  -2 1167.87   40.42
  -4   7  -2 1190.88   26.01
  -4   7  -2 1087.41   36.50
   4   7   2 1175.69   28.96
   4  -7   2 1092.29   35.81
  -4  -7  -2 1084.58   34.53
   4  -7   2 1156.10   30.28
   4   7   2 1127.89   39.91
   5  -7   2 1325.94   30.96
   5   7   2 1362.47   32.05
   5   7   2 1448.55   41.49
   5  -7   2 1256.60   39.64
  -5   7  -2 1301.87   41.64
  -5  -7  -2 1405.97   43.42
   5   7   2 1406.67   38.39
  -5   7  -2 1372.59   28.27
  -5  -7  -2 1319.48   36.99
   5  -7   2 1274.57   33.08
  -5  -7  -2 1313.86   38.25
   5   7   2 1261.96   43.80
   6  -7   2  734.97   20.66
  -6  -7  -2  798.28   24.20
  -6   7  -2  723.01   24.28
  -6  -7  -2  753.90   31.05
  -6  -7  -2  711.52   26.50
   6   7   2  771.62   21.67
   6   7   2  752.31   26.42
   6  -7   2  724.34   23.02
  -6  -7  -2  734.97   25.58
  -6   7  -2  752.90   31.04
  -6   7  -2  746.82   18.15
   6   7   2  685.08   31.28
  -7   7  -2   15.70    3.42
   7   7   2   24.17    4.61
   7   7   2   24.57    5.82
   7  -7   2   17.59    3.37
  -7  -7  -2   12.34    3.32
  -7  -7  -2   11.74    2.61
  -7   7  -2   16.17    2.19
   7  -7   2   17.01    2.79
  -7  -7  -2   15.93    3.80
  -7   7  -2   12.24    4.20
  -7  -7  -2   20.51    5.31
  -8   7  -2   28.74    4.58
  -8   7  -2   24.74    4.08
   8   7   2   25.56    6.32
   8  -7   2   26.67    3.71
   8   7   2   22.42    4.47
  -8   7  -2   24.32    2.82
  -8  -7  -2   31.93    5.45
  -8  -7  -2   29.86    4.80
  -8   7  -2   19.34    5.12
  -8  -7  -2   25.14    5.98
  -8  -7  -2   29.46    4.35
   8  -7   2   24.45    4.08
   9   7   2   45.78    8.22
  -9   7  -2   36.95    5.22
   9   7   2   29.72    3.90
  -9   7  -2   29.88    3.40
  -9   7  -2   36.44    7.61
   9  -7   2   37.95    4.83
  -9   7  -2   29.65    5.16
   9   7   2   36.12    5.51
  -9  -7  -2   29.23    5.26
  -9  -7  -2   35.56    5.02
  -9  -7  -2   41.06    5.56
   9  -7   2   39.93    5.39
  -9  -7  -2   49.26    8.49
  -9   7  -2   39.48    3.80
  10   7   2  249.77   19.46
 -10   7  -2  242.88   17.57
 -10  -7  -2  292.71   20.89
  10  -7   2  271.96   14.76
 -10  -7  -2  267.05   15.95
 -10   7  -2  240.25   11.29
 -10  -7  -2  271.59   14.23
 -10   7  -2  277.17   21.80
  11   7   2   32.90    7.43
 -11   7  -2   32.58    5.29
 -11  -7  -2   29.62    5.64
 -11   7  -2   30.35    6.75
 -11   7  -2   19.06    6.03
  11  -7   2   26.98    4.93
 -11  -7  -2   38.93    7.74
 -11  -7  -2   36.63    5.36
 -12   7  -2  746.98   27.51
 -12   7  -2  707.84   32.73
  12  -7   2  736.10   27.90
 -12  -7  -2  791.62   37.13
 -12   7  -2  725.62   39.17
  12   7   2  722.47   35.65
  13   7   2    4.86    3.08
 -13   7  -2   11.59    4.62
 -13   7  -2   13.70    3.65
 -13  -7  -2   14.50    5.44
  14   7   2   25.59    7.03
 -14   7  -2   39.62    8.81
 -14  -7  -2   31.37    8.15
 -14  -8   2   16.22    4.94
 -13   8   2    0.54    3.60
 -13  -8   2   -2.15    3.36
  13   8  -2    0.74    3.79
 -13   8   2   -1.34    2.90
  13  -8  -2    6.10    4.08
 -12  -8   2    2.02    2.33
 -12  -8   2    3.32    2.68
 -12   8   2    8.95    3.98
  12  -8  -2    5.89    3.61
  12  -8  -2    2.36    2.73
 -12   8   2    4.37    5.05
  12   8  -2    8.28    3.55
 -11  -8   2   58.73    8.11
 -11  -8   2   80.87   10.23
  11   8  -2   62.46   10.34
 -11   8   2   57.71    8.05
  11  -8  -2   52.95    8.44
  11  -8  -2   71.48    9.61
 -11   8   2   44.63   10.69
  10   8  -2  161.31   16.46
  10  -8  -2  129.19   12.36
 -10   8   2  123.89   11.03
  10  -8  -2  133.04   12.40
 -10  -8   2  151.18   12.65
 -10   8   2  126.89   18.25
 -10  -8   2  128.30   12.37
  -9  -8   2   23.78    4.92
  -9  -8   2   34.16    6.21
   9   8  -2   29.16    7.33
  -9   8   2   36.23    5.67
   9  -8  -2   28.74    5.57
   9  -8  -2   31.69    6.08
  -9   8   2   29.76    9.61
   8   8  -2  242.25    8.78
   8   8  -2  285.71   21.81
  -8   8   2  212.29   24.15
   8  -8  -2  271.42   16.24
  -8  -8   2  248.10   15.72
  -8  -8   2  249.20   15.33
   8  -8  -2  223.71   15.20
  -7  -8   2   52.59    6.91
   7  -8  -2   47.36    6.72
   7   8  -2   48.81    9.09
   7   8  -2   56.01    5.07
  -7  -8   2   55.53    7.26
   7  -8  -2   52.69    6.78
  -7   8   2   53.56   11.72
  -6  -8   2   10.79    3.29
  -6  -8   2   12.41    3.39
  -6   8   2   14.14    2.05
   6  -8  -2    8.60    2.71
   6   8  -2    8.89    2.84
   6  -8  -2   11.49    3.17
   6   8  -2   15.69    3.59
  -6   8   2   13.71    6.03
   6   8  -2   10.54    2.46
  -6   8   2   19.88    6.57
   5   8  -2   83.09   10.54
  -5   8   2   88.89   13.88
   5   8  -2   82.17    8.12
   5   8  -2   83.42    7.77
   5  -8  -2   86.13    8.39
  -5  -8   2   95.79    8.56
  -5  -8   2   63.74    8.87
  -5   8   2   93.42    8.14
   5  -8  -2   76.63    7.99
  -5  -8   2   80.33    8.02
   5  -8  -2   90.88   12.39
  -5  -8   2   76.81    6.03
  -5   8   2   82.25   13.53
   5  -8  -2   85.27    3.09
  -5   8   2   68.93    5.75
   4   8  -2  243.03   17.30
  -4   8   2  237.15   13.23
   4  -8  -2  216.76   13.23
   4   8  -2  228.87   13.80
   4  -8  -2  225.45    7.89
   4   8  -2  208.90   13.59
  -4  -8   2  221.18   11.60
  -4  -8   2  210.21   12.57
  -4   8   2  204.21   20.62
  -4  -8   2  243.40   13.85
   4   8  -2  197.85   13.13
   4  -8  -2  230.08   19.34
   4  -8  -2  210.35   13.24
  -4  -8   2  178.70   14.70
  -4   8   2  223.24   12.45
  -4   8   2  200.31   20.29
  -4   8   2  209.67   11.90
  -3   8   2   56.62    6.89
   3  -8  -2   74.21    6.94
  -3   8   2   70.68    7.08
   3   8  -2   61.99    8.24
  -3   8   2   60.89   10.28
  -3  -8   2   65.04    6.77
   3  -8  -2   59.84    6.97
  -3  -8   2   60.60    6.33
   3   8  -2   66.84    7.38
  -3  -8   2   54.46    7.78
  -3   8   2   64.08    6.53
   3  -8  -2   59.19    4.86
   3   8  -2   72.73    7.57
  -3  -8   2   65.68    7.05
   3   8  -2   56.80    7.17
  -3   8   2   53.48    9.52
   3  -8  -2   57.45    8.89
  -2   8   2  660.05   27.03
   2  -8  -2  706.38   24.63
   2   8  -2  678.13   27.55
  -2   8   2  732.89   24.32
  -2  -8   2  697.97   22.67
   2  -8  -2  684.35   21.50
  -2   8   2  718.44   24.09
  -2   8   2  679.69   34.29
  -2  -8   2  717.79   25.04
  -2   8   2  680.13   34.17
   2   8  -2  651.28   26.58
  -2  -8   2  709.01   26.19
   2  -8  -2  720.38   25.58
   2   8  -2  722.63   25.30
   1   8  -2  310.93   16.74
  -1  -8   2  272.91   12.72
   1  -8  -2  272.33   14.33
   1  -8  -2  292.48   15.66
  -1   8   2  256.81   17.12
  -1   8   2  276.71   14.01
  -1  -8   2  238.83   14.99
  -1  -8   2  277.22   14.86
   1   8  -2  280.55   14.63
   1   8  -2  268.56   15.21
  -1   8   2  284.34   14.44
  -1   8   2  267.25   19.47
  -1  -8   2  267.68   16.27
   1   8  -2  257.58   15.79
  -1   8   2  276.53   19.87
   1  -8  -2  270.77   14.85
   0   8  -2   24.97    4.20
   0   8   2    9.90    3.14
   0  -8  -2   24.32    4.57
   0   8  -2   31.77    5.33
   0  -8  -2   25.68    4.95
   0  -8   2   19.10    3.89
   0   8   2   22.29    5.64
   0   8   2   20.94    5.25
   0   8  -2   22.40    4.37
   0  -8  -2   31.23    5.39
   0  -8  -2   20.60    4.99
   0   8  -2   22.66    4.58
   0  -8   2   20.58    3.29
   0  -8   2   16.85    4.20
  -1  -8  -2    6.17    3.02
  -1  -8  -2    5.26    2.66
   1   8   2    1.71    2.95
  -1  -8  -2    3.89    1.30
  -1  -8  -2    4.56    1.95
  -1   8  -2    7.36    2.14
   1   8   2   -0.97    1.93
   1  -8   2    8.02    2.54
  -1  -8  -2    4.73    2.80
   1   8   2    2.66    3.10
   1  -8   2    4.60    1.67
  -1  -8  -2    5.63    2.74
   1  -8   2    5.80    1.97
   1  -8   2    1.71    2.29
  -1   8  -2   15.09    4.26
  -1   8  -2    5.90    2.19
   2  -8   2   77.37    5.54
  -2  -8  -2   77.34    8.62
  -2  -8  -2   79.07    8.88
   2  -8   2   84.75    7.67
   2   8   2   72.04    9.64
  -2  -8  -2   75.64    8.00
  -2  -8  -2   88.19    9.06
  -2   8  -2   89.09    6.95
   2  -8   2   67.37    5.04
   2   8   2   81.97    9.26
  -2  -8  -2   83.98   10.27
   2   8   2   74.02    7.83
  -2   8  -2   90.62    8.70
  -2  -8  -2   64.21    8.13
  -2   8  -2   82.64    9.30
   2  -8   2   67.22    8.61
  -3   8  -2    1.43    0.99
   3   8   2   -0.37    3.38
  -3  -8  -2    0.18    1.39
  -3  -8  -2    4.02    3.74
  -3  -8  -2   -0.70    2.05
   3  -8   2    2.62    1.52
   3   8   2    1.57    1.87
  -3  -8  -2    3.46    2.44
   3  -8   2   -0.06    0.40
  -3  -8  -2    2.00    2.83
  -3  -8  -2   -1.92    2.30
  -3   8  -2    8.14    3.63
   3  -8   2    4.09    3.24
  -3   8  -2   -0.67    1.56
   3   8   2   -0.19    1.39
  -4  -8  -2  821.46   31.70
   4   8   2  810.93   29.54
   4  -8   2  793.09   25.27
  -4   8  -2  744.72   31.10
  -4  -8  -2  793.33   30.11
  -4   8  -2  831.85   22.05
  -4  -8  -2  759.93   28.35
   4   8   2  717.34   33.41
   5   8   2  269.52   19.80
  -5  -8  -2  305.74   19.19
  -5  -8  -2  268.05   16.41
  -5   8  -2  287.59   11.12
  -5  -8  -2  277.92   15.80
  -5   8  -2  257.77   17.92
   5   8   2  273.65   15.96
   5  -8   2  283.35   14.01
   5  -8   2  276.58   11.87
   6   8   2   17.43    5.82
  -6  -8  -2   12.81    4.54
   6   8   2   10.98    3.09
   6  -8   2   16.23    2.90
  -6   8  -2   14.64    3.33
  -6  -8  -2   15.27    3.61
  -6  -8  -2   11.99    3.23
  -6   8  -2   14.38    2.23
  -6   8  -2   15.96    5.00
   6  -8   2   15.22    3.28
  -7   8  -2    3.83    2.04
   7  -8   2    4.74    2.13
   7  -8   2    5.39    1.98
   7   8   2    5.09    2.30
  -7  -8  -2    2.17    2.33
   7   8   2    8.97    4.76
  -7  -8  -2    1.55    1.33
  -7   8  -2    3.61    1.35
  -7   8  -2    4.57    3.32
  -7  -8  -2    1.76    2.23
  -7  -8  -2    7.64    2.48
   8  -8   2   32.17    4.77
  -8   8  -2   37.16    5.19
   8  -8   2   33.47    4.20
   8   8   2   36.94    8.01
   8   8   2   36.26    4.55
  -8   8  -2   37.94    3.82
   8   8   2   42.55    6.30
  -8  -8  -2   41.35    5.95
  -8   8  -2   30.10    6.96
  -8  -8  -2   34.65    6.85
  -8  -8  -2   42.47    5.42
  -8  -8  -2   39.33    6.30
   9   8   2    3.15    4.18
   9   8   2    9.50    2.51
  -9  -8  -2    1.17    2.33
  -9   8  -2    6.14    1.75
   9  -8   2    8.32    2.58
  -9  -8  -2   11.55    4.90
  -9  -8  -2    8.73    2.76
  -9   8  -2    1.61    3.01
   9  -8   2    5.31    2.67
  -9  -8  -2    5.89    2.15
 -10  -8  -2  160.56   12.80
  10  -8   2  147.97   11.14
 -10  -8  -2  153.06   11.14
 -10   8  -2  146.35   16.46
 -10  -8  -2  147.29   15.19
  10   8   2  147.07   15.53
  11  -8   2  261.08   15.74
 -11   8  -2  263.59   19.40
 -11  -8  -2  299.38   18.00
 -11  -8  -2  309.12   22.76
 -11   8  -2  260.32   22.95
  11   8   2  274.70   21.94
 -12  -8  -2    9.80    5.81
  12   8   2    7.94    2.93
 -12   8  -2   -0.24    1.94
 -12   8  -2    6.71    3.97
  12  -8   2    7.93    2.98
 -12   8  -2    3.62    3.65
  13   8   2    7.59    5.32
 -13   8  -2   14.35    4.25
 -13   8  -2   10.85    3.57
 -13  -8  -2   14.74    5.39
 -13   8  -2   19.33    7.08
 -13  -9   2    4.07    4.49
  13   9  -2    9.07    4.64
 -13   9   2    5.17    3.84
 -12  -9   2   14.01    5.01
 -12  -9   2   18.36    5.37
 -12   9   2   19.73    8.26
  12  -9  -2   16.99    5.35
  12   9  -2   26.06    7.90
 -12   9   2    7.88    3.20
  12  -9  -2   15.78    5.49
 -11  -9   2   25.09    5.83
 -11  -9   2   16.92    5.53
 -11   9   2   27.59    9.14
  11   9  -2   19.82    6.87
 -11   9   2   17.36    4.63
  11  -9  -2   18.78    5.41
  11  -9  -2   18.76    5.26
 -10  -9   2   22.66    5.02
 -10  -9   2   29.47    6.29
  10  -9  -2   22.60    5.57
  10   9  -2   24.04    6.75
 -10   9   2   28.39    5.51
  10  -9  -2   24.16    5.73
 -10   9   2   24.84    9.02
  -9  -9   2    8.81    4.07
  -9  -9   2    1.79    2.66
   9   9  -2    2.69    4.66
   9  -9  -2    2.94    1.88
  -9   9   2    2.57    4.65
   9  -9  -2    7.25    3.36
  -8  -9   2   43.27    6.69
  -8  -9   2   37.45    6.31
   8  -9  -2   39.45    6.58
   8  -9  -2   43.73    6.59
   8   9  -2   44.13    9.23
   8   9  -2   36.94    4.06
  -8   9   2   52.36   11.38
  -7  -9   2    7.10    2.95
  -7  -9   2    9.06    3.34
  -7   9   2    9.92    1.76
   7   9  -2    8.10    3.56
   7  -9  -2    8.08    2.89
   7   9  -2    7.24    1.82
   7  -9  -2    4.16    2.26
  -7   9   2    5.74    3.60
  -6  -9   2   21.72    4.46
  -6   9   2   24.29    3.11
   6   9  -2   39.55    8.56
   6  -9  -2   25.21    5.02
   6  -9  -2   24.69    4.76
   6   9  -2   38.70    5.85
   6   9  -2   32.91    4.66
  -6   9   2   37.44    9.60
  -6  -9   2   25.49    3.47
  -6  -9   2   25.52    5.17
  -5  -9   2   10.23    3.09
  -5   9   2    4.27    1.79
   5   9  -2    5.06    2.66
   5  -9  -2    8.80    1.21
   5  -9  -2    7.16    3.20
   5   9  -2    5.31    2.39
   5  -9  -2    8.78    3.11
  -5   9   2   16.48    7.21
   5   9  -2    4.12    2.23
  -5  -9   2   10.74    2.62
  -5  -9   2    8.53    3.29
  -4   9   2   40.45    9.26
  -4  -9   2   47.99    6.47
  -4   9   2   38.32    5.61
   4   9  -2   49.73    7.22
  -4  -9   2   45.09    5.89
   4   9  -2   49.24    8.37
   4   9  -2   54.25    7.40
   4  -9  -2   46.33    3.88
   4   9  -2   54.30    7.19
  -4   9   2   50.83    6.21
  -4  -9   2   43.41    8.08
   4  -9  -2   51.41    6.64
   4  -9  -2   53.92    7.07
  -4  -9   2   49.32    6.25
   3  -9  -2   86.84    7.91
  -3   9   2   57.06    7.74
   3   9  -2   69.31    9.24
   3   9  -2   78.86    8.60
   3  -9  -2   88.21    6.40
  -3  -9   2   53.13    8.37
  -3   9   2   79.31    7.60
  -3  -9   2   79.17    8.74
   3   9  -2   61.81    7.94
  -3  -9   2   86.05    8.65
   3  -9  -2   81.27    8.42
  -3   9   2   99.51   14.32
  -3  -9   2   78.36    7.63
   2   9  -2    5.43    2.60
   2   9  -2    4.83    2.30
  -2   9   2   -1.11    4.20
   2   9  -2   -0.33    2.37
  -2   9   2    6.47    3.67
   2  -9  -2    3.20    1.69
  -2   9   2    2.24    1.34
   2  -9  -2    2.44    2.41
  -2  -9   2    3.92    1.88
  -2   9   2    2.94    3.35
   2  -9  -2    5.73    2.61
  -2   9   2    3.24    1.79
   2   9  -2    3.28    2.43
   2  -9  -2    0.18    2.09
  -2  -9   2    3.15    1.98
  -2  -9   2    2.37    1.66
  -1   9   2   87.48   12.02
  -1  -9   2   86.70    7.47
   1   9  -2   83.98    9.26
   1  -9  -2   87.89    8.81
   1  -9  -2   88.04    8.91
  -1   9   2   93.08   12.45
  -1   9   2   89.00    8.23
  -1  -9   2   85.29   10.04
   1   9  -2   72.77    7.80
   1  -9  -2   86.88   10.90
   1   9  -2   86.20    9.55
   1   9  -2   82.18    8.66
  -1  -9   2   64.49    8.18
   1  -9  -2   75.74    8.24
  -1   9   2   79.70   10.26
   0   9  -2   38.52    6.08
   0   9  -2   51.99    7.20
   0   9  -2   41.22    5.66
   0  -9  -2   47.57    6.71
   0   9   2   40.65    7.93
   0   9   2   44.24    5.98
   0  -9   2   30.23    5.26
   0  -9   2   46.63    5.28
   0  -9  -2   51.91    7.85
   0   9   2   38.85    7.26
   0  -9  -2   49.72    6.69
   0   9   2   30.73    5.91
   0  -9  -2   36.80    6.01
   0  -9  -2   42.61    7.39
   0   9  -2   29.00    5.75
   0  -9   2   43.39    7.25
  -1  -9  -2   21.77    4.58
  -1   9  -2   28.44    4.48
   1   9   2   14.71    4.38
  -1  -9  -2   26.93    5.27
  -1   9  -2   25.22    5.03
   1  -9   2   20.76    3.86
   1   9   2   27.19    4.87
   1  -9   2   30.09    5.07
   1  -9   2   24.74    3.88
   1   9   2   25.59    5.71
  -1  -9  -2   24.55    5.91
  -1  -9  -2   22.34    4.77
   1   9   2   18.68    5.01
  -1  -9  -2   29.67    6.17
  -1   9  -2   18.40    3.89
   1  -9   2   28.20    6.28
   1   9   2   19.54    3.74
  -1   9  -2   25.06    5.07
  -2   9  -2    1.96    1.37
   2   9   2   -2.36    4.42
  -2  -9  -2    0.66    1.72
  -2  -9  -2    1.40    1.68
   2  -9   2   -0.42    1.79
  -2  -9  -2    1.92    2.13
   2   9   2    5.13    3.25
   2   9   2    2.09    1.79
   2  -9   2    1.30    0.95
  -2  -9  -2   -1.19    2.97
  -2  -9  -2   -0.13    2.10
   2  -9   2   -0.56    1.35
  -2  -9  -2    3.34    2.54
  -2   9  -2   -0.64    2.57
   2  -9   2    0.87    1.86
  -2   9  -2    2.19    1.59
   2   9   2    1.32    1.79
  -3   9  -2   32.50    4.37
  -3  -9  -2   34.04    6.12
   3   9   2   24.75    5.96
   3  -9   2   32.03    3.72
   3   9   2   29.39    5.48
   3  -9   2   32.39    2.96
  -3  -9  -2   33.30    7.62
   3  -9   2   28.13    4.80
  -3  -9  -2   33.59    5.96
  -3   9  -2   23.84    5.70
  -3  -9  -2   29.28    6.05
  -3  -9  -2   27.37    5.60
  -3   9  -2   31.24    5.58
   4   9   2   86.58   11.84
  -4   9  -2   94.58    7.12
  -4  -9  -2   89.59    9.20
   4   9   2   83.32    9.51
  -4   9  -2   69.05    9.68
  -4  -9  -2   89.90    9.69
   4   9   2   84.04    7.59
  -4  -9  -2   74.48    9.39
  -4  -9  -2   74.57    9.11
   4  -9   2   87.77    8.10
   5   9   2   32.29    4.73
   5   9   2   19.74    5.96
  -5  -9  -2   20.25    5.10
   5   9   2   29.69    5.63
  -5  -9  -2   24.00    5.35
   5  -9   2   23.85    4.22
  -5  -9  -2   23.26    4.90
  -5   9  -2   19.13    4.71
  -5   9  -2   26.86    3.58
   6   9   2   24.12    4.03
  -6  -9  -2   21.56    5.84
   6   9   2   23.65    6.84
   6   9   2   19.54    4.16
   6  -9   2   20.46    4.30
  -6   9  -2   22.85    5.82
  -6  -9  -2   18.68    4.51
  -6  -9  -2   16.04    4.34
  -6   9  -2   21.47    3.09
   7  -9   2   52.64    4.99
   7   9   2   47.68    9.44
  -7  -9  -2   61.48    8.34
   7  -9   2   48.84    6.27
  -7   9  -2   50.59    4.58
   7   9   2   50.39    5.63
  -7  -9  -2   57.08    7.36
  -7   9  -2   39.94    7.73
  -7  -9  -2   62.50    9.53
   8  -9   2   32.11    4.08
   8  -9   2   24.89    4.76
   8   9   2   18.81    5.31
   8   9   2   29.84    4.39
  -8  -9  -2   31.97    6.19
  -8  -9  -2   25.63    4.86
  -8   9  -2   27.44    6.33
  -8  -9  -2   32.80    7.00
  -8  -9  -2   22.27    4.32
   9   9   2   -0.42    2.83
   9  -9   2   -0.74    1.32
  -9  -9  -2    1.40    2.22
  -9   9  -2   -4.41    4.83
  -9  -9  -2   -1.02    3.86
  -9  -9  -2   -0.22    1.77
   9  -9   2   -1.42    1.62
  10   9   2   -3.24    4.52
 -10  -9  -2    3.42    2.31
 -10   9  -2   -0.92    4.93
  10  -9   2    7.23    2.91
 -10  -9  -2    0.67    3.81
 -10  -9  -2    2.02    1.97
  11   9   2   18.80    5.97
  11  -9   2   26.15    5.50
 -11   9  -2   19.90    5.92
 -11  -9  -2   31.04    7.88
 -11   9  -2   30.36    6.91
  12   9   2   14.22    5.13
 -12   9  -2   23.01    4.59
 -12   9  -2   12.25    4.79
  12  -9   2   21.50    4.46
 -12   9  -2   22.08    7.16
 -12  -9  -2   24.65    6.70
 -13   9  -2   -0.46    1.84
 -13   9  -2   -2.30    3.65
 -13   9  -2    0.72    2.90
 -13 -10   2   -0.34    3.02
  13  10  -2   -1.50    4.81
  12  10  -2   -0.21    4.67
 -12  10   2    8.47    3.41
 -12 -10   2    7.71    3.62
  12 -10  -2    3.36    3.20
 -12  10   2   14.00    7.81
 -11 -10   2   53.56    8.39
 -11 -10   2   75.87   10.47
  11  10  -2   52.60   10.84
 -11  10   2   53.47    8.04
  11 -10  -2   66.28    9.26
  11 -10  -2   49.06    8.38
 -11  10   2   52.06   12.49
  10  10  -2  115.22   15.73
 -10 -10   2  111.66   12.32
  10 -10  -2   96.01   11.17
  10 -10  -2  110.19   11.60
 -10 -10   2   90.19   10.35
 -10  10   2  120.59   18.94
   9  10  -2  114.30   15.18
  -9  10   2  124.69   19.74
  -9 -10   2  111.24   11.70
   9 -10  -2  117.13   11.52
   9 -10  -2  128.63   12.59
  -9 -10   2  110.33   11.25
   8  10  -2  299.38   24.16
   8 -10  -2  262.20   16.74
  -8 -10   2  230.94   15.90
  -8  10   2  278.98   29.00
  -8 -10   2  243.66   17.07
   8 -10  -2  223.45   16.32
  -7  10   2    7.27    1.70
   7 -10  -2    8.80    3.24
   7  10  -2   15.09    6.14
   7  10  -2    7.71    2.37
   7 -10  -2    7.16    3.20
  -7  10   2   17.50    7.53
   7  10  -2    6.93    2.36
  -7 -10   2    6.02    1.96
  -7 -10   2    9.58    3.25
  -7 -10   2   10.40    3.55
  -6 -10   2    9.18    3.64
   6  10  -2    9.85    4.84
  -6  10   2    6.09    2.08
  -6 -10   2    7.00    3.13
   6  10  -2    8.20    2.68
   6 -10  -2    1.61    2.34
   6 -10  -2    4.90    2.06
   6  10  -2    7.77    2.76
  -6  10   2    1.76    3.93
  -6 -10   2    5.69    2.15
  -5  10   2   17.41    3.70
   5  10  -2   24.14    6.81
   5  10  -2   23.53    4.60
   5 -10  -2   18.38    2.01
   5 -10  -2   17.09    4.47
   5 -10  -2   18.08    4.43
  -5  10   2   20.08    6.92
   5  10  -2   19.67    5.10
  -5 -10   2   13.21    3.30
  -5 -10   2   23.66    4.87
  -5 -10   2   15.65    4.01
  -4  10   2  200.25   15.03
   4  10  -2  276.51   20.65
   4 -10  -2  252.22   15.53
   4  10  -2  262.19   17.62
   4 -10  -2  250.55   10.51
  -4 -10   2  222.07   14.91
   4 -10  -2  215.13   15.15
  -4 -10   2  257.10   15.83
  -4  10   2  262.37   25.17
   4  10  -2  232.45   15.96
  -4 -10   2  248.96   15.00
   3  10  -2   37.15    6.75
  -3  10   2   24.84    6.02
   3  10  -2   44.88    6.72
  -3 -10   2   30.59    6.73
   3 -10  -2   38.00    6.12
   3  10  -2   40.32    7.37
  -3  10   2   29.07    8.11
   3 -10  -2   34.09    4.45
  -3 -10   2   33.80    6.45
  -3 -10   2   43.18    6.05
  -3 -10   2   37.11    6.07
  -2  10   2  682.39   33.69
   2  10  -2  909.84   35.68
   2 -10  -2  917.09   30.67
   2  10  -2  915.59   32.67
   2 -10  -2  909.79   31.99
   2 -10  -2  823.44   28.56
  -2 -10   2  645.57   31.85
  -2 -10   2  764.02   33.91
   2  10  -2  826.90   33.86
  -2 -10   2  856.85   27.91
  -2  10   2  832.85   42.15
   2 -10  -2  860.45   31.63
   1 -10  -2  105.99   10.02
   1  10  -2  110.71   11.36
   1  10  -2  112.70   10.30
  -1  10   2   74.75   10.98
   1 -10  -2   92.79    9.79
   1 -10  -2  104.68   10.74
  -1 -10   2  103.37    8.80
  -1  10   2  102.31   13.60
   1  10  -2   92.04   10.82
  -1 -10   2   96.58   12.21
   1 -10  -2  106.96   10.53
   0  10  -2   22.02    4.59
   0  10   2    4.76    5.06
   0 -10  -2   14.92    4.02
   0 -10  -2   25.09    5.38
   0  10  -2   26.70    5.85
   0  10   2   26.89    7.25
   0 -10  -2   21.21    6.12
   0 -10   2    8.39    3.01
   0 -10  -2   23.69    5.17
   0 -10   2   23.60    4.10
   0  10  -2   26.40    6.07
   0 -10   2   13.48    4.29
   0 -10   2   15.39    3.68
  -1 -10  -2    1.07    2.13
  -1  10  -2    4.49    1.57
   1  10   2   -2.15    4.64
  -1 -10  -2    7.57    3.00
   1 -10   2    3.91    2.30
  -1  10  -2   14.13    4.72
   1  10   2    7.83    4.11
   1 -10   2    4.94    2.03
  -1 -10  -2    6.25    3.17
  -1 -10  -2    5.58    2.51
   1 -10   2    5.90    1.88
  -1  10  -2    3.90    3.42
   1  10   2    3.89    1.89
   2 -10   2   55.48    6.34
   2 -10   2   77.00    6.56
  -2  10  -2   75.22    8.47
   2 -10   2   78.65    8.46
   2  10   2   83.42   12.17
  -2 -10  -2   77.26    8.97
  -2 -10  -2   59.52    9.94
  -2  10  -2   69.30    9.62
  -2  10  -2   87.64    8.09
   2 -10   2   76.61    7.73
   2  10   2   77.57    7.87
   2  10   2   79.59   10.33
  -2 -10  -2   72.94    9.03
   3  10   2   19.40    4.06
  -3  10  -2   18.34    3.44
   3  10   2    9.70    4.02
   3 -10   2   26.59    4.37
   3 -10   2   18.10    4.05
   3 -10   2   17.29    2.77
   3 -10   2   20.13    3.20
  -3 -10  -2   15.26    4.04
  -3 -10  -2   17.89    4.74
  -3  10  -2   20.47    5.55
   4  10   2  563.63   32.84
  -4 -10  -2  599.06   26.38
  -4  10  -2  534.95   28.97
  -4  10  -2  640.02   21.67
  -4 -10  -2  568.36   28.01
  -4 -10  -2  580.78   27.93
  -4 -10  -2  595.19   27.74
   4  10   2  597.28   22.99
   4 -10   2  605.26   24.15
  -5 -10  -2  313.59   20.28
  -5  10  -2  361.71   14.91
  -5 -10  -2  310.09   19.11
  -5 -10  -2  360.45   22.08
  -5  10  -2  300.70   21.71
   5  10   2  341.63   16.70
   5 -10   2  320.78   17.05
   5  10   2  323.95   24.63
   6  10   2    8.31    2.76
   6 -10   2   12.31    3.36
  -6 -10  -2   12.58    4.23
  -6  10  -2    3.23    2.67
  -6  10  -2   12.68    2.58
  -6 -10  -2   14.02    4.18
   7  10   2   21.46    3.92
   7  10   2   23.99    6.19
   7 -10   2   24.50    5.09
  -7 -10  -2   26.19    5.44
  -7  10  -2   24.98    6.83
  -7 -10  -2   22.64    6.21
   8  10   2   -0.68    3.59
   8 -10   2    0.07    1.64
   8 -10   2   -0.41    1.24
  -8  10  -2    1.53    2.81
  -8 -10  -2    0.51    3.42
  -8 -10  -2   -0.08    2.46
   9 -10   2   24.20    5.12
   9  10   2   21.75    7.12
  -9 -10  -2   23.97    5.29
  -9  10  -2   21.87    6.57
  -9 -10  -2   20.93    6.58
  10  10   2   69.68   11.93
 -10 -10  -2  122.41   14.32
 -10 -10  -2   93.86   10.85
 -10 -10  -2   90.39    9.40
  10 -10   2   83.38    9.04
 -10  10  -2   85.72   13.85
 -11  10  -2  275.39   25.45
 -11 -10  -2  263.09   22.14
  11 -10   2  250.47   16.62
  11  10   2  273.36   24.09
  12  10   2   10.96    6.17
 -12  10  -2    3.42    3.53
 -12  10  -2   -2.77    4.61
 -12 -10  -2    2.68    2.62
 -13  10  -2   26.90    5.50
  12  11  -2   79.67   13.89
 -12  11   2   85.82   15.62
 -12 -11   2   83.90   10.96
  11  11  -2   93.88   14.62
 -11  11   2   82.28   10.26
 -11 -11   2   72.92   10.00
 -11  11   2  114.02   19.83
  11 -11  -2   70.87   10.30
 -11 -11   2   87.78   11.49
  10  11  -2  102.70   15.40
  10 -11  -2   82.46   10.31
 -10  11   2   98.05   18.08
  10 -11  -2   78.86   10.41
 -10 -11   2   78.99   10.68
 -10 -11   2   87.31   10.53
   9  11  -2  533.95   34.06
  -9 -11   2  394.53   23.39
   9 -11  -2  393.34   23.44
   9 -11  -2  427.24   22.98
  -9  11   2  521.20   39.97
  -9 -11   2  406.73   22.73
   8 -11  -2    2.91    2.68
   8  11  -2    4.48    4.38
   8 -11  -2    2.63    2.24
  -8  11   2   -1.37    4.30
  -8 -11   2    1.47    2.29
  -8 -11   2    4.78    3.05
   7  11  -2  329.45   25.59
   7 -11  -2  249.91   17.57
   7  11  -2  272.42   16.06
  -7 -11   2  261.80   17.60
  -7  11   2  240.51   11.90
   7 -11  -2  274.20   17.16
   7  11  -2  277.09   14.17
  -7  11   2  319.80   30.53
  -7 -11   2  236.47   16.33
   6  11  -2   19.84    6.50
  -6  11   2   14.90    3.60
   6 -11  -2   19.22    5.11
   6 -11  -2   14.04    3.78
   6  11  -2   16.95    4.08
  -6  11   2   27.35   10.44
   6  11  -2   22.22    5.23
  -6 -11   2   18.04    3.40
  -6 -11   2   17.56    4.48
  -6 -11   2   13.64    4.05
   5  11  -2  341.84   24.75
   5 -11  -2  275.66   17.13
  -5  11   2  247.33   16.33
   5  11  -2  321.72   19.91
   5 -11  -2  289.65    9.90
  -5 -11   2  277.10   17.13
  -5 -11   2  289.73   17.80
  -5  11   2  294.72   28.50
   5  11  -2  310.89   18.43
   5 -11  -2  287.94   18.53
  -5 -11   2  267.64   16.05
  -4 -11   2   76.86    8.56
  -4  11   2   72.93    9.54
   4  11  -2   91.82   11.99
   4  11  -2   96.47   10.67
   4 -11  -2   92.82    6.73
   4  11  -2   79.75   10.40
   4 -11  -2   83.00    9.25
  -4  11   2   80.29   14.28
  -4 -11   2   86.28    9.59
   4 -11  -2   87.20   10.10
  -4 -11   2   65.08    8.50
  -3  11   2  479.79   27.99
   3  11  -2  645.98   31.95
   3 -11  -2  584.33   21.84
   3  11  -2  567.56   27.89
  -3 -11   2  585.04   24.13
  -3 -11   2  612.82   26.23
  -3  11   2  604.45   37.94
  -3 -11   2  488.70   29.02
  -3 -11   2  591.61   29.59
   3 -11  -2  639.52   27.83
   2 -11  -2   41.53    6.88
   2  11  -2   49.90    7.43
  -2  11   2   17.88    4.14
   2  11  -2   46.45    8.14
   2 -11  -2   51.48    7.04
   2 -11  -2   37.92    6.29
  -2 -11   2   32.59    6.99
  -2 -11   2   33.81    7.22
   2 -11  -2   44.84    7.14
  -2  11   2   36.20    8.68
   2  11  -2   36.79    6.99
  -2 -11   2   44.51    6.31
  -1  11   2  125.20   14.95
   1  11  -2  167.55   15.47
   1  11  -2  198.53   16.06
   1 -11  -2  173.50   13.53
   1 -11  -2  165.31   14.57
  -1 -11   2  180.57   11.99
   1 -11  -2  182.94   14.27
  -1  11   2  163.08   17.79
   1  11  -2  193.64   14.42
  -1 -11   2  120.44   13.25
   1 -11  -2  168.89   13.79
   0 -11  -2  220.54   16.08
   0  11  -2  212.65   16.20
   0 -11  -2  224.94   16.13
   0 -11   2  231.09   15.17
   0 -11   2  200.12   12.42
   0  11  -2  240.48   15.77
   0 -11  -2  206.93   18.16
   0  11   2  205.20   19.13
   0  11  -2  196.40   16.99
   0  11   2  189.73   19.48
  -1  11  -2  126.38   11.98
  -1 -11  -2  135.59   12.54
   1  11   2   89.23   13.56
   1 -11   2  126.83   11.20
  -1 -11  -2  132.38   12.40
  -1 -11  -2  114.23   14.23
   1 -11   2   77.71    9.22
   1 -11   2  130.02    9.42
   1  11   2   96.10   12.44
  -1  11  -2  117.23   13.37
  -1  11  -2  139.71   11.38
   2 -11   2   55.15    7.37
  -2 -11  -2   45.14    7.70
   2  11   2   44.45    9.58
  -2  11  -2   52.10    7.51
   2 -11   2   37.53    5.87
  -2  11  -2   61.34    7.16
  -2  11  -2   51.87    9.04
   2 -11   2   48.02    5.50
   2  11   2   43.41    6.22
   2 -11   2   55.91    6.87
   2  11   2   37.99    7.69
  -2 -11  -2   44.52    7.39
   3  11   2  890.73   44.67
   3 -11   2  912.58   32.56
  -3  11  -2  909.96   32.28
  -3 -11  -2  900.36   34.48
   3 -11   2  877.18   26.15
  -3 -11  -2  972.19   37.09
   3 -11   2  821.42   25.49
   3 -11   2  931.78   29.73
  -3  11  -2 1004.25   30.89
   3  11   2  842.82   30.13
  -3  11  -2  845.82   38.29
   4 -11   2   93.78    7.99
  -4  11  -2  101.36    9.78
   4  11   2   97.10   14.05
  -4 -11  -2   89.52   10.98
  -4 -11  -2   87.45   10.22
  -4  11  -2  100.46    8.58
   4 -11   2   85.74    4.35
   4 -11   2   90.14    3.94
   4  11   2   78.20    8.47
  -4  11  -2   82.24   11.29
   4 -11   2   86.69    9.31
  -5 -11  -2  422.78   25.03
   5 -11   2  392.65   16.49
  -5 -11  -2  414.31   22.84
  -5  11  -2  344.66   24.70
   5  11   2  387.52   18.92
   5 -11   2  408.39   20.62
  -5  11  -2  430.92   17.68
   5  11   2  409.14   29.57
   6  11   2  126.59   16.08
  -6 -11  -2  133.91   14.60
   6 -11   2  149.05   12.12
  -6  11  -2   99.58   13.13
   7  11   2    6.13    4.40
   7 -11   2    3.71    2.56
  -7  11  -2   -4.11    5.31
  -7 -11  -2    5.68    4.02
   8 -11   2  129.38   11.56
  -8  11  -2  153.18   17.63
  -8 -11  -2  145.09   15.45
   8  11   2  140.44   17.65
   9 -11   2   28.78    5.49
   9  11   2   21.30    7.25
  -9 -11  -2   36.10    8.19
  -9  11  -2   23.43    7.79
 -10 -11  -2  389.69   26.70
  10 -11   2  332.84   19.64
 -10  11  -2  350.34   29.05
  10  11   2  321.53   27.23
  11  11   2  131.98   17.43
  11 -11   2  108.31   11.36
 -11  11  -2  122.99   16.97
 -11 -11  -2  114.40   14.71
 -12  12   2  129.88   19.69
 -11  12   2  141.41   21.39
  11  12  -2  120.93   17.35
 -11 -12   2  113.91   12.80
  10  12  -2  547.14   36.17
 -10 -12   2  500.24   28.08
 -10 -12   2  468.56   26.03
  10 -12  -2  453.90   26.90
   9 -12  -2   61.25    9.54
   9  12  -2   80.54   14.00
   9 -12  -2   65.67    8.89
  -9 -12   2   57.03    8.90
  -9 -12   2   70.20    9.48
   8 -12  -2   73.19   10.22
   8  12  -2   92.85   14.28
   8 -12  -2   77.51    9.45
  -8 -12   2   87.17   10.50
  -8  12   2  107.77   18.37
  -8 -12   2   75.22    9.99
   7  12  -2  129.58   16.34
   7  12  -2  110.77    9.61
   7 -12  -2   97.92   11.50
   7 -12  -2  110.47   10.95
  -7 -12   2   97.37   11.01
  -7 -12   2  103.86   11.28
  -7  12   2  134.30   20.35
  -6  12   2  109.95   10.02
   6  12  -2  117.11   15.38
   6 -12  -2  114.70   11.41
  -6 -12   2  119.21   11.94
   6  12  -2  112.14   10.83
   6 -12  -2  110.87   12.27
  -6 -12   2  106.26   11.52
  -6  12   2  137.46   20.01
  -5  12   2    5.09    3.09
   5  12  -2    3.71    3.43
   5 -12  -2    1.13    2.13
   5  12  -2    1.86    2.09
   5 -12  -2    1.98    3.16
  -5 -12   2    3.74    2.89
  -5  12   2   -4.41    2.88
   5  12  -2    1.91    1.84
  -5 -12   2   -0.83    1.80
  -5 -12   2    2.03    2.04
  -4  12   2  831.67   36.96
   4  12  -2 1084.46   45.29
   4 -12  -2  924.47   34.79
   4 -12  -2  915.42   27.01
  -4 -12   2  914.80   33.68
  -4 -12   2  968.34   35.85
  -4  12   2 1063.09   53.78
   4  12  -2  999.36   37.89
  -4 -12   2  888.69   36.54
   4 -12  -2  935.51   36.93
  -3  12   2   16.78    4.42
   3  12  -2   21.08    6.20
   3 -12  -2   24.47    4.68
  -3  12   2   20.78    7.19
   3  12  -2   23.80    5.89
   3 -12  -2   16.74    4.27
  -3 -12   2   28.47    5.46
   2 -12  -2  926.33   34.69
  -2  12   2  726.69   39.22
   2  12  -2 1019.24   41.35
   2 -12  -2 1005.77   34.55
   2 -12  -2  919.31   35.50
  -2 -12   2  775.31   38.44
  -2 -12   2  950.11   32.41
  -2  12   2  997.04   49.05
   2  12  -2  936.30   39.22
   2 -12  -2 1033.45   38.06
  -1 -12   2   16.24    4.36
  -1  12   2   16.45    5.64
   1  12  -2   21.78    5.58
   1 -12  -2   14.10    5.00
   1 -12  -2    0.61    2.34
  -1 -12   2    6.47    3.18
   1 -12  -2   11.17    3.99
  -1  12   2   11.87    4.43
  -1 -12   2   14.52    3.51
   1  12  -2    7.05    3.94
   0 -12  -2  371.07   21.79
   0  12   2  313.42   26.48
   0  12  -2  348.99   22.13
   0 -12   2  335.73   19.65
   0  12   2  345.83   26.09
   0  12  -2  378.88   21.04
   0 -12  -2  341.91   20.87
   0  12  -2  329.18   23.25
   0 -12   2  311.46   17.12
  -1  12  -2   45.91    6.74
   1  12   2   42.44    8.88
   1  12   2   39.14    9.46
  -1  12  -2   42.45    7.12
   1 -12   2   38.28    6.69
  -1 -12  -2   37.56    6.83
   1 -12   2   37.51    5.33
  -1 -12  -2   45.23    7.49
  -1  12  -2   35.51    8.03
   2  12   2  221.10   22.53
  -2  12  -2  225.22   16.61
   2 -12   2  256.47   16.66
   2  12   2  222.49   19.23
  -2 -12  -2  254.29   18.04
  -2  12  -2  210.38   18.95
   2 -12   2  244.57   13.49
  -2 -12  -2  244.39   18.01
  -2  12  -2  263.70   16.11
   2 -12   2  241.03   15.26
   2 -12   2  199.81   14.83
   3  12   2  388.93   29.78
   3 -12   2  409.83   21.63
  -3 -12  -2  384.34   22.64
   3 -12   2  387.75   16.92
  -3 -12  -2  425.85   24.51
   3 -12   2  327.61   16.69
   3 -12   2  425.34   19.74
  -3  12  -2  384.17   21.31
  -3  12  -2  355.32   25.26
  -3  12  -2  427.92   20.08
   4  12   2  524.39   34.99
  -4  12  -2  464.61   23.00
  -4  12  -2  398.89   27.66
   4 -12   2  422.99   13.49
   4 -12   2  465.45   19.80
   4 -12   2  468.55   12.42
  -4 -12  -2  488.27   26.99
  -4  12  -2  488.18   20.77
  -4 -12  -2  477.07   25.52
   4 -12   2  460.09   23.07
  -5  12  -2  218.32   15.12
  -5 -12  -2  231.11   17.55
   5 -12   2  224.80   12.68
  -5 -12  -2  216.62   18.33
  -5  12  -2  202.94   19.64
   5 -12   2  236.86   16.24
   5  12   2  198.56   21.55
  -6  12  -2  319.77   18.24
  -6 -12  -2  308.17   20.63
  -6 -12  -2  327.07   22.81
   6 -12   2  319.74   14.49
  -6  12  -2  291.67   24.57
   6 -12   2  289.78   18.22
   6  12   2  331.53   27.98
  -7  12  -2  143.24   12.04
  -7  12  -2  156.97   18.24
  -7 -12  -2  160.51   16.24
   7 -12   2  152.66   13.09
   7  12   2  143.56   18.60
   8  12   2    7.64    5.60
  -8  12  -2    6.10    2.76
   8 -12   2    7.33    3.04
  -8 -12  -2    8.49    3.56
  -8  12  -2   11.58    4.40
  -9 -12  -2  220.63   20.32
  -9  12  -2  182.24   20.82
   9 -12   2  189.89   15.11
   9  12   2  226.30   23.26
  10 -12   2   19.96    5.52
  10  12   2   12.40    6.96
 -10 -12  -2   14.44    5.55
 -10  12  -2   10.83    5.59
  11 -12   2  221.43   16.77
 -11  13   2  454.12   38.54
  10  13  -2  126.03   17.76
 -10  13   2   81.81   16.57
 -10 -13   2   97.62   11.74
   9  13  -2  332.84   28.20
  -9 -13   2  238.42   18.57
   9 -13  -2  244.11   19.59
  -9 -13   2  274.69   20.36
  -9  13   2  341.75   32.98
  -8 -13   2  101.96   12.02
   8  13  -2  128.90   17.50
   8 -13  -2  115.38   11.71
   8 -13  -2  108.46   12.96
  -8 -13   2  117.19   12.70
  -8  13   2  146.20   22.25
  -7 -13   2    4.84    3.25
   7 -13  -2    5.05    3.84
   7 -13  -2    5.09    3.02
  -7  13   2   10.56    7.43
   7  13  -2    7.99    5.02
  -7 -13   2    1.73    2.72
  -6  13   2    4.41    2.55
   6  13  -2    9.99    5.48
   6  13  -2    6.84    3.13
  -6 -13   2    8.71    3.58
   6 -13  -2    8.29    4.65
   6 -13  -2    6.56    3.56
  -6  13   2   15.99    8.44
  -6 -13   2    1.40    2.76
  -5  13   2  161.73   14.73
   5 -13  -2  153.38   13.68
   5  13  -2  186.58   19.52
  -5 -13   2  174.90   14.92
  -5  13   2  184.63   23.03
   5  13  -2  167.09   14.79
  -5 -13   2  163.96   14.15
   5 -13  -2  160.21   15.26
  -4  13   2  106.85   13.27
   4  13  -2  137.06   16.42
  -4 -13   2  108.18   11.03
   4 -13  -2  124.73   12.54
  -4  13   2  138.43   19.32
   4  13  -2  120.45   13.25
   4 -13  -2  125.57   13.61
  -3  13   2  946.30   43.71
   3  13  -2 1080.03   45.68
   3 -13  -2  870.83   31.65
  -3 -13   2  958.22   34.83
  -3  13   2  994.73   51.38
   3  13  -2  983.71   40.34
   3 -13  -2  952.91   38.88
   2 -13  -2    9.53    4.75
  -2  13   2    1.48    4.23
   2  13  -2   -1.21    3.23
   2 -13  -2    3.04    3.08
   2 -13  -2    2.94    3.43
  -2  13   2   -0.06    3.40
   2  13  -2    2.66    3.76
  -2 -13   2    3.26    2.25
  -1  13   2  328.49   27.07
   1  13  -2  375.26   24.71
  -1 -13   2  310.31   19.72
   1 -13  -2  349.14   21.74
  -1 -13   2  343.01   18.42
  -1  13   2  381.64   29.15
  -1 -13   2  293.51   22.83
   1  13  -2  306.31   23.01
   1 -13  -2  358.76   22.58
   0 -13  -2   74.24   10.10
   0  13   2   66.01   12.08
   0 -13   2   71.12    9.26
   0  13  -2   55.87    9.10
   0 -13  -2   62.07    9.11
   0 -13   2   57.05    9.67
   0  13   2   79.49   13.15
   0  13  -2   82.24   11.56
   0 -13   2   69.49    7.76
  -1  13  -2    3.57    2.51
   1 -13   2    2.83    2.26
   1  13   2    9.81    6.69
  -1  13  -2    7.75    4.13
  -1 -13  -2    3.49    2.42
   1 -13   2   11.15    3.38
  -1 -13  -2    9.72    3.94
   1  13   2    1.67    3.12
  -1  13  -2    7.49    3.54
  -2 -13  -2   75.98    9.99
   2 -13   2   84.25   10.07
  -2  13  -2   86.71    9.62
   2  13   2   82.34   14.34
  -2 -13  -2  108.93   12.10
  -2  13  -2   83.90   10.44
   2 -13   2   86.89    9.41
   2 -13   2   82.22    8.10
   2 -13   2   61.04    8.51
   2  13   2   67.81   11.00
  -2  13  -2   64.63   10.66
  -3 -13  -2   93.15   11.48
   3  13   2   99.21   15.72
  -3  13  -2   67.60    9.43
   3 -13   2   83.65    7.93
  -3 -13  -2   78.28   10.64
   3 -13   2   77.29    9.76
  -3  13  -2   93.29    9.28
   3 -13   2   85.24    9.12
  -3  13  -2   78.47   12.08
   4  13   2  377.24   30.67
  -4  13  -2  365.96   21.38
  -4 -13  -2  388.10   23.76
  -4 -13  -2  427.23   25.62
  -4  13  -2  344.78   26.25
   4 -13   2  380.40   18.55
   4 -13   2  364.56   21.47
   5  13   2  516.20   36.53
  -5  13  -2  501.33   25.00
  -5 -13  -2  497.57   28.80
   5 -13   2  499.70   25.38
   5 -13   2  521.95   21.01
  -5  13  -2  486.99   32.12
  -5 -13  -2  542.05   28.70
  -6  13  -2  117.03   11.66
  -6 -13  -2  115.60   13.11
  -6  13  -2   99.04   14.54
  -6 -13  -2  137.93   15.12
   6 -13   2  110.30    8.64
   6  13   2  105.24   16.43
   6 -13   2  100.50   11.35
  -7  13  -2  139.19   12.74
  -7 -13  -2  166.13   15.83
  -7 -13  -2  140.78   15.72
   7 -13   2  129.07   12.76
  -7  13  -2  117.18   16.33
   7  13   2  145.94   19.19
   8 -13   2   11.18    4.21
   8  13   2   10.30    4.27
  -8  13  -2   18.03    4.56
  -8 -13  -2   21.38    7.08
  -8  13  -2   21.08    7.16
   9  13   2    5.94    5.10
   9 -13   2    8.94    3.40
  -9 -13  -2    0.51    4.00
  -9  13  -2   10.60    5.40
  10 -13   2   69.03    9.58
   9  14  -2   51.23   12.01
  -9  14   2   59.69   14.13
  -9 -14   2   39.25    7.95
   8  14  -2   37.86    9.92
   8 -14  -2   31.00    7.28
  -8  14   2   52.75   13.97
  -8 -14   2   28.02    6.71
  -8 -14   2   30.14    6.94
   7  14  -2    4.79    6.38
   7 -14  -2   -2.23    3.57
   7 -14  -2   -1.31    2.46
  -7  14   2   12.47    7.74
  -7 -14   2    7.16    3.59
  -7 -14   2    5.25    3.16
   6 -14  -2   39.75    8.35
   6  14  -2   45.08   10.04
   6 -14  -2   46.94    7.97
   6  14  -2   38.75    7.22
  -6  14   2   51.39   12.68
  -6 -14   2   29.37    6.46
  -5 -14   2    6.98    3.84
  -5  14   2    7.67    5.55
  -5  14   2    2.95    2.24
   5 -14  -2   -4.14    5.16
   5  14  -2    9.78    5.67
   5 -14  -2    8.36    4.12
   5  14  -2    4.54    3.59
  -4  14   2  142.00   15.52
   4  14  -2  152.56   17.94
   4  14  -2  153.14   15.02
  -4 -14   2  121.63   12.37
   4 -14  -2  136.28   13.67
  -4  14   2  137.86   19.79
   4 -14  -2  134.11   14.60
  -3  14   2   -1.53    4.07
   3  14  -2    9.63    5.93
   3 -14  -2   -0.19    2.64
  -3  14   2   -6.51    5.97
   3  14  -2   11.02    5.16
  -3 -14   2    2.80    3.40
  -2  14   2  428.16   30.59
   2  14  -2  444.74   28.77
  -2 -14   2  388.11   23.19
  -2 -14   2  403.24   21.70
  -2  14   2  456.47   33.53
   2  14  -2  411.66   26.83
   2 -14  -2  412.72   25.51
  -1  14   2   11.57    5.99
   1 -14  -2   11.98    5.36
  -1  14   2   15.01    6.90
   1  14  -2    7.25    4.80
  -1 -14   2   15.29    5.10
   1 -14  -2    9.24    4.45
  -1 -14   2   15.24    4.03
   1  14  -2    7.52    4.54
   0  14   2    7.37    5.62
   0  14  -2    3.41    3.29
   0 -14   2    4.58    2.11
   0 -14  -2    5.21    3.48
   0 -14  -2    4.45    2.54
   0  14   2    4.63    3.41
   0 -14   2   10.66    4.30
   0  14  -2    2.76    3.17
  -1 -14  -2    5.26    4.29
   1  14   2   10.98    6.94
   1 -14   2    9.07    3.00
  -1  14  -2   -0.20    3.28
  -1 -14  -2   -0.11    3.34
   1 -14   2    0.08    1.70
   1  14   2    3.19    3.55
  -1  14  -2    4.73    3.85
   2  14   2    4.25    5.76
  -2  14  -2  -10.19    5.41
   2 -14   2   -0.40    2.18
  -2 -14  -2    1.44    2.72
   2 -14   2    0.76    2.03
  -2 -14  -2    0.90    2.33
   2 -14   2    2.69    3.18
   2  14   2   -1.62    3.03
  -2  14  -2   -0.42    3.25
   3  14   2   29.45    9.59
  -3  14  -2   17.73    4.89
  -3 -14  -2   26.11    6.41
   3 -14   2   20.29    4.75
   3 -14   2   21.85    5.83
   3 -14   2   21.22    4.38
  -3 -14  -2   24.78    6.99
  -3  14  -2   24.06    6.64
   4  14   2  270.22   26.73
  -4  14  -2  233.17   18.00
  -4 -14  -2  267.77   20.17
   4 -14   2  266.44   15.90
  -4 -14  -2  257.14   20.52
  -4  14  -2  230.23   22.29
   4 -14   2  248.35   18.19
   5  14   2  192.84   22.88
  -5  14  -2  170.79   15.01
  -5 -14  -2  190.42   17.26
  -5 -14  -2  164.36   16.89
  -5  14  -2  162.61   19.06
   5 -14   2  170.14   11.95
   5 -14   2  168.14   15.19
   6  14   2   24.87    8.36
  -6  14  -2   20.42    4.75
  -6  14  -2   12.01    5.28
   6 -14   2   17.56    5.52
  -6 -14  -2   16.79    5.21
  -6 -14  -2   21.57    7.04
   7  14   2    2.70    5.35
   7 -14   2    4.16    3.33
  -7  14  -2   -2.33    2.28
  -7 -14  -2    0.65    3.84
  -7  14  -2    4.51    3.33
  -7 -14  -2   -2.82    3.87
   8  14   2   -2.01    3.92
  -8 -14  -2    0.47    3.59
  -8 -14  -2    9.33    6.49
  -8  14  -2   10.15    6.66
   8 -14   2    1.28    2.51
   9 -14   2   -2.18    4.12
  -9 -14  -2    0.33    2.56
  10 -14   2   15.91    4.31
  -8 -15   2   40.90    8.29
   7 -15  -2    2.02    3.09
   7  15  -2    1.55    3.92
  -7  15   2    7.43    7.55
  -7 -15   2   -5.20    4.10
   6  15  -2    6.50    3.71
   6 -15  -2    0.75    3.56
   6 -15  -2    2.84    2.81
  -6  15   2    7.19    6.63
  -6 -15   2    2.53    3.32
  -5  15   2   60.20    9.68
   5  15  -2   88.56   14.27
  -5 -15   2   61.53    9.41
   5 -15  -2   63.39   10.42
   5 -15  -2   43.68    8.18
   5  15  -2   46.68    8.23
  -5  15   2   61.21   13.99
  -4  15   2  142.36   16.23
   4  15  -2  171.44   19.38
  -4 -15   2  139.10   13.40
   4 -15  -2  135.32   13.91
  -4  15   2  162.46   21.73
   4  15  -2  132.70   14.74
   4 -15  -2  167.22   16.86
  -3  15   2    3.09    4.37
   3  15  -2   -3.30    5.71
  -3  15   2    3.11    5.43
   3  15  -2    4.88    4.60
   3 -15  -2   -0.58    3.77
  -3 -15   2    5.82    2.92
  -3 -15   2    0.04    2.60
   2 -15  -2   17.45    6.42
  -2  15   2   27.82    8.70
  -2 -15   2   18.43    5.56
   2  15  -2   24.24    7.33
  -2  15   2   12.35    6.29
  -2 -15   2   16.82    4.57
   2  15  -2   30.82    7.86
  -1 -15   2   10.87    4.10
   1  15  -2   22.33    6.45
  -1  15   2   18.49    7.97
   1 -15  -2   29.05    7.09
   1  15  -2   28.04    7.57
   1 -15  -2   19.02    5.80
  -1 -15   2   26.84    5.52
   0  15   2   88.49   15.16
   0  15  -2   81.72   12.13
   0 -15  -2   90.91   11.63
   0  15   2   87.32   14.36
   0 -15   2   82.20   10.56
   0  15  -2   98.05   14.01
   0 -15   2   77.09    9.06
   0 -15  -2   96.81   12.89
   1 -15   2   73.63   10.34
   1 -15   2   73.16    8.70
   1  15   2   90.72   15.87
  -1  15  -2   59.28   10.19
   1  15   2   56.12   11.20
  -1 -15  -2   64.13    9.96
  -1 -15  -2   57.41    9.68
  -1  15  -2   67.81   11.74
   2  15   2   75.41   15.22
  -2  15  -2   72.87   11.06
   2 -15   2   89.71    9.32
   2  15   2   77.35   12.59
   2 -15   2   83.70   10.84
  -2 -15  -2   78.00   11.09
   2 -15   2   82.04   10.15
  -2 -15  -2   69.16   10.56
  -2  15  -2   79.35   13.06
  -3 -15  -2   74.02   10.88
   3  15   2   93.00   16.66
  -3  15  -2   68.25   10.31
   3 -15   2   79.48   11.13
   3 -15   2   89.66   10.19
  -3 -15  -2   71.91   10.73
  -3  15  -2   68.94   12.66
   4 -15   2   13.91    5.39
   4  15   2   31.76   10.81
  -4  15  -2    3.62    3.08
  -4 -15  -2   20.69    7.24
   4 -15   2    9.82    3.62
  -4 -15  -2   20.24    5.56
  -4  15  -2    0.54    4.22
   5  15   2    2.50    5.14
  -5  15  -2   -1.39    3.81
  -5 -15  -2    4.50    3.90
  -5 -15  -2    2.19    3.87
  -5  15  -2    0.47    3.72
   5 -15   2   -0.91    2.66
   6  15   2    2.83    4.61
  -6 -15  -2    5.10    4.01
  -6  15  -2   -0.48    3.91
   6 -15   2    7.02    4.67
  -6 -15  -2    0.54    3.83
  -6  15  -2    1.48    4.28
  -7  15  -2  145.20   14.15
  -7 -15  -2  181.85   17.77
   7 -15   2  163.15   15.54
   8 -15   2   14.35    5.56
  -8 -15  -2   31.50    7.83
   9 -15   2    8.10    4.07
  -6 -16   2   27.40    6.58
   5  16  -2    2.00    3.52
   5 -16  -2    7.58    4.85
   5  16  -2    3.75    2.86
  -5  16   2   21.61   10.77
  -5 -16   2    7.84    4.01
   5 -16  -2   16.51    5.48
  -4  16   2  145.64   16.68
   4  16  -2  169.42   19.86
   4 -16  -2  136.48   14.28
  -4 -16   2  149.25   15.11
   4  16  -2  153.05   16.43
   4 -16  -2  155.94   16.90
  -4  16   2  161.41   21.58
  -4 -16   2  151.88   15.66
  -3  16   2   23.12    8.10
  -3 -16   2   16.12    5.72
   3  16  -2   19.57    7.51
  -3  16   2   17.73    7.37
   3 -16  -2   15.85    5.92
   3  16  -2    6.32    4.48
  -3 -16   2    8.74    3.47
  -2  16   2  282.46   25.37
   2  16  -2  236.01   22.78
  -2 -16   2  202.39   17.61
  -2 -16   2  209.63   16.63
  -2  16   2  238.19   25.34
   2  16  -2  217.48   20.58
   2 -16  -2  212.04   19.30
   1 -16  -2   14.62    6.01
  -1  16   2   26.01    9.53
   1  16  -2   20.70    6.92
   1 -16  -2    8.59    4.36
  -1 -16   2   11.51    4.64
  -1  16   2   19.58    7.73
   1  16  -2   13.98    5.97
  -1 -16   2   12.27    4.10
   0  16  -2   97.72   14.97
   0  16   2  113.49   17.94
   0  16  -2   82.33   12.67
   0 -16  -2  105.14   13.61
   0 -16   2   69.58   10.23
   0 -16   2   86.72   10.06
   0 -16  -2   83.46   11.69
   0  16   2   88.07   14.81
  -1 -16  -2    5.89    2.92
   1  16   2   16.84    9.17
  -1  16  -2    5.70    3.63
   1  16   2    6.71    3.40
   1 -16   2    8.45    3.61
  -1 -16  -2    7.12    4.73
  -1  16  -2   18.21    6.75
   1 -16   2    7.28    3.44
   2 -16   2   10.99    4.90
  -2  16  -2   14.06    4.97
  -2 -16  -2    9.13    4.14
   2  16   2    7.32    4.91
   2 -16   2   13.84    4.75
   2 -16   2    9.49    3.36
  -2 -16  -2   14.06    5.54
  -2  16  -2    9.30    5.62
   3  16   2  170.00   21.97
  -3  16  -2  133.85   15.29
  -3 -16  -2  123.37   14.76
  -3 -16  -2  131.90   15.34
   3 -16   2  136.97   12.77
  -3  16  -2  135.41   18.22
   3 -16   2  141.24   14.74
   4 -16   2   81.94   12.17
   4  16   2   72.75   14.87
  -4 -16  -2   70.50   11.42
  -4  16  -2   64.47   10.18
  -4 -16  -2   70.07   11.63
  -4  16  -2   41.92    9.93
   5  16   2   82.80   16.26
  -5  16  -2   60.79    9.63
  -5 -16  -2   77.81   12.19
  -5 -16  -2   91.04   13.42
  -5  16  -2   67.17   12.55
   5 -16   2   66.94   10.48
  -6  16  -2  139.04   14.73
  -6 -16  -2  145.96   16.55
   6 -16   2  133.78   14.87
   7 -16   2   18.75    5.95
  -5 -17   2  110.58   13.46
   4 -17  -2   44.45    8.53
   4  17  -2   46.34    9.15
  -4 -17   2   34.72    7.17
  -3  17   2  534.93   34.35
   3  17  -2  597.38   38.18
  -3 -17   2  485.72   27.27
   3  17  -2  500.41   31.61
  -2  17   2   25.47    8.74
   2  17  -2    6.37    4.49
  -2 -17   2   10.37    4.28
  -2  17   2    4.95    4.47
   2  17  -2   10.34    5.68
   2 -17  -2   16.20    6.80
  -2 -17   2    9.92    4.97
  -1  17   2  225.24   23.81
   1  17  -2  224.55   22.14
  -1 -17   2  197.34   18.03
   1 -17  -2  218.31   19.68
  -1 -17   2  199.54   15.99
  -1  17   2  242.13   25.50
   1  17  -2  218.48   21.73
   1 -17  -2  212.63   19.89
   0 -17   2   67.07   10.55
   0  17   2   59.82   13.28
   0  17  -2   67.16   11.22
   0 -17  -2   45.05    9.11
   0 -17   2   66.45    9.10
   0 -17  -2   64.01   11.09
   0  17   2   61.52   13.23
   0  17  -2   68.69   12.88
   1  17   2   67.29   14.72
  -1  17  -2   64.14   11.79
   1 -17   2   39.81    7.58
  -1 -17  -2   36.89    7.89
   1 -17   2   37.97    6.82
   1 -17   2   46.99    9.02
   1  17   2   36.29   10.11
  -1  17  -2   35.39    9.88
  -1 -17  -2   46.19    9.62
  -2  17  -2    4.71    3.20
   2 -17   2    1.34    3.06
  -2 -17  -2    7.85    4.88
   2  17   2    1.21    3.97
  -2 -17  -2    1.97    3.19
   2  17   2   12.88    9.28
   2 -17   2   -0.41    3.34
  -2  17  -2   10.56    5.61
   3  17   2  488.98   37.90
  -3  17  -2  402.74   27.54
  -3 -17  -2  377.61   26.74
   3 -17   2  374.75   22.29
   3 -17   2  432.02   26.87
  -3  17  -2  394.77   31.49
   4 -17   2   88.91   12.25
  -4  17  -2  124.27   15.02
  -5  17  -2  220.81   19.83
   5 -17   2  235.92   19.87
  -4 -18   2  179.80   17.85
  -3 -18   2   13.76    5.72
   3  18  -2   15.89    6.70
  -2 -18   2  374.12   23.71
   2  18  -2  416.54   30.32
  -1  18   2  104.94   16.97
  -1 -18   2   82.12   10.93
   1  18  -2   73.13   12.69
   0  18   2   28.97   10.63
   0 -18   2   27.58    6.32
   0  18  -2   23.72    8.16
   1  18   2   45.87   11.99
  -1  18  -2   25.14    7.34
   1 -18   2   29.10    6.91
  -2  18  -2  123.47   15.81
  -3  18  -2   30.97    8.11
  -4  18  -2  409.96   28.43
  -1  19   2  136.90   19.35
 -14   0   3   -5.71    4.13
 -14   0   3   -0.22    2.34
  14   0  -3    5.47    4.54
 -13   0   3   -2.16    2.84
 -13   0   3    3.40    2.71
  13   0  -3   -7.38    4.45
 -12   0   3    1.02    2.86
 -12   0   3    1.03    1.85
  12   0  -3    5.94    4.66
  11   0  -3    0.93    0.84
 -11   0   3   -2.60    2.97
 -11   0   3    3.84    3.39
  11   0  -3    0.61    2.65
  10   0  -3    0.80    0.92
 -10   0   3    0.87    1.74
  10   0  -3   -1.16    2.94
  10   0  -3    0.97    0.79
  -9   0   3   -0.16    1.82
   9   0  -3   -1.29    1.28
   9   0  -3   -1.16    1.11
   9   0  -3    0.16    1.70
   8   0  -3   -1.52    2.13
  -8   0   3   -0.35    1.55
   8   0  -3   -0.30    0.86
  -8   0   3    0.23    0.32
   8   0  -3   -0.94    2.11
   8   0  -3    1.01    1.34
  -7   0   3   -0.26    1.09
   7   0  -3    1.78    1.17
   7   0  -3    0.12    0.94
  -7   0   3   -0.99    1.54
   7   0  -3    1.26    2.51
  -7   0   3    2.15    1.40
   7   0  -3    1.66    1.42
  -7   0   3    0.26    0.58
   7   0  -3    0.50    1.29
  -7   0   3   -0.55    1.24
  -6   0   3    0.28    1.15
   6   0  -3    0.43    1.16
  -6   0   3    1.06    1.15
  -6   0   3    0.35    0.61
   6   0  -3   -1.45    1.49
  -6   0   3    1.73    1.39
   6   0  -3    2.02    1.26
   6   0  -3   -0.05    1.22
  -5   0   3    1.27    1.38
   5   0  -3    0.12    1.33
  -5   0   3   -0.46    0.93
   5   0  -3    0.54    1.38
   5   0  -3   -0.16    0.79
  -5   0   3    0.29    0.59
   5   0  -3   -0.26    0.87
  -4   0   3   -0.34    1.09
   4   0  -3   -0.43    0.63
  -4   0   3   -0.43    1.13
   4   0  -3    1.03    1.05
   4   0  -3    0.91    0.82
   4   0  -3    0.78    0.88
   4   0  -3   -1.61    1.93
  -4   0   3   -0.57    0.89
  -4   0   3    0.08    0.59
  -3   0   3    1.02    1.04
   3   0  -3    0.96    0.96
   3   0  -3    0.21    0.73
  -3   0   3    1.91    0.90
   3   0  -3    3.01    1.48
  -3   0   3    3.21    1.44
   3   0  -3   -0.07    0.99
  -3   0   3    0.07    0.78
  -2   0   3    0.10    0.68
   2   0  -3    0.94    0.73
   2   0  -3    0.08    0.82
  -2   0   3   -1.40    1.02
  -2   0   3   -0.19    0.82
   2   0  -3    2.27    1.20
   2   0  -3   -0.54    1.08
  -2   0   3    0.15    0.90
  -2   0   3   -0.39    0.72
   2   0  -3   -0.70    0.75
   1   0  -3    0.46    0.63
  -1   0   3    1.40    1.12
  -1   0   3    1.62    0.91
  -1   0   3   -0.10    0.74
   1   0  -3   -0.18    0.68
   1   0  -3    1.25    0.76
  -1   0   3   -0.29    1.05
   1   0  -3    0.45    0.95
  -1   0   3   -0.42    0.68
   1   0  -3    0.88    0.92
   0   0   3    0.52    0.51
   0   0  -3    0.49    0.71
   0   0   3    1.53    0.83
   0   0  -3    0.46    0.44
   0   0   3   -0.13    0.94
   0   0  -3    0.76    0.52
   0   0  -3   -0.77    0.80
   0   0   3    1.02    1.01
   0   0  -3    0.00    0.99
   0   0  -3    0.78    0.89
   1   0   3    0.18    0.53
   1   0   3    0.51    0.35
  -1   0  -3    0.06    0.33
  -1   0  -3    0.06    0.74
   1   0   3    0.39    1.03
   1   0   3    0.42    0.69
  -2   0  -3    0.35    0.33
  -2   0  -3    0.26    0.72
   2   0   3   -0.19    0.59
  -3   0  -3   -0.41    1.12
   3   0   3   -0.13    1.02
  -3   0  -3    0.58    0.81
   3   0   3   -0.67    0.69
   4   0   3    0.82    0.81
  -4   0  -3    0.06    0.98
  -4   0  -3    0.41    0.95
  -4   0  -3    1.93    1.56
  -4   0  -3    1.99    1.63
   4   0   3    0.56    0.94
  -5   0  -3    0.15    1.23
  -5   0  -3    0.54    0.31
   5   0   3   -0.16    0.65
   5   0   3    0.95    1.36
  -5   0  -3    1.42    0.40
  -5   0  -3    0.62    1.50
  -5   0  -3    1.85    1.48
  -5   0  -3    3.65    1.64
  -6   0  -3   -0.46    1.10
  -6   0  -3    0.68    1.18
  -6   0  -3    0.20    0.53
   6   0   3    1.46    1.18
   6   0   3    1.53    1.85
  -6   0  -3    0.65    1.32
  -6   0  -3    0.05    1.45
  -6   0  -3   -0.01    0.59
  -7   0  -3    0.30    1.36
  -7   0  -3   -0.69    0.54
   7   0   3    1.28    1.75
  -7   0  -3   -1.83    2.29
  -7   0  -3   -0.24    0.73
  -7   0  -3   -1.39    1.77
  -7   0  -3   -1.91    2.41
  -8   0  -3    0.51    0.83
  -8   0  -3    0.39    1.18
  -8   0  -3    0.68    1.22
   8   0   3    1.82    1.85
  -8   0  -3   -1.69    2.09
  -8   0  -3    0.03    0.81
  -8   0  -3   -0.37    2.45
  -8   0  -3    2.97    2.15
  -9   0  -3    0.79    1.00
  -9   0  -3    0.14    1.05
   9   0   3    1.56    2.36
  -9   0  -3    0.77    1.45
  -9   0  -3    0.70    1.41
  -9   0  -3    0.66    1.82
  -9   0  -3    1.26    2.33
 -10   0  -3    2.55    2.40
 -10   0  -3    0.05    0.95
 -10   0  -3    0.29    0.87
  10   0   3    1.96    2.24
 -10   0  -3   -0.74    1.46
 -10   0  -3    2.40    1.90
 -10   0  -3   -0.37    2.48
 -11   0  -3   -0.61    1.47
 -11   0  -3    2.81    2.23
 -11   0  -3    1.16    1.68
 -11   0  -3    0.70    2.62
 -12   0  -3    1.20    1.86
 -12   0  -3   -2.47    2.59
 -13   0  -3   -0.72    2.25
 -13   0  -3    1.77    2.95
  15  -1  -3    1.41    5.51
 -14  -1   3   76.81    9.84
 -14   1   3   73.79    9.83
 -14  -1   3   79.74   10.42
 -14   1   3   96.29   11.43
  14   1  -3   87.44   13.51
  14  -1  -3   96.25   13.86
 -13  -1   3   -1.29    2.39
 -13   1   3    3.64    2.84
 -13  -1   3    3.53    3.33
 -13   1   3    6.08    3.17
  13  -1  -3    1.22    2.93
  13   1  -3    0.79    3.11
 -12  -1   3    5.45    2.41
 -12   1   3   17.13    4.59
 -12  -1   3   16.03    4.86
 -12   1   3   11.25    2.54
  12   1  -3    7.07    3.56
  12  -1  -3   11.99    4.56
  11  -1  -3  169.70   13.27
 -11   1   3  177.83    9.67
  11   1  -3  176.40   15.95
  11  -1  -3  193.46   16.31
 -11  -1   3  176.66   13.22
 -11  -1   3  187.88   13.07
 -11   1   3  174.15   12.78
  11   1  -3  181.74    9.30
  10   1  -3  182.97    9.80
 -10   1   3  168.02    9.25
  10  -1  -3  196.76   13.66
 -10   1   3  191.25    5.92
  10   1  -3  191.82   15.75
  10  -1  -3  190.55   15.16
 -10  -1   3  191.23   13.15
  10  -1  -3  195.24    8.72
 -10  -1   3  204.18   13.19
 -10   1   3  186.37   12.49
   9   1  -3   38.10    4.68
  -9  -1   3   37.66    5.34
  -9   1   3   38.47    5.49
  -9   1   3   40.68    4.30
  -9   1   3   43.16    3.11
   9   1  -3   45.82    7.27
   9  -1  -3   51.93    7.57
   9  -1  -3   40.26    4.55
   9  -1  -3   35.93    5.53
   9  -1  -3   41.64    2.39
   8  -1  -3  184.93    6.62
   8   1  -3  193.63   10.90
  -8   1   3  185.43    7.36
   8   1  -3  202.22   14.39
  -8   1   3  172.97    8.80
   8  -1  -3  176.65   13.20
   8  -1  -3  182.90   11.24
   8   1  -3  189.07    6.57
  -8  -1   3  184.91   11.52
  -8   1   3  194.84   11.52
   8  -1  -3  199.86   12.32
  -7   1   3   41.78    5.13
   7  -1  -3   39.41    3.42
  -7  -1   3   40.42    5.04
  -7   1   3   39.28    4.89
   7   1  -3   36.43    4.82
   7   1  -3   34.46    4.50
  -7   1   3   39.78    3.34
  -7   1   3   41.14    4.02
   7   1  -3   44.32    6.43
   7  -1  -3   39.68    5.98
  -7  -1   3   42.43    6.17
  -7   1   3   42.48    5.93
   7   1  -3   33.33    3.72
  -7  -1   3   41.17    5.08
   7  -1  -3   41.50    5.11
   7  -1  -3   39.76    5.64
  -6  -1   3    4.07    1.35
  -6   1   3    4.88    1.87
   6  -1  -3    7.35    1.65
   6   1  -3    3.52    1.59
  -6   1   3    6.84    1.63
  -6  -1   3    7.90    1.17
  -6   1   3   10.64    1.90
   6  -1  -3    9.36    2.49
   6  -1  -3    7.39    2.92
  -6   1   3    8.76    2.89
   6   1  -3    4.39    2.44
  -6  -1   3    6.17    2.04
   6   1  -3    9.05    2.27
   6  -1  -3    7.24    2.60
  -6   1   3    5.90    2.03
  -5  -1   3    4.68    1.71
  -5   1   3    6.93    1.80
  -5  -1   3    4.78    1.31
   5   1  -3    7.90    2.59
   5  -1  -3    4.32    1.61
  -5   1   3    4.40    1.24
   5  -1  -3    9.16    2.77
  -5  -1   3    6.49    1.22
   5  -1  -3    6.50    2.07
  -5   1   3    6.46    1.85
   5   1  -3    4.35    1.34
   5   1  -3    5.53    1.57
   5  -1  -3    4.30    1.78
  -4   1   3  461.35   14.16
  -4  -1   3  458.45   12.66
   4   1  -3  449.65   13.20
   4  -1  -3  477.10   15.86
  -4  -1   3  455.28   15.64
  -4   1   3  472.04   13.84
   4  -1  -3  455.00   15.71
   4   1  -3  480.78   18.05
   4  -1  -3  462.30   18.04
   4  -1  -3  455.37   16.55
  -4  -1   3  476.85   15.62
  -4   1   3  447.83   14.92
   4  -1  -3  468.25   14.69
  -3   1   3   28.82    3.19
  -3  -1   3   29.26    3.32
   3   1  -3   25.86    3.76
   3  -1  -3   32.73    3.33
   3  -1  -3   28.33    3.44
  -3   1   3   26.64    2.90
   3   1  -3   29.63    2.95
  -3  -1   3   27.05    3.15
  -3  -1   3   30.53    3.58
   3  -1  -3   26.61    3.22
  -3   1   3   29.27    3.33
   3  -1  -3   31.93    4.35
   3  -1  -3   32.11    4.00
  -3  -1   3   28.51    2.86
   3   1  -3   30.28    3.23
   3  -1  -3   32.39    3.16
  -3   1   3   31.00    3.32
   2  -1  -3  642.49   17.14
  -2   1   3  626.12   17.98
  -2  -1   3  633.81   17.09
   2   1  -3  614.37   17.13
   2  -1  -3  640.95   18.52
   2  -1  -3  628.84   19.96
  -2   1   3  599.01   16.30
   2  -1  -3  660.56   16.94
   2   1  -3  636.96   19.33
  -2  -1   3  619.26   16.43
  -2  -1   3  638.42   20.01
  -2  -1   3  647.01   18.21
  -2   1   3  641.19   16.75
  -2  -1   3  599.43   16.68
   2   1  -3  612.26   16.44
  -2   1   3  625.98   16.18
   2  -1  -3  652.12   15.92
   2  -1  -3  643.07   16.76
  -1  -1   3   42.72    4.33
   1   1  -3   43.65    4.11
  -1  -1   3   47.34    4.25
   1   1  -3   41.75    3.98
  -1   1   3   42.44    3.17
   1  -1  -3   42.48    4.23
  -1  -1   3   43.18    3.26
   1  -1  -3   44.02    3.30
   1  -1  -3   49.11    4.91
  -1   1   3   49.34    3.55
   1  -1  -3   48.39    4.02
  -1   1   3   40.34    3.59
   1   1  -3   43.81    4.14
  -1  -1   3   42.75    3.50
   1   1  -3   45.86    3.44
  -1   1   3   46.98    4.36
   1  -1  -3   44.35    3.10
   1  -1  -3   38.85    3.71
  -1  -1   3   42.56    4.04
   0  -1   3   27.84    2.23
   0   1   3   22.37    2.81
   0  -1   3   27.25    3.39
   0   1   3   26.42    3.42
   0   1   3   25.79    3.08
   0  -1  -3   28.08    2.26
   0  -1  -3   21.76    2.74
   0   1  -3   23.56    3.18
   0   1  -3   22.92    2.96
   0  -1  -3   23.37    3.21
   0   1   3   27.77    2.38
   0  -1   3   27.46    2.66
   0   1  -3   26.42    3.14
   0   1  -3   25.75    2.35
   0   1   3   23.88    2.10
   0  -1  -3   29.90    3.70
   0  -1  -3   27.36    2.09
   0  -1  -3   25.55    3.15
   1   1   3    7.84    1.03
  -1   1  -3    7.94    1.21
   1   1   3    8.52    1.13
  -1  -1  -3    6.89    0.93
  -1   1  -3    5.78    1.50
  -1  -1  -3    7.89    1.79
   1  -1   3   11.62    2.41
   1   1   3    9.68    2.30
  -1   1  -3    7.97    1.59
   1  -1   3    8.20    0.99
   1  -1   3    7.66    1.38
   1   1   3    8.37    1.71
   1  -1   3    9.92    1.57
  -2   1  -3   80.12    3.80
  -2  -1  -3   80.95    2.65
  -2  -1  -3   75.29    5.68
   2  -1   3   80.17    6.42
  -2  -1  -3   76.80    5.05
   2  -1   3   82.96    4.29
   2   1   3   79.17    5.43
   2   1   3   85.28    6.65
  -2   1  -3   74.52    5.44
  -3   1  -3  481.09   15.74
   3  -1   3  482.75   11.69
   3  -1   3  467.55   17.28
  -3  -1  -3  471.59   14.75
  -3  -1  -3  463.22   16.09
   3   1   3  485.88   15.16
   3   1   3  501.55   17.64
  -3   1  -3  459.15   11.27
   3   1   3  491.42   17.57
  -4  -1  -3  141.66    9.33
  -4  -1  -3  156.27    4.69
  -4   1  -3  154.68    8.52
  -4   1  -3  152.46    9.76
  -4   1  -3  151.75    6.12
  -4  -1  -3  179.34    9.63
   4   1   3  154.62    7.92
  -4  -1  -3  164.13    8.89
   4   1   3  163.96    9.91
  -4   1  -3  162.02    6.33
   4  -1   3  157.48    5.75
   4   1   3  148.27    9.61
  -4   1  -3  162.58    9.71
  -5   1  -3  427.84   17.79
  -5   1  -3  423.81    9.46
  -5   1  -3  409.04   13.31
   5   1   3  453.66   17.99
  -5  -1  -3  462.56   17.21
  -5   1  -3  453.78   15.90
   5   1   3  446.32   17.47
  -5  -1  -3  429.41    9.62
   5   1   3  434.25   14.39
   5  -1   3  466.10   11.46
  -5  -1  -3  414.98   16.80
  -5  -1  -3  417.94   17.22
   5   1   3  444.65   17.93
  -5   1  -3  440.55   17.38
  -5  -1  -3  460.58   18.10
  -6  -1  -3  200.01    5.69
  -6  -1  -3  183.80   11.32
   6   1   3  196.31   11.86
  -6   1  -3  176.35   11.46
  -6  -1  -3  207.66   12.19
  -6  -1  -3  182.12   11.94
  -6   1  -3  190.66   10.31
   6  -1   3  202.81   11.35
  -6   1  -3  187.47    9.94
   6   1   3  187.57    9.14
  -6  -1  -3  190.92    6.45
  -6   1  -3  188.50    6.42
  -6   1  -3  190.43    6.46
  -6  -1  -3  209.49   11.48
   6   1   3  184.60   11.81
  -6   1  -3  184.60   11.22
   6   1   3  192.47   11.88
  -7  -1  -3    3.83    1.04
   7   1   3    3.46    1.62
  -7   1  -3    4.15    2.06
  -7  -1  -3    5.11    2.38
  -7   1  -3    3.32    0.86
   7   1   3    4.11    1.53
  -7   1  -3    3.92    1.13
  -7  -1  -3    5.54    2.35
  -7   1  -3    2.44    1.35
   7  -1   3    2.70    2.08
   7   1   3    4.47    2.70
  -7   1  -3    3.37    1.76
  -7   1  -3    2.89    1.38
  -7  -1  -3    0.76    1.57
   7   1   3    1.26    1.61
  -7  -1  -3    2.07    1.69
  -7   1  -3    4.79    1.96
  -7   1  -3    4.64    2.35
  -7  -1  -3    4.23    0.99
  -8   1  -3  100.63    9.36
  -8  -1  -3   96.41   10.04
   8  -1   3  110.79    9.50
  -8   1  -3  102.60    5.81
   8   1   3   86.56    9.05
  -8   1  -3   97.91    7.79
  -8  -1  -3   95.02    5.55
  -8  -1  -3   99.50    8.88
  -8   1  -3   97.88    7.64
  -8  -1  -3   96.10    8.46
  -8   1  -3   95.33    8.25
  -8  -1  -3  103.23    5.24
  -8   1  -3   98.78    5.42
   8   1   3   94.77    9.07
  -8   1  -3   97.56    9.01
   9   1   3   42.24    6.12
  -9   1  -3   38.33    5.08
   9  -1   3   35.45    5.75
  -9   1  -3   42.97    6.13
  -9  -1  -3   36.73    5.57
  -9  -1  -3   43.86    5.93
  -9  -1  -3   39.78    3.94
  -9  -1  -3   38.52    6.93
   9   1   3   39.83    6.25
  -9   1  -3   41.01    4.07
  -9  -1  -3   39.21    3.64
  -9   1  -3   43.03    5.73
  -9   1  -3   37.60    3.59
  -9  -1  -3   43.12    5.52
  -9   1  -3   28.22    5.61
 -10   1  -3   76.47    9.39
  10   1   3   86.90   10.29
 -10   1  -3   66.12    7.74
 -10  -1  -3   91.41   11.01
 -10   1  -3   69.18    7.15
 -10  -1  -3   77.10    5.91
 -10  -1  -3   70.04    7.89
 -10   1  -3   74.42    7.97
 -10   1  -3   70.63    5.86
 -10  -1  -3   94.47    8.56
 -10  -1  -3   75.04    5.48
 -10   1  -3   75.15    5.68
  10  -1   3   75.61    9.23
 -11   1  -3  218.81   14.74
 -11   1  -3  201.14   14.22
 -11  -1  -3  204.14    9.90
 -11  -1  -3  191.80   13.46
 -11  -1  -3  252.05   19.22
 -11   1  -3  205.92   16.32
  11  -1   3  206.92   16.76
 -11  -1  -3  216.42   13.75
 -11   1  -3  215.97   10.39
 -12  -1  -3   16.96    4.11
 -12   1  -3   12.79    3.97
 -12   1  -3   14.94    4.08
 -12  -1  -3   18.40    4.10
 -12  -1  -3   21.86    6.77
 -13   1  -3   99.94   10.54
 -13   1  -3   90.38   10.57
 -13  -1  -3   91.02    9.59
  15  -2  -3  239.55   22.68
 -14  -2   3   73.08    9.64
 -14   2   3   87.41   10.92
  14   2  -3   87.82   13.80
  14  -2  -3   97.04   13.52
 -14  -2   3  110.58   12.68
 -14   2   3   92.09   10.87
 -13  -2   3   67.60    8.98
 -13  -2   3   57.79    8.75
 -13   2   3   69.54    9.39
  13   2  -3   67.95   11.10
  13  -2  -3   72.69   11.20
 -13   2   3   75.69    9.52
 -12  -2   3   60.73    8.10
 -12   2   3   70.36    8.67
 -12  -2   3   63.00    8.85
  12  -2  -3   63.81    8.60
  12   2  -3   66.06   10.53
  12  -2  -3   55.87    9.23
  12   2  -3   57.97    6.01
 -11  -2   3   18.95    4.36
  11   2  -3   19.29    3.59
 -11   2   3   21.14    4.90
 -11   2   3   20.57    2.81
 -11  -2   3   20.77    4.93
  11  -2  -3   25.92    4.98
  11  -2  -3   11.89    4.32
  11   2  -3   24.66    5.78
  10   2  -3  130.42    9.49
 -10   2   3  131.17    7.15
  10  -2  -3  134.87   11.40
  10   2  -3  149.42   14.08
  10  -2  -3  141.25   13.12
 -10   2   3  133.46    7.05
 -10  -2   3  134.10   11.11
  10  -2  -3  134.56    8.67
 -10  -2   3  127.77   10.59
 -10   2   3  127.37   10.52
   9   2  -3  781.13   26.34
  -9   2   3  768.52   20.89
  -9  -2   3  790.33   27.23
   9   2  -3  814.32   32.63
   9  -2  -3  785.42   30.87
  -9   2   3  769.27   19.85
   9  -2  -3  802.63   26.32
  -9  -2   3  806.29   27.27
  -9   2   3  785.12   26.67
   9  -2  -3  779.52   27.89
  -8  -2   3   21.30    4.08
  -8   2   3   17.17    2.37
  -8   2   3   18.29    3.54
   8   2  -3   17.48    3.60
  -8  -2   3   22.42    4.23
  -8   2   3   14.57    2.59
   8   2  -3   20.77    4.70
   8  -2  -3   14.75    4.20
   8  -2  -3   15.18    3.53
   8  -2  -3   22.58    4.19
   7   2  -3  833.98   28.25
   7  -2  -3  833.68   26.69
  -7   2   3  867.26   22.93
  -7   2   3  870.42   20.25
  -7  -2   3  905.07   27.37
   7   2  -3  872.29   30.76
   7  -2  -3  852.33   29.72
  -7   2   3  872.78   29.46
  -7   2   3  935.51   27.38
   7  -2  -3  730.55   28.89
   7   2  -3  793.60   17.70
  -7  -2   3  836.84   30.61
  -7  -2   3  850.66   26.33
  -7   2   3  873.99   25.99
   7   2  -3  891.48   26.09
  -6   2   3    4.76    2.19
  -6  -2   3    4.52    1.75
  -6   2   3    3.51    1.68
  -6   2   3    0.88    1.32
   6  -2  -3    4.94    1.05
   6   2  -3    4.40    1.56
  -6   2   3    6.06    1.48
   6   2  -3    4.04    2.36
  -6  -2   3    5.76    1.92
   6   2  -3    3.63    0.77
   6   2  -3    1.80    0.89
   6  -2  -3    6.06    2.52
   6  -2  -3    4.23    2.09
   6  -2  -3    6.21    0.88
  -6   2   3    3.28    1.55
   6  -2  -3    4.07    1.68
   5   2  -3  202.56   10.81
   5  -2  -3  215.96   10.98
  -5   2   3  214.88    8.15
  -5   2   3  220.74   12.61
  -5   2   3  201.83    9.96
   5   2  -3  209.06   12.29
   5  -2  -3  209.39   12.41
   5  -2  -3  221.27   12.18
   5   2  -3  217.62    8.48
   5  -2  -3  202.36   12.27
  -5  -2   3  200.18   10.44
  -5   2   3  224.95   10.56
   5  -2  -3  218.92    6.92
   5   2  -3  213.53    7.43
  -5  -2   3  218.36   10.89
   4  -2  -3    2.02    0.78
  -4  -2   3   -0.23    1.51
  -4  -2   3    2.65    1.43
  -4   2   3    0.80    0.92
  -4   2   3    3.17    1.62
   4   2  -3    2.26    1.84
   4  -2  -3    1.05    1.44
   4   2  -3    2.76    1.05
  -4   2   3    2.03    0.90
   4  -2  -3   -1.48    1.57
   4  -2  -3    1.75    1.32
   4  -2  -3    2.87    1.81
   3   2  -3 1036.22   23.35
   3  -2  -3 1031.98   28.67
   3  -2  -3 1045.07   23.64
  -3  -2   3 1042.41   29.07
  -3  -2   3 1070.55   25.37
   3  -2  -3 1032.88   25.26
   3   2  -3 1022.52   27.57
  -3   2   3 1051.04   26.29
  -3   2   3 1066.23   25.51
  -3   2   3 1015.42   22.60
   3  -2  -3 1031.37   28.50
  -3  -2   3 1059.50   25.79
   3   2  -3 1023.62   25.14
  -3   2   3 1006.85   24.06
   3  -2  -3 1001.22   27.42
  -3  -2   3 1026.35   27.06
   3  -2  -3 1052.56   22.69
  -2   2   3  164.86    8.83
   2  -2  -3  173.71    7.64
  -2  -2   3  173.64    7.87
  -2  -2   3  165.07    8.72
  -2  -2   3  155.23    7.48
   2  -2  -3  155.76    7.57
   2   2  -3  156.22    7.76
   2   2  -3  160.38    8.73
  -2  -2   3  166.12    9.36
   2  -2  -3  162.52    9.69
  -2   2   3  162.47    7.19
   2  -2  -3  167.64    9.17
   2  -2  -3  164.08    9.47
   2   2  -3  159.65    7.77
  -2   2   3  166.25    7.70
  -2  -2   3  164.21    8.12
  -2   2   3  165.98    7.27
   2  -2  -3  166.06    7.45
   1  -2  -3 1857.71   37.81
  -1  -2   3 1996.14   39.45
  -1   2   3 1949.87   39.89
  -1  -2   3 1822.95   38.00
  -1  -2   3 1923.75   36.45
   1   2  -3 1886.64   39.60
  -1   2   3 1923.71   41.24
   1   2  -3 1912.62   39.61
   1  -2  -3 1877.29   36.61
   1   2  -3 1921.08   39.30
   1  -2  -3 1939.59   41.28
  -1  -2   3 1867.16   40.41
   1  -2  -3 1866.81   42.08
  -1   2   3 1930.51   35.51
  -1   2   3 1998.20   37.11
   1   2  -3 1885.46   37.41
  -1   2   3 1844.94   37.33
   1  -2  -3 1970.26   38.61
   0  -2   3  163.51    6.21
   0  -2   3  166.47    8.63
   0   2  -3  153.11    8.58
   0  -2  -3  160.02    7.86
   0   2  -3  160.96    8.23
   0  -2   3  157.22    7.97
   0   2  -3  155.78    7.45
   0   2   3  156.30    8.04
   0  -2  -3  159.53    6.41
   0   2   3  156.06    7.65
   0  -2   3  157.52    7.29
   0   2  -3  149.31    6.88
   0   2   3  159.43    5.79
   0   2   3  161.56    6.59
   0   2   3  149.83    8.76
   0   2   3  168.71    8.66
   0  -2  -3  159.00    8.10
   1   2   3  540.51   13.41
   1   2   3  533.82   18.20
  -1   2  -3  526.42   14.43
  -1  -2  -3  563.71   16.70
  -1  -2  -3  543.79   16.79
   1   2   3  534.51   16.42
  -1   2  -3  572.68   16.88
  -1  -2  -3  571.98   13.13
   1  -2   3  541.61   14.89
  -1   2  -3  544.25   14.93
   1   2   3  554.89   11.48
   1   2   3  555.40   17.95
  -1  -2  -3  564.75   17.53
   2  -2   3   87.27    3.50
  -2  -2  -3   84.70    6.11
   2  -2   3   89.40    6.18
   2   2   3   92.58    6.41
  -2  -2  -3   95.48    6.55
  -2   2  -3   89.08    4.99
  -2   2  -3   84.58    5.99
   2  -2   3   96.09    3.74
  -2   2  -3   86.14    4.93
  -2  -2  -3   93.72    4.07
   2   2   3  100.66    7.32
   2   2   3   94.83    7.08
  -3   2  -3   83.94    6.78
  -3  -2  -3   75.57    5.98
   3   2   3   78.05    6.65
  -3   2  -3   84.73    6.04
   3   2   3   76.64    6.72
   3   2   3   86.10    6.41
  -3   2  -3   78.04    4.99
  -3  -2  -3   74.55    6.16
  -3  -2  -3   78.37    3.78
  -4  -2  -3  511.15   13.56
  -4  -2  -3  524.28   19.02
   4  -2   3  540.63   10.20
   4   2   3  570.02   18.02
  -4  -2  -3  533.92   19.24
   4   2   3  553.73   19.83
  -4   2  -3  503.26   15.39
  -4   2  -3  547.57   17.17
  -4  -2  -3  539.58   19.00
  -4   2  -3  527.72   19.13
   4   2   3  527.90   19.88
  -5  -2  -3  297.01   14.24
   5   2   3  293.10   12.59
  -5   2  -3  293.58    8.58
   5  -2   3  300.09    7.55
  -5   2  -3  289.21   14.68
  -5   2  -3  313.83   12.64
  -5  -2  -3  302.06   14.29
  -5   2  -3  292.89    8.53
  -5  -2  -3  305.18    8.49
   5   2   3  315.01   15.00
   5   2   3  324.65   14.88
  -5   2  -3  295.65   13.39
   5   2   3  286.07   14.79
  -5   2  -3  309.91   14.33
  -5  -2  -3  270.97   14.48
  -5  -2  -3  306.18   14.91
   6   2   3  712.65   24.13
   6   2   3  705.80   21.06
  -6  -2  -3  664.05   15.75
   6   2   3  705.54   24.89
  -6  -2  -3  679.78   25.92
   6  -2   3  696.91   22.19
  -6   2  -3  678.28   18.24
  -6  -2  -3  723.08   24.00
  -6  -2  -3  693.98   23.45
  -6   2  -3  683.00   19.11
  -6   2  -3  692.33   20.95
  -6  -2  -3  674.79   13.51
  -6   2  -3  697.50   24.77
  -6   2  -3  676.98   22.31
   6   2   3  684.78   24.80
  -6   2  -3  720.17   23.64
  -6  -2  -3  703.07   24.82
   7   2   3  481.68   20.16
  -7  -2  -3  450.80   19.08
  -7  -2  -3  466.14   22.50
   7   2   3  455.21   20.97
  -7   2  -3  447.12   16.85
  -7   2  -3  444.20   15.54
  -7  -2  -3  463.27   13.12
   7  -2   3  475.55   18.69
  -7   2  -3  472.67   20.57
  -7  -2  -3  481.79   20.02
  -7  -2  -3  461.09   11.73
  -7   2  -3  466.06   18.76
  -7   2  -3  451.26   16.91
  -7   2  -3  480.69   13.20
   7   2   3  475.65   20.81
  -7   2  -3  466.33   13.32
  -7   2  -3  483.63   19.55
  -8   2  -3  293.04   13.60
   8   2   3  303.26   16.14
  -8   2  -3  290.97   16.30
   8  -2   3  304.58   15.46
   8   2   3  313.12   18.17
  -8  -2  -3  326.93   19.60
  -8  -2  -3  287.29   10.72
  -8  -2  -3  323.32   17.30
  -8   2  -3  289.98   12.50
  -8   2  -3  294.74   15.37
   8   2   3  293.37   13.33
  -8  -2  -3  299.47    9.85
  -8   2  -3  286.31   15.23
  -8   2  -3  289.96   10.89
  -8   2  -3  295.87   10.60
   8   2   3  313.66   17.38
  -8   2  -3  289.95   15.52
  -8  -2  -3  305.32   15.65
  -9  -2  -3   13.41    2.12
   9   2   3   14.23    4.38
  -9   2  -3   10.91    2.13
  -9   2  -3   12.14    3.65
   9   2   3   15.69    4.62
  -9  -2  -3   10.24    3.16
  -9   2  -3   19.56    3.57
  -9   2  -3   15.14    3.01
   9  -2   3   11.42    3.53
  -9  -2  -3   14.69    2.51
  -9   2  -3   13.24    3.65
  -9  -2  -3   19.73    5.05
  -9   2  -3   12.82    3.20
  -9   2  -3   11.38    2.19
 -10   2  -3  154.22   12.73
 -10  -2  -3  160.81   11.75
 -10  -2  -3  175.23   11.46
 -10   2  -3  172.79   10.40
 -10  -2  -3  158.07    8.86
 -10  -2  -3  206.17   16.95
 -10   2  -3  141.77   11.70
 -10  -2  -3  160.75    8.20
 -10   2  -3  149.36    8.80
 -10   2  -3  177.14    8.95
  10  -2   3  159.10   12.96
 -10   2  -3  156.89   12.54
  10   2   3  167.12   13.50
  11   2   3   33.29    6.10
 -11   2  -3   31.15    4.03
  11  -2   3   26.96    6.01
 -11  -2  -3   31.01    5.17
 -11   2  -3   29.78    5.88
 -11   2  -3   27.99    5.34
 -11  -2  -3   38.95    5.65
 -11  -2  -3   40.32    8.15
 -11   2  -3   35.33    5.77
 -12   2  -3  217.22   15.61
 -12  -2  -3  216.28   14.57
 -12  -2  -3  234.11   14.47
 -12  -2  -3  259.82   20.68
 -12   2  -3  258.13   17.78
 -13   2  -3    7.73    3.53
 -13   2  -3   10.92    4.61
 -13  -2  -3    8.77    5.76
  15  -3  -3  379.86   28.81
 -14  -3   3  247.10   19.30
 -14  -3   3  264.65   18.53
 -14   3   3  258.61   18.73
  14  -3  -3  267.81   22.30
 -14   3   3  274.79   18.85
  13  -3  -3  255.43   18.42
 -13  -3   3  223.69   16.39
 -13  -3   3  243.11   17.97
  13   3  -3  226.17   21.14
  13  -3  -3  243.17   20.11
 -13   3   3  222.27   16.17
 -12  -3   3    4.30    2.51
  12   3  -3   10.47    3.22
 -12  -3   3    5.29    3.19
 -12   3   3    6.22    3.12
  12   3  -3   -4.40    5.05
  12  -3  -3    8.08    3.99
  12  -3  -3    5.98    2.93
 -11  -3   3    7.96    3.01
  11   3  -3    8.43    3.07
 -11   3   3    7.99    3.27
 -11  -3   3   10.66    4.16
  11  -3  -3    9.68    3.55
 -11   3   3    8.92    2.66
  11   3  -3    5.25    3.31
  11  -3  -3    0.08    2.45
  10   3  -3   72.64    8.06
 -10   3   3   65.83    4.05
  10   3  -3   66.29    9.42
  10  -3  -3   68.38    8.14
 -10   3   3   65.52    4.71
 -10   3   3   59.05    6.06
  10  -3  -3   55.39    8.29
 -10  -3   3   63.28    7.78
 -10   3   3   65.63    7.40
 -10   3   3   66.74    7.68
 -10  -3   3   73.59    8.18
  -9   3   3   33.04    2.84
  -9  -3   3   41.06    5.80
   9   3  -3   34.00    5.57
  -9   3   3   33.23    5.10
  -9  -3   3   37.74    5.88
   9  -3  -3   33.54    6.23
   9  -3  -3   31.88    5.33
   9   3  -3   31.24    6.44
  -9   3   3   30.31    4.41
  -9   3   3   37.87    5.69
   8   3  -3 2535.96   61.15
  -8  -3   3 2425.93   55.57
   8  -3  -3 2457.37   56.82
  -8  -3   3 2523.60   56.10
   8   3  -3 2496.29   62.74
   8  -3  -3 2478.88   60.62
  -8   3   3 2409.98   43.50
  -8   3   3 2387.84   52.63
  -8   3   3 2465.58   56.96
  -8   3   3 2491.95   55.13
   7   3  -3  171.05   12.62
   7  -3  -3  188.90   12.85
  -7   3   3  165.52    6.56
   7   3  -3  168.43   12.75
  -7   3   3  185.84   12.48
   7  -3  -3  160.71   10.91
  -7  -3   3  184.95   11.11
  -7   3   3  176.59   11.81
   7  -3  -3  163.85   13.61
  -7   3   3  166.47   10.31
  -7  -3   3  176.25   11.12
  -7   3   3  180.01   10.77
   6   3  -3 1296.29   38.36
   6  -3  -3 1464.55   36.67
  -6   3   3 1352.50   35.25
  -6   3   3 1431.38   38.50
   6   3  -3 1454.71   40.34
  -6  -3   3 1317.49   40.37
   6  -3  -3 1434.78   39.38
  -6  -3   3 1432.94   35.83
  -6   3   3 1390.11   27.36
  -6  -3   3 1465.11   36.51
  -6   3   3 1338.72   37.48
  -6  -3   3 1412.82   35.07
   6   3  -3 1430.22   27.27
   6  -3  -3 1256.38   41.09
   6   3  -3 1443.91   25.19
   6   3  -3 1408.92   35.35
  -6   3   3 1428.86   34.97
  -6   3   3 1460.87   36.15
  -5  -3   3   23.24    3.77
   5  -3  -3   22.29    4.20
  -5   3   3   23.83    3.37
   5   3  -3   15.98    3.41
   5   3  -3   20.63    2.09
  -5   3   3   25.50    3.96
  -5   3   3   19.66    2.23
  -5   3   3   25.11    4.17
  -5  -3   3   20.20    3.28
  -5   3   3   23.56    3.55
   5  -3  -3   24.08    3.78
   5   3  -3   23.86    2.16
   5  -3  -3   20.64    4.44
   5   3  -3   22.26    4.11
  -5  -3   3   18.53    4.01
   5  -3  -3   20.55    1.80
   4  -3  -3  105.82    5.65
  -4   3   3  105.30    5.25
  -4   3   3  104.59    7.80
   4   3  -3  103.92    5.52
   4  -3  -3  105.42    7.31
   4   3  -3  115.24    8.45
   4  -3  -3   91.24    8.28
   4  -3  -3   89.63    8.01
  -4  -3   3   97.70    7.11
  -4   3   3  105.23    6.77
   4  -3  -3  109.54    5.00
  -3  -3   3    8.54    2.24
  -3  -3   3    6.74    1.70
   3  -3  -3    8.41    1.61
   3   3  -3    6.66    1.83
   3  -3  -3    7.73    1.49
  -3   3   3    7.00    1.76
  -3   3   3    4.68    1.14
  -3  -3   3    5.26    1.20
   3   3  -3    6.26    1.49
  -3   3   3    3.93    1.37
  -3   3   3    9.41    2.45
   3  -3  -3    5.33    1.74
   3   3  -3    5.15    1.98
   3  -3  -3    8.98    2.75
  -3  -3   3    4.95    2.12
   3  -3  -3    3.98    2.02
   3  -3  -3    4.14    1.78
   2  -3  -3 1180.19   31.95
   2   3  -3 1204.55   27.76
  -2   3   3 1172.23   30.72
   2  -3  -3 1127.15   30.92
   2   3  -3 1174.77   28.78
  -2  -3   3 1219.86   30.92
  -2   3   3 1121.11   25.11
   2  -3  -3 1167.07   27.41
   2  -3  -3 1226.47   26.13
  -2  -3   3 1180.41   28.46
   2   3  -3 1177.89   27.90
  -2   3   3 1141.90   25.66
   2  -3  -3 1163.79   31.28
  -2   3   3 1197.70   27.41
   2  -3  -3 1245.60   26.36
   1   3  -3  718.89   20.10
   1  -3  -3  756.94   23.29
   1   3  -3  760.10   21.33
  -1   3   3  776.34   21.84
   1  -3  -3  782.59   19.85
  -1   3   3  754.80   19.25
   1   3  -3  785.46   20.60
  -1  -3   3  791.79   21.80
   1  -3  -3  772.07   23.75
  -1  -3   3  752.73   20.64
  -1   3   3  770.24   19.45
  -1   3   3  794.56   23.52
   1  -3  -3  785.57   19.78
  -1   3   3  753.33   17.83
  -1   3   3  756.77   20.59
   1  -3  -3  795.38   20.34
   0   3   3 4835.22   82.03
   0   3  -3 4810.13   83.98
   0   3  -3 4921.94   87.71
   0   3   3 4962.08   89.47
   0   3   3 4676.65   83.78
   0   3   3 4913.27   85.98
   0   3  -3 4817.28   82.39
   0  -3  -3 4719.43   84.32
   0  -3   3 4956.14   84.11
   0  -3  -3 4749.57   81.92
   0  -3   3 4842.98   84.37
   0   3  -3 5034.03   85.76
   0   3   3 4864.73   79.14
   0   3   3 4751.87   86.08
   0  -3  -3 4828.54   85.36
   1   3   3  685.97   20.25
   1   3   3  670.38   17.08
  -1  -3  -3  691.67   20.75
  -1   3  -3  711.26   22.01
   1   3   3  724.14   22.41
  -1   3  -3  714.31   19.78
   1  -3   3  677.72   18.82
   1   3   3  690.98   19.70
  -1   3  -3  689.06   16.79
  -1  -3  -3  729.56   20.50
  -1   3  -3  688.19   18.73
  -1  -3  -3  673.13   16.94
   1   3   3  669.04   20.90
  -1  -3  -3  716.13   20.84
  -2   3  -3  214.97    7.36
   2  -3   3  216.97    7.53
  -2   3  -3  221.94    9.96
   2  -3   3  210.28    9.98
   2   3   3  220.91   11.04
  -2   3  -3  201.91    9.23
  -2  -3  -3  217.58   10.70
   2   3   3  204.31   11.13
  -2   3  -3  229.11   10.45
  -2  -3  -3  211.53   10.82
  -2  -3  -3  207.30    7.94
   2   3   3  208.03   11.24
  -3   3  -3   43.29    2.86
  -3  -3  -3   43.01    3.64
  -3   3  -3   50.19    4.56
   3   3   3   45.68    5.30
  -3  -3  -3   41.88    5.08
   3   3   3   47.52    5.11
  -3  -3  -3   41.15    4.91
  -3  -3  -3   42.40    5.09
  -3   3  -3   41.79    4.19
  -3   3  -3   43.47    4.69
   3  -3   3   45.24    2.75
   3   3   3   54.02    5.76
  -4   3  -3    6.87    2.45
   4  -3   3    7.64    1.19
   4   3   3    7.83    2.53
  -4  -3  -3    6.47    2.40
   4   3   3    8.06    2.69
  -4   3  -3    9.49    2.12
  -4  -3  -3    6.24    2.05
  -4  -3  -3    7.19    1.60
  -4  -3  -3    6.12    2.60
   4   3   3    5.08    2.01
  -4   3  -3   10.11    2.71
  -4   3  -3    6.60    2.06
  -5  -3  -3  449.70   18.29
  -5   3  -3  414.64   18.66
   5   3   3  437.49   18.14
   5  -3   3  413.70   10.66
  -5  -3  -3  447.08   17.81
   5   3   3  411.57   18.29
  -5  -3  -3  390.39   18.89
  -5   3  -3  426.73   15.20
  -5   3  -3  412.72   16.65
  -5   3  -3  443.65   17.67
   5   3   3  426.35   18.91
  -5  -3  -3  431.40   18.50
  -6  -3  -3  621.44   23.94
  -6  -3  -3  606.48   25.65
  -6   3  -3  589.26   16.25
  -6   3  -3  614.82   19.45
  -6  -3  -3  609.55   15.84
  -6   3  -3  618.28   23.89
  -6  -3  -3  614.95   23.18
  -6  -3  -3  607.70   22.07
  -6   3  -3  620.22   13.83
  -6   3  -3  581.05   15.62
   6  -3   3  600.11   14.64
   6   3   3  582.60   23.58
   6   3   3  637.94   23.03
  -6  -3  -3  620.84   13.83
  -6   3  -3  614.98   21.94
  -6   3  -3  608.54   22.14
   6   3   3  627.66   24.42
  -7   3  -3 2393.03   54.09
  -7   3  -3 2351.27   45.13
   7  -3   3 2380.65   51.78
   7   3   3 2343.37   51.83
   7   3   3 2332.40   54.76
   7  -3   3 2327.11   43.53
  -7   3  -3 2351.49   44.38
  -7  -3  -3 2454.44   62.28
  -7  -3  -3 2231.15   44.47
  -7  -3  -3 2328.41   53.63
   7   3   3 2355.59   58.92
  -7  -3  -3 2320.80   41.97
  -7   3  -3 2414.65   46.58
  -7   3  -3 2311.28   53.77
  -7   3  -3 2351.20   49.23
   7   3   3 2389.52   57.84
  -7   3  -3 2317.21   56.80
  -8   3  -3  109.22    6.74
   8  -3   3  104.08    6.18
   8   3   3  101.04    9.18
   8   3   3  102.06    8.25
  -8   3  -3   95.26    6.20
  -8   3  -3  105.69    7.76
   8  -3   3  104.44    8.73
  -8  -3  -3  107.05    6.50
   8   3   3   87.18   10.14
  -8  -3  -3  106.81    9.06
  -8  -3  -3  114.29   11.82
  -8   3  -3   98.50    7.82
  -8  -3  -3  111.96    5.88
  -8   3  -3   93.42    8.93
  -8   3  -3  107.23   10.12
  -8   3  -3  101.92    6.31
   8   3   3  112.02   10.54
  -8   3  -3  111.21    9.39
  -9   3  -3  198.64   14.22
  -9  -3  -3  201.61   12.98
   9   3   3  217.08   17.11
   9   3   3  208.75   12.23
  -9  -3  -3  208.48    9.86
  -9   3  -3  181.64   12.00
  -9  -3  -3  218.55   17.33
  -9  -3  -3  203.65    8.80
  -9   3  -3  187.35   10.88
   9  -3   3  202.73   13.12
  -9   3  -3  205.89    9.75
  -9   3  -3  192.45   13.56
  -9   3  -3  209.45    9.70
   9   3   3  189.00   14.35
  -9   3  -3  199.58   10.02
 -10  -3  -3    4.02    1.37
 -10   3  -3   -1.09    3.33
  10   3   3    6.74    4.04
 -10   3  -3    3.49    1.33
 -10  -3  -3    5.93    2.39
 -10   3  -3    1.36    1.83
  10  -3   3    2.73    1.74
 -10  -3  -3    7.25    2.19
 -10  -3  -3    2.57    2.94
 -10   3  -3    4.24    1.81
  11   3   3    8.72    3.66
 -11   3  -3    9.72    2.43
 -11  -3  -3    8.88    3.13
  11  -3   3    2.92    2.63
 -11   3  -3    4.49    3.16
 -11   3  -3   10.51    4.25
 -11  -3  -3   10.16    4.71
 -11  -3  -3    7.80    2.94
  12   3   3   15.35    4.88
 -12   3  -3   14.33    4.70
 -12  -3  -3   18.62    4.28
 -12   3  -3   17.80    5.40
 -12  -3  -3   15.76    6.15
 -12  -3  -3   14.58    3.74
 -13   3  -3  473.18   25.06
 -13  -3  -3  537.54   31.56
 -13   3  -3  487.48   27.94
  13   3   3  503.40   27.13
  15  -4  -3  127.43   16.40
  14  -4  -3  305.90   21.72
  14  -4  -3  334.20   25.24
 -14  -4   3  338.16   21.45
 -14   4   3  329.38   20.99
  13  -4  -3  128.55   13.25
 -13  -4   3  115.89   11.94
  13  -4  -3  134.25   15.23
 -13  -4   3  127.69   13.27
 -13   4   3  143.02   13.00
 -12  -4   3    0.70    2.80
 -12  -4   3   -0.08    2.65
  12   4  -3    5.10    3.32
 -12   4   3    0.25    2.11
  12  -4  -3   -2.23    3.28
  12   4  -3    5.08    4.31
  12  -4  -3    7.91    5.26
 -12   4   3    8.21    3.34
 -11  -4   3   -3.54    2.60
  11  -4  -3    0.17    2.36
 -11  -4   3    5.38    2.79
  11   4  -3   -0.21    2.44
 -11   4   3   -0.19    1.98
  11  -4  -3   -0.96    2.19
  11   4  -3    0.10    3.09
 -11   4   3    3.24    2.96
 -10  -4   3   -3.59    2.96
 -10  -4   3   -0.23    2.55
  10   4  -3    0.82    2.71
 -10   4   3    2.11    1.54
 -10   4   3    1.30    0.37
  10  -4  -3    0.21    2.21
  10   4  -3    6.39    3.59
 -10   4   3    0.93    1.79
 -10   4   3    0.94    0.31
 -10   4   3    3.92    2.99
  10  -4  -3    6.16    3.26
  10  -4  -3    1.49    2.25
  -9   4   3  409.34   19.47
   9   4  -3  478.49   23.51
   9   4  -3  444.42   24.11
  -9   4   3  425.78    9.41
  -9  -4   3  428.43   20.13
   9  -4  -3  426.37   22.07
  -9   4   3  440.12   22.32
   9  -4  -3  434.91   20.55
   9  -4  -3  428.69   22.81
  -9   4   3  410.08   10.28
  -9  -4   3  442.63   20.22
  -9   4   3  415.02   19.01
   8   4  -3  261.23   17.32
  -8   4   3  253.85    7.02
   8  -4  -3  250.86   15.93
  -8   4   3  238.62   14.71
   8   4  -3  266.28   17.30
  -8  -4   3  256.66   14.44
  -8   4   3  259.28   16.88
  -8  -4   3  244.99   14.20
  -8   4   3  264.86   14.27
   8  -4  -3  260.69   14.92
   7   4  -3 2160.37   57.28
  -7  -4   3 2160.54   49.82
  -7   4   3 2067.56   52.74
   7  -4  -3 2153.70   54.31
  -7   4   3 2150.39   52.45
  -7   4   3 2132.67   56.00
  -7   4   3 2200.43   37.58
   7  -4  -3 2159.82   51.25
  -7   4   3 2159.59   49.19
   7   4  -3 2242.81   56.40
  -7  -4   3 2154.36   50.71
  -6  -4   3    7.72    2.65
   6   4  -3    4.07    2.25
  -6  -4   3    7.11    2.60
  -6   4   3    4.92    2.19
   6   4  -3    1.48    1.74
  -6   4   3    4.17    2.99
  -6  -4   3    3.16    1.37
  -6   4   3    6.56    1.18
  -6   4   3    6.49    2.36
   6   4  -3    5.81    0.91
  -6  -4   3    4.63    2.03
   6  -4  -3    4.85    2.26
  -6   4   3    5.17    2.09
   6   4  -3    5.39    2.33
   6  -4  -3    3.42    1.63
   6   4  -3    4.24    1.08
  -6   4   3    7.59    2.37
   5  -4  -3   39.44    2.77
  -5  -4   3   38.67    4.90
  -5  -4   3   35.58    4.58
   5   4  -3   37.87    5.39
  -5   4   3   37.77    2.89
  -5   4   3   35.19    5.78
   5   4  -3   42.43    3.16
  -5  -4   3   35.88    4.62
   5   4  -3   37.61    5.41
  -5   4   3   39.65    5.46
  -5  -4   3   35.95    5.66
   5  -4  -3   42.37    5.83
  -5   4   3   39.72    5.31
  -5   4   3   46.22    5.28
   5   4  -3   36.44    3.00
   5  -4  -3   36.15    4.81
  -5   4   3   38.30    4.54
  -4  -4   3   18.81    3.30
  -4   4   3   14.54    1.91
   4  -4  -3   17.04    2.11
  -4  -4   3   17.57    3.03
  -4   4   3   18.78    3.09
   4  -4  -3   14.56    2.04
   4   4  -3   17.05    2.41
  -4   4   3   15.53    3.32
   4   4  -3   15.16    3.30
   4  -4  -3   19.47    3.80
   4  -4  -3   15.35    3.55
  -4   4   3   18.24    3.11
  -4   4   3   19.97    4.58
   4   4  -3   15.26    2.01
   4  -4  -3   17.75    3.17
  -3  -4   3   11.63    2.51
   3  -4  -3   10.63    2.50
  -3   4   3   12.30    1.99
   3   4  -3   11.85    2.58
   3  -4  -3   11.45    1.80
  -3  -4   3   10.07    2.11
  -3   4   3   12.13    2.25
  -3  -4   3   19.49    3.47
   3  -4  -3   15.55    2.25
  -3   4   3   12.56    1.83
   3   4  -3   14.07    2.51
  -3   4   3    7.81    2.56
   3   4  -3   13.15    3.16
   3  -4  -3   12.20    3.11
   3  -4  -3    9.89    2.58
   3   4  -3   11.02    1.97
  -2   4   3   14.75    2.64
  -2  -4   3   12.46    2.51
   2   4  -3   11.82    2.29
   2   4  -3   10.50    2.35
  -2   4   3   10.37    2.06
   2  -4  -3   12.15    2.12
  -2  -4   3   15.77    2.33
   2  -4  -3    8.19    1.95
   2  -4  -3   13.60    3.53
  -2   4   3   13.10    2.02
  -2   4   3   13.74    3.11
   2   4  -3   13.32    2.63
   2  -4  -3    6.67    2.32
  -2  -4   3   14.01    2.97
   2  -4  -3   11.44    1.92
   2   4  -3   10.90    1.85
   1   4  -3 3124.42   60.26
   1  -4  -3 3074.45   56.72
  -1   4   3 3048.57   63.54
   1  -4  -3 3118.91   58.08
   1   4  -3 3096.01   57.51
  -1  -4   3 3153.61   59.70
  -1   4   3 3037.26   56.30
   1  -4  -3 2974.38   57.61
  -1  -4   3 3007.12   59.15
   1   4  -3 3042.10   56.61
   1   4  -3 2935.89   58.81
  -1  -4   3 3062.36   54.19
  -1   4   3 3001.82   58.29
  -1   4   3 3122.93   57.42
   0   4   3  952.57   23.33
   0  -4  -3  938.34   23.40
   0  -4  -3  955.17   26.39
   0   4  -3  943.87   26.74
   0   4   3  956.36   26.00
   0   4   3  937.34   28.04
   0   4   3  907.64   23.64
   0   4  -3  935.16   22.15
   0  -4   3  973.64   23.64
   0  -4   3  914.75   19.99
   0  -4   3  985.97   25.11
   0  -4  -3  932.07   24.30
   0   4  -3  923.22   24.86
   0   4  -3  959.84   23.99
   0   4   3  928.32   25.61
   0  -4  -3  974.12   25.24
  -1   4  -3  959.40   25.21
  -1  -4  -3  975.93   27.59
   1   4   3  948.31   23.64
   1   4   3 1053.57   29.60
   1   4   3  962.59   25.73
   1   4   3 1000.55   27.04
  -1   4  -3 1009.10   21.53
   1  -4   3 1013.60   22.61
   1  -4   3  960.13   19.17
   1  -4   3 1022.63   25.98
  -1   4  -3 1007.10   25.97
  -1   4  -3  996.58   25.60
  -1  -4  -3  997.35   23.98
  -1  -4  -3 1064.20   26.93
   1   4   3 1003.57   27.83
  -1  -4  -3 1032.42   27.18
   2  -4   3  121.60    6.40
  -2   4  -3  125.60    7.56
   2   4   3  126.96    8.82
  -2   4  -3  126.11    5.03
  -2  -4  -3  130.07    8.66
   2   4   3  131.94    9.30
  -2  -4  -3  127.45    9.05
   2   4   3  138.02    5.82
  -2   4  -3  121.99    7.89
  -2   4  -3  126.37    8.05
   2   4   3  135.77    9.35
  -2  -4  -3  127.83    7.10
  -3   4  -3   69.66    5.45
  -3  -4  -3   64.62    5.25
  -3  -4  -3   67.30    6.56
  -3  -4  -3   62.74    6.74
  -3  -4  -3   63.63    6.52
   3   4   3   67.76    6.70
  -3   4  -3   65.81    2.87
  -3   4  -3   63.97    5.81
  -3   4  -3   62.04    5.94
   3   4   3   65.18    3.32
   3  -4   3   66.33    4.14
   3   4   3   67.78    6.96
   4   4   3   43.86    6.07
  -4  -4  -3   41.30    4.52
   4   4   3   49.94    5.82
  -4  -4  -3   39.81    5.32
  -4  -4  -3   37.09    5.03
  -4   4  -3   43.13    4.34
  -4   4  -3   39.68    4.77
   4  -4   3   43.85    3.26
  -4   4  -3   45.86    5.27
  -4  -4  -3   37.60    5.61
   4   4   3   42.68    2.26
  -5  -4  -3  485.56   20.72
  -5   4  -3  498.27   21.38
  -5   4  -3  508.63   10.15
   5   4   3  509.63   21.37
  -5   4  -3  499.37   16.78
  -5  -4  -3  509.88   19.87
  -5  -4  -3  486.18   22.18
  -5  -4  -3  534.39   21.28
  -5   4  -3  472.39    9.92
   5   4   3  509.88   20.35
   5  -4   3  501.54   13.46
   5   4   3  520.33   10.66
  -5   4  -3  507.36   19.48
  -5   4  -3  516.84   19.92
   5   4   3  483.15   21.38
  -6   4  -3 1130.98   27.89
  -6   4  -3 1208.62   37.26
   6  -4   3 1187.61   25.67
  -6  -4  -3 1175.71   33.98
   6   4   3 1186.89   37.26
  -6   4  -3 1218.43   29.98
  -6   4  -3 1179.31   22.04
   6   4   3 1253.73   34.60
   6   4   3 1218.14   35.05
  -6  -4  -3 1200.04   39.63
  -6   4  -3 1197.10   34.50
   6   4   3 1255.18   22.42
  -6   4  -3 1249.35   34.61
   6   4   3 1231.16   37.82
   7   4   3  356.00   17.49
  -7   4  -3  338.47   13.12
  -7  -4  -3  343.65   12.39
  -7   4  -3  358.98   19.05
   7  -4   3  347.42   11.81
  -7  -4  -3  348.48   16.85
  -7   4  -3  376.30   10.31
  -7  -4  -3  354.93   21.00
  -7   4  -3  343.31    9.66
   7   4   3  339.83   16.35
   7  -4   3  362.80   15.54
  -7   4  -3  349.50   14.12
  -7  -4  -3  354.31   11.45
  -7   4  -3  326.89   17.14
   7   4   3  346.34   19.80
  -7   4  -3  358.42   17.14
   7   4   3  328.66   18.52
   8  -4   3  844.00   26.72
  -8   4  -3  847.44   23.29
   8   4   3  831.43   29.00
  -8   4  -3  868.89   31.69
  -8   4  -3  851.15   24.73
   8  -4   3  803.13   21.53
  -8  -4  -3  852.12   28.60
  -8  -4  -3  819.19   22.43
  -8  -4  -3  866.85   35.40
  -8   4  -3  809.84   22.76
   8   4   3  855.45   27.99
  -8  -4  -3  861.47   20.97
  -8   4  -3  782.10   29.24
  -8   4  -3  810.50   19.02
   8   4   3  870.74   34.80
   8   4   3  856.98   32.34
   9   4   3    5.72    3.11
  -9   4  -3    7.51    3.50
  -9   4  -3    9.36    2.17
  -9   4  -3    7.85    2.15
   9  -4   3    5.05    1.77
  -9  -4  -3    6.81    3.24
  -9  -4  -3    5.25    1.75
  -9   4  -3    4.98    1.37
  -9   4  -3    5.69    2.04
   9  -4   3    7.33    2.67
  -9   4  -3    6.20    2.25
  -9  -4  -3    5.76    3.57
  -9   4  -3    6.44    1.97
  -9  -4  -3    6.16    1.74
 -10  -4  -3    6.35    1.96
  10   4   3    1.56    2.05
  10  -4   3    6.18    3.19
 -10   4  -3    5.68    1.79
 -10   4  -3    8.59    3.44
 -10  -4  -3    6.47    2.66
 -10  -4  -3    9.57    4.43
  10  -4   3    4.27    1.78
 -10   4  -3    7.64    4.36
 -10   4  -3    4.30    1.94
  11   4   3   29.28    6.46
 -11   4  -3   31.37    4.39
  11  -4   3   30.96    6.14
 -11   4  -3   28.04    5.96
 -11  -4  -3   34.90    5.77
 -11   4  -3   21.82    5.30
 -11  -4  -3   43.11    9.01
 -11  -4  -3   27.88    4.68
 -12  -4  -3  186.55   13.70
  12  -4   3  235.35   18.01
 -12  -4  -3  220.20   19.83
 -12   4  -3  212.23   16.41
 -12   4  -3  224.92   18.30
 -12  -4  -3  201.67   12.48
  12   4   3  196.77   16.69
  13   4   3    2.70    3.01
 -13   4  -3    0.76    2.68
 -13   4  -3   -3.99    3.14
 -13  -4  -3   -4.55    3.14
  14   4   3  409.12   25.68
  15  -5  -3   27.87    7.93
 -14  -5   3   74.98    9.82
  14  -5  -3   75.42   11.97
 -13  -5   3    5.28    3.03
 -13  -5   3    3.50    2.87
 -13   5   3    8.94    4.42
  13  -5  -3    5.20    3.44
  13  -5  -3    9.21    4.93
 -12  -5   3   32.91    6.47
 -12  -5   3   19.96    5.59
  12   5  -3   26.24    5.45
 -12   5   3   27.85    5.74
  12  -5  -3   34.28    7.02
  12  -5  -3   17.53    5.78
 -12   5   3   25.42    6.15
 -11  -5   3   32.71    6.06
 -11  -5   3   28.66    5.87
  11   5  -3   34.19    6.58
 -11   5   3   31.56    6.23
 -11   5   3   36.65    7.17
  11  -5  -3   36.84    6.74
  11   5  -3   43.38    8.61
  11  -5  -3   31.61    7.03
  10  -5  -3   20.51    5.25
 -10  -5   3   27.39    5.34
 -10  -5   3   20.55    4.91
  10   5  -3   23.73    5.52
 -10   5   3   18.82    4.56
 -10   5   3   17.49    4.89
 -10   5   3   20.26    4.73
  10   5  -3   35.24    7.68
  10  -5  -3   24.57    5.17
  10  -5  -3   38.08    7.08
   9   5  -3   89.32   10.69
   9  -5  -3   81.64    9.57
   9  -5  -3   99.21   10.62
  -9   5   3   91.30   11.28
   9   5  -3  107.86   11.96
  -9   5   3   80.25    9.45
   9  -5  -3  105.26   12.07
  -9  -5   3   96.00    9.23
  -9  -5   3   96.58    9.41
  -9   5   3  110.75    9.69
   8   5  -3  196.33   15.96
  -8   5   3  181.44   14.58
   8  -5  -3  197.90   13.34
  -8   5   3  186.18   16.17
   8   5  -3  201.47   15.38
   8  -5  -3  191.46   13.94
  -8  -5   3  187.72   12.64
   8  -5  -3  206.44   17.32
  -8  -5   3  192.32   12.77
  -8   5   3  203.03   12.66
  -7  -5   3    0.55    1.73
  -7  -5   3    3.19    1.76
   7   5  -3    1.58    1.98
  -7   5   3    1.85    1.48
   7  -5  -3    3.44    2.15
  -7   5   3    1.78    0.53
   7   5  -3    0.49    2.09
  -7   5   3   -0.43    2.44
   7  -5  -3    1.40    1.79
  -7   5   3    2.40    1.97
  -7   5   3    4.40    3.92
   7  -5  -3    1.48    2.11
   6   5  -3  115.24   10.99
  -6  -5   3  110.31    8.94
   6   5  -3  109.85    4.79
  -6   5   3  102.16    4.25
   6   5  -3  118.23   10.32
  -6  -5   3  107.08   10.61
   6  -5  -3  112.67    9.18
   6  -5  -3  109.94    9.64
  -6   5   3  114.67   11.08
  -6   5   3  116.21   12.18
  -6  -5   3  115.54    8.74
   6  -5  -3   93.90   11.06
   6   5  -3   87.30    5.20
  -6  -5   3  105.74    8.66
  -6   5   3  106.43    8.19
   5  -5  -3   45.56    3.45
  -5  -5   3   41.72    5.33
  -5  -5   3   45.89    5.48
   5   5  -3   47.44    6.55
  -5   5   3   44.73    5.08
   5   5  -3   47.24    3.78
  -5   5   3   50.80    3.26
  -5   5   3   50.72    7.78
   5   5  -3   49.35    6.30
  -5  -5   3   47.83    6.95
   5  -5  -3   59.07    6.36
  -5   5   3   48.60    7.03
  -5  -5   3   52.86    5.53
   5  -5  -3   52.54    6.38
   5   5  -3   45.28    4.10
  -5   5   3   46.05    5.38
   5   5  -3   48.31    5.62
   5  -5  -3   39.70    6.90
   4  -5  -3   76.25    5.18
   4   5  -3   82.82    7.93
   4   5  -3   77.91    5.60
  -4   5   3   78.11    8.33
   4  -5  -3   81.87    4.73
  -4  -5   3   92.77    8.74
  -4   5   3   76.36    4.51
   4   5  -3   88.11    7.72
   4  -5  -3   81.76    8.05
   4  -5  -3   75.15    6.67
  -4  -5   3   86.84    6.73
  -4   5   3   78.32    9.13
   4   5  -3   83.69    5.46
  -4  -5   3   78.96    6.98
  -4   5   3   88.24    7.07
  -4   5   3   87.84    4.93
  -3  -5   3    7.32    1.85
   3  -5  -3    8.50    1.75
  -3   5   3    8.12    1.81
   3   5  -3    7.32    2.27
  -3  -5   3    8.35    2.13
   3  -5  -3    9.93    2.09
   3  -5  -3    9.37    2.53
  -3   5   3    9.06    1.73
  -3   5   3    7.59    3.11
   3   5  -3    6.68    1.84
  -3   5   3    9.96    3.38
   3  -5  -3   10.39    3.09
   3   5  -3    8.47    2.30
   3   5  -3    4.87    1.24
   2  -5  -3  655.94   19.21
  -2  -5   3  643.18   21.99
   2  -5  -3  651.46   17.80
   2  -5  -3  661.09   20.80
  -2   5   3  642.21   24.71
  -2   5   3  650.82   17.68
   2   5  -3  661.84   20.41
   2  -5  -3  643.67   23.31
  -2  -5   3  638.90   18.28
  -2  -5   3  663.93   21.40
   2   5  -3  656.33   18.75
   2   5  -3  643.57   21.26
  -2   5   3  665.46   19.26
   1   5  -3    4.42    1.60
  -1   5   3    0.55    0.98
  -1  -5   3    1.36    0.75
   1  -5  -3    1.90    0.93
  -1  -5   3    1.86    1.36
   1  -5  -3    0.99    0.96
   1  -5  -3    1.77    1.47
  -1   5   3    3.45    2.17
   1   5  -3    1.34    1.22
  -1   5   3    2.51    1.59
   1   5  -3    2.09    1.29
  -1  -5   3    1.16    1.39
  -1   5   3    5.07    1.94
   0  -5  -3  366.56   14.67
   0   5   3  338.62   13.11
   0  -5  -3  358.93   15.66
   0  -5  -3  336.78   13.58
   0   5   3  337.74   13.30
   0   5   3  343.81   16.68
   0   5  -3  351.74   11.84
   0  -5   3  346.68   12.75
   0  -5   3  345.82   10.75
   0  -5   3  333.93   14.13
   0   5  -3  326.63   14.23
   0   5  -3  348.41   13.63
   0  -5  -3  339.35   13.50
   0   5   3  333.23   14.70
  -1  -5  -3   85.13    7.54
   1   5   3   79.24    6.58
   1   5   3   82.55    7.87
   1  -5   3   75.33    4.04
  -1   5  -3   74.31    4.43
   1  -5   3   78.92    4.83
  -1  -5  -3   80.62    6.74
  -1   5  -3   86.79    7.11
  -1   5  -3   77.35    6.39
  -1  -5  -3   72.44    5.91
   1   5   3   81.72    7.31
   2   5   3   12.12    3.25
  -2  -5  -3   12.25    2.83
   2  -5   3   10.56    2.03
   2  -5   3   13.19    1.12
  -2  -5  -3   16.75    3.32
   2   5   3   14.89    3.08
   2   5   3    9.14    2.79
  -2  -5  -3   16.69    2.95
  -2   5  -3   13.96    1.52
  -2  -5  -3   11.13    3.10
  -2  -5  -3   16.98    3.47
  -2   5  -3   13.63    2.65
   2   5   3   12.18    1.94
  -2   5  -3    9.74    2.57
   3  -5   3  133.95    7.02
  -3  -5  -3  126.68    8.41
   3   5   3  132.67   10.02
  -3  -5  -3  130.91    9.70
  -3  -5  -3  120.92    9.29
  -3  -5  -3  130.67    9.52
  -3   5  -3  132.58    7.86
  -3   5  -3  122.92    9.03
   3   5   3  121.13    6.01
  -3   5  -3  136.82    9.34
  -3  -5  -3  132.39   10.35
   3   5   3  128.17   10.13
  -4  -5  -3   61.27    6.71
   4   5   3   61.25    7.38
  -4   5  -3   72.21    5.78
  -4  -5  -3   63.06    6.05
  -4   5  -3   66.11    7.62
   4   5   3   72.24    7.26
  -4  -5  -3   72.24    7.71
  -4  -5  -3   63.30    7.66
   4   5   3   65.05    7.16
   4   5   3   69.06    7.26
   4   5   3   75.28    4.11
  -4   5  -3   59.87    6.48
  -4   5  -3   73.04    7.18
   4  -5   3   68.12    4.83
  -5  -5  -3  204.61   13.46
  -5   5  -3  204.32   13.98
  -5   5  -3  205.33   10.17
   5   5   3  197.40   13.43
   5   5   3  218.45   13.26
  -5  -5  -3  198.65   14.47
   5  -5   3  208.48    8.81
  -5  -5  -3  202.29   12.47
   5   5   3  210.65   12.99
  -5   5  -3  204.57   12.57
  -5   5  -3  224.28   13.11
  -5  -5  -3  203.81   13.58
   5   5   3  210.35    7.04
   5   5   3  228.12   14.90
  -6   5  -3  381.60   20.06
   6   5   3  403.01   18.76
  -6  -5  -3  352.97   17.29
   6   5   3  410.47   21.32
   6   5   3  407.02   10.75
  -6   5  -3  407.90   15.22
   6  -5   3  411.56   13.26
   6   5   3  393.88   18.85
  -6  -5  -3  403.78   22.00
  -6   5  -3  423.84   19.42
  -6   5  -3  435.20   18.71
   6   5   3  394.22   20.75
  -7   5  -3  110.68    7.66
  -7   5  -3   98.12   10.12
  -7   5  -3  111.31    7.65
  -7  -5  -3  100.76    9.09
   7   5   3  114.81   11.64
   7  -5   3  113.85    6.79
   7   5   3  120.73   10.08
   7   5   3  117.78   10.04
  -7  -5  -3   99.89   11.37
  -7   5  -3  103.62    9.68
   7  -5   3  109.13    8.11
   7   5   3  111.73    5.27
  -7   5  -3  116.08    9.51
   7   5   3  107.61   11.10
   8   5   3    5.86    2.82
   8  -5   3    7.36    2.12
  -8  -5  -3    3.69    1.37
  -8   5  -3    5.20    1.73
  -8   5  -3    4.62    2.68
  -8  -5  -3    3.92    2.35
   8  -5   3    5.89    1.92
  -8   5  -3    7.65    1.01
  -8   5  -3    4.75    1.67
  -8  -5  -3    6.47    3.48
  -8   5  -3    5.15    2.86
  -8   5  -3    4.95    1.23
  -8  -5  -3    2.48    0.94
   9   5   3    2.34    2.17
   9  -5   3    6.42    2.80
  -9   5  -3    2.20    1.53
  -9  -5  -3    6.26    2.98
  -9   5  -3    5.96    2.94
  -9  -5  -3    3.90    1.57
   9  -5   3    3.35    1.38
  -9   5  -3    3.21    1.75
  -9  -5  -3    4.52    3.20
  -9   5  -3    6.21    3.56
  -9   5  -3    2.96    1.13
  -9  -5  -3    4.32    1.50
  10   5   3   51.10    8.36
  10  -5   3   47.09    5.17
 -10   5  -3   51.89    8.01
 -10  -5  -3   45.20    6.81
 -10  -5  -3   46.60    4.86
 -10   5  -3   58.46    8.95
 -10  -5  -3   54.91    9.45
  10  -5   3   60.61    7.36
 -10   5  -3   54.71    5.60
  11   5   3   56.62    9.05
  11  -5   3   61.81    6.42
 -11   5  -3   59.89    9.02
 -11  -5  -3   58.98    7.72
  11  -5   3   57.51    7.82
 -11   5  -3   68.66   10.53
 -11  -5  -3   66.48   11.12
 -11   5  -3   60.83    6.38
  12   5   3    1.22    2.92
 -12   5  -3    1.67    1.86
 -12   5  -3   -0.87    2.36
 -12  -5  -3   -1.08    2.16
 -12   5  -3   10.11    4.93
 -12  -5  -3    7.06    4.41
 -13   5  -3  186.71   16.38
 -13  -5  -3  182.20   18.90
 -13   5  -3  178.00   17.81
  13   5   3  148.54   15.88
  14   5   3   17.20    5.32
 -14  -5  -3   13.43    5.68
  14  -6  -3   63.45   10.82
 -13  -6   3    4.88    3.51
 -13  -6   3    2.47    3.18
 -13   6   3    1.75    2.19
  13  -6  -3    8.84    5.20
  13  -6  -3    4.32    3.78
 -12  -6   3    7.82    3.74
 -12  -6   3   -0.77    3.65
  12   6  -3   10.41    3.10
 -12   6   3    5.01    2.98
  12  -6  -3    2.33    2.72
  12  -6  -3    1.67    2.70
 -12   6   3    4.67    3.16
 -11  -6   3    0.03    2.42
 -11  -6   3   -6.59    4.30
  11   6  -3    0.66    2.21
 -11   6   3    2.34    3.20
  11  -6  -3    4.03    2.38
  11  -6  -3    1.40    2.76
 -11   6   3    1.37    3.15
 -10  -6   3   59.38    7.82
  10   6  -3   76.50   10.20
 -10   6   3   67.08    8.19
  10  -6  -3   81.89   10.18
  10  -6  -3   65.41    8.62
 -10  -6   3   76.96    9.13
 -10   6   3   67.19   10.91
  -9  -6   3    4.90    2.32
  -9  -6   3    2.71    2.42
   9   6  -3    2.42    2.54
  -9   6   3    2.34    1.88
   9   6  -3    2.94    2.58
   9  -6  -3    0.24    2.01
   9  -6  -3    1.81    1.83
  -9   6   3   12.73    5.12
  -9   6   3    8.24    4.96
  -8  -6   3   35.89    5.88
  -8  -6   3   44.10    6.35
   8   6  -3   35.51    7.19
  -8   6   3   39.27    5.81
   8   6  -3   41.72    6.99
   8  -6  -3   39.45    6.63
  -8   6   3   52.08    9.31
   8  -6  -3   40.36    6.15
  -8   6   3   37.45    8.19
   8  -6  -3   38.25    7.71
   7   6  -3  132.48   13.14
  -7   6   3  113.14   12.88
   7   6  -3  130.72    4.43
   7   6  -3  142.60   12.46
   7  -6  -3  136.41   10.96
   7  -6  -3  132.20   11.32
  -7  -6   3  133.36   10.17
  -7   6   3  130.20   14.78
   7  -6  -3  127.82   14.28
  -7  -6   3  129.03   10.33
   7   6  -3  135.33    5.08
  -7   6   3  131.06    9.80
  -6  -6   3   14.02    3.37
  -6  -6   3   12.01    3.07
   6   6  -3    8.74    3.62
  -6   6   3   15.98    3.14
   6   6  -3   12.06    1.90
   6   6  -3   16.58    4.04
   6  -6  -3   13.07    3.89
  -6   6   3    9.81    5.00
   6   6  -3   12.32    2.08
   6  -6  -3    8.70    3.90
  -6   6   3   12.90    1.44
  -6   6   3   10.35    3.84
   6  -6  -3   13.22    3.59
  -5   6   3    1.61    1.78
  -5  -6   3   -0.58    1.21
   5  -6  -3    0.37    1.16
   5   6  -3    0.37    1.45
  -5  -6   3   -0.89    1.38
   5  -6  -3    0.36    0.99
   5   6  -3    0.50    1.68
  -5   6   3    0.05    0.63
   5   6  -3    1.76    1.95
   5   6  -3   -0.60    0.88
   5  -6  -3    0.77    0.65
  -5   6   3    1.21    2.54
  -5  -6   3   -2.82    2.78
   5  -6  -3    0.25    1.83
  -5   6   3    1.39    1.44
  -5   6   3    5.47    4.42
   5  -6  -3   -0.65    1.60
   5   6  -3   -0.91    1.51
  -4  -6   3    4.66    2.04
  -4   6   3    7.90    1.57
   4   6  -3   11.80    2.88
  -4  -6   3    8.53    2.33
  -4   6   3    6.19    2.15
   4  -6  -3    5.08    2.00
   4  -6  -3    7.73    1.82
  -4   6   3   10.42    1.80
   4   6  -3    8.67    3.51
   4   6  -3   12.86    3.30
  -4   6   3    7.59    2.94
  -4  -6   3    5.25    2.00
   4  -6  -3   10.38    2.95
  -4   6   3   10.08    2.89
  -4   6   3   14.19    4.98
   4  -6  -3    9.17    3.16
   4   6  -3    9.13    2.25
   4  -6  -3   10.20    1.67
   3  -6  -3  207.88   10.32
  -3   6   3  215.46    9.13
   3  -6  -3  207.49    8.74
   3  -6  -3  203.23   14.79
   3   6  -3  214.99   11.81
   3  -6  -3  216.52   13.36
  -3  -6   3  217.70   10.69
  -3   6   3  191.00   14.50
   3  -6  -3  214.69   11.98
  -3   6   3  205.43   15.69
   3  -6  -3  218.83   15.47
  -3  -6   3  226.15   12.45
   3   6  -3  205.58   10.54
   3   6  -3  217.46   12.31
  -3   6   3  219.82   10.06
  -3   6   3  230.22   11.81
   2   6  -3    5.28    2.27
  -2  -6   3    5.35    1.72
  -2   6   3    2.93    1.54
   2  -6  -3    5.17    1.94
  -2   6   3    0.55    1.37
   2   6  -3    4.98    1.74
  -2   6   3    3.43    1.48
  -2  -6   3    1.40    1.05
   2  -6  -3    4.19    2.25
   2  -6  -3    3.71    1.24
  -2   6   3    8.41    3.83
   2  -6  -3    1.03    1.16
   2   6  -3    5.81    2.15
   2  -6  -3    5.61    2.27
  -2  -6   3    4.69    2.28
   1  -6  -3   84.85    7.00
   1  -6  -3   84.25    6.30
  -1   6   3   81.44    6.22
  -1   6   3   79.89    8.63
   1   6  -3   92.21    6.50
  -1  -6   3   76.06    6.62
  -1  -6   3   70.92    5.29
  -1  -6   3   80.12    6.97
   1   6  -3   85.29    6.79
   1   6  -3   78.34    7.22
   1  -6  -3   90.35    7.24
  -1   6   3   81.15    7.00
   0  -6  -3  114.83    9.26
   0  -6  -3  114.54    7.99
   0   6   3  113.72   10.09
   0   6   3  105.83    7.57
   0   6  -3  115.03    6.59
   0  -6   3  105.18    6.02
   0  -6   3  114.47    7.25
   0  -6   3  112.38    8.45
   0   6  -3  111.77    8.67
   0   6  -3  107.59    7.78
   0  -6  -3  119.06    8.26
   0   6   3   95.65    8.21
   1   6   3  117.01    8.58
   1   6   3  103.78    9.64
   1  -6   3  111.77    5.66
  -1   6  -3  120.43    6.00
  -1  -6  -3  120.32    9.00
   1  -6   3  124.71    6.37
  -1  -6  -3  105.97    9.26
  -1  -6  -3  105.36    9.31
  -1   6  -3  120.37    9.12
  -1   6  -3  115.59    8.33
   1   6   3  106.26    8.64
  -1  -6  -3  110.37    8.05
   1   6   3  108.95    9.31
   2   6   3    5.09    2.72
  -2  -6  -3    7.01    2.60
   2  -6   3    3.56    1.49
  -2  -6  -3    5.75    2.40
   2   6   3    4.99    1.87
   2   6   3    4.41    2.01
   2  -6   3    4.21    0.92
  -2  -6  -3    9.19    3.03
  -2  -6  -3    6.16    1.98
  -2  -6  -3    3.36    1.52
   2  -6   3    4.58    0.87
  -2  -6  -3    6.96    2.58
   2   6   3    4.81    2.22
  -2   6  -3    2.03    1.88
   2   6   3    6.48    1.60
  -2   6  -3    1.66    1.57
   3  -6   3   33.02    3.95
   3   6   3   26.54    4.78
  -3  -6  -3   31.15    5.19
   3   6   3   24.77    4.43
  -3  -6  -3   22.50    3.80
   3   6   3   30.06    5.05
  -3  -6  -3   28.00    4.68
  -3  -6  -3   25.09    4.73
   3   6   3   24.86    3.06
  -3  -6  -3   28.25    5.09
  -3  -6  -3   27.05    4.70
  -3   6  -3   26.75    4.49
   3   6   3   25.27    4.61
  -3   6  -3   28.85    4.65
  -4  -6  -3  174.05   12.42
   4   6   3  192.11   12.76
  -4   6  -3  180.14   12.22
  -4  -6  -3  177.02   11.28
  -4  -6  -3  186.64   13.30
  -4  -6  -3  170.74   13.28
   4   6   3  174.34   12.60
  -4  -6  -3  203.10   12.57
   4   6   3  183.20   12.59
  -4  -6  -3  181.69   12.20
  -4   6  -3  174.43   11.81
   4   6   3  186.82    8.11
   4  -6   3  188.71    9.20
   4   6   3  166.97   13.22
   5   6   3    1.87    2.03
   5   6   3   -0.18    0.79
   5   6   3   -0.31    2.00
  -5  -6  -3    1.46    1.60
  -5   6  -3   -1.20    1.84
   5   6   3   -0.39    2.79
   5  -6   3    0.50    1.03
   5   6   3    0.93    1.93
  -5  -6  -3   -0.79    1.41
  -5  -6  -3    2.44    2.27
  -5   6  -3   -1.93    3.10
  -5   6  -3   -1.23    2.18
   6   6   3   47.18    6.41
   6   6   3   34.61    6.40
  -6   6  -3   43.45    4.60
   6  -6   3   35.66    4.59
   6   6   3   47.67    6.56
  -6  -6  -3   38.17    5.62
   6  -6   3   45.44    4.43
  -6   6  -3   40.85    6.75
  -6  -6  -3   38.58    5.44
   6   6   3   42.70    3.44
  -6  -6  -3   33.75    6.31
  -6   6  -3   49.30    6.84
  -7   6  -3    3.40    1.62
  -7   6  -3    0.70    2.46
   7   6   3    3.37    1.99
   7   6   3    4.34    1.27
   7  -6   3    3.92    1.78
  -7  -6  -3    4.14    1.95
  -7  -6  -3    5.93    2.69
  -7  -6  -3    6.81    3.07
  -7   6  -3    9.93    4.00
   7  -6   3    3.61    1.34
  -7   6  -3    3.61    1.70
  -8   6  -3   87.78    6.96
  -8   6  -3   99.57    8.02
  -8   6  -3   86.44   10.24
   8  -6   3   85.20    7.47
   8  -6   3   82.56    6.46
  -8  -6  -3   90.91    9.15
  -8  -6  -3   86.44    8.55
  -8   6  -3   95.83   10.73
  -8  -6  -3   79.14   10.84
   8   6   3   94.11    5.50
   8   6   3   91.33   11.08
   9  -6   3   -3.21    2.48
   9   6   3    0.54    2.73
  -9   6  -3    0.45    1.54
  -9   6  -3   -1.91    1.71
  -9  -6  -3   -1.28    1.14
  -9   6  -3   -0.11    2.33
  -9  -6  -3   -0.84    2.71
   9  -6   3   -1.22    1.80
  -9  -6  -3   -1.84    3.86
  -9   6  -3    5.49    4.16
  -9  -6  -3   -0.21    1.50
  10   6   3   30.60    7.05
 -10   6  -3   30.63    6.66
  10  -6   3   26.24    4.10
 -10  -6  -3   35.13    7.38
 -10   6  -3   26.52    6.65
 -10  -6  -3   23.57    5.00
  10  -6   3   32.40    5.64
  11   6   3   50.08    9.00
  11  -6   3   44.25    5.56
 -11   6  -3   41.57    7.41
  11  -6   3   50.57    7.14
 -11  -6  -3   44.30    6.88
 -11   6  -3   46.65    8.44
 -11  -6  -3   57.12   10.20
 -11   6  -3   57.35    6.49
  12   6   3    1.26    2.46
 -12   6  -3    1.12    1.50
 -12   6  -3    4.67    3.62
 -12   6  -3    0.18    3.01
 -12  -6  -3    3.73    4.60
  13   6   3    5.63    4.97
 -13   6  -3    7.00    3.94
 -13   6  -3    1.35    2.90
  14  -7  -3   46.50    8.33
 -13  -7   3   47.32    8.10
  13   7  -3   52.04    8.82
 -13   7   3   47.26    8.15
  13  -7  -3   52.47    8.87
  13  -7  -3   44.76    8.73
 -12  -7   3   57.72    8.54
 -12  -7   3   67.83    9.53
  12   7  -3   64.75    9.95
 -12   7   3   62.68    8.95
  12  -7  -3   67.42    9.52
  12  -7  -3   59.28    9.59
 -12   7   3   76.32   12.13
 -11  -7   3   12.94    4.18
 -11  -7   3   15.73    5.19
  11   7  -3   13.74    5.58
 -11   7   3   10.03    3.77
  11  -7  -3   14.24    4.90
  11  -7  -3   12.30    4.66
 -11   7   3   13.47    6.65
 -10  -7   3   14.75    4.39
 -10  -7   3   16.22    4.59
  10   7  -3   12.27    4.22
 -10   7   3   31.90    5.85
  10  -7  -3   12.81    4.24
  10  -7  -3   21.19    5.48
 -10   7   3   24.95    7.93
  -9  -7   3   69.86    8.50
  -9  -7   3   59.74    7.86
   9   7  -3   75.42   10.50
   9  -7  -3   62.22    8.39
   9  -7  -3   60.06    7.84
  -9   7   3   61.09   11.47
  -9   7   3   69.85    8.14
   8   7  -3  178.93   16.59
  -8   7   3  176.59   18.51
   8  -7  -3  186.27   14.24
  -8  -7   3  178.08   12.90
   8  -7  -3  189.62   13.72
  -8   7   3  182.65   19.60
  -8  -7   3  159.86   12.36
  -8   7   3  186.51   12.59
  -7  -7   3    8.28    2.77
  -7  -7   3    9.29    3.00
   7   7  -3    9.95    1.29
   7   7  -3   11.10    3.74
  -7   7   3   12.85    3.71
   7   7  -3    9.29    1.61
  -7   7   3    9.74    4.57
   7   7  -3   11.55    2.31
   7  -7  -3    5.14    3.13
  -7   7   3   10.05    5.04
   7  -7  -3   11.13    3.72
   6   7  -3  327.47   20.64
   6   7  -3  309.10   12.02
   6   7  -3  305.34   14.23
  -6   7   3  311.62   23.73
   6   7  -3  331.12   18.71
   6  -7  -3  336.93   18.23
   6  -7  -3  306.59   16.60
  -6  -7   3  295.11   15.47
  -6   7   3  269.87   22.81
   6   7  -3  312.23   13.22
   6  -7  -3  294.65   21.97
  -6  -7   3  309.13   16.32
   5  -7  -3   68.95    5.25
   5   7  -3   62.04    8.49
   5  -7  -3   62.51    7.55
   5   7  -3   69.13    7.78
  -5  -7   3   69.01    6.91
   5  -7  -3   75.07    7.74
  -5   7   3   61.89    9.98
  -5  -7   3   64.53    8.86
   5   7  -3   62.77    6.22
  -5  -7   3   72.90    7.56
  -5   7   3   54.67    9.79
   5  -7  -3   63.68    9.73
   5  -7  -3   66.18    3.89
  -5   7   3   73.52    4.69
   4  -7  -3   72.30    6.08
   4   7  -3   79.91    9.06
  -4   7   3   64.32    9.37
  -4   7   3   79.97    7.61
  -4   7   3   78.18    5.41
  -4  -7   3   69.60    8.65
   4   7  -3   77.52    7.79
   4  -7  -3   89.32    8.70
  -4  -7   3   77.44    7.02
   4  -7  -3   89.06    4.99
   4  -7  -3   84.68    7.94
   4  -7  -3   78.07   10.04
  -4  -7   3   78.06    7.55
   4   7  -3   63.44    6.59
  -4   7   3   64.92   10.25
   4   7  -3   81.53    7.96
  -4   7   3   74.96    5.60
  -4   7   3   78.37    7.35
   3  -7  -3    2.40    2.09
  -3  -7   3    1.69    1.37
   3   7  -3    1.54    1.77
  -3   7   3    1.34    1.12
   3  -7  -3    1.73    1.18
   3   7  -3    6.38    3.17
   3  -7  -3    0.72    1.40
  -3   7   3    2.22    1.15
   3   7  -3   -0.02    1.42
  -3   7   3    1.82    1.68
  -3  -7   3    5.69    2.99
   3  -7  -3    1.47    1.16
  -3   7   3    2.49    1.62
  -3   7   3    1.03    1.08
  -3   7   3    0.82    2.00
   3  -7  -3   -0.02    1.63
   3   7  -3   -0.20    1.24
  -3  -7   3    1.95    1.51
   2  -7  -3  460.67   18.38
  -2   7   3  521.09   19.29
   2  -7  -3  506.74   16.45
   2   7  -3  492.02   18.60
  -2   7   3  481.27   16.62
   2  -7  -3  482.17   24.21
  -2   7   3  462.17   24.47
  -2  -7   3  488.66   17.04
  -2   7   3  466.11   24.96
   2  -7  -3  448.54   23.29
  -2  -7   3  488.85   19.78
  -2   7   3  543.46   20.34
   2   7  -3  476.47   18.96
   2  -7  -3  481.30   19.44
   2   7  -3  480.62   20.35
  -2   7   3  486.70   18.59
  -1  -7   3    1.45    1.16
   1   7  -3    2.06    1.79
  -1   7   3    2.13    1.60
  -1   7   3    4.29    2.83
  -1  -7   3    1.11    2.12
   1  -7  -3    4.70    2.08
  -1   7   3    3.35    1.31
  -1   7   3    4.32    2.49
  -1  -7   3   -2.02    1.79
   1  -7  -3   -0.18    2.28
   1  -7  -3    4.01    2.25
   1   7  -3    2.82    2.10
  -1  -7   3    3.97    1.69
   0  -7   3  568.53   18.92
   0  -7  -3  555.51   22.95
   0   7   3  601.48   26.15
   0   7   3  575.67   20.68
   0   7   3  613.18   22.37
   0  -7   3  570.51   16.93
   0  -7   3  588.63   22.28
   0  -7  -3  563.34   20.80
   0  -7   3  574.33   21.69
   0  -7  -3  586.66   24.87
   0   7  -3  580.77   22.74
   0   7  -3  554.12   21.08
   0  -7  -3  574.27   21.48
   0   7   3  540.16   22.38
  -1  -7  -3  128.65   10.03
   1   7   3  140.17   11.91
   1  -7   3  137.95    9.64
  -1  -7  -3  123.57   10.63
  -1  -7  -3  124.94    9.83
   1   7   3  136.10    9.72
  -1  -7  -3  144.40   11.73
   1  -7   3  124.78    6.68
   1  -7   3  134.06    7.16
   1   7   3  128.59    9.87
  -1  -7  -3  130.17   11.01
  -1   7  -3  125.38   10.18
  -1   7  -3  124.63    9.66
  -1  -7  -3  136.70    9.92
   1   7   3  121.75   10.76
   2  -7   3    1.65    1.18
   2   7   3    7.07    3.36
  -2  -7  -3    2.57    1.83
   2   7   3    0.46    1.46
  -2  -7  -3    1.88    1.57
   2  -7   3    1.94    1.66
   2   7   3    1.58    2.02
   2  -7   3    1.70    0.84
  -2  -7  -3    4.52    3.01
   2  -7   3    2.10    0.99
  -2  -7  -3    2.43    2.37
  -2  -7  -3    1.46    1.74
  -2  -7  -3    1.46    1.55
  -2   7  -3    6.47    3.25
   2   7   3    5.48    2.24
   2   7   3    1.47    1.11
  -2   7  -3   -0.17    1.65
  -3  -7  -3   74.49    8.03
   3  -7   3   77.76    6.62
  -3  -7  -3   80.45    8.08
  -3  -7  -3   74.47    8.50
  -3  -7  -3   73.56    8.51
   3   7   3   82.53    8.70
   3   7   3   80.52    8.26
   3   7   3   79.44    8.42
  -3  -7  -3   80.73    8.75
  -3  -7  -3   82.56    8.52
  -3   7  -3   70.04    7.77
   3   7   3   78.23    6.00
  -3   7  -3   74.13    8.14
   3  -7   3   82.32    6.99
   3   7   3   68.44    8.77
  -4  -7  -3   61.59    7.15
   4  -7   3   72.92    6.49
  -4  -7  -3   57.87    7.35
   4   7   3   43.36    6.46
   4   7   3   61.39    7.58
   4   7   3   53.91    7.00
  -4  -7  -3   59.45    7.30
  -4   7  -3   56.88    7.20
  -4   7  -3   61.46    7.81
   4   7   3   56.69    4.81
  -4  -7  -3   51.01    7.47
   4  -7   3   55.42    5.33
   4   7   3   62.38    8.73
  -5  -7  -3  180.64   12.55
   5  -7   3  180.21   10.40
   5   7   3  184.28   13.15
  -5  -7  -3  181.28   12.91
   5   7   3  169.91    8.46
  -5  -7  -3  161.02   14.08
  -5  -7  -3  170.35   12.17
  -5   7  -3  173.55   12.93
  -5   7  -3  173.12   13.30
   5  -7   3  195.07   10.19
   5   7   3  173.88   14.64
  -6  -7  -3  426.26   24.27
   6  -7   3  401.13   16.14
  -6  -7  -3  395.67   19.84
   6  -7   3  402.63   15.40
  -6  -7  -3  378.74   18.84
  -6   7  -3  425.03   21.86
   6   7   3  386.17   13.16
   6   7   3  417.45   23.83
  -7   7  -3  251.35   17.72
   7  -7   3  269.65   13.23
  -7  -7  -3  295.24   20.88
   7  -7   3  282.49   12.79
  -7  -7  -3  264.62   16.19
  -7   7  -3  274.71   18.28
   7   7   3  274.94   10.60
   7   7   3  263.67   19.16
  -7  -7  -3  243.46   15.07
   8   7   3    3.07    3.14
   8   7   3    6.53    1.58
   8  -7   3    7.98    2.62
  -8   7  -3    4.93    2.09
  -8   7  -3    4.09    1.63
  -8  -7  -3    3.40    2.11
  -8  -7  -3    5.35    3.59
  -8   7  -3   14.28    4.74
   8  -7   3    5.50    2.01
   9   7   3   12.34    4.99
  -9   7  -3   14.26    4.27
   9  -7   3   11.48    3.04
  -9  -7  -3    8.93    3.23
   9  -7   3   15.05    3.04
  -9  -7  -3   20.02    5.26
  -9   7  -3   19.47    5.74
  10   7   3   18.55    5.99
 -10   7  -3   10.67    4.56
  10  -7   3   22.11    4.47
 -10  -7  -3   14.03    4.30
  10  -7   3   13.78    3.25
 -10  -7  -3   16.03    5.94
 -10   7  -3   14.92    5.22
  11   7   3   41.70    8.85
 -11   7  -3   50.99    6.15
 -11   7  -3   50.70    8.58
 -11  -7  -3   51.92    7.65
 -11   7  -3   51.45    9.86
 -11  -7  -3   56.44   10.22
  12   7   3    5.58    4.74
 -12   7  -3   -0.65    2.17
 -12   7  -3   -3.35    4.40
 -12   7  -3    1.89    2.92
 -12  -7  -3    3.42    4.56
 -13   7  -3  188.64   17.61
 -13   7  -3  177.06   19.32
 -13  -7  -3  211.84   20.87
  13   7   3  178.22   18.47
 -13  -8   3   61.64    9.17
  13   8  -3   72.53   11.31
  13  -8  -3   73.44   11.03
 -12  -8   3   41.61    7.61
 -12  -8   3   50.04    8.40
  12   8  -3   45.16    9.21
 -12   8   3   43.70    7.42
  12  -8  -3   39.52    7.76
  12  -8  -3   52.13    8.66
 -12   8   3   54.58   11.01
 -11  -8   3   77.79   10.27
  11   8  -3   84.80   12.84
 -11   8   3   79.75    9.55
  11  -8  -3   87.62   11.13
  11  -8  -3   71.22    9.87
 -11  -8   3   94.04   10.66
 -11   8   3   64.41   12.10
  10   8  -3  156.93   16.66
  10  -8  -3  148.03   13.58
 -10  -8   3  147.21   13.28
 -10   8   3  159.68   19.49
 -10  -8   3  143.00   12.87
  10  -8  -3  148.08   13.90
 -10   8   3  150.26   12.61
   9   8  -3  532.09   30.95
   9  -8  -3  480.61   24.20
   9  -8  -3  477.44   24.78
  -9  -8   3  484.62   23.69
  -9   8   3  439.68   33.81
  -9  -8   3  475.85   23.36
  -9   8   3  525.04   23.42
  -8  -8   3   10.80    3.82
  -8  -8   3   13.51    4.04
   8   8  -3   11.82    1.45
   8   8  -3   15.62    5.86
  -8   8   3   12.52    3.73
   8   8  -3   12.84    1.64
   8  -8  -3   11.42    3.39
  -8   8   3   24.87    9.04
   8  -8  -3   11.17    3.77
   7   8  -3  406.11   25.32
   7   8  -3  329.16   12.54
   7  -8  -3  381.29   20.50
   7  -8  -3  347.07   19.20
  -7  -8   3  341.17   18.13
   7   8  -3  381.75   14.94
  -7   8   3  307.52   27.39
   7   8  -3  380.10   12.30
  -7  -8   3  366.80   19.18
  -6  -8   3    1.90    2.53
  -6  -8   3    4.12    2.41
  -6   8   3    0.87    0.77
   6  -8  -3    1.53    2.65
   6   8  -3   -2.89    3.59
   6  -8  -3    2.68    2.08
   6   8  -3   -2.89    2.46
  -6   8   3   -0.28    5.04
   6   8  -3    1.96    1.66
   5  -8  -3  188.83    7.03
   5   8  -3  201.38   16.06
   5  -8  -3  204.86    9.81
  -5  -8   3  193.43   12.20
   5  -8  -3  171.63   12.48
  -5   8   3  186.29   19.90
   5   8  -3  155.91   11.19
  -5  -8   3  201.63   13.34
   5  -8  -3  197.57   13.84
  -5   8   3  191.68    8.97
  -4  -8   3    2.30    1.87
  -4   8   3    1.26    1.14
   4  -8  -3    5.56    2.05
   4   8  -3    2.82    2.02
   4  -8  -3    0.65    1.92
   4  -8  -3    5.40    1.31
  -4   8   3   -0.60    4.19
  -4  -8   3    0.89    2.13
   4  -8  -3    4.92    2.74
  -4   8   3    2.29    4.48
   4   8  -3    1.19    2.09
  -4  -8   3    3.58    2.47
   3  -8  -3  796.52   25.81
   3   8  -3  763.64   29.81
  -3   8   3  871.78   27.59
  -3   8   3  749.10   36.31
   3  -8  -3  841.97   21.79
  -3  -8   3  728.42   30.16
  -3  -8   3  796.83   24.98
   3  -8  -3  800.46   29.82
  -3   8   3  749.17   36.68
  -3  -8   3  778.51   27.38
   3  -8  -3  839.20   28.59
   3   8  -3  763.19   27.39
  -3   8   3  771.52   24.85
   2   8  -3   67.60    8.23
  -2   8   3   67.82    7.08
  -2  -8   3   68.12    6.27
   2  -8  -3   65.95    5.82
  -2   8   3   68.30    7.11
  -2   8   3   59.66    9.27
   2  -8  -3   62.18    8.78
  -2  -8   3   67.03    7.49
   2  -8  -3   63.24    8.91
   2   8  -3   67.52    7.45
   2   8  -3   72.90    8.04
   2  -8  -3   63.05    7.28
  -2   8   3   61.00    9.75
  -2   8   3   69.39    7.34
  -1   8   3  849.06   26.96
   1  -8  -3  807.15   29.51
  -1   8   3  836.59   27.87
  -1   8   3  814.62   34.40
  -1  -8   3  756.11   26.60
   1  -8  -3  801.38   32.89
   1  -8  -3  800.17   25.36
  -1  -8   3  844.60   23.75
  -1   8   3  850.98   35.17
   1   8  -3  768.89   24.43
  -1  -8   3  846.85   28.20
   1  -8  -3  842.26   33.27
   1   8  -3  793.91   28.09
   1   8  -3  818.94   29.24
   1  -8  -3  843.54   28.32
  -1   8   3  765.11   28.31
   0  -8  -3   54.89    6.60
   0   8   3   53.24    7.48
   0  -8  -3   58.80    7.66
   0  -8  -3   54.50    6.39
   0  -8   3   50.34    6.57
   0  -8   3   57.76    5.12
   0  -8   3   49.14    5.39
   0   8   3   58.84    8.64
   0   8  -3   55.71    5.55
   0  -8  -3   61.81    8.50
   0   8  -3   56.66    6.99
   0   8  -3   61.44    7.38
   0  -8   3   55.63    7.17
   0  -8  -3   41.69    6.68
   0  -8  -3   58.52    7.09
   0   8   3   57.62    6.79
  -1  -8  -3  172.12   12.42
  -1  -8  -3  171.81   12.46
   1   8   3  177.82   12.26
  -1   8  -3  173.18   12.73
   1  -8   3  174.84   11.72
   1  -8   3  174.26    8.85
  -1  -8  -3  164.45   13.69
   1  -8   3  170.47   11.07
  -1  -8  -3  166.25   12.97
   1   8   3  166.41   13.83
  -1   8  -3  168.55    8.96
  -1  -8  -3  159.47   12.96
  -1   8  -3  182.88   12.83
   1  -8   3  178.71   13.13
   1  -8   3  191.93    9.09
  -1  -8  -3  185.84   12.52
   1   8   3  170.06   13.75
  -2  -8  -3  159.56   12.18
  -2  -8  -3  141.35   11.17
  -2  -8  -3  136.61   12.09
   2  -8   3  154.55   10.30
  -2  -8  -3  131.20   11.88
   2  -8   3  153.83   10.45
   2  -8   3  146.88    7.13
   2   8   3  154.82   11.79
   2   8   3  150.59   12.95
   2  -8   3  165.64    6.52
  -2   8  -3  143.53    7.37
   2   8   3  152.20    9.37
  -2  -8  -3  145.94   12.21
  -2   8  -3  153.33   11.97
  -2   8  -3  138.05   11.47
  -2  -8  -3  144.77   12.55
   2   8   3  138.11   13.02
   3  -8   3  117.22    8.84
  -3  -8  -3  102.13    9.64
   3  -8   3  103.63    8.33
  -3  -8  -3  107.32   10.55
  -3  -8  -3   94.06   10.22
  -3   8  -3  106.57    5.25
  -3  -8  -3  113.66   10.55
  -3   8  -3  110.05   10.20
   3   8   3  108.80    7.82
  -3   8  -3   97.84    9.80
   3   8   3  106.60   11.63
  -4  -8  -3  547.09   23.76
  -4  -8  -3  560.23   26.92
  -4  -8  -3  531.70   24.50
  -4  -8  -3  534.45   23.83
  -4   8  -3  530.00   24.25
  -4   8  -3  528.92   24.67
   4   8   3  565.68   18.73
   4  -8   3  562.03   20.29
   4  -8   3  550.56   20.00
   4   8   3  561.45   28.32
  -5  -8  -3  350.94   18.79
  -5  -8  -3  321.66   18.67
  -5  -8  -3  335.97   21.23
   5  -8   3  334.11   14.96
  -5   8  -3  333.94   19.11
  -5   8  -3  360.17   20.53
   5   8   3  335.60   13.45
   5  -8   3  346.61   15.28
   5   8   3  317.73   21.71
  -6  -8  -3  280.38   20.05
  -6  -8  -3  260.51   16.79
   6  -8   3  297.33   13.94
  -6   8  -3  282.56   18.81
   6   8   3  263.26   11.55
   6  -8   3  283.21   13.52
   6   8   3  256.41   19.72
   7  -8   3  310.66   14.55
   7  -8   3  327.35   14.86
  -7  -8  -3  298.10   18.06
  -7  -8  -3  338.34   22.95
  -7   8  -3  343.43   21.69
   7   8   3  305.73   12.50
   7   8   3  329.23   22.79
   8   8   3   81.92   11.30
   8  -8   3  104.60    8.24
  -8  -8  -3   78.15    9.14
  -8   8  -3   68.17    9.29
  -8   8  -3   96.52   12.01
   8  -8   3   88.73    7.70
  -8  -8  -3   94.04   12.01
   9   8   3   -1.60    4.22
   9  -8   3    2.14    2.03
  -9  -8  -3    2.76    2.50
   9  -8   3   -1.78    2.20
  -9   8  -3   -2.08    3.52
  -9  -8  -3    4.69    4.65
  -9   8  -3   -2.62    3.61
  10  -8   3  184.71   11.93
 -10   8  -3  189.05   16.87
 -10  -8  -3  216.25   20.27
 -10   8  -3  193.11   18.72
 -10  -8  -3  176.15   14.37
  10   8   3  180.03   17.62
  11   8   3   45.53    9.90
 -11  -8  -3   38.62    7.14
 -11  -8  -3   50.52   10.20
 -11   8  -3   39.35    8.13
 -11   8  -3   28.28    6.66
 -12   8  -3  241.79   20.08
 -12  -8  -3  280.51   24.13
 -12   8  -3  280.15   24.45
 -12   8  -3  302.88   16.75
  12   8   3  278.78   23.28
 -13   8  -3   11.60    4.77
 -13   8  -3   11.55    4.58
 -13  -8  -3   11.17    5.45
  13   9  -3   57.06   10.35
 -12  -9   3    8.35    4.36
  12  -9  -3   -3.55    4.16
  12   9  -3    7.64    5.36
 -12   9   3    2.35    2.67
  12  -9  -3   -0.24    2.55
 -11  -9   3   77.38   10.19
  11   9  -3   88.77   13.12
 -11   9   3   84.52    9.96
 -11  -9   3   88.21   10.67
  11  -9  -3   72.96   10.40
  11  -9  -3   75.05   10.35
 -11   9   3   80.10   14.88
  10   9  -3  256.45   22.54
  10  -9  -3  205.95   16.55
  10  -9  -3  220.87   17.28
 -10  -9   3  216.51   16.56
 -10   9   3  184.89   22.77
 -10  -9   3  237.62   16.88
 -10   9   3  224.55   15.97
  -9  -9   3    9.22    3.58
  -9  -9   3    7.88    4.18
   9   9  -3    8.74    5.54
  -9   9   3   11.74    4.22
   9  -9  -3    6.98    2.95
  -9   9   3   11.95    7.08
   9  -9  -3   14.67    5.40
   8   9  -3 1309.00   51.39
   8   9  -3 1180.46   26.94
   8  -9  -3 1206.72   40.64
   8  -9  -3 1168.78   40.74
  -8  -9   3 1207.34   39.35
  -8  -9   3 1266.18   40.55
  -7  -9   3    6.06    3.36
  -7  -9   3    5.21    2.40
   7  -9  -3    3.48    2.29
   7   9  -3    5.85    3.40
   7   9  -3    6.45    2.58
  -7   9   3   14.86    7.51
   7   9  -3    5.51    1.73
   7  -9  -3    7.78    3.96
   6   9  -3  287.79   21.11
  -6  -9   3  311.35   16.84
   6   9  -3  305.96   16.74
   6  -9  -3  284.69   17.71
   6  -9  -3  292.63   17.55
  -6   9   3  253.35   25.72
   6   9  -3  320.02   15.55
  -6  -9   3  284.34   16.90
  -6   9   3  277.85   10.41
   5   9  -3  145.84   14.25
   5  -9  -3  141.49    6.16
  -5  -9   3  149.23   10.96
   5  -9  -3  139.37   12.32
   5  -9  -3  126.79   11.10
  -5  -9   3  134.26   11.16
   5   9  -3  129.76   10.71
  -5   9   3  118.71   16.60
  -5   9   3  134.39    8.29
   4   9  -3   95.81   10.90
   4  -9  -3  118.30    8.99
   4  -9  -3  108.90    6.37
  -4  -9   3  100.06   11.92
  -4  -9   3  100.02    8.84
   4  -9  -3  111.29   10.83
   4  -9  -3  113.30   10.50
  -4  -9   3  109.19    9.89
   4   9  -3  100.43    9.92
  -4   9   3   97.84   14.48
  -4   9   3   88.97    7.71
   3   9  -3   56.59    7.99
   3  -9  -3   61.35    5.43
  -3  -9   3   63.81    6.67
  -3  -9   3   44.31    7.75
   3  -9  -3   57.84    7.89
  -3  -9   3   63.89    7.65
   3  -9  -3   69.15    8.11
  -3   9   3   59.98   11.09
   3   9  -3   50.18    6.78
  -3   9   3   47.98    6.25
   2   9  -3  798.97   30.54
   2  -9  -3  822.71   24.71
  -2  -9   3  686.68   29.36
   2   9  -3  782.97   27.40
  -2   9   3  781.77   37.89
  -2  -9   3  810.49   28.88
   2   9  -3  735.39   29.02
  -2  -9   3  733.81   26.90
   2  -9  -3  837.46   29.69
  -2  -9   3  797.31   25.07
  -2   9   3  717.89   28.06
   1  -9  -3  475.33   21.31
   1   9  -3  522.35   23.27
   1  -9  -3  485.52   20.12
   1  -9  -3  488.73   23.32
   1  -9  -3  466.19   25.97
  -1  -9   3  502.84   18.22
  -1  -9   3  493.45   21.92
  -1   9   3  492.77   20.57
   1   9  -3  459.64   19.62
  -1   9   3  483.96   27.71
   1   9  -3  449.92   22.22
  -1  -9   3  461.56   21.65
   1  -9  -3  473.67   21.78
  -1   9   3  416.27   22.10
   0  -9  -3  997.30   34.05
   0  -9  -3 1085.37   37.03
   0  -9   3 1096.13   28.54
   0  -9  -3 1123.58   35.09
   0  -9  -3 1065.36   39.87
   0  -9   3 1048.68   34.64
   0  -9   3  999.87   30.56
   0   9  -3 1056.19   30.63
   0   9  -3 1076.15   36.28
   0  -9   3 1045.91   35.77
   0  -9  -3 1085.40   35.27
   0   9   3 1028.90   38.51
   1   9   3   22.80    5.47
  -1   9  -3   33.19    4.52
  -1  -9  -3   36.45    6.07
  -1  -9  -3   28.87    5.01
   1  -9   3   29.57    5.21
  -1  -9  -3   26.30    5.31
   1  -9   3   28.82    3.77
  -1  -9  -3   22.54    5.38
   1  -9   3   38.93    5.45
  -1  -9  -3   24.63    5.82
   1  -9   3   31.33    3.94
  -1   9  -3   33.07    6.12
   1   9   3   27.46    4.37
  -2  -9  -3  393.09   20.40
   2  -9   3  419.69   18.74
   2  -9   3  384.10   18.02
   2  -9   3  405.39   13.68
  -2  -9  -3  380.54   22.07
   2  -9   3  399.51   12.24
  -2   9  -3  365.62   14.76
  -2   9  -3  367.18   20.68
  -2  -9  -3  397.43   21.92
   2   9   3  360.59   23.18
   3  -9   3   75.04    7.63
  -3  -9  -3   80.90    8.97
   3   9   3   61.98    9.46
  -3  -9  -3   84.62   10.15
   3  -9   3   78.39    7.62
  -3   9  -3   72.76    5.51
  -3   9  -3   71.31    9.07
  -3  -9  -3   77.15    9.60
  -4  -9  -3   45.90    8.10
   4   9   3   38.89    7.85
   4  -9   3   44.11    5.82
   4  -9   3   49.24    5.81
  -4   9  -3   40.12    3.34
  -4  -9  -3   31.98    6.11
  -4  -9  -3   54.07    7.56
  -4   9  -3   41.55    6.99
  -5  -9  -3  659.89   27.24
  -5  -9  -3  552.79   26.18
  -5  -9  -3  645.73   30.48
   5  -9   3  597.22   20.92
  -5   9  -3  563.56   27.94
   5  -9   3  568.42   21.42
   5   9   3  536.64   30.01
  -6  -9  -3  156.60   13.27
   6  -9   3  179.29   10.90
  -6  -9  -3  166.58   15.84
  -6  -9  -3  157.42   13.66
   6  -9   3  145.12   10.45
  -6   9  -3  148.71   14.63
   6   9   3  145.05   15.84
   7  -9   3  484.99   18.95
   7  -9   3  490.40   19.88
  -7   9  -3  465.35   27.39
  -7  -9  -3  449.00   23.67
  -7  -9  -3  540.75   29.69
   7   9   3  509.90   30.22
  -8  -9  -3  236.81   19.98
  -8  -9  -3  218.49   16.22
   8  -9   3  219.40   13.27
  -8   9  -3  237.28   19.76
   8  -9   3  241.46   12.96
   8   9   3  209.66   19.40
  -9   9  -3  223.87   18.37
   9  -9   3  224.96   12.86
   9  -9   3  224.44   13.49
  -9  -9  -3  205.86   16.08
  -9   9  -3  228.81   20.30
  -9  -9  -3  236.60   20.71
   9   9   3  187.66   18.84
  10   9   3   -1.04    3.96
 -10   9  -3   -0.73    2.43
 -10  -9  -3    1.10    3.97
  10  -9   3    0.58    1.69
 -10  -9  -3   -0.33    3.06
 -10   9  -3    0.12    4.94
  11   9   3   92.65   13.47
 -11  -9  -3  128.51   16.40
 -11  -9  -3   85.49   10.44
 -11   9  -3   85.26   11.76
 -11   9  -3   87.36   13.19
 -12   9  -3    6.60    3.13
 -12   9  -3    4.28    3.17
 -12  -9  -3    9.85    4.36
 -12   9  -3   -0.26    3.30
  13  10  -3   16.18    6.42
 -12 -10   3    9.90    5.24
  12  10  -3   14.50    6.50
 -12  10   3   22.48    8.46
  12 -10  -3   16.99    5.92
 -11 -10   3    8.06    4.05
 -11 -10   3    7.26    3.54
  11  10  -3    9.29    3.97
 -11  10   3    5.08    3.81
  11 -10  -3    6.86    3.67
  11 -10  -3    8.07    3.19
 -11  10   3    6.99    4.83
 -10 -10   3    1.02    2.92
 -10 -10   3    1.50    2.15
  10  10  -3    1.85    3.15
 -10  10   3   -3.57    3.56
  10 -10  -3   -7.64    3.82
 -10  10   3   -5.08    6.34
  10 -10  -3   -0.09    2.11
   9  10  -3  564.59   33.97
   9 -10  -3  476.81   25.59
  -9 -10   3  451.56   24.16
  -9  10   3  415.44   36.32
  -9 -10   3  477.13   24.79
  -9  10   3  529.96   24.96
   9 -10  -3  477.57   25.79
  -8 -10   3   36.20    6.58
   8 -10  -3   30.68    6.45
  -8 -10   3   33.20    6.19
   8  10  -3   50.19   10.17
   8 -10  -3   33.23    6.54
  -8  10   3   21.00    8.03
   7  10  -3 1298.42   50.55
   7 -10  -3 1140.84   39.71
   7 -10  -3 1061.23   38.69
  -7  10   3  923.48   54.65
   7  10  -3 1183.31   31.33
  -7 -10   3 1097.13   37.88
  -7 -10   3 1056.33   36.67
  -7  10   3 1091.96   22.74
  -6 -10   3   55.91    7.58
   6  10  -3   43.11    8.25
   6 -10  -3   54.05    7.79
   6 -10  -3   58.37    8.19
   6  10  -3   39.43    6.12
   6  10  -3   55.26    6.96
  -6  10   3   64.22   14.09
  -6  10   3   54.54    4.92
  -6 -10   3   63.17    8.09
  -5 -10   3   16.64    4.24
   5 -10  -3   19.17    4.47
  -5  10   3   17.73    3.50
   5  10  -3   18.00    5.05
   5 -10  -3   18.81    2.39
   5 -10  -3   17.14    4.49
  -5  10   3   26.40    8.36
   5  10  -3   25.12    5.16
  -5 -10   3   19.94    4.57
  -4  10   3   12.77    3.61
   4  10  -3    7.51    3.61
   4 -10  -3    7.71    1.88
   4 -10  -3    5.93    3.45
   4 -10  -3    7.09    3.46
  -4  10   3   12.56    5.60
   4  10  -3    7.96    3.41
  -4 -10   3   10.18    3.44
  -4 -10   3    8.12    2.40
  -3  10   3   15.96    4.10
   3  10  -3   21.36    4.70
   3 -10  -3   10.93    3.12
   3  10  -3   20.69    5.63
   3 -10  -3   17.39    4.29
   3 -10  -3   16.52    3.21
  -3 -10   3   15.70    5.15
  -3  10   3   16.41    6.95
   3  10  -3   12.79    3.77
  -3 -10   3   21.80    4.54
  -3 -10   3   17.10    4.01
  -3 -10   3   18.10    3.89
   2 -10  -3  142.76   11.56
   2  10  -3  141.21   12.89
   2 -10  -3  144.14   10.22
  -2 -10   3  151.85   10.48
   2  10  -3  137.71   11.54
  -2 -10   3  156.11   12.53
  -2  10   3  146.60   16.71
   2  10  -3  115.79   11.66
  -2 -10   3  137.13   11.66
   2 -10  -3  142.69   12.32
  -2 -10   3  121.70   12.70
  -2  10   3  123.12   11.89
   1 -10  -3 1235.34   39.48
   1  10  -3 1316.09   41.89
   1 -10  -3 1370.25   43.28
  -1 -10   3 1300.30   34.36
   1  10  -3 1257.88   42.47
   1 -10  -3 1252.25   37.80
   1  10  -3 1230.89   38.09
  -1  10   3 1244.40   49.60
  -1 -10   3 1182.48   40.52
   1 -10  -3 1311.40   41.08
  -1  10   3 1149.92   42.79
   0 -10  -3  347.77   19.55
   0  10  -3  345.44   19.24
   0 -10   3  306.61   16.87
   0 -10  -3  389.80   21.68
   0 -10   3  361.27   19.59
   0 -10  -3  354.71   19.84
   0 -10   3  368.37   15.68
   0  10  -3  354.26   17.80
   0  10   3  346.74   23.63
   0  10  -3  316.70   19.92
   0 -10  -3  350.98   19.60
   0  10   3  332.20   22.41
   1 -10   3  771.95   22.95
   1 -10   3  781.46   28.03
   1 -10   3  742.45   28.21
  -1 -10  -3  782.77   32.28
   1 -10   3  676.59   22.81
  -1 -10  -3  712.41   33.12
  -1  10  -3  707.33   25.66
  -1  10  -3  676.67   30.32
   1  10   3  723.94   25.35
  -1 -10  -3  736.26   29.89
   1  10   3  690.83   34.40
   2  10   3    1.88    2.97
   2 -10   3    6.20    2.89
  -2  10  -3    1.86    1.42
   2 -10   3    2.16    1.92
   2 -10   3    3.73    1.68
  -2 -10  -3   -2.40    3.35
   2 -10   3    1.05    1.07
  -2 -10  -3    0.23    2.48
  -2 -10  -3    2.41    2.06
  -2  10  -3    2.80    2.12
   2  10   3    2.51    1.57
  -3 -10  -3    1.34    2.54
   3  10   3    2.95    2.79
  -3  10  -3    4.05    1.81
   3 -10   3    3.16    2.64
  -3 -10  -3   -0.63    3.53
   3 -10   3    1.84    1.69
  -3 -10  -3    7.14    3.86
  -3  10  -3    4.14    2.86
   3  10   3    0.89    1.33
   4  10   3    2.72    1.25
   4  10   3    1.70    3.28
  -4  10  -3    0.04    1.06
   4 -10   3    3.92    2.18
  -4 -10  -3    3.05    2.27
  -4 -10  -3    2.29    2.38
  -4 -10  -3    6.69    3.96
  -4  10  -3    0.78    2.04
   4 -10   3    1.94    1.95
   5  10   3   37.45    8.79
  -5 -10  -3   57.65    8.40
  -5  10  -3   49.62    4.00
  -5 -10  -3   41.18    7.19
   5  10   3   51.14    5.98
  -5 -10  -3   64.03    9.83
   5 -10   3   46.99    6.47
  -5  10  -3   36.24    7.26
   5 -10   3   56.31    6.29
  -6 -10  -3  590.31   29.04
  -6 -10  -3  698.97   30.15
   6 -10   3  671.88   23.32
  -6 -10  -3  719.32   34.54
   6  10   3  605.76   21.99
  -6  10  -3  599.93   31.78
   6 -10   3  649.01   24.76
   6  10   3  584.25   34.43
  -7 -10  -3  161.35   14.62
  -7 -10  -3  189.75   15.34
   7 -10   3  164.74   10.61
  -7 -10  -3  194.00   17.93
   7 -10   3  183.98   12.55
  -7  10  -3  159.72   16.41
   7  10   3  170.50   18.24
  -8 -10  -3  552.84   31.76
   8 -10   3  567.37   20.89
  -8 -10  -3  485.77   26.24
   8 -10   3  527.34   22.32
  -8  10  -3  501.82   30.97
   8  10   3  493.46   31.96
   9 -10   3   28.23    5.18
   9  10   3   24.23    7.53
  -9 -10  -3   15.56    4.72
  -9 -10  -3   32.47    8.34
  -9  10  -3   15.77    5.95
  10  10   3    9.94    5.49
 -10  10  -3   16.57    5.81
 -10 -10  -3    9.45    4.33
  10 -10   3   15.07    3.93
 -10 -10  -3    8.75    3.18
 -10  10  -3    5.90    3.72
  11  10   3   -5.87    5.94
 -11 -10  -3    1.95    5.29
 -11  10  -3   -7.93    5.14
 -11  10  -3    8.80    4.94
  12  11  -3   11.82    6.23
 -12  11   3   17.05    5.40
  11  11  -3   10.55    5.91
  11 -11  -3   10.98    3.12
 -11  11   3   12.76    7.72
 -11 -11   3   13.05    5.20
 -10 -11   3   10.68    5.07
  10  11  -3    6.35    4.69
 -10  11   3    0.36    2.64
  10 -11  -3    4.49    3.79
 -10  11   3    5.66    5.33
  10 -11  -3    4.89    4.01
 -10 -11   3    4.12    3.30
  -9 -11   3   43.66    7.70
   9  11  -3   58.95   11.01
   9 -11  -3   47.85    7.95
  -9  11   3   43.88   12.13
   9 -11  -3   47.54    8.25
  -9 -11   3   48.43    8.05
   8  11  -3  257.75   22.71
  -8 -11   3  184.57   15.11
   8 -11  -3  213.08   16.71
   8 -11  -3  206.04   16.62
  -8  11   3  182.43   24.46
  -8 -11   3  197.02   15.73
  -7 -11   3   31.01    6.13
   7 -11  -3   12.26    4.53
   7  11  -3   15.96    5.80
   7 -11  -3   21.36    5.37
  -7  11   3    6.11    4.76
   7  11  -3   24.27    4.09
  -7 -11   3   24.47    5.84
   6  11  -3  185.73   18.25
   6  11  -3  202.71   14.97
  -6 -11   3  197.76   14.37
   6 -11  -3  181.12   15.06
   6 -11  -3  171.05   14.66
  -6  11   3  171.33   22.83
   6  11  -3  219.83   14.32
  -6 -11   3  200.73   15.13
  -6  11   3  162.36    9.76
   5 -11  -3   63.07    4.58
   5  11  -3   56.78    9.57
   5 -11  -3   74.45    9.37
  -5 -11   3   69.22    8.23
   5 -11  -3   59.49    8.52
   5  11  -3   59.68    8.58
  -5  11   3   57.63   13.13
   5  11  -3   55.41    7.66
  -5 -11   3   59.83    8.37
  -5  11   3   54.36    6.44
   4 -11  -3   69.41    7.47
  -4  11   3   42.10    6.39
   4  11  -3   57.13    9.45
   4 -11  -3   64.75    8.84
   4 -11  -3   65.82    8.95
  -4 -11   3   77.24    9.18
  -4 -11   3   56.51    7.22
  -4  11   3   40.77   10.33
   4  11  -3   49.24    7.62
   4 -11  -3   58.46    5.44
  -4 -11   3   55.86    7.20
  -3  11   3   25.33    5.50
   3  11  -3   23.41    6.00
   3 -11  -3   26.50    5.03
   3 -11  -3   18.33    3.56
   3 -11  -3   19.18    5.18
  -3  11   3    6.96    3.48
   3  11  -3   17.82    4.96
  -3 -11   3   18.96    4.65
  -3 -11   3   18.17    3.96
  -3 -11   3   18.31    4.78
   2 -11  -3  172.82   13.34
   2  11  -3  185.33   15.67
   2 -11  -3  170.13   11.79
  -2 -11   3  184.89   12.17
  -2 -11   3  140.30   14.53
   2  11  -3  190.55   14.65
  -2  11   3  171.70   19.04
   2  11  -3  166.68   15.01
   2 -11  -3  171.07   14.24
  -2  11   3  138.40   13.84
  -1  11   3    0.45    2.37
   1  11  -3   -1.93    2.04
   1  11  -3    2.37    2.52
   1 -11  -3    1.88    1.71
  -1 -11   3    6.20    3.54
   1 -11  -3    4.58    3.44
  -1  11   3    2.37    3.47
   1  11  -3   -4.51    4.32
  -1 -11   3    1.95    2.17
   1 -11  -3    4.16    2.78
   0  11  -3  573.26   26.59
   0 -11  -3  585.37   28.18
   0 -11   3  563.59   26.17
   0 -11   3  592.56   21.60
   0 -11   3  587.85   25.15
   0 -11  -3  566.05   27.51
   0  11  -3  550.06   24.79
   0  11   3  522.04   31.42
   0  11  -3  511.20   27.40
   0 -11  -3  563.83   26.99
   0  11   3  452.57   28.98
  -1  11  -3  236.35   16.14
   1 -11   3  216.15   14.75
   1 -11   3  209.41   15.08
   1 -11   3  222.38   11.99
  -1  11  -3  207.28   14.07
   1 -11   3  191.98   12.38
  -1  11  -3  193.54   16.60
  -1 -11  -3  196.03   16.24
   1  11   3  213.73   13.43
  -1 -11  -3  216.41   16.20
   1  11   3  175.91   18.11
   2  11   3   61.32   11.04
  -2  11  -3   52.28    6.65
   2 -11   3   53.86    7.07
   2 -11   3   56.75    7.56
   2 -11   3   49.47    5.00
   2 -11   3   49.78    4.86
  -2 -11  -3   41.32    8.09
   2  11   3   57.02    7.01
  -2 -11  -3   40.38    7.38
  -2 -11  -3   53.60    8.53
  -2  11  -3   44.52    7.85
   3  11   3    7.02    2.36
  -3 -11  -3    4.14    2.16
   3  11   3    4.16    4.46
  -3  11  -3    5.77    2.80
   3 -11   3    3.13    2.59
  -3 -11  -3    5.09    2.99
   3 -11   3    4.03    2.17
   3 -11   3    9.23    2.13
  -3 -11  -3    5.50    3.81
  -3  11  -3    6.64    3.37
   4  11   3    0.14    1.79
  -4  11  -3   -0.45    2.05
   4  11   3   -2.14    4.56
   4 -11   3    4.29    2.72
  -4 -11  -3    4.78    3.80
  -4 -11  -3   -3.56    3.60
  -4 -11  -3   -3.32    3.78
   4 -11   3    0.21    2.54
  -4  11  -3   -0.29    3.08
   5  11   3   19.68    3.97
   5  11   3   13.43    5.01
   5 -11   3   15.37    3.69
  -5 -11  -3    3.56    2.90
  -5 -11  -3   22.60    6.72
  -5 -11  -3   16.89    5.15
  -5  11  -3    7.22    2.82
   5 -11   3   13.88    3.88
  -6 -11  -3  304.41   20.26
   6 -11   3  303.52   15.36
  -6 -11  -3  311.32   22.92
  -6 -11  -3  259.91   19.43
  -6  11  -3  282.65   22.56
   6 -11   3  294.64   17.04
   6  11   3  274.20   24.30
  -7 -11  -3  347.73   21.94
   7 -11   3  327.31   15.77
  -7 -11  -3  345.08   24.94
  -7 -11  -3  316.88   21.64
   7 -11   3  327.73   18.08
  -7  11  -3  292.67   23.69
   7  11   3  309.18   26.20
   8  11   3    2.30    3.98
   8 -11   3    4.25    2.53
   8 -11   3    1.13    1.76
  -8 -11  -3    8.17    3.61
  -8 -11  -3    0.69    3.46
  -8 -11  -3    4.63    4.36
  -8  11  -3   -6.59    6.61
   9 -11   3    2.50    2.47
   9  11   3   -2.10    6.08
  -9 -11  -3   -0.39    3.00
  -9 -11  -3   -1.36    3.50
  -9  11  -3  -12.07    7.07
 -10  11  -3    0.02    2.77
  10  11   3    2.31    3.98
 -10 -11  -3    2.73    2.79
 -10 -11  -3    6.05    4.32
 -10  11  -3    3.39    3.88
 -12  12   3   14.25    7.87
  11  12  -3    4.02    6.18
 -11  12   3   -6.56    4.78
  10  12  -3    2.88    3.52
  10 -12  -3    6.26    4.29
 -10  12   3    3.01    4.90
  10 -12  -3   11.88    4.47
 -10 -12   3    6.73    4.31
 -10 -12   3    5.63    3.27
   9  12  -3   39.46   10.21
   9 -12  -3   40.87    7.94
  -9  12   3   44.45   13.20
  -9 -12   3   46.12    8.32
  -9 -12   3   32.63    6.97
   9 -12  -3   35.03    7.22
   8 -12  -3   21.18    5.77
   8  12  -3   25.05    8.42
   8 -12  -3    8.49    3.76
  -8  12   3   24.87    9.17
  -8 -12   3   19.98    5.85
  -8 -12   3   22.52    5.52
   7 -12  -3   -0.14    3.26
   7  12  -3   -4.24    5.42
   7 -12  -3    3.70    2.78
  -7  12   3   -5.44    7.59
  -7 -12   3   -0.99    1.95
  -7 -12   3    6.25    3.75
   6  12  -3   92.93   13.51
   6 -12  -3   95.29   11.62
   6 -12  -3   72.47    9.71
   6  12  -3   83.44    9.31
  -6  12   3   73.15   15.00
  -6 -12   3   77.60    9.65
  -6 -12   3   77.77    9.42
  -6  12   3   73.10    7.14
  -5  12   3    6.52    2.11
   5  12  -3    4.27    3.25
   5 -12  -3    7.75    4.17
   5 -12  -3    8.05    3.97
  -5  12   3   20.50    8.97
   5  12  -3    9.38    4.25
  -5 -12   3    3.18    2.38
  -5 -12   3   12.21    4.33
  -4  12   3   12.30    4.12
   4  12  -3   24.35    7.23
   4 -12  -3   18.42    3.32
   4 -12  -3   14.61    4.76
   4 -12  -3   15.87    4.91
  -4  12   3    1.49    5.75
   4  12  -3   10.06    3.34
  -4 -12   3   15.35    4.07
  -4 -12   3   16.94    4.54
  -3  12   3    2.48    2.40
   3  12  -3    4.67    3.62
   3 -12  -3    5.45    2.88
   3 -12  -3    6.00    2.56
   3 -12  -3    3.10    2.45
  -3  12   3    5.67    4.91
   3  12  -3    6.03    4.06
  -3 -12   3    4.61    2.79
   2  12  -3  126.18   13.74
   2 -12  -3  121.75   10.52
  -2 -12   3   82.48   11.99
  -2 -12   3  125.06   10.50
   2  12  -3  112.12   12.80
  -2  12   3  114.61   16.18
   2 -12  -3  140.27   13.60
  -2  12   3   86.28   12.08
   1 -12  -3    8.02    3.58
  -1  12   3    4.70    3.56
   1  12  -3    6.02    2.99
   1  12  -3    5.08    2.00
  -1 -12   3    7.73    3.63
   1 -12  -3   13.16    4.86
  -1  12   3    0.21    3.72
   1  12  -3    0.74    2.50
  -1 -12   3    6.15    2.54
   1 -12  -3   12.54    4.97
   0 -12  -3    1.82    2.85
   0  12   3    6.53    4.49
   0  12  -3   -0.16    2.22
   0  12  -3    0.08    2.49
   0 -12   3   -0.54    2.38
   0 -12   3    4.79    2.38
   0 -12  -3    1.49    2.90
   0  12   3   -3.19    3.46
   0 -12   3    3.19    1.48
   0  12  -3    2.43    2.65
  -1  12  -3  105.30   11.56
   1  12   3   76.51   13.01
   1 -12   3  101.18   10.56
   1 -12   3  101.10   10.88
   1 -12   3   87.59    8.98
   1 -12   3  116.16    8.94
  -1  12  -3   95.44   10.18
  -1 -12  -3  100.77   11.63
  -1  12  -3   84.54   11.07
  -1 -12  -3  108.30   11.66
   2 -12   3   28.95    5.93
   2  12   3   29.45    8.32
  -2  12  -3   24.40    4.96
   2 -12   3   29.28    5.66
  -2  12  -3   33.71    6.56
   2 -12   3   20.47    3.54
  -2 -12  -3   20.23    5.40
   2 -12   3   31.00    4.33
  -2 -12  -3   31.07    6.72
  -2  12  -3   25.00    6.12
   3 -12   3   77.73    9.09
  -3  12  -3   81.93    9.77
   3  12   3   57.55   11.61
   3 -12   3   65.82    5.97
   3 -12   3   63.75    7.81
  -3  12  -3   65.57    7.71
  -3 -12  -3   83.40   11.29
  -3  12  -3   55.27    9.64
  -3 -12  -3   82.85   10.62
   4  12   3    1.18    4.09
   4 -12   3   11.40    3.92
  -4 -12  -3    8.05    3.83
   4 -12   3   14.29    4.01
  -4 -12  -3    4.00    2.35
  -4 -12  -3    7.78    3.99
  -4  12  -3    3.06    4.36
   5  12   3   99.31   15.93
  -5 -12  -3  136.36   13.73
   5 -12   3  113.41    9.79
  -5 -12  -3  103.55   12.71
  -5 -12  -3  115.84   13.97
   5 -12   3   97.67   10.25
  -5  12  -3  107.70   13.73
  -6 -12  -3    7.75    4.96
   6  12   3    2.45    3.40
   6 -12   3    5.12    2.82
  -6 -12  -3   -1.42    3.74
   6 -12   3    3.33    2.73
  -6 -12  -3   -1.45    4.35
  -6  12  -3    1.53    3.44
   7  12   3    5.25    4.60
   7 -12   3    3.28    2.47
   7 -12   3    3.39    2.73
  -7 -12  -3    5.87    4.56
  -7 -12  -3   -4.38    4.37
  -7 -12  -3    0.39    3.56
  -7  12  -3   -6.99    6.12
   8  12   3   26.87    8.61
   8 -12   3   18.07    5.03
  -8 -12  -3   19.05    6.25
  -8 -12  -3   10.91    4.16
  -8 -12  -3   22.30    7.41
  -8  12  -3    6.30    3.60
   9  12   3  111.06   16.50
  -9 -12  -3  111.32   12.99
   9 -12   3   91.04   10.16
  -9 -12  -3   86.40   11.86
  -9 -12  -3  109.68   14.68
  -9  12  -3   83.56   13.22
 -10 -12  -3   32.80    7.87
  10  13  -3   35.68    9.61
 -10  13   3   41.52   13.12
   9 -13  -3    1.66    2.86
   9  13  -3    3.70    3.87
   9 -13  -3    8.09    4.21
  -9  13   3   16.04    8.74
  -9 -13   3    9.58    4.99
  -9 -13   3    4.14    3.78
   8  13  -3  227.13   22.55
  -8 -13   3  196.20   16.40
   8 -13  -3  173.89   15.84
   8 -13  -3  165.66   16.41
  -8  13   3  199.39   26.76
  -8 -13   3  191.29   16.49
   7 -13  -3   28.98    7.18
   7  13  -3   31.45    9.30
   7 -13  -3   22.67    6.27
  -7  13   3   22.80    9.22
  -7 -13   3   15.97    4.76
  -7 -13   3   40.32    7.49
   6  13  -3  242.48   22.63
   6 -13  -3  187.88   16.28
  -6 -13   3  190.04   15.42
   6 -13  -3  186.17   16.99
  -6 -13   3  192.62   16.13
  -6  13   3  193.22   25.22
   6  13  -3  214.28   15.79
  -5  13   3    0.51    1.93
   5  13  -3    2.80    4.58
   5 -13  -3    2.92    3.53
   5 -13  -3    4.86    3.55
  -5  13   3    1.09    5.23
   5  13  -3    6.32    3.51
  -5 -13   3   -0.87    2.46
  -5 -13   3    2.20    2.16
  -4  13   3    2.89    2.71
   4  13  -3    2.00    3.17
   4 -13  -3   -4.11    4.41
   4 -13  -3    4.57    3.86
  -4  13   3    0.40    3.12
   4  13  -3    4.25    3.49
  -4 -13   3    3.48    2.82
  -4 -13   3   -2.06    3.26
  -3  13   3    5.25    2.53
   3  13  -3    1.95    3.63
   3 -13  -3   15.70    5.67
  -3  13   3    1.68    3.95
   3  13  -3   12.94    4.56
  -3 -13   3   15.65    4.51
  -2  13   3   54.37   10.02
   2  13  -3   77.80   11.36
  -2 -13   3   89.47    9.40
  -2  13   3   90.51   15.29
   2 -13  -3   82.97   10.86
   2  13  -3   88.70   11.90
  -1  13   3   25.26    7.24
  -1 -13   3   42.85    7.34
   1  13  -3   30.65    7.09
  -1 -13   3   25.91    7.06
   1 -13  -3   45.21    8.38
  -1  13   3   42.96    9.41
  -1 -13   3   45.30    6.43
   1  13  -3   32.25    6.98
   1 -13  -3   51.44    8.82
   0  13  -3  369.46   23.61
   0 -13   3  294.60   20.50
   0 -13   3  423.29   22.85
   0 -13  -3  413.81   25.26
   0 -13   3  369.97   22.67
   0 -13   3  357.67   18.32
   0  13   3  381.09   28.63
   0  13  -3  370.39   25.58
   0 -13  -3  399.57   24.50
   0  13   3  279.18   25.37
   1  13   3   53.01   10.74
  -1  13  -3   69.95    9.77
  -1 -13  -3   80.62   11.12
   1 -13   3   93.71   10.73
   1 -13   3   78.61    9.59
  -1 -13  -3   90.46   11.81
   1 -13   3   86.12    8.14
  -1  13  -3   46.96    9.52
   2  13   3   27.01    8.24
  -2  13  -3   40.75    7.64
  -2 -13  -3   32.58    6.48
   2 -13   3   44.01    5.58
  -2 -13  -3   40.89    8.33
  -2  13  -3   35.18    8.44
   2 -13   3   43.42    7.37
   2 -13   3   39.82    6.81
   3  13   3   -2.97    5.67
  -3  13  -3    8.18    4.24
   3 -13   3    3.46    2.42
  -3 -13  -3    4.11    3.24
  -3 -13  -3    7.32    4.24
  -3  13  -3   -1.54    5.04
   3 -13   3    2.21    2.09
  -4 -13  -3    8.25    4.09
   4  13   3    3.86    3.96
   4 -13   3    8.70    4.11
  -4  13  -3   11.44    4.80
  -4 -13  -3    2.44    2.60
  -4  13  -3   -3.23    4.17
   4 -13   3   11.91    3.87
  -5 -13  -3   53.00    9.22
   5  13   3   51.88   11.92
  -5  13  -3   47.59    7.78
   5 -13   3   49.14    6.75
  -5 -13  -3   55.28   10.16
  -5  13  -3   37.98    8.29
   5 -13   3   43.50    7.42
  -6  13  -3   96.92   10.56
   6  13   3   86.34   14.96
  -6 -13  -3   97.11   12.22
   6 -13   3   84.73    8.35
   6 -13   3   79.02    9.64
  -6 -13  -3  109.66   14.09
  -6  13  -3   69.68   12.29
  -7  13  -3  213.95   15.97
  -7 -13  -3  244.74   19.58
  -7 -13  -3  260.95   22.12
   7 -13   3  199.97   15.67
  -7  13  -3  211.36   21.92
   7  13   3  198.66   23.04
   8  13   3   16.79    7.68
  -8  13  -3   25.18    5.95
   8 -13   3   12.47    3.90
  -8 -13  -3   18.75    5.31
  -8 -13  -3   15.14    6.32
  -8  13  -3    6.60    4.35
  -9 -13  -3   36.50    7.82
   9 -13   3   26.01    5.54
 -10 -13  -3   -0.61    3.02
   8  14  -3  114.93   16.24
  -8 -14   3  100.93   12.23
   8 -14  -3   97.20   12.07
  -8  14   3  102.50   19.92
  -8 -14   3  102.57   12.40
   7  14  -3  424.98   31.50
  -7 -14   3  366.17   23.05
   7 -14  -3  366.42   25.15
  -7 -14   3  392.96   24.83
  -7  14   3  446.53   39.52
   7 -14  -3  372.64   23.85
   6 -14  -3   13.55    5.01
   6  14  -3   26.38    8.85
   6 -14  -3   17.00    5.61
  -6  14   3    8.04    5.54
  -6 -14   3   13.03    4.26
  -6 -14   3   13.23    4.48
   5  14  -3  194.90   20.06
  -5 -14   3  158.98   14.20
   5 -14  -3  157.54   15.26
  -5  14   3  214.82   26.30
   5  14  -3  138.90   13.86
   5 -14  -3  156.20   16.02
  -5  14   3  125.27   12.04
  -4  14   3   28.62    6.23
   4  14  -3   24.09    7.32
   4 -14  -3   45.43    9.04
   4 -14  -3   30.85    6.62
  -4  14   3   35.61   10.77
   4  14  -3   40.54    7.99
  -4 -14   3   35.65    6.30
   3  14  -3  209.07   19.88
  -3 -14   3  188.82   14.55
  -3  14   3  191.20   23.31
   3  14  -3  205.48   18.42
   3 -14  -3  187.40   17.77
  -3  14   3  139.47   15.51
  -2  14   3   17.42    6.10
   2  14  -3   23.74    6.39
  -2  14   3   23.89    8.43
   2 -14  -3   20.16    6.18
   2  14  -3   13.98    4.44
  -2 -14   3   25.90    5.42
   1  14  -3  856.02   39.38
   1 -14  -3  848.07   38.19
  -1 -14   3  870.92   35.37
  -1 -14   3  806.71   30.11
   1  14  -3  740.48   38.37
  -1  14   3  790.75   44.93
   1 -14  -3  852.46   38.28
   0 -14  -3   58.37    9.78
   0 -14   3   66.92    9.56
   0  14   3   30.44    8.06
   0  14  -3   69.37   10.60
   0 -14   3   62.38    7.70
   0 -14   3   70.24    9.91
   0 -14  -3   61.21    9.93
   0  14   3   65.37   12.46
   0  14  -3   83.88   12.72
   1 -14   3  127.75   12.82
   1  14   3  112.15   16.81
  -1  14  -3   96.89   12.09
  -1 -14  -3  123.59   14.38
   1 -14   3  110.46   12.21
   1 -14   3  123.55   10.29
  -1  14  -3  114.78   15.19
  -1 -14  -3  107.77   12.99
  -2 -14  -3  213.70   18.22
   2 -14   3  208.84   16.34
  -2  14  -3  194.97   17.10
   2 -14   3  197.94   12.56
   2 -14   3  199.04   15.93
  -2 -14  -3  185.52   17.84
  -2  14  -3  182.35   18.96
   2  14   3  161.11   20.98
   3  14   3   -2.25    4.38
  -3  14  -3    4.81    3.82
   3 -14   3    6.77    3.48
   3 -14   3    0.77    2.16
  -3 -14  -3    1.64    3.18
  -3 -14  -3    4.73    3.96
  -3  14  -3    4.80    3.38
  -4  14  -3   95.87   11.57
   4  14   3   88.15   16.17
   4 -14   3   88.44    9.69
  -4 -14  -3   96.90   13.36
  -4  14  -3   83.13   13.37
   4 -14   3   89.18   10.76
  -4 -14  -3   76.70   10.79
  -5  14  -3  369.48   22.48
  -5 -14  -3  409.09   26.19
   5 -14   3  375.48   19.75
  -5 -14  -3  388.15   27.01
  -5  14  -3  348.05   28.00
   5 -14   3  397.95   22.94
   5  14   3  379.92   32.77
  -6  14  -3  285.72   19.62
  -6 -14  -3  340.09   23.60
  -6 -14  -3  333.83   25.58
  -6  14  -3  306.72   26.75
   6 -14   3  285.42   19.57
   6  14   3  263.13   27.70
  -7  14  -3  185.86   15.59
  -7 -14  -3  236.06   19.81
  -7 -14  -3  203.21   20.24
   7 -14   3  177.45   15.45
  -7  14  -3  176.01   20.40
   7  14   3  189.83   23.28
  -8  14  -3  131.16   13.11
  -8 -14  -3  135.41   15.54
   8 -14   3  128.49   13.10
  -9 -14  -3   15.54    5.99
   7 -15  -3    8.44    4.64
  -7 -15   3    3.24    3.09
   6  15  -3  268.26   25.37
  -6 -15   3  225.56   18.02
   6 -15  -3  212.97   18.51
   6 -15  -3  212.42   19.96
  -6  15   3  257.13   29.76
  -5 -15   3    4.04    3.26
   5  15  -3    5.75    3.59
   5 -15  -3   12.73    6.44
   5 -15  -3   -5.73    3.70
  -5  15   3   -1.02    5.25
   5  15  -3    2.65    2.34
  -4  15   3   74.84   10.83
   4  15  -3   74.34   12.78
  -4 -15   3   95.11   10.78
   4 -15  -3   90.11   12.91
   4 -15  -3   87.08   12.27
  -4  15   3   79.00   14.89
   4  15  -3   77.79   11.20
  -3  15   3    1.85    3.14
   3  15  -3    4.18    3.82
   3 -15  -3    4.49    4.72
  -3  15   3    5.45    4.57
   3  15  -3    5.31    3.28
  -3 -15   3    5.80    2.96
   2  15  -3  508.46   32.04
  -2 -15   3  468.70   26.44
  -2 -15   3  438.00   22.93
  -2  15   3  458.89   35.55
   2  15  -3  448.82   29.28
   2 -15  -3  465.14   28.99
  -2  15   3  380.21   29.13
  -1  15   3   21.51    7.53
   1  15  -3   33.54    7.24
  -1 -15   3   38.72    7.66
  -1  15   3   45.38   11.14
  -1 -15   3   45.55    7.12
   1  15  -3   50.75    9.75
   1 -15  -3   41.61    8.35
   0  15  -3  527.92   31.05
   0 -15   3  507.76   27.58
   0 -15  -3  532.55   30.49
   0 -15   3  506.82   23.30
   0 -15   3  521.48   28.85
   0  15   3  505.62   35.34
   0  15  -3  460.73   31.18
   0 -15  -3  551.62   31.10
   0  15   3  394.07   32.81
   1  15   3   57.37   12.75
   1 -15   3   71.76   10.13
  -1  15  -3   77.64   11.23
  -1 -15  -3   90.73   12.56
   1 -15   3   63.66    9.70
   1 -15   3   71.92    8.12
  -1 -15  -3   82.29   11.94
  -1  15  -3   78.13   12.51
   2  15   3   24.98    7.63
  -2  15  -3   39.12    7.97
  -2 -15  -3   49.26    8.88
   2 -15   3   47.51    7.86
   2 -15   3   45.61    6.26
  -2 -15  -3   60.52   10.59
   2 -15   3   51.02    8.44
  -2  15  -3   46.63    9.43
   3  15   3   62.19   13.92
  -3  15  -3   54.85    8.93
   3 -15   3   68.00    9.27
   3 -15   3   72.64   10.07
  -3 -15  -3   72.37   11.36
  -3 -15  -3   84.52   12.36
  -3  15  -3   45.22   10.15
   4 -15   3   70.13   10.08
   4  15   3   68.13   13.98
  -4  15  -3   60.73    9.47
   4 -15   3   64.25    8.65
  -4 -15  -3   64.81   11.11
  -4 -15  -3   52.57    9.19
  -4  15  -3   50.31   11.20
  -5  15  -3  222.66   18.12
  -5 -15  -3  243.28   20.62
   5  15   3  185.38   23.57
  -5 -15  -3  278.74   23.17
  -5  15  -3  203.27   22.04
   5 -15   3  239.13   18.45
  -6  15  -3  200.44   16.86
   6 -15   3  208.93   17.25
  -7  15  -3  213.83   17.62
   7 -15   3  230.14   18.32
  -8 -15  -3   26.60    7.48
   8 -15   3   30.12    6.92
   6 -16  -3   36.69    7.74
  -6 -16   3   40.89    8.04
   5 -16  -3   11.39    5.59
  -5 -16   3    5.10    3.35
   4  16  -3   21.01    7.47
   4 -16  -3   18.79    6.32
   4 -16  -3   12.03    4.96
  -4  16   3   11.86    5.68
   4  16  -3   23.35    7.05
  -4 -16   3   20.21    5.20
  -3  16   3   57.38   10.33
   3  16  -3   51.81   11.04
  -3 -16   3   62.84   10.27
   3 -16  -3   58.49   10.46
   3 -16  -3   69.79   11.60
  -3  16   3   49.91   13.09
   3  16  -3   65.88   11.28
  -3 -16   3   54.17    8.38
   2  16  -3  177.13   19.49
  -2 -16   3  165.76   16.13
   2  16  -3  156.52   17.60
  -2  16   3  150.22   20.37
   2 -16  -3  155.94   17.23
  -2 -16   3  149.78   13.53
  -2  16   3  167.55   19.34
   1  16  -3  296.63   24.44
  -1 -16   3  301.03   21.62
  -1 -16   3  267.77   17.72
  -1  16   3  262.33   26.61
   1  16  -3  234.12   22.17
   1 -16  -3  301.00   23.82
  -1  16   3  267.86   26.03
   0 -16  -3   97.96   13.55
   0  16   3   91.57   16.28
   0  16  -3   92.61   13.37
   0 -16   3   72.02   11.03
   0 -16   3   84.37   11.53
   0 -16  -3   84.35   12.21
   0  16   3   92.93   15.34
   0 -16   3   77.03    8.98
   0  16  -3   87.23   13.48
  -1  16  -3  273.88   22.26
   1 -16   3  289.02   20.73
  -1 -16  -3  248.02   21.49
   1 -16   3  234.27   19.32
  -1  16  -3  221.31   22.39
  -1 -16  -3  217.30   20.22
   1  16   3  237.66   26.03
   2  16   3    0.19    4.55
  -2  16  -3    0.80    4.02
  -2 -16  -3    4.98    3.42
   2 -16   3    0.43    3.66
   2 -16   3    1.19    2.60
  -2 -16  -3   -4.51    5.35
  -2  16  -3   -0.77    3.87
   3  16   3   31.28    9.55
  -3  16  -3   31.03    7.16
   3 -16   3   45.83    7.83
   3 -16   3   43.52    8.70
  -3 -16  -3   32.57    7.35
  -3 -16  -3   40.43    8.33
  -3  16  -3   34.85   10.13
   4 -16   3   38.19    7.57
   4  16   3   41.71   11.69
  -4  16  -3   32.97    7.35
   4 -16   3   36.69    6.91
  -4 -16  -3   33.32    7.46
  -5  16  -3    6.33    3.07
   5 -16   3    1.21    2.94
  -5 -16  -3   -4.30    4.71
  -6  16  -3  161.48   15.98
  -6 -16  -3  197.33   19.24
   6 -16   3  160.41   16.19
   7 -16   3   70.87   10.68
   5 -17  -3   21.34    6.18
  -5 -17   3   24.79    6.71
   4 -17  -3   11.47    4.92
  -4 -17   3   11.76    4.43
   3 -17  -3    2.36    3.45
  -3 -17   3   -1.40    3.91
   3  17  -3    6.69    4.41
  -2  17   3   32.44    9.32
  -2 -17   3   39.22    7.06
   2  17  -3   40.33    9.90
  -1  17   3   61.08   12.78
  -1 -17   3   61.42   10.66
  -1 -17   3   59.66   10.01
  -1 -17   3   49.24    7.54
   1  17  -3   76.43   13.15
   0 -17   3  128.15   14.36
   0  17   3  124.51   18.91
   0  17  -3  118.28   15.47
   0  17   3  102.12   17.22
   0  17  -3  122.48   16.57
   0 -17  -3  147.43   17.08
   0 -17   3  124.11   14.69
  -1 -17  -3    0.02    2.71
   1  17   3    2.69    4.95
  -1  17  -3   -5.66    5.63
   1 -17   3    5.98    3.29
  -1  17  -3   -1.67    3.76
   1 -17   3    7.56    4.00
   2  17   3    5.38    4.42
  -2  17  -3   12.19    4.79
  -2 -17  -3   17.48    6.75
   2 -17   3   25.00    6.36
   2 -17   3   16.52    5.64
  -3  17  -3   -3.64    4.32
   3 -17   3   -0.51    3.21
   3 -17   3    4.37    3.43
   4 -17   3    3.91    3.98
  -4  17  -3   -1.47    4.28
  -5  17  -3   16.06    5.37
   5 -17   3   16.45    5.56
  -4 -18   3    0.88    2.53
   3 -18  -3    1.16    3.89
  -3 -18   3   16.38    5.43
   3  18  -3   13.70    5.17
  -2  18   3   55.26   11.27
  -2 -18   3   54.71    8.82
   2  18  -3   59.08   11.51
  -1  18   3   15.81    6.95
  -1 -18   3   14.45    5.38
   1  18  -3   16.34    7.17
   0 -18   3   -9.00    6.11
   0  18   3   -3.65    6.31
   1 -18   3   20.46    6.78
   2 -18   3   -2.19    4.74
  14   0  -4  201.27   20.11
  13   0  -4  293.27   23.11
 -13   0   4  295.86   19.62
 -13   0   4  269.20   18.31
 -12   0   4  787.47   25.70
  12   0  -4  804.72   37.60
 -12   0   4  863.20   33.19
 -12   0   4  811.96   32.23
 -11   0   4  243.60   12.98
  11   0  -4  250.36   19.25
 -11   0   4  250.73   16.16
  10   0  -4   54.24    4.61
 -10   0   4   62.18    7.81
 -10   0   4   61.11    6.25
  10   0  -4   58.65    8.90
  -9   0   4    8.57    2.97
   9   0  -4    7.21    1.87
  -9   0   4   11.08    2.52
  -9   0   4   10.24    1.13
   9   0  -4    9.91    3.61
   9   0  -4    7.57    1.86
  -8   0   4   16.53    3.91
   8   0  -4   22.05    3.77
   8   0  -4   10.99    3.09
  -8   0   4   12.58    2.79
   8   0  -4   13.14    4.11
   8   0  -4   13.45    3.51
  -8   0   4   13.85    1.86
  -7   0   4    3.69    1.95
   7   0  -4    2.09    1.79
   7   0  -4    0.93    1.50
  -7   0   4    6.39    2.14
  -7   0   4    3.56    1.02
   7   0  -4    3.40    1.97
   7   0  -4    5.40    2.31
   6   0  -4 2727.57   58.92
  -6   0   4 2706.65   51.42
  -6   0   4 2721.08   55.58
   6   0  -4 2766.55   56.00
  -6   0   4 2895.83   59.21
   6   0  -4 2684.42   63.34
  -6   0   4 2824.99   65.58
   6   0  -4 2721.38   57.98
  -6   0   4 2806.02   58.25
   6   0  -4 2776.58   56.88
  -5   0   4   13.44    2.74
   5   0  -4   16.70    2.93
   5   0  -4   15.31    3.12
  -5   0   4   14.72    2.38
  -5   0   4   24.54    3.62
   5   0  -4   14.17    2.59
   5   0  -4   20.59    4.51
  -5   0   4   15.54    3.58
   5   0  -4   19.61    3.47
  -5   0   4   16.78    3.08
   4   0  -4 3289.46   63.65
   4   0  -4 3319.84   63.49
  -4   0   4 3253.97   63.04
  -4   0   4 3290.38   61.53
   4   0  -4 3183.17   68.73
  -4   0   4 3416.25   63.80
   4   0  -4 3237.00   62.06
   3   0  -4    5.92    2.42
  -3   0   4    4.07    1.68
  -3   0   4    2.54    1.30
   3   0  -4    2.34    1.13
   3   0  -4    2.56    1.18
   3   0  -4    5.30    1.71
  -3   0   4    2.52    1.34
   3   0  -4    2.83    1.55
  -3   0   4    3.79    1.59
  -3   0   4    2.70    1.48
  -2   0   4    8.68    1.82
   2   0  -4   10.48    1.89
  -2   0   4    6.24    1.92
  -2   0   4    7.31    1.85
   2   0  -4    5.99    1.89
   2   0  -4   12.55    3.19
   2   0  -4    8.40    2.04
   2   0  -4    9.55    1.99
  -2   0   4   11.49    2.07
   1   0  -4   68.91    4.67
   1   0  -4   84.64    6.39
  -1   0   4   60.44    5.43
   1   0  -4   75.12    6.62
  -1   0   4   77.21    4.83
  -1   0   4   74.81    6.29
  -1   0   4   68.85    4.77
   1   0  -4   69.17    4.46
   1   0  -4   75.68    6.14
   0   0   4  466.62   15.10
   0   0   4  480.18   17.66
   0   0  -4  476.97   16.57
   0   0  -4  441.55   16.86
   0   0   4  478.02   12.39
   0   0   4  461.70   13.36
   0   0  -4  457.16   12.23
   1   0   4 1463.36   32.09
  -1   0  -4 1470.31   35.52
  -1   0  -4 1538.02   35.48
   1   0   4 1533.04   27.19
   1   0   4 1476.38   29.24
  -1   0  -4 1464.06   27.32
   1   0   4 1480.22   37.06
   2   0   4 2393.78   52.39
   2   0   4 2333.61   45.76
   2   0   4 2315.39   40.59
  -2   0  -4 2318.86   38.77
   3   0   4 2446.69   48.50
   3   0   4 2567.81   56.35
  -3   0  -4 2604.53   53.60
  -4   0  -4   69.26    4.97
   4   0   4   67.10    7.12
  -4   0  -4   62.50    6.79
  -4   0  -4   79.56    6.93
   4   0   4   65.75    6.54
   4   0   4   67.71    4.92
  -4   0  -4   58.62    6.57
   5   0   4    5.44    1.52
  -5   0  -4    1.50    1.52
  -5   0  -4    5.19    2.33
   5   0   4    3.00    1.73
   5   0   4    4.55    2.28
  -5   0  -4    4.57    2.25
  -5   0  -4    4.77    1.53
   6   0   4   24.34    2.90
   6   0   4   31.56    5.08
  -6   0  -4   25.24    4.97
  -6   0  -4   26.96    3.52
   7   0   4  140.86   11.16
  -7   0  -4  128.20   10.80
  -7   0  -4  130.90    8.91
   7   0   4  138.10    7.18
  -8   0  -4  145.86   11.06
  -8   0  -4  142.74   11.83
   8   0   4  141.35   11.65
  -8   0  -4  147.98    5.94
  -8   0  -4  159.69    4.89
  -8   0  -4  143.84    4.89
   9   0   4 1692.82   48.84
  -9   0  -4 1714.67   47.72
  -9   0  -4 1658.40   47.60
  -9   0  -4 1762.26   45.73
  -9   0  -4 1700.41   30.85
  10   0   4   27.10    5.92
 -10   0  -4   17.55    4.24
 -10   0  -4   29.19    5.86
 -10   0  -4   26.31    5.06
  11   0   4  206.71   17.14
 -11   0  -4  205.60   15.39
 -11   0  -4  189.09   13.90
 -12   0  -4   -3.51    2.78
  12   0   4   -3.88    4.64
 -12   0  -4   -1.78    2.01
 -13   0  -4   22.56    5.72
 -13   0  -4   29.74    6.12
  14   1  -4   60.71   11.41
  14  -1  -4   55.54   11.10
  13   1  -4  391.68   27.08
  13  -1  -4  417.75   27.51
 -13  -1   4  392.02   22.99
 -13   1   4  409.00   23.16
 -13  -1   4  382.61   22.09
 -13   1   4  379.16   22.26
  12  -1  -4  127.88   14.46
 -12  -1   4  112.81    9.53
  12   1  -4  124.18   14.31
 -12  -1   4  126.23   12.28
 -12  -1   4  126.72   11.77
 -12   1   4  121.24   11.73
  11   1  -4  328.34   13.38
 -11  -1   4  281.93   15.25
  11   1  -4  331.44   22.33
  11  -1  -4  353.99   22.73
 -11   1   4  307.89   13.46
 -11  -1   4  305.32   18.24
 -11  -1   4  332.39   18.77
 -11   1   4  322.97   18.54
 -10  -1   4   10.15    3.17
 -10   1   4    9.44    3.65
  10   1  -4    8.02    2.28
  10   1  -4   12.16    4.56
  10  -1  -4    7.84    3.26
 -10  -1   4   10.19    2.76
 -10   1   4    9.82    2.43
  10  -1  -4    4.36    3.43
  10  -1  -4   10.39    2.97
   9  -1  -4   22.19    2.56
  -9  -1   4   21.34    4.45
  -9   1   4   17.17    4.18
   9   1  -4   24.45    4.03
  -9  -1   4   22.73    3.82
   9  -1  -4   22.20    4.33
  -9   1   4   23.75    2.62
   9   1  -4   24.41    5.53
  -9   1   4   23.69    3.56
   9  -1  -4   22.48    5.62
   9  -1  -4   22.70    4.31
   9   1  -4   19.91    2.73
  -8  -1   4    0.67    1.87
  -8   1   4    3.43    2.14
   8  -1  -4    0.59    1.03
   8   1  -4    0.19    1.59
  -8  -1   4   -1.29    1.72
   8  -1  -4   -2.83    2.63
  -8   1   4    1.39    0.99
  -8   1   4    1.60    1.10
   8   1  -4    0.03    2.22
   8  -1  -4   -0.33    2.51
   8   1  -4   -0.12    1.59
   8  -1  -4   -1.65    2.24
   7   1  -4  599.59   21.82
   7  -1  -4  560.23   18.47
  -7  -1   4  662.96   15.45
  -7  -1   4  640.12   21.88
  -7   1   4  641.21   19.38
  -7   1   4  661.45   18.08
   7   1  -4  620.08   18.76
   7  -1  -4  661.17   23.62
   7   1  -4  638.21   26.35
   7  -1  -4  686.52   27.24
   7   1  -4  618.17   20.90
   7  -1  -4  624.21   24.34
  -7  -1   4  661.89   23.26
  -7   1   4  662.16   22.84
  -6   1   4    3.40    1.57
  -6  -1   4    2.78    1.71
  -6   1   4    6.50    2.26
   6   1  -4    4.13    1.83
   6   1  -4    5.34    1.84
  -6   1   4    6.24    1.96
  -6  -1   4    4.94    1.09
  -6  -1   4    3.98    1.92
  -6   1   4    7.61    1.94
  -6  -1   4    5.91    2.03
   6   1  -4    3.66    2.50
   6  -1  -4   12.32    3.67
   6  -1  -4    3.86    1.73
   6  -1  -4    2.28    2.07
   6   1  -4    7.63    2.22
   6  -1  -4    5.33    2.03
  -5  -1   4 1760.50   35.70
  -5  -1   4 1727.59   40.22
   5  -1  -4 1599.03   39.74
  -5   1   4 1733.72   37.47
   5  -1  -4 1713.07   40.79
  -5  -1   4 1798.65   40.88
  -5   1   4 1717.32   37.32
   5  -1  -4 1695.24   45.12
  -5  -1   4 1791.43   47.01
  -5   1   4 1775.46   46.38
  -5   1   4 1839.51   41.14
   5   1  -4 1759.86   37.51
   5   1  -4 1713.60   39.30
   5  -1  -4 1735.50   42.62
   5   1  -4 1776.29   45.06
  -5  -1   4 1711.89   40.40
  -5   1   4 1683.08   39.52
   5   1  -4 1705.18   39.16
   5  -1  -4 1719.77   38.75
   4   1  -4  175.37   11.27
  -4  -1   4  166.50    8.29
  -4   1   4  157.06    8.44
   4  -1  -4  153.40    9.05
   4   1  -4  161.17    8.69
   4  -1  -4  157.67    9.59
  -4  -1   4  159.46    9.54
  -4   1   4  152.67    8.68
  -4  -1   4  184.08   12.24
   4  -1  -4  158.03   11.05
   4  -1  -4  161.22   10.36
  -4  -1   4  168.67    9.44
  -4   1   4  156.96    8.92
   4   1  -4  168.76    9.11
   4  -1  -4  179.30    8.55
   4  -1  -4  163.50    8.59
   3  -1  -4   53.57    4.95
  -3  -1   4   52.84    4.78
  -3   1   4   51.31    5.03
  -3  -1   4   56.96    5.44
   3  -1  -4   58.53    5.13
   3   1  -4   56.20    5.14
   3  -1  -4   56.38    5.45
  -3  -1   4   48.26    4.63
   3   1  -4   66.41    6.61
   3  -1  -4   55.36    6.21
  -3  -1   4   51.82    4.82
  -3   1   4   49.82    4.60
   3   1  -4   45.79    4.44
  -3   1   4   48.79    4.61
   3  -1  -4   48.33    4.29
   3  -1  -4   59.16    4.90
  -2  -1   4   67.70    5.60
   2   1  -4   72.06    6.00
  -2   1   4   67.07    6.00
   2  -1  -4   62.26    4.83
   2  -1  -4   61.92    5.85
   2  -1  -4   71.41    5.66
  -2  -1   4   64.91    4.85
  -2  -1   4   65.42    5.96
   2  -1  -4   65.53    6.59
  -2   1   4   68.59    5.10
   2   1  -4   54.64    5.24
  -2  -1   4   57.62    4.90
  -2   1   4   63.56    4.84
  -2   1   4   63.68    5.25
   2   1  -4   73.49    5.14
   2   1  -4   65.43    6.23
   2  -1  -4   66.06    4.67
   2  -1  -4   69.38    5.61
   1  -1  -4   27.71    3.65
  -1  -1   4   29.47    3.98
   1  -1  -4   27.09    2.94
   1   1  -4   26.17    3.68
  -1   1   4   25.34    3.38
  -1  -1   4   25.77    2.79
  -1   1   4   25.86    3.87
   1   1  -4   28.40    3.91
   1  -1  -4   22.95    3.82
  -1   1   4   28.36    3.06
  -1  -1   4   29.03    4.05
  -1  -1   4   28.54    3.29
  -1   1   4   27.90    2.94
   1   1  -4   29.46    3.05
   1  -1  -4   27.72    2.75
   1  -1  -4   31.41    4.05
   0  -1   4  159.99    9.63
   0   1   4  166.23    8.84
   0   1  -4  164.76    9.25
   0  -1  -4  158.80    6.61
   0   1   4  180.63    9.31
   0  -1  -4  173.46    9.40
   0   1   4  179.06   10.37
   0  -1  -4  158.31   10.03
   0  -1   4  172.41    6.69
   0   1   4  166.58    6.99
   0  -1   4  168.39    7.79
   0   1   4  160.59    6.72
   0   1  -4  169.87    7.10
   0   1  -4  165.57    9.26
   1  -1   4 1507.52   36.98
   1  -1   4 1528.37   30.90
   1   1   4 1558.68   37.82
  -1   1  -4 1511.60   35.29
  -1  -1  -4 1443.02   27.31
  -1  -1  -4 1565.18   35.61
   1  -1   4 1526.72   26.82
  -1   1  -4 1397.56   33.77
  -1  -1  -4 1434.68   36.46
   1   1   4 1473.73   33.17
   1  -1   4 1461.30   30.32
   1   1   4 1480.98   27.94
  -1   1  -4 1438.93   28.59
   1   1   4 1420.99   27.83
   2   1   4  876.21   26.84
  -2  -1  -4  874.99   15.55
   2  -1   4  850.61   26.48
   2  -1   4  841.58   20.26
   2   1   4  844.21   22.99
  -2   1  -4  937.35   25.41
  -2   1  -4  849.51   23.41
  -2  -1  -4  867.40   25.00
   2  -1   4  812.24   19.28
   2   1   4  836.25   16.04
  -2   1  -4  830.40   17.58
  -3  -1  -4  432.13   14.75
   3  -1   4  432.63   18.25
   3   1   4  435.54   18.28
  -3   1  -4  472.73   17.04
   3   1   4  414.56   15.20
   3  -1   4  419.47   12.50
  -3  -1  -4  434.30   17.00
   3  -1   4  411.22   16.53
  -3   1  -4  421.25   10.07
  -4  -1  -4  146.17   10.59
  -4   1  -4  149.06    9.38
   4  -1   4  149.47   10.77
   4   1   4  151.14   10.73
  -4  -1  -4  155.30    8.53
  -4   1  -4  153.16   10.98
   4  -1   4  141.44    9.57
   4   1   4  152.14   10.17
  -4  -1  -4  161.55   10.26
   4   1   4  145.53    8.25
   4  -1   4  139.17    6.12
  -4   1  -4  152.72    4.89
  -4   1  -4  157.51   10.59
  -4  -1  -4  158.09   10.60
  -5   1  -4    6.69    0.98
   5   1   4    9.07    2.11
  -5   1  -4   12.86    3.32
  -5  -1  -4    9.43    2.99
   5  -1   4    6.86    1.31
   5   1   4    5.44    2.36
  -5  -1  -4    4.24    2.38
   5  -1   4    6.51    2.36
   5   1   4    9.37    3.20
  -5   1  -4    7.53    2.79
  -5  -1  -4    6.54    2.05
  -5   1  -4    5.55    1.95
  -5   1  -4    7.19    1.70
  -5  -1  -4    4.07    1.63
  -6   1  -4   38.03    3.57
  -6   1  -4   43.37    5.37
   6   1   4   44.90    6.04
  -6   1  -4   37.29    5.88
  -6  -1  -4   40.57    5.78
   6   1   4   44.37    4.43
   6  -1   4   40.42    5.43
   6  -1   4   40.99    3.20
  -6   1  -4   43.98    2.95
  -6  -1  -4   44.63    5.14
  -6   1  -4   43.24    2.27
  -7   1  -4   81.62    5.99
   7  -1   4   91.04    8.59
   7   1   4   87.55    9.02
   7   1   4   82.18    6.28
  -7   1  -4   85.11    8.87
  -7  -1  -4   93.94    8.75
  -7   1  -4   85.70    5.06
  -7  -1  -4   82.50    8.47
  -7   1  -4   92.68    8.42
  -7   1  -4   91.08    3.84
  -8   1  -4  773.35   16.45
  -8   1  -4  842.81   31.02
  -8   1  -4  900.75   25.36
   8  -1   4  826.74   29.64
   8   1   4  834.49   31.17
  -8  -1  -4  813.19   30.51
  -8   1  -4  821.76   25.74
  -8   1  -4  847.07   22.70
  -8  -1  -4  819.59   17.02
  -8   1  -4  878.52   29.15
  -8   1  -4  858.26   17.78
  -8  -1  -4  811.87   29.95
   9  -1   4   36.40    6.34
   9   1   4   42.90    7.36
  -9   1  -4   42.92    6.97
  -9  -1  -4   45.34    6.75
  -9   1  -4   43.66    5.51
  -9   1  -4   45.64    6.02
  -9   1  -4   35.64    3.01
  -9  -1  -4   49.06    8.10
  -9   1  -4   43.94    6.46
 -10   1  -4  483.37   23.90
  10  -1   4  475.08   24.14
  10   1   4  452.81   24.88
 -10   1  -4  494.32   22.46
 -10  -1  -4  466.07   26.74
 -10  -1  -4  461.50   22.73
 -10   1  -4  465.31   22.22
 -10  -1  -4  486.87   21.68
  11  -1   4    6.60    2.77
  11   1   4   17.35    4.87
 -11   1  -4   12.27    4.42
 -11  -1  -4   13.45    4.19
 -11  -1  -4    9.20    3.98
 -11   1  -4   15.44    4.42
 -11  -1  -4   15.01    4.06
  12  -1   4   15.61    4.25
 -12   1  -4   13.76    4.41
 -12  -1  -4    8.32    3.29
 -12   1  -4    8.99    3.41
 -12  -1  -4   20.48    4.94
 -13   1  -4    2.46    3.18
 -13  -1  -4    5.61    3.20
 -13   1  -4   -0.42    2.98
  14  -2  -4   41.89    9.28
 -13  -2   4    9.84    3.73
  13   2  -4    9.87    4.46
 -13   2   4   13.77    4.77
 -13  -2   4   10.92    4.20
  13  -2  -4   -2.13    4.04
 -13  -2   4   10.35    3.47
 -12  -2   4   72.96    9.28
 -12   2   4   67.55    8.63
 -12  -2   4   74.66    9.26
  12  -2  -4   76.43    9.87
 -12  -2   4   67.90    8.07
  12   2  -4   84.04   11.92
  12  -2  -4   74.21   10.48
 -11  -2   4   21.49    5.32
 -11   2   4   17.91    4.77
  11   2  -4   15.49    3.45
 -11  -2   4   16.36    4.87
  11  -2  -4   15.62    4.40
 -11  -2   4   10.52    3.04
 -11   2   4   14.43    2.49
  11   2  -4   19.71    6.38
  11  -2  -4   23.04    6.31
 -10  -2   4   16.63    4.24
 -10   2   4   15.89    4.31
  10   2  -4    7.75    3.01
 -10  -2   4    2.37    2.16
 -10  -2   4    2.15    1.87
  10  -2  -4   11.01    3.65
 -10   2   4    8.76    2.07
  10   2  -4    5.44    3.02
  10  -2  -4    1.06    1.28
  10  -2  -4   15.71    5.44
  -9   2   4   47.72    4.44
  -9  -2   4   43.63    6.24
   9   2  -4   45.99    6.28
  -9   2   4   49.80    4.50
  -9  -2   4   38.67    5.40
   9  -2  -4   37.30    5.94
   9   2  -4   59.53    8.68
   9  -2  -4   48.74    7.70
  -9   2   4   57.35    7.18
   8  -2  -4  258.46    7.61
   8   2  -4  268.25   15.56
   8  -2  -4  278.36   15.47
  -8  -2   4  266.48   14.31
  -8   2   4  294.85   11.03
   8   2  -4  290.87   17.95
   8  -2  -4  312.41   18.46
  -8   2   4  274.39   11.35
   8   2  -4  244.75   10.36
  -8  -2   4  287.44   15.26
  -8   2   4  286.73   14.91
   8  -2  -4  281.30    6.68
  -7  -2   4   21.19    4.06
  -7   2   4   22.63    4.11
   7   2  -4   19.07    3.98
   7  -2  -4   18.00    2.59
  -7  -2   4   19.74    3.78
  -7   2   4   22.75    3.08
   7  -2  -4   25.57    4.48
  -7   2   4   17.79    2.95
   7   2  -4   23.46    4.69
   7  -2  -4   26.73    5.09
   7   2  -4   20.35    2.50
   7   2  -4   16.25    2.85
   7  -2  -4   21.55    2.17
   6   2  -4  283.07   13.94
   6   2  -4  297.15   11.04
  -6   2   4  300.21   12.74
   6  -2  -4  262.24   14.78
   6  -2  -4  299.49   14.57
  -6  -2   4  308.87   14.77
  -6  -2   4  283.29   14.37
   6  -2  -4  323.73   17.66
   6   2  -4  283.68   16.44
  -6   2   4  304.42   14.58
  -6   2   4  270.98   10.96
   6   2  -4  307.16   12.38
  -6  -2   4  283.50   14.14
  -6   2   4  284.50   13.81
   6  -2  -4  293.34    9.83
   5   2  -4    5.40    1.59
  -5  -2   4    1.52    1.51
   5  -2  -4    4.65    1.42
  -5   2   4    6.44    2.20
   5   2  -4    5.34    1.78
  -5   2   4    3.23    1.39
  -5  -2   4    6.13    2.29
  -5   2   4    4.52    1.40
  -5   2   4    7.25    1.78
   5  -2  -4    2.81    1.62
   5   2  -4    5.86    2.60
   5  -2  -4   10.16    3.15
   5  -2  -4    3.19    2.26
  -5  -2   4    8.73    3.38
  -5  -2   4    4.36    1.66
  -5   2   4    6.55    2.86
  -4  -2   4    2.67    1.89
   4  -2  -4    2.72    1.95
   4  -2  -4    2.71    1.25
  -4   2   4   -0.35    1.01
   4   2  -4    0.36    1.60
  -4   2   4    0.12    1.29
   4   2  -4    1.55    1.43
   4  -2  -4    0.88    1.00
  -4  -2   4    0.81    0.93
  -4   2   4    0.87    1.17
   4   2  -4    0.83    0.89
  -4  -2   4    1.68    1.50
   4  -2  -4    3.03    1.20
  -4  -2   4    3.15    1.52
   4  -2  -4    1.57    1.32
  -4  -2   4    1.54    2.04
  -4   2   4    1.56    1.19
  -3  -2   4    1.79    1.33
   3  -2  -4    0.32    0.95
   3   2  -4    1.84    1.35
  -3   2   4    3.80    1.51
   3  -2  -4    0.01    0.95
  -3  -2   4    2.45    1.25
  -3   2   4   -0.50    1.33
  -3  -2   4    0.93    0.81
   3   2  -4    0.80    1.12
  -3   2   4    2.44    1.37
   3   2  -4    0.47    1.43
   3  -2  -4    0.51    1.42
   3  -2  -4   -0.89    1.21
   2   2  -4  204.27   10.41
  -2  -2   4  202.02   10.07
  -2  -2   4  190.57   10.58
  -2   2   4  200.26    9.36
   2  -2  -4  210.77   10.09
  -2  -2   4  195.99    9.12
  -2   2   4  192.35   10.82
   2   2  -4  199.66   10.96
   2  -2  -4  183.74   11.52
   2  -2  -4  198.88    9.26
  -2   2   4  202.16    9.36
  -2  -2   4  200.11    9.80
   2   2  -4  192.26    9.30
  -2   2   4  201.51    8.92
   2  -2  -4  212.33    9.92
  -1  -2   4  251.09   11.88
   1   2  -4  246.10   11.62
   1  -2  -4  244.97   11.16
  -1   2   4  227.12   10.41
  -1  -2   4  236.18    9.21
   1  -2  -4  217.62    9.19
   1   2  -4  238.14   11.39
   1  -2  -4  215.17   12.43
  -1  -2   4  240.62   12.23
  -1   2   4  237.04   12.22
  -1  -2   4  228.45   10.21
  -1   2   4  236.20    9.54
   1   2  -4  241.29    9.94
  -1   2   4  227.64    8.97
   1  -2  -4  249.00   11.23
   0   2   4  663.03   22.15
   0  -2   4  653.49   21.34
   0   2  -4  652.55   20.46
   0   2   4  648.06   20.00
   0   2   4  624.01   19.52
   0  -2   4  652.70   15.83
   0  -2  -4  643.31   16.26
   0  -2  -4  643.97   20.08
   0   2  -4  623.09   19.29
   0  -2  -4  641.97   22.63
   0  -2   4  631.69   18.27
   0   2  -4  620.29   17.11
   0   2   4  666.24   15.69
   0   2   4  639.26   16.68
   1   2   4  141.85    6.32
   1  -2   4  164.15   10.16
   1  -2   4  154.17    6.84
  -1   2  -4  165.39    9.44
   1   2   4  152.57   10.14
  -1  -2  -4  164.70    9.49
   1  -2   4  151.47    5.62
   1   2   4  146.34    8.58
  -1  -2  -4  150.15    6.10
  -1   2  -4  152.86    8.19
   1  -2   4  156.65    7.77
  -1   2  -4  144.20    6.82
   1   2   4  154.29    5.63
   2  -2   4  153.46    4.66
  -2  -2  -4  143.04    9.25
   2  -2   4  160.04    9.58
   2  -2   4  158.81    6.47
   2   2   4  158.35    9.24
  -2  -2  -4  159.99    5.52
  -2   2  -4  172.78    8.50
  -2   2  -4  164.95    9.59
   2   2   4  160.33   10.55
   2   2   4  164.32    4.54
  -2   2  -4  157.56    6.95
  -3   2  -4    6.47    1.39
   3   2   4    9.31    3.16
  -3   2  -4    5.46    2.75
  -3  -2  -4    2.56    1.65
   3  -2   4    6.37    2.33
  -3  -2  -4    8.24    2.42
   3   2   4    5.04    1.95
  -3   2  -4    5.97    1.46
  -3  -2  -4    7.95    2.37
  -3   2  -4    5.67    1.79
   3   2   4    6.93    2.10
   3  -2   4    6.75    1.13
  -3  -2  -4    6.85    0.90
  -4   2  -4    2.87    0.92
   4   2   4    2.77    1.67
  -4   2  -4    2.93    1.82
   4  -2   4    2.45    0.58
  -4  -2  -4    3.92    2.26
  -4   2  -4    1.50    1.26
  -4  -2  -4    3.44    1.62
   4  -2   4    2.65    1.66
   4   2   4    4.05    1.89
   4   2   4    3.24    2.09
  -4   2  -4    2.66    2.05
  -4  -2  -4    2.24    2.55
  -4  -2  -4    2.53    1.79
   4   2   4    2.89    1.39
  -5   2  -4  185.93   12.85
  -5   2  -4  202.25   11.27
  -5  -2  -4  184.89   11.23
  -5  -2  -4  198.84   12.65
   5   2   4  187.12   12.12
   5   2   4  194.20   10.58
   5  -2   4  192.53   11.61
  -5   2  -4  190.26    8.06
   5   2   4  179.73   12.62
  -5   2  -4  201.52   12.91
   5   2   4  190.74   12.81
   6   2   4    9.33    3.30
  -6  -2  -4    3.24    2.42
  -6   2  -4    6.05    2.05
   6  -2   4    3.22    1.66
   6   2   4    3.95    2.22
  -6  -2  -4    5.08    1.05
  -6   2  -4    7.57    3.02
  -6   2  -4    5.34    1.16
  -6  -2  -4    2.28    1.74
  -6  -2  -4    4.98    0.73
  -6   2  -4    6.42    3.00
  -6   2  -4    7.09    1.76
  -7   2  -4  422.75   11.84
  -7  -2  -4  408.04   12.64
   7  -2   4  442.93   19.48
  -7  -2  -4  414.83   20.69
  -7   2  -4  414.94   15.49
   7   2   4  431.04   21.08
  -7  -2  -4  436.19   10.36
  -7   2  -4  437.21   21.41
  -7   2  -4  419.13   15.54
  -7   2  -4  459.34   19.72
  -7   2  -4  440.58   11.54
   7   2   4  439.39   21.64
  -7  -2  -4  421.48   19.98
  -8   2  -4   68.44    4.99
  -8  -2  -4   80.94    8.74
   8   2   4   90.62    9.85
  -8   2  -4   77.78    6.50
  -8  -2  -4   77.31    4.20
   8  -2   4   71.66    7.94
   8   2   4   67.17    6.30
  -8   2  -4   68.36    6.57
  -8   2  -4   72.42    8.07
  -8  -2  -4   63.24    8.65
  -8   2  -4   77.73    4.54
  -8   2  -4   85.38    9.53
   8   2   4   81.73    9.38
  -9   2  -4   55.58    5.51
   9  -2   4   50.58    7.17
   9   2   4   41.74    7.26
  -9   2  -4   50.03    5.30
  -9   2  -4   43.98    7.13
  -9  -2  -4   47.41    6.93
   9   2   4   53.09    5.71
  -9  -2  -4   40.41    7.52
  -9   2  -4   52.13    4.01
  -9   2  -4   42.83    6.46
 -10   2  -4  106.91   11.33
 -10  -2  -4   90.61    9.49
  10   2   4  107.11   12.17
 -10   2  -4  109.69   10.73
 -10  -2  -4   96.19    9.14
 -10  -2  -4  100.78   12.70
  10  -2   4   88.86   10.15
 -11  -2  -4    9.17    3.30
  11  -2   4   10.65    4.39
 -11   2  -4   10.49    4.33
  11   2   4    9.77    4.88
 -11  -2  -4    8.39    4.51
 -11   2  -4    3.50    2.43
 -11  -2  -4    8.01    3.58
 -12   2  -4   48.50    8.00
 -12  -2  -4   50.72    7.82
  12  -2   4   45.30    8.02
 -12   2  -4   55.34    8.38
 -12  -2  -4   45.60    6.57
 -13   2  -4   31.73    7.16
 -13  -2  -4   33.75    6.54
 -13   2  -4   37.51    7.92
  14  -3  -4   11.83    5.64
 -13  -3   4   -1.66    3.66
 -13   3   4   -0.99    2.61
 -13  -3   4   -0.65    2.44
  13  -3  -4    0.02    2.40
  13   3  -4    0.24    3.37
  13  -3  -4   -8.21    5.89
 -12  -3   4   39.80    7.18
 -12   3   4   45.78    7.40
 -12  -3   4   29.22    5.93
  12  -3  -4   47.53    8.14
  12   3  -4   45.08    9.32
  12  -3  -4   30.86    7.44
 -11  -3   4   13.02    4.40
 -11   3   4   20.81    4.86
  11   3  -4   18.73    4.41
 -11  -3   4   15.78    4.58
  11   3  -4   18.17    5.93
  11  -3  -4   28.16    6.95
  11  -3  -4   19.63    4.85
 -10  -3   4    0.27    1.87
 -10   3   4    0.12    2.00
  10   3  -4    1.73    1.74
 -10  -3   4    3.75    1.97
  10   3  -4    3.07    3.99
 -10   3   4    0.65    0.81
  10  -3  -4    4.34    3.01
  10  -3  -4    2.80    2.64
  -9  -3   4    3.33    1.76
  -9   3   4    4.28    2.77
   9   3  -4    0.38    2.69
  -9  -3   4    1.76    2.44
  -9   3   4    5.95    1.61
   9  -3  -4    1.14    1.70
  -9   3   4    3.68    1.58
   9   3  -4    4.85    2.87
   9  -3  -4    6.59    3.33
  -8  -3   4   18.49    3.93
  -8   3   4   18.62    3.90
   8   3  -4   20.78    4.54
  -8  -3   4   24.58    4.58
  -8   3   4   17.47    2.39
   8  -3  -4   17.14    3.97
  -8   3   4   16.96    3.16
   8   3  -4   14.06    4.09
   8  -3  -4   16.47    4.30
   8   3  -4   18.09    1.89
   8   3  -4   14.90    1.28
   7  -3  -4   29.89    2.63
  -7  -3   4   31.11    4.92
  -7   3   4   31.26    4.73
   7   3  -4   26.49    4.89
   7   3  -4   35.22    2.84
  -7   3   4   32.87    3.33
  -7   3   4   30.93    4.27
   7   3  -4   36.18    6.33
   7  -3  -4   36.26    6.16
   7   3  -4   35.39    3.60
  -7  -3   4   23.43    4.24
   7   3  -4   35.00    2.71
   7  -3  -4   35.61    5.40
   7  -3  -4   33.92    2.22
  -6  -3   4   22.94    4.10
  -6   3   4   18.07    3.46
   6   3  -4   22.10    4.33
  -6   3   4   22.25    2.82
  -6   3   4   17.28    3.13
   6   3  -4   22.61    2.72
  -6  -3   4   17.21    3.72
   6   3  -4   21.44    4.82
   6  -3  -4   15.99    3.90
   6  -3  -4   18.84    3.61
   6  -3  -4   21.03    2.37
  -5  -3   4   89.12    8.03
  -5  -3   4   99.33    7.96
  -5   3   4   99.14    6.04
   5   3  -4  102.14    6.19
  -5   3   4   99.88    7.93
   5  -3  -4   94.07    7.66
  -5  -3   4  100.43    9.70
   5   3  -4  101.84    8.99
   5  -3  -4  102.45    9.42
  -5   3   4  101.80    9.34
  -5   3   4  107.02    8.23
  -5  -3   4  102.77    8.20
   5   3  -4   98.55    7.69
  -5   3   4   99.03    7.43
   5  -3  -4   96.88    5.51
  -4  -3   4    8.94    2.40
   4  -3  -4    6.72    1.60
   4   3  -4    4.38    1.67
  -4   3   4    6.24    2.08
   4  -3  -4    8.50    1.92
  -4   3   4    3.00    1.56
  -4  -3   4    6.39    2.17
   4   3  -4    6.37    1.86
  -4   3   4    7.84    1.82
  -4   3   4    7.40    2.19
  -4  -3   4    6.07    2.34
   4   3  -4    4.13    1.98
  -4  -3   4    3.77    1.85
   4  -3  -4    8.32    3.17
   4  -3  -4    4.01    1.40
  -3  -3   4    4.13    1.79
   3  -3  -4    1.58    0.99
   3   3  -4    7.58    2.02
  -3   3   4    1.77    1.26
  -3  -3   4    1.77    1.30
   3  -3  -4    3.73    1.54
  -3   3   4    2.62    1.12
   3   3  -4    1.10    1.14
  -3   3   4    3.61    1.85
   3   3  -4    2.78    1.69
   3  -3  -4    1.56    1.84
   3  -3  -4    2.80    1.48
  -2  -3   4   -0.34    1.40
   2  -3  -4    0.10    0.80
   2   3  -4   -0.60    1.13
  -2   3   4    0.57    0.93
   2  -3  -4    1.40    1.11
  -2   3   4    0.44    0.82
  -2  -3   4   -0.80    1.21
   2   3  -4    1.28    1.16
  -2   3   4    2.26    1.88
   2   3  -4   -0.39    1.28
   2  -3  -4    1.11    1.29
  -2   3   4    0.63    1.04
  -2   3   4    0.57    0.80
   2  -3  -4    0.82    0.95
  -1  -3   4  113.65    6.51
  -1   3   4  115.22    8.85
  -1   3   4  109.72    7.13
   1  -3  -4  124.34    7.74
   1  -3  -4  108.86    9.08
   1  -3  -4  108.81    6.59
   1   3  -4  116.45    7.58
  -1  -3   4   99.37    7.77
  -1  -3   4  106.02    7.23
   1   3  -4  108.64    6.96
  -1   3   4  115.00    6.74
  -1   3   4  113.62    6.07
   1  -3  -4  109.95    7.47
   0  -3   4   55.57    5.43
   0  -3   4   51.95    4.00
   0   3  -4   58.57    5.55
   0  -3  -4   65.91    5.77
   0   3   4   58.46    6.30
   0  -3  -4   56.33    6.22
   0   3  -4   56.51    4.90
   0  -3  -4   51.37    4.16
   0   3   4   53.57    5.10
   0  -3   4   66.00    5.42
   0   3  -4   57.19    4.83
   0   3   4   57.79    3.90
   0   3   4   59.28    5.91
   0   3   4   60.55    4.65
   1   3   4   21.21    3.77
   1  -3   4   24.21    2.48
   1   3   4   31.24    4.12
  -1   3  -4   29.20    4.59
   1   3   4   24.48    4.31
  -1  -3  -4   31.42    3.02
  -1   3  -4   26.04    3.10
  -1  -3  -4   26.34    3.75
   1   3   4   20.28    2.60
  -1   3  -4   30.99    3.55
   1   3   4   26.53    2.22
  -1   3  -4   25.15    3.60
   1  -3   4   25.60    3.33
  -1  -3  -4   31.97    4.51
  -2  -3  -4   87.47    7.25
  -2   3  -4   90.13    7.06
   2   3   4   95.84    8.31
   2  -3   4   91.87    4.11
  -2  -3  -4   80.04    7.00
   2  -3   4   87.67    7.20
  -2   3  -4   89.82    5.63
  -2  -3  -4   88.39    4.77
  -2   3  -4   91.09    5.98
   2   3   4   91.48    3.37
   2   3   4   90.18    8.08
  -2  -3  -4   93.89    7.89
  -3   3  -4   11.19    1.95
   3   3   4   12.28    3.26
  -3  -3  -4    9.87    2.78
   3  -3   4   11.24    2.67
  -3  -3  -4   11.55    2.81
   3   3   4   14.25    3.21
  -3   3  -4   13.57    3.83
   3   3   4    9.02    2.82
  -3   3  -4   13.53    2.74
  -3  -3  -4   10.86    2.90
  -3   3  -4   10.39    1.85
  -3  -3  -4   11.32    1.70
  -3  -3  -4   14.69    3.25
   3  -3   4   12.11    1.23
  -4   3  -4   16.50    2.71
  -4   3  -4   15.12    2.96
  -4   3  -4   23.20    4.32
   4   3   4   17.67    4.13
  -4  -3  -4   25.01    4.47
   4  -3   4   20.91    3.51
  -4  -3  -4   16.55    3.77
   4   3   4   22.70    4.18
  -4   3  -4   16.04    4.09
   4   3   4   20.45    4.29
  -4  -3  -4   20.64    4.02
  -4   3  -4   17.83    2.38
  -4  -3  -4   20.17    3.75
  -4  -3  -4   19.41    2.16
  -4   3  -4   17.25    3.68
   5   3   4    1.61    2.03
  -5   3  -4    1.71    1.37
   5  -3   4    0.46    1.27
   5   3   4    2.78    2.23
  -5  -3  -4    1.14    0.86
  -5   3  -4   -0.24    1.64
  -5  -3  -4    1.32    1.56
  -5   3  -4    1.47    0.78
   5   3   4    3.94    2.45
  -5  -3  -4    0.38    1.96
  -5   3  -4    1.88    1.29
  -5   3  -4    3.47    2.47
  -5   3  -4    2.75    1.48
  -6  -3  -4   90.39    5.73
  -6   3  -4  100.87    7.89
  -6  -3  -4   98.70    4.56
   6  -3   4   94.73    8.18
  -6  -3  -4  100.35    9.15
   6   3   4   99.40    9.58
  -6  -3  -4   94.26    9.34
  -6   3  -4   95.84    9.69
   6   3   4  106.32    8.38
  -6   3  -4   96.56    7.25
  -6   3  -4   95.09    8.60
   6   3   4   94.05    9.72
   7   3   4   25.98    5.55
   7   3   4   19.28    3.59
   7   3   4   26.53    5.39
   7  -3   4   29.57    5.08
  -7   3  -4   18.63    4.52
  -7  -3  -4   29.07    5.10
  -7   3  -4   24.77    3.07
  -7  -3  -4   22.46    2.51
  -7  -3  -4   23.78    5.05
  -7  -3  -4   21.44    2.99
  -7   3  -4   34.56    5.35
  -7   3  -4   25.70    4.04
   8   3   4   11.79    4.30
   8   3   4    7.56    2.61
  -8   3  -4    9.73    1.87
   8  -3   4    8.77    3.32
   8   3   4    4.88    2.88
  -8   3  -4    9.80    4.25
  -8  -3  -4    8.43    2.68
  -8   3  -4    6.94    1.77
  -8   3  -4    9.29    1.15
  -8  -3  -4    6.09    1.41
  -8  -3  -4    7.89    3.93
  -8   3  -4    6.41    2.28
  -8   3  -4    6.57    2.37
   9   3   4   11.80    4.61
   9   3   4    9.32    2.79
  -9   3  -4    7.73    1.73
   9   3   4    4.90    3.53
   9  -3   4   11.24    3.39
  -9   3  -4   12.78    3.53
  -9  -3  -4   12.68    4.00
  -9  -3  -4   14.77    5.65
  -9   3  -4    8.26    3.34
  10   3   4   17.81    5.42
  10  -3   4   27.53    5.74
  10   3   4   18.84    5.10
 -10   3  -4   20.08    5.55
 -10  -3  -4   17.82    4.69
 -10  -3  -4   18.49    6.02
 -10   3  -4   19.41    4.80
  11   3   4   10.57    4.64
  11  -3   4    4.01    2.52
 -11   3  -4    5.53    3.14
 -11  -3  -4   11.04    4.28
 -11  -3  -4    0.54    3.63
 -11   3  -4    4.61    2.23
 -11  -3  -4   18.20    4.41
  12  -3   4   -1.74    3.55
 -12   3  -4    2.75    2.59
 -12  -3  -4   -0.12    2.28
 -12   3  -4    8.68    2.48
 -12  -3  -4    4.70    2.63
 -13   3  -4   20.15    5.20
 -13   3  -4   27.24    7.01
  14  -4  -4   40.76    8.91
 -13  -4   4    4.48    2.48
 -13  -4   4   11.60    4.82
 -13   4   4   11.79    4.78
  13  -4  -4    7.10    4.38
  13   4  -4    7.45    4.79
  13  -4  -4    9.73    5.13
 -12  -4   4   83.27   10.27
  12  -4  -4   80.60   10.36
  12  -4  -4   85.97   11.70
 -12  -4   4   82.68   10.24
  12   4  -4   82.39   12.39
 -12   4   4   86.66   10.20
 -11  -4   4    3.84    2.74
 -11  -4   4    0.32    2.64
 -11   4   4    4.13    2.77
  11   4  -4    4.33    3.55
  11  -4  -4    2.39    2.67
  11   4  -4   -0.54    3.24
  11  -4  -4    6.40    3.15
 -10  -4   4   55.56    7.62
 -10   4   4   59.83    7.79
 -10  -4   4   47.80    7.62
  10   4  -4   55.19    8.03
  10  -4  -4   71.58    8.94
  10   4  -4   61.76    9.81
  10  -4  -4   50.34    8.26
  10  -4  -4   56.71    8.77
  -9  -4   4    9.12    3.30
  -9   4   4   12.84    3.71
  -9  -4   4   11.43    3.32
   9   4  -4   14.32    3.99
  -9   4   4   13.54    1.88
   9  -4  -4   12.14    3.62
  -9   4   4   11.10    3.02
   9   4  -4   10.98    4.30
   9  -4  -4    8.56    3.26
   9  -4  -4    6.13    2.45
  -8   4   4  195.16   12.25
   8   4  -4  188.35   14.75
  -8   4   4  204.50    7.92
   8  -4  -4  187.81   13.32
   8   4  -4  211.00   15.65
   8  -4  -4  210.61   15.49
  -8  -4   4  222.14   13.49
   8  -4  -4  170.92   15.61
  -8  -4   4  205.31   13.75
  -8   4   4  190.79   12.65
  -7  -4   4   21.18    4.33
  -7   4   4   16.67    3.71
  -7  -4   4   19.19    3.75
   7   4  -4   20.56    4.65
  -7   4   4   15.38    2.25
  -7   4   4   23.49    4.18
   7   4  -4   15.25    5.09
   7   4  -4   17.63    1.74
   7  -4  -4   16.77    4.52
   7  -4  -4   17.88    4.46
   7   4  -4   18.73    2.36
   7  -4  -4   16.36    4.37
   7   4  -4   17.91    1.95
   6  -4  -4  256.67    8.50
   6   4  -4  247.64   14.74
  -6  -4   4  214.67   14.08
   6  -4  -4  247.91   15.88
  -6   4   4  257.75    9.65
  -6   4   4  253.38   14.24
   6  -4  -4  242.56   13.84
   6   4  -4  248.39   15.48
   6   4  -4  263.00    9.64
  -6  -4   4  247.65   12.92
   6  -4  -4  248.49   17.00
   6   4  -4  263.54    9.13
  -6  -4   4  271.66   14.72
  -6   4   4  266.13   13.67
  -5  -4   4    4.95    2.31
   5  -4  -4    3.16    1.11
   5   4  -4    3.22    1.82
  -5   4   4    3.61    1.65
  -5  -4   4    5.66    1.98
  -5  -4   4    6.47    3.07
  -5   4   4    3.53    1.14
   5   4  -4    2.95    1.08
  -5   4   4    4.50    2.29
  -5   4   4    1.76    1.30
   5   4  -4    2.79    2.18
   5  -4  -4    0.47    1.92
  -5  -4   4   -1.35    2.47
   5  -4  -4    2.08    1.92
  -5  -4   4    1.67    1.37
   5  -4  -4    0.52    1.71
   5   4  -4    2.88    1.42
  -4  -4   4   42.68    5.28
   4   4  -4   36.74    4.84
  -4   4   4   34.06    4.30
   4   4  -4   39.87    4.27
  -4   4   4   43.69    4.08
  -4  -4   4   42.46    5.69
   4  -4  -4   41.03    5.15
   4   4  -4   35.75    5.17
  -4  -4   4   43.08    5.09
  -4  -4   4   38.96    5.82
   4  -4  -4   41.60    6.06
   4  -4  -4   38.06    3.99
  -4  -4   4   40.75    4.56
  -4   4   4   36.16    4.68
   4   4  -4   41.32    3.81
   4  -4  -4   32.32    5.72
  -4   4   4   37.42    5.33
   4  -4  -4   35.20    3.58
  -3  -4   4   39.69    4.93
  -3   4   4   47.24    5.60
   3   4  -4   44.17    4.84
   3  -4  -4   51.52    4.63
  -3   4   4   43.09    4.09
  -3  -4   4   40.79    5.47
   3   4  -4   47.30    5.52
   3  -4  -4   49.36    5.32
  -3   4   4   44.99    5.78
  -3  -4   4   39.42    5.51
   3  -4  -4   42.70    5.94
  -3  -4   4   42.15    4.37
   3   4  -4   49.74    4.46
   3  -4  -4   40.66    6.01
  -3   4   4   39.12    4.59
   3   4  -4   44.72    5.08
  -3   4   4   45.46    4.63
   3  -4  -4   42.66    4.28
  -2   4   4  131.81    9.21
   2  -4  -4  122.53    7.60
  -2   4   4  125.16    9.84
   2  -4  -4  120.36    9.83
   2   4  -4  121.20    8.25
   2  -4  -4  131.15    8.17
   2  -4  -4  121.16    9.96
  -2   4   4  129.70    7.56
  -2  -4   4  130.00    7.03
   2  -4  -4  122.44   10.12
  -2  -4   4  127.12    8.53
   2   4  -4  129.81    7.69
   2   4  -4  120.51    8.10
  -2   4   4  125.91    7.22
   2  -4  -4  130.47    7.92
  -1   4   4  223.98   12.02
  -1   4   4  224.77   13.29
  -1   4   4  213.71   10.32
  -1  -4   4  214.23   11.68
   1  -4  -4  210.03   10.59
   1  -4  -4  197.11   12.98
   1   4  -4  217.09   10.62
   1  -4  -4  230.87   10.52
   1  -4  -4  215.52   13.02
  -1  -4   4  221.72    8.83
   1  -4  -4  230.55   13.62
  -1  -4   4  232.99   11.55
   1   4  -4  205.98   10.32
   1   4  -4  223.85   11.08
  -1   4   4  217.68    9.02
  -1   4   4  219.52   11.47
  -1   4   4  221.31   10.28
   0   4   4  556.35   16.98
   0  -4  -4  562.54   19.09
   0   4   4  561.09   18.39
   0   4  -4  541.33   16.95
   0  -4   4  555.41   18.40
   0   4   4  558.05   21.97
   0  -4  -4  534.35   16.67
   0  -4   4  532.50   13.91
   0  -4   4  533.07   18.34
   0   4  -4  534.60   17.97
   0   4  -4  537.49   18.16
   0   4   4  552.57   14.59
   0   4   4  534.47   19.85
   1   4   4  131.59    7.38
  -1   4  -4  127.38    9.82
  -1   4  -4  140.27    8.95
   1   4   4  123.20    8.48
  -1   4  -4  131.13    7.00
   1   4   4  136.62   10.53
   1  -4   4  131.06    5.19
   1  -4   4  129.33    9.00
  -1  -4  -4  133.47    8.94
   1  -4   4  135.81    8.40
  -1  -4  -4  124.12    7.02
  -1   4  -4  132.07    8.25
  -1   4  -4  134.27    8.61
   1   4   4  127.40    5.57
   1   4   4  132.52    9.58
  -1  -4  -4  132.51    9.19
   2  -4   4  219.32    8.94
  -2  -4  -4  226.62   12.80
  -2  -4  -4  232.75   12.64
  -2   4  -4  242.14   14.13
  -2   4  -4  243.91   12.13
   2   4   4  247.70   12.66
   2  -4   4  236.48    6.14
   2  -4   4  239.87   12.37
   2   4   4  241.08   14.11
   2  -4   4  225.80    5.80
  -2  -4  -4  232.14   13.62
  -2   4  -4  237.99    9.03
  -2  -4  -4  230.68    9.57
  -2   4  -4  222.32   10.94
  -2   4  -4  239.54   12.03
   2   4   4  234.80    6.80
   2   4   4  237.82   13.80
  -2  -4  -4  244.42   13.22
  -3   4  -4    7.12    1.98
   3   4   4   10.26    2.94
  -3  -4  -4    9.39    2.83
   3  -4   4   12.52    3.09
  -3   4  -4    7.73    2.07
  -3  -4  -4    6.88    2.28
   3   4   4   11.19    3.29
  -3   4  -4    9.07    3.05
   3   4   4   15.54    3.95
  -3  -4  -4    5.79    2.25
   3  -4   4    7.81    1.47
  -3   4  -4    9.44    1.61
  -3  -4  -4   10.28    2.54
  -3  -4  -4    8.45    1.81
  -3   4  -4   10.62    3.02
  -4   4  -4    3.01    1.70
   4   4   4    3.36    2.47
  -4  -4  -4    0.90    0.88
   4  -4   4    2.77    0.84
  -4   4  -4    1.52    1.48
   4  -4   4    1.61    1.54
   4   4   4    2.19    1.89
  -4   4  -4    3.35    2.08
   4   4   4    2.24    1.96
  -4  -4  -4    1.17    1.88
  -4   4  -4    2.63    0.86
  -4  -4  -4    7.47    2.84
  -4   4  -4    5.42    2.44
   4   4   4    1.42    1.32
  -5  -4  -4  124.20    7.48
  -5   4  -4  126.71   11.25
  -5  -4  -4  122.80   10.65
   5  -4   4  134.73    9.65
  -5  -4  -4  126.23   10.43
  -5   4  -4  128.65    8.77
   5  -4   4  133.88    4.92
   5   4   4  142.18   10.46
  -5   4  -4  135.10    5.40
   5   4   4  136.02   10.96
  -5   4  -4  119.12    8.60
  -5   4  -4  121.92    9.58
   5   4   4  127.25   11.20
   6   4   4    9.77    2.93
   6   4   4    9.13    3.23
  -6  -4  -4    6.93    2.67
  -6   4  -4    8.35    2.40
   6  -4   4   16.28    3.68
   6   4   4   11.53    3.61
  -6   4  -4   12.49    3.96
   6  -4   4   13.99    1.59
  -6  -4  -4   13.40    2.78
  -6   4  -4   12.36    1.62
  -6   4  -4   13.59    1.70
  -6  -4  -4    8.92    2.97
  -6   4  -4    8.63    2.44
  -6   4  -4    9.02    2.45
  -7  -4  -4  301.02   14.42
   7  -4   4  335.46    9.68
  -7  -4  -4  330.80   11.13
  -7   4  -4  361.03   20.53
   7  -4   4  339.78   16.67
  -7  -4  -4  332.14   18.11
  -7  -4  -4  337.33   20.81
   7   4   4  359.40   20.27
  -7   4  -4  330.22    9.64
  -7   4  -4  338.28    9.92
   7   4   4  334.23   16.73
  -7   4  -4  326.63   16.83
  -7   4  -4  357.14   18.28
   7   4   4  353.72   20.50
   8   4   4   55.88    8.60
   8  -4   4   47.43    6.31
   8   4   4   49.65    7.84
  -8   4  -4   71.03    9.10
  -8   4  -4   54.51    3.62
  -8  -4  -4   55.51    7.26
  -8   4  -4   62.91    7.69
  -8  -4  -4   55.89    4.40
  -8   4  -4   68.77    8.28
  -8  -4  -4   61.28    9.72
  -9   4  -4  119.34   12.38
   9  -4   4  102.96    9.70
  -9  -4  -4   91.44    9.76
   9   4   4   90.96   11.18
  -9  -4  -4  139.33   15.20
  -9   4  -4  113.98   11.28
  -9   4  -4  113.68    7.03
   9   4   4  113.83   12.47
  10   4   4   50.21    8.64
 -10  -4  -4   51.92    7.65
  10  -4   4   49.94    7.22
 -10   4  -4   47.38    8.16
 -10  -4  -4   46.83    9.02
 -10   4  -4   47.11    7.67
 -10   4  -4   53.44    5.04
  11   4   4   14.44    5.38
  11  -4   4    3.44    2.20
 -11   4  -4    5.29    3.51
 -11  -4  -4    5.88    3.42
 -11  -4  -4    8.55    4.30
 -11   4  -4   14.34    4.90
  12   4   4   32.76    8.37
  12  -4   4   20.99    5.41
 -12   4  -4   21.84    5.97
 -12  -4  -4   24.60    6.07
 -12  -4  -4   19.22    7.31
 -12   4  -4   27.68    7.56
 -12  -4  -4   25.50    4.67
 -13   4  -4   14.74    5.73
 -13   4  -4   20.95    6.13
  14  -5  -4  137.51   16.42
  13  -5  -4  368.60   23.69
  13  -5  -4  312.69   23.84
 -13  -5   4  349.05   22.34
 -13   5   4  356.35   22.01
 -12  -5   4    9.90    4.29
 -12  -5   4   10.86    4.47
  12   5  -4   13.05    4.25
 -12   5   4    4.86    2.76
  12  -5  -4   15.50    4.85
  12   5  -4   16.35    6.63
  12  -5  -4   12.48    4.72
  11   5  -4   76.94    9.93
 -11   5   4   72.78    9.11
  11  -5  -4   70.54    9.33
  11   5  -4   61.25   10.45
  11  -5  -4   79.14   11.12
 -11  -5   4   81.19    9.91
 -11  -5   4   87.18   10.36
 -10  -5   4   45.48    7.27
 -10  -5   4   29.12    5.56
 -10   5   4   43.02    6.66
  10   5  -4   34.61    6.78
  10  -5  -4   43.64    7.21
  10   5  -4   36.72    7.84
  10  -5  -4   41.88    8.10
   9   5  -4  136.67   13.66
  -9   5   4  127.18    4.66
  -9   5   4  121.63   10.68
   9  -5  -4  124.88   11.45
   9   5  -4  129.85   13.14
   9  -5  -4  123.49   12.46
   9  -5  -4  142.05   15.06
  -9  -5   4  126.67   11.35
  -9   5   4  134.22   11.20
  -9  -5   4  125.68   11.01
  -8  -5   4   57.33    7.19
  -8  -5   4   53.54    6.89
  -8   5   4   45.80    6.31
   8   5  -4   35.79    6.72
  -8   5   4   49.70    3.33
   8   5  -4   56.86    8.34
   8  -5  -4   52.59    7.97
   8  -5  -4   54.09    7.16
  -8   5   4   48.66    6.65
   8  -5  -4   34.83    7.13
   7   5  -4 1112.52   39.14
   7   5  -4 1238.90   23.59
  -7   5   4 1187.30   24.68
  -7   5   4 1166.04   37.10
   7  -5  -4 1188.48   36.39
   7   5  -4 1205.96   39.40
  -7  -5   4 1189.29   34.54
   7  -5  -4 1262.43   40.55
   7  -5  -4 1060.00   42.40
   7   5  -4 1088.36   24.85
  -7  -5   4 1248.19   36.74
  -7   5   4 1228.58   35.09
   6  -5  -4   48.01    3.51
  -6   5   4   47.14    5.82
   6   5  -4   52.17    7.33
   6   5  -4   45.66    3.89
  -6   5   4   47.12    3.82
  -6   5   4   49.32    6.84
   6   5  -4   60.51    7.57
   6  -5  -4   47.68    6.86
  -6  -5   4   53.00    6.02
   6   5  -4   46.95    4.08
  -6  -5   4   60.91    7.02
   6  -5  -4   55.58    6.57
   6  -5  -4   36.19    6.89
   5  -5  -4  599.61   16.83
   5   5  -4  579.67   23.41
  -5  -5   4  584.46   22.09
  -5  -5   4  521.47   23.64
   5  -5  -4  638.09   17.69
   5   5  -4  615.42   18.18
  -5   5   4  596.76   16.49
  -5   5   4  584.68   24.59
   5  -5  -4  573.06   26.23
   5  -5  -4  612.49   22.74
   5   5  -4  604.05   23.90
  -5  -5   4  556.07   25.55
   5  -5  -4  592.17   25.20
  -5  -5   4  603.57   20.71
   5  -5  -4  577.59   26.89
   5   5  -4  589.54   17.03
  -5  -5   4  597.73   22.56
  -5   5   4  610.15   21.27
  -4  -5   4    5.36    2.24
   4   5  -4    6.07    2.26
   4  -5  -4    5.57    1.77
  -4  -5   4    3.67    1.57
  -4   5   4    1.95    1.37
  -4  -5   4    4.38    1.78
  -4  -5   4    1.64    1.78
   4  -5  -4    4.70    1.60
  -4   5   4    3.61    1.33
   4   5  -4    4.66    1.95
  -4   5   4    1.20    1.65
   4   5  -4    6.48    2.45
  -4  -5   4    3.22    2.06
   4  -5  -4    1.46    1.55
   4  -5  -4    6.35    2.65
  -4   5   4    7.47    2.84
   4  -5  -4    0.89    2.62
  -4   5   4    2.06    1.39
   4   5  -4    1.93    1.25
   4  -5  -4    5.71    2.16
   3  -5  -4  150.90    8.52
  -3   5   4  153.33   10.48
   3   5  -4  154.69    9.54
  -3  -5   4  141.64   10.84
  -3   5   4  153.59    8.04
  -3   5   4  146.98   11.62
   3  -5  -4  152.07   12.24
  -3  -5   4  149.55   11.09
   3  -5  -4  159.21   11.90
   3  -5  -4  160.89   10.11
   3   5  -4  153.23   10.20
  -3  -5   4  159.40    8.84
   3  -5  -4  152.66    8.31
   3  -5  -4  156.92   12.44
  -3  -5   4  146.49   10.01
   3   5  -4  161.26    8.48
   3   5  -4  151.56    9.96
  -3   5   4  151.64    9.50
  -3   5   4  154.56    8.96
  -2  -5   4   25.85    4.00
  -2   5   4   21.90    3.65
   2   5  -4   20.99    3.50
   2  -5  -4   31.87    4.29
   2  -5  -4   21.63    3.35
  -2  -5   4   25.84    3.25
  -2   5   4   28.00    3.60
  -2  -5   4   25.96    4.47
   2  -5  -4   21.72    3.27
  -2   5   4   28.57    3.56
  -2   5   4   33.58    5.59
   2   5  -4   23.94    3.75
   2  -5  -4   27.85    5.30
   2  -5  -4   28.54    5.25
  -2   5   4   29.73    4.62
   2  -5  -4   28.32    5.26
   2   5  -4   26.79    3.51
   1  -5  -4  660.58   20.86
  -1   5   4  688.78   20.65
   1  -5  -4  637.55   25.40
  -1   5   4  719.18   23.75
   1   5  -4  692.51   20.76
  -1  -5   4  666.99   22.46
  -1  -5   4  638.14   23.55
  -1  -5   4  660.31   17.86
  -1   5   4  683.68   25.93
   1  -5  -4  651.05   21.00
   1  -5  -4  688.23   26.31
  -1  -5   4  677.25   22.51
   1   5  -4  673.13   20.69
   1   5  -4  677.54   22.32
  -1   5   4  688.03   18.80
  -1   5   4  663.13   22.54
   0   5   4  529.67   17.49
   0   5  -4  471.11   20.11
   0  -5   4  473.55   19.47
   0  -5  -4  508.05   21.82
   0  -5  -4  516.61   18.67
   0   5   4  528.06   22.50
   0   5   4  521.60   19.99
   0   5   4  481.91   17.63
   0   5  -4  515.20   16.22
   0  -5   4  494.53   17.61
   0  -5   4  521.10   14.15
   0  -5  -4  510.65   17.46
   0  -5   4  505.22   18.81
   0   5  -4  509.31   18.01
   0   5  -4  503.93   18.87
   0   5   4  534.62   20.35
   0  -5  -4  519.49   19.34
   1   5   4  737.24   27.02
  -1  -5  -4  646.76   24.10
  -1   5  -4  659.25   25.07
   1   5   4  648.37   21.99
   1  -5   4  678.63   19.69
   1   5   4  687.38   23.87
  -1  -5  -4  675.78   25.50
   1  -5   4  675.77   23.33
  -1   5  -4  683.79   18.17
   1  -5   4  681.69   15.64
   1   5   4  663.90   20.31
   1  -5   4  674.56   22.34
  -1  -5  -4  709.45   25.83
  -1  -5  -4  670.79   20.30
  -1   5  -4  657.67   22.15
  -1  -5  -4  733.92   23.65
  -1   5  -4  704.67   22.44
   1   5   4  663.31   24.39
  -1  -5  -4  701.48   23.74
   2  -5   4  140.16    7.66
  -2   5  -4  124.32   10.50
  -2  -5  -4  130.65   10.32
  -2   5  -4  137.55    9.05
   2   5   4  142.59   10.36
   2   5   4  130.07   10.90
  -2  -5  -4  154.30   10.48
   2   5   4  136.35    9.70
  -2  -5  -4  152.51   11.29
  -2   5  -4  131.78    6.26
   2  -5   4  133.32    9.38
  -2  -5  -4  145.37   11.04
  -2   5  -4  130.02    9.03
  -2   5  -4  136.36    9.34
  -2  -5  -4  140.45    8.19
   2   5   4  138.20   10.86
  -2  -5  -4  137.93   10.19
  -3  -5  -4  299.80   15.86
   3  -5   4  303.21   10.83
  -3   5  -4  280.39   16.57
   3  -5   4  278.58   13.94
   3   5   4  321.08   17.44
   3   5   4  292.57   15.13
   3   5   4  297.70   15.77
  -3  -5  -4  286.64   16.09
  -3   5  -4  297.34    8.63
  -3  -5  -4  293.71   15.73
  -3  -5  -4  297.19   16.39
  -3   5  -4  310.45   13.99
   3   5   4  298.36    8.86
  -3   5  -4  271.40   13.81
  -3   5  -4  275.80   14.23
  -3  -5  -4  301.85   12.42
   3   5   4  288.32   16.52
  -4   5  -4  102.78   10.19
  -4   5  -4  113.73    8.31
  -4  -5  -4   95.72    9.67
   4  -5   4  110.33    8.50
   4   5   4  112.76    9.82
  -4  -5  -4  106.87    9.77
   4   5   4  106.71    9.38
  -4   5  -4  104.07    3.56
  -4   5  -4   93.57    8.05
  -4   5  -4  104.60    8.81
   4  -5   4  105.51    5.64
   4   5   4  101.61    3.26
   4   5   4  101.48   10.08
  -4  -5  -4  102.21    7.25
   5   5   4   37.54    5.71
   5   5   4   36.79    6.30
   5  -5   4   34.07    4.87
  -5   5  -4   42.87    4.98
  -5   5  -4   32.09    5.99
   5   5   4   47.11    6.58
  -5  -5  -4   33.46    5.74
   5  -5   4   32.57    2.94
  -5  -5  -4   38.09    6.15
  -5   5  -4   37.72    5.38
  -5  -5  -4   37.02    4.73
  -5   5  -4   38.33    5.47
  -6  -5  -4  739.86   28.23
  -6  -5  -4  724.49   24.15
  -6   5  -4  789.41   31.28
   6  -5   4  766.01   25.61
  -6  -5  -4  726.48   31.44
   6   5   4  768.46   30.08
   6  -5   4  751.53   17.92
  -6   5  -4  782.12   24.39
   6   5   4  773.90   28.18
  -6   5  -4  695.40   26.41
  -6   5  -4  755.11   27.78
   6   5   4  757.64   31.41
   7   5   4   20.68    5.55
   7   5   4   16.54    4.53
  -7  -5  -4   15.03    4.10
   7  -5   4   17.81    2.42
   7  -5   4   20.97    4.43
  -7  -5  -4   16.19    3.64
  -7   5  -4   14.97    4.54
  -7  -5  -4   22.98    5.83
  -7   5  -4   20.39    4.53
  -7   5  -4   20.75    4.53
   8  -5   4  540.15   15.35
  -8   5  -4  548.44   27.17
  -8  -5  -4  518.41   16.31
   8  -5   4  549.17   22.27
  -8  -5  -4  536.22   24.41
  -8  -5  -4  542.42   29.81
   8   5   4  518.82   27.32
  -8   5  -4  501.34   23.90
  -8   5  -4  547.31   25.05
   8   5   4  527.90   27.27
   9  -5   4  160.87    8.09
   9  -5   4  168.12   12.52
  -9  -5  -4  168.90   13.55
  -9  -5  -4  168.28   17.62
  -9   5  -4  176.66   15.40
  -9   5  -4  166.47   14.02
   9   5   4  176.33   16.05
 -10   5  -4  156.79   15.04
  10  -5   4  166.90   12.99
 -10  -5  -4  168.10   13.92
 -10  -5  -4  155.83   18.17
 -10   5  -4  187.27   15.63
 -10   5  -4  186.44   10.11
  10   5   4  161.94   15.86
  11   5   4   -1.39    2.53
  11  -5   4    0.46    2.45
 -11   5  -4   -2.32    3.23
 -11  -5  -4    3.63    2.73
 -11  -5  -4    0.84    4.85
 -11   5  -4    3.57    3.51
  12   5   4   99.12   13.20
 -12   5  -4  109.89   13.26
 -12  -5  -4  103.68   11.34
 -12   5  -4  118.06   13.90
 -12  -5  -4   97.42   14.50
 -13   5  -4  142.56   15.30
 -13   5  -4  133.68   15.59
  13   5   4  127.10   15.20
  14  -6  -4  287.28   23.93
  13  -6  -4   70.84   11.58
  12   6  -4  666.68   32.14
  12  -6  -4  640.76   31.54
  12  -6  -4  677.40   34.41
 -12  -6   4  675.46   31.29
 -12  -6   4  730.86   32.20
 -12   6   4  732.31   31.55
 -11  -6   4   77.90   10.03
 -11  -6   4   60.35    8.86
  11   6  -4   61.95    9.43
 -11   6   4   75.10    9.32
  11  -6  -4   76.31   10.01
  11   6  -4   72.90   11.52
  11  -6  -4   58.78    9.43
 -10  -6   4   23.98    5.56
 -10  -6   4   20.42    4.63
  10   6  -4   20.29    5.43
 -10   6   4   24.89    5.34
  10   6  -4   20.03    5.72
  10  -6  -4   21.04    5.71
  10  -6  -4   19.98    5.51
  -9  -6   4   22.31    5.04
  -9  -6   4   24.17    4.70
  -9   6   4   20.18    4.40
   9   6  -4   22.63    6.07
   9   6  -4   23.60    6.09
   9  -6  -4   25.79    5.91
   9  -6  -4   24.28    5.53
   8   6  -4   70.63    9.66
  -8   6   4   72.66    3.32
   8  -6  -4   82.93    9.26
   8   6  -4   77.85    9.78
  -8  -6   4   75.96    8.44
   8  -6  -4   70.70    9.21
  -8   6   4   76.42    9.55
  -8  -6   4   78.06    8.92
  -8   6   4   81.00    8.47
  -7  -6   4   33.94    5.48
  -7  -6   4   34.50    5.22
  -7   6   4   31.26    5.13
   7   6  -4   24.00    5.30
   7   6  -4   28.56    2.77
  -7   6   4   28.93    2.68
   7   6  -4   36.96    6.36
  -7   6   4   27.27    5.51
   7  -6  -4   33.70    6.34
   7  -6  -4   30.11    5.66
   7   6  -4   25.31    3.02
   6  -6  -4 1429.85   30.36
   6   6  -4 1460.87   45.10
   6   6  -4 1547.49   32.88
  -6   6   4 1522.52   30.48
  -6   6   4 1400.17   45.72
   6   6  -4 1561.73   44.61
   6  -6  -4 1468.22   41.75
   6  -6  -4 1525.68   45.54
  -6  -6   4 1488.84   39.49
   6  -6  -4 1435.79   50.11
   6   6  -4 1467.11   33.78
  -6  -6   4 1599.01   42.54
  -6   6   4 1589.85   40.63
   5  -6  -4   79.34    5.74
   5   6  -4   77.27    8.65
   5   6  -4   73.87    6.18
  -5   6   4   76.59    9.25
   5   6  -4   90.83    8.72
   5  -6  -4   77.14    7.98
   5  -6  -4   78.80    9.02
   5  -6  -4   84.54    5.56
  -5   6   4   86.15    5.45
  -5  -6   4   90.72    7.82
   5  -6  -4   84.01   10.38
   5   6  -4   75.39    6.13
  -5  -6   4   80.95    8.08
  -5   6   4   79.53    7.46
   4  -6  -4  934.52   25.22
   4   6  -4  913.41   26.61
  -4  -6   4  838.79   31.78
   4  -6  -4  931.76   23.77
  -4   6   4  936.52   23.37
  -4   6   4  885.43   33.72
   4  -6  -4  875.01   34.54
   4   6  -4 1002.59   30.81
  -4  -6   4  899.99   32.92
   4  -6  -4  936.12   32.95
   4  -6  -4  921.95   29.42
  -4  -6   4  967.48   27.13
   4  -6  -4  879.64   34.78
  -4  -6   4  981.52   30.19
   4   6  -4  946.17   25.20
  -4   6   4 1021.36   29.30
  -4   6   4  963.36   27.76
  -3  -6   4    8.52    3.29
  -3   6   4   12.34    2.76
   3   6  -4   11.88    2.98
  -3  -6   4    5.80    1.71
   3  -6  -4   11.33    3.07
   3  -6  -4   13.96    2.87
  -3   6   4    8.11    2.11
  -3  -6   4    9.83    2.78
   3  -6  -4    8.70    2.05
  -3   6   4   11.71    2.52
  -3   6   4   12.90    3.93
   3   6  -4    8.42    2.84
  -3  -6   4    5.17    2.23
   3  -6  -4    7.83    2.75
   3  -6  -4    6.13    2.87
   3  -6  -4    4.81    2.35
   3   6  -4    6.63    1.74
  -2   6   4   45.30    5.35
   2  -6  -4   43.27    5.17
  -2   6   4   49.22    4.91
  -2  -6   4   42.20    6.34
   2  -6  -4   47.14    4.91
  -2   6   4   45.43    7.02
   2   6  -4   40.70    4.93
  -2  -6   4   43.92    4.49
   2  -6  -4   45.49    6.93
   2  -6  -4   45.12    6.70
  -2   6   4   45.19    5.75
   2   6  -4   39.93    4.62
   2   6  -4   43.36    5.77
   2  -6  -4   48.88    7.00
  -2   6   4   45.48    5.15
  -2  -6   4   44.46    5.65
  -1   6   4   83.03    6.99
   1   6  -4   79.74    7.90
   1  -6  -4   88.29    7.16
  -1   6   4   85.09    7.87
  -1   6   4   89.60    9.49
  -1  -6   4   77.14    7.99
  -1   6   4   82.18    6.74
   1  -6  -4   76.68    8.78
   1   6  -4   79.15    6.39
  -1  -6   4   80.69    7.24
  -1  -6   4   77.10    5.50
   1  -6  -4   91.94    9.50
   1  -6  -4   74.01    7.31
  -1  -6   4   88.99    7.91
   1   6  -4   76.51    6.62
   1   6  -4   86.49    7.93
  -1   6   4   81.17    7.52
   0  -6  -4  398.51   17.12
   0   6  -4  342.37   17.76
   0  -6   4  385.97   17.88
   0  -6  -4  361.90   15.87
   0   6   4  379.11   19.81
   0   6   4  386.23   17.55
   0   6   4  365.42   15.50
   0  -6  -4  354.90   18.96
   0   6  -4  384.37   13.65
   0  -6   4  361.07   12.05
   0  -6   4  365.60   14.94
   0  -6  -4  378.82   19.48
   0  -6   4  364.32   16.53
   0  -6  -4  366.86   15.61
   0   6  -4  358.13   15.57
   0   6  -4  370.29   17.07
   0   6   4  367.32   17.45
  -1  -6  -4 1286.40   35.57
  -1   6  -4 1123.82   36.46
  -1  -6  -4 1263.43   37.58
   1  -6   4 1267.65   35.10
   1   6   4 1284.29   39.45
   1   6   4 1183.69   33.15
   1   6   4 1255.73   35.78
  -1  -6  -4 1196.68   37.67
   1  -6   4 1221.17   25.10
  -1   6  -4 1261.28   27.41
  -1  -6  -4 1215.52   34.53
   1  -6   4 1283.65   29.29
  -1  -6  -4 1195.08   37.56
  -1   6  -4 1232.43   34.87
  -1   6  -4 1143.84   32.65
  -1  -6  -4 1206.37   32.01
   1   6   4 1215.90   36.46
  -2  -6  -4 1005.42   31.57
   2  -6   4  984.20   26.41
  -2   6  -4  928.69   33.11
  -2  -6  -4  962.78   33.03
   2  -6   4  993.17   29.92
  -2  -6  -4 1055.24   32.13
   2  -6   4 1006.53   18.34
   2   6   4 1035.97   30.92
  -2  -6  -4  946.11   32.61
   2   6   4 1012.72   31.94
  -2   6  -4 1002.24   21.44
   2   6   4  977.28   24.11
  -2  -6  -4  996.70   33.12
  -2   6  -4  913.03   29.84
  -2   6  -4  981.55   29.88
  -2  -6  -4  992.45   27.92
   2   6   4  928.13   32.53
   3  -6   4  660.72   19.44
  -3   6  -4  631.99   26.80
  -3  -6  -4  641.36   26.78
   3   6   4  650.33   24.62
   3   6   4  657.24   25.24
  -3   6  -4  647.47   13.33
  -3  -6  -4  611.06   25.33
   3  -6   4  646.93   22.80
   3   6   4  653.98   16.94
  -3   6  -4  632.83   23.97
  -3   6  -4  677.49   24.19
  -3  -6  -4  639.81   21.61
   3   6   4  600.56   25.99
  -4  -6  -4  185.47   11.16
  -4   6  -4  175.90   13.65
  -4   6  -4  185.93   10.91
   4   6   4  187.40   13.11
  -4  -6  -4  171.25   13.57
   4   6   4  190.05   13.15
  -4  -6  -4  154.76   12.24
   4  -6   4  182.75   11.43
  -4   6  -4  154.40   11.52
  -4   6  -4  187.44   12.63
   4   6   4  190.80    6.99
   4  -6   4  188.13    8.73
   4   6   4  181.43   14.14
  -5  -6  -4   20.30    3.88
   5   6   4   34.56    6.32
  -5   6  -4   27.54    4.10
  -5   6  -4   22.14    5.45
   5  -6   4   23.81    3.02
   5  -6   4   28.18    4.71
   5   6   4   25.84    5.03
  -5  -6  -4   25.77    4.73
  -5  -6  -4   24.22    5.27
   5   6   4   25.61    1.92
  -5   6  -4   23.46    4.65
  -5   6  -4   18.12    4.08
   6  -6   4    2.07    1.17
   6   6   4   -0.45    3.33
   6   6   4    2.68    0.57
  -6   6  -4    0.97    1.44
   6  -6   4   -0.19    1.54
  -6   6  -4    2.85    2.95
   6   6   4    2.51    2.95
  -6  -6  -4   -0.95    1.86
  -6  -6  -4    1.54    1.59
  -6  -6  -4   -0.38    3.36
  -6   6  -4   -0.01    2.21
  -6   6  -4   -0.20    2.08
   7  -6   4  224.54   13.36
  -7  -6  -4  238.44   14.71
  -7   6  -4  215.93   16.79
  -7  -6  -4  246.90   19.43
   7   6   4  216.06   16.86
  -7  -6  -4  211.13   14.89
   7  -6   4  201.23    9.15
  -7   6  -4  197.23   14.73
  -7   6  -4  208.11   14.92
   7   6   4  230.49   17.75
   8   6   4    7.56    3.77
  -8   6  -4   10.84    4.30
   8  -6   4   16.61    3.93
  -8  -6  -4   14.53    4.40
   8  -6   4   10.92    2.40
  -8  -6  -4   18.19    5.96
  -8   6  -4    4.62    2.16
  -8   6  -4   17.42    4.62
  -8  -6  -4   16.45    4.23
  -9   6  -4  762.61   34.27
   9  -6   4  718.75   20.68
   9  -6   4  712.66   27.00
  -9  -6  -4  824.09   40.34
  -9  -6  -4  697.92   29.81
  -9   6  -4  731.97   32.42
   9   6   4  725.82   34.87
  10   6   4   12.40    5.32
  10  -6   4   22.31    5.18
 -10   6  -4   12.61    4.88
 -10  -6  -4   15.98    4.81
 -10  -6  -4   10.70    5.53
 -10   6  -4   15.01    5.32
 -11   6  -4  269.73   20.60
  11  -6   4  235.34   16.44
 -11  -6  -4  270.89   24.60
 -11  -6  -4  228.07   17.02
 -11   6  -4  244.71   20.07
  11   6   4  245.40   20.99
  12   6   4    0.96    3.09
 -12   6  -4    0.23    2.68
 -12  -6  -4    1.33    2.52
 -12  -6  -4   -7.25    5.14
 -12   6  -4    5.96    5.18
 -13   6  -4   43.76    8.81
 -13   6  -4   27.02    6.67
  14  -7  -4   50.18   10.10
  13  -7  -4  303.67   23.68
  12   7  -4  283.75   21.67
  12  -7  -4  245.07   19.10
  12  -7  -4  272.57   21.64
 -12  -7   4  266.69   19.35
 -12  -7   4  258.38   19.04
 -12   7   4  250.04   18.42
  11   7  -4  269.22   21.43
  11  -7  -4  246.59   18.36
  11  -7  -4  272.07   20.78
 -11  -7   4  268.39   18.61
 -11   7   4  248.38   20.98
 -11  -7   4  258.67   18.27
 -11   7   4  280.83   18.78
 -10  -7   4   17.69    4.78
 -10  -7   4   20.51    4.71
  10   7  -4   22.49    6.74
 -10   7   4   10.85    3.38
  10   7  -4   11.52    4.54
  10  -7  -4   23.30    6.21
  10  -7  -4   14.86    4.70
 -10   7   4   22.67    6.81
  -9  -7   4   13.41    4.19
  -9  -7   4   13.24    3.59
   9   7  -4   14.99    5.15
  -9   7   4   19.02    4.91
   9   7  -4   17.42    5.11
   9  -7  -4    7.17    3.51
   9  -7  -4   10.26    4.72
  -9   7   4   12.22    4.95
  -8  -7   4    8.80    2.71
  -8  -7   4   12.05    3.79
   8   7  -4    8.05    4.06
  -8   7   4    4.12    2.26
   8   7  -4    9.70    3.73
   8  -7  -4    5.39    2.55
  -8   7   4    8.99    5.82
   8  -7  -4    8.64    3.52
   7   7  -4  310.75   20.79
  -7   7   4  300.54    9.29
   7  -7  -4  335.01   18.72
   7   7  -4  343.84   20.09
   7  -7  -4  316.86   19.54
  -7  -7   4  318.39   16.78
  -7   7   4  309.38   23.08
   7   7  -4  269.23   11.74
  -7  -7   4  343.46   18.46
  -7   7   4  336.41   17.44
   7   7  -4  326.58   11.18
  -6  -7   4    0.11    2.04
  -6  -7   4    1.65    2.22
   6  -7  -4    2.50    1.19
   6   7  -4   -1.49    3.05
  -6   7   4   16.80    4.00
   6   7  -4    2.04    1.45
   6   7  -4   -0.23    2.36
   6  -7  -4    0.17    2.06
  -6   7   4   14.76    6.15
   6   7  -4   -0.94    2.10
  -6   7   4    1.31    0.84
   6  -7  -4    3.15    2.86
   5  -7  -4 2027.80   45.27
   5   7  -4 2156.92   57.35
   5   7  -4 2158.01   47.96
  -5   7   4 2094.64   42.88
   5   7  -4 2344.84   56.18
   5  -7  -4 2168.17   57.87
  -5  -7   4 2250.80   51.00
   5  -7  -4 2290.71   43.38
   5  -7  -4 2199.41   54.22
  -5  -7   4 2222.26   54.12
   5   7  -4 2062.01   47.71
  -5   7   4 2292.91   52.01
   4  -7  -4   61.75    5.83
   4   7  -4   64.28    8.05
   4  -7  -4   68.38    5.32
  -4   7   4   64.64    5.24
   4   7  -4   68.62    7.53
   4  -7  -4   69.63    8.51
  -4  -7   4   68.40    6.65
   4  -7  -4   66.12    7.61
  -4  -7   4   60.88    8.22
   4  -7  -4   60.84    8.85
  -4  -7   4   69.66    7.69
   4   7  -4   64.69    6.27
  -4   7   4   70.91    5.86
   3  -7  -4  118.31    8.50
  -3   7   4  142.11   10.03
  -3  -7   4  107.39   10.48
   3  -7  -4  117.98    7.53
   3  -7  -4  121.81   12.20
  -3   7   4  115.20    7.53
   3   7  -4  127.24    9.53
  -3  -7   4  109.23   10.55
   3  -7  -4  120.19   11.19
  -3  -7   4  124.17    8.35
   3  -7  -4  122.69    9.77
  -3  -7   4  120.71    9.93
   3   7  -4  127.00    9.02
  -3   7   4  127.83    8.76
  -2   7   4    8.35    2.72
  -2  -7   4    9.50    2.22
   2   7  -4    8.88    2.83
  -2   7   4    8.92    2.77
  -2   7   4    5.03    1.48
   2  -7  -4    8.90    3.01
  -2  -7   4    6.43    2.49
   2  -7  -4    5.36    1.79
   2   7  -4    6.36    2.51
   2   7  -4   10.57    2.84
   2  -7  -4    8.12    3.34
   2  -7  -4    3.78    2.54
   2   7  -4    7.85    1.82
  -2  -7   4    6.25    2.73
  -1  -7   4   24.08    3.26
   1   7  -4   23.37    4.34
  -1   7   4   23.56    4.43
   1  -7  -4   20.40    3.92
  -1  -7   4   24.95    4.89
   1  -7  -4   22.10    3.67
   1   7  -4   25.75    4.85
   1  -7  -4   24.83    4.43
   1   7  -4   19.79    3.27
   1  -7  -4   21.29    5.16
  -1  -7   4   33.25    4.80
  -1   7   4   26.06    4.02
  -1   7   4   20.94    3.51
   1   7  -4   22.96    3.69
  -1  -7   4   28.60    4.83
   0  -7   4   17.77    2.63
   0   7  -4   23.54    4.47
   0   7   4   21.76    4.51
   0  -7  -4   22.45    4.08
   0  -7   4   23.34    4.53
   0  -7  -4   19.92    4.04
   0   7  -4   16.19    3.69
   0   7   4   18.73    3.71
   0   7  -4   23.19    3.26
   0  -7  -4   20.45    4.54
   0  -7   4   23.29    3.67
   0  -7  -4   15.13    3.39
   0   7   4   18.65    3.67
   0   7  -4   19.09    3.58
   0  -7   4   16.40    3.78
  -1  -7  -4 1073.64   33.16
  -1   7  -4  968.30   34.63
  -1  -7  -4 1067.00   35.79
   1  -7   4 1120.52   33.28
  -1  -7  -4 1054.30   32.72
   1   7   4 1004.93   31.11
  -1  -7  -4 1047.52   36.13
   1  -7   4 1037.70   23.54
  -1   7  -4 1070.76   25.10
   1  -7   4 1069.78   26.61
  -1   7  -4 1053.98   33.45
  -1   7  -4 1045.23   31.74
  -1  -7  -4 1051.57   31.09
   1   7   4 1043.14   34.75
   2  -7   4 1246.01   32.42
  -2   7  -4 1130.45   39.35
  -2  -7  -4 1241.30   40.08
   2  -7   4 1279.59   23.64
   2   7   4 1242.15   36.30
  -2  -7  -4 1197.40   39.36
   2  -7   4 1277.40   35.99
   2   7   4 1244.73   30.22
  -2   7  -4 1201.13   37.15
  -2   7  -4 1240.42   36.15
  -2  -7  -4 1229.94   34.48
   2   7   4 1211.52   39.61
   3  -7   4  507.98   17.81
  -3   7  -4  447.98   23.17
  -3  -7  -4  450.52   22.99
   3   7   4  484.54   21.78
  -3  -7  -4  468.80   22.83
   3   7   4  476.98   15.49
  -3   7  -4  468.10   21.81
  -3   7  -4  489.52   21.22
   3  -7   4  477.06   19.67
  -3  -7  -4  472.34   19.85
   3   7   4  474.73   23.88
  -4  -7  -4  241.60   14.05
  -4   7  -4  217.07   15.95
   4  -7   4  237.36   13.42
  -4  -7  -4  246.32   17.23
   4   7   4  232.99   15.52
  -4  -7  -4  230.71   15.62
  -4   7  -4  233.05   15.21
   4   7   4  248.71    9.59
  -4   7  -4  234.40   14.75
   4  -7   4  244.09   11.27
   4   7   4  234.03   17.13
  -5  -7  -4    0.42    1.65
   5   7   4   -0.80    0.92
   5   7   4    0.39    2.02
   5  -7   4    0.75    1.66
  -5   7  -4   -2.04    2.91
   5   7   4   -0.54    2.85
  -5  -7  -4   -1.92    2.87
   5  -7   4    1.67    1.24
  -5  -7  -4   -2.36    2.51
  -5   7  -4   -4.23    3.25
  -5   7  -4    1.56    1.97
   6   7   4    8.83    3.88
   6   7   4   11.92    1.61
   6  -7   4   12.97    2.43
   6  -7   4    9.50    3.05
   6   7   4    6.85    2.53
  -6  -7  -4    8.93    3.40
  -6  -7  -4   14.56    3.94
  -6   7  -4   11.98    4.34
  -6  -7  -4   13.57    5.77
  -6   7  -4    9.15    3.15
  -6   7  -4    3.58    1.82
  -7  -7  -4  136.23   11.76
  -7   7  -4  114.15   12.47
   7  -7   4  134.98   10.34
  -7  -7  -4  123.24   14.19
  -7  -7  -4  129.13   12.26
   7  -7   4  113.99    7.46
  -7   7  -4  131.31   12.46
  -7   7  -4  160.89   13.80
   7   7   4  123.93   13.55
  -8  -7  -4  714.17   28.96
  -8   7  -4  617.35   31.02
   8  -7   4  673.48   25.35
  -8  -7  -4  734.14   37.01
   8  -7   4  656.07   20.00
  -8  -7  -4  643.39   28.81
  -8   7  -4  664.27   30.63
   8   7   4  645.25   33.09
   9   7   4    7.37    4.15
   9  -7   4    3.85    2.46
  -9   7  -4    8.55    4.08
  -9  -7  -4    1.61    2.07
  -9  -7  -4    6.82    3.83
  -9  -7  -4    7.65    5.43
  -9   7  -4    9.73    4.63
 -10   7  -4  579.79   30.89
  10  -7   4  564.89   24.65
 -10  -7  -4  664.35   38.08
 -10  -7  -4  545.36   27.19
 -10   7  -4  548.34   30.35
  10   7   4  561.08   32.24
  11   7   4   33.47    8.08
 -11   7  -4   29.10    7.33
 -11  -7  -4   38.33    6.92
 -11  -7  -4   51.69   10.76
 -11   7  -4   41.10    8.89
 -12   7  -4    0.22    2.89
 -12  -7  -4   12.12    6.64
 -12   7  -4    9.76    5.18
  13  -8  -4   44.08    9.15
  12   8  -4  115.27   14.38
  12  -8  -4  101.43   13.51
 -12  -8   4  111.78   12.60
 -12   8   4   97.80   13.39
 -11  -8   4   -1.95    3.66
 -11  -8   4    4.84    3.82
  11   8  -4   -5.44    4.53
 -11   8   4    1.45    3.32
  11  -8  -4    0.44    3.66
  11  -8  -4    5.22    2.69
 -11   8   4    0.25    2.72
 -10  -8   4   44.12    7.59
 -10  -8   4   39.84    7.04
  10   8  -4   44.65    9.20
 -10   8   4   51.47    7.91
  10  -8  -4   46.20    8.19
  10  -8  -4   44.08    7.24
 -10   8   4   43.88    9.73
  -9  -8   4   23.13    4.78
  -9  -8   4   13.74    3.96
   9   8  -4   21.68    5.75
  -9   8   4   29.90    6.00
   9  -8  -4   21.11    5.55
   9  -8  -4   19.43    4.73
  -9   8   4   22.50    7.45
  -8  -8   4    2.26    1.88
  -8  -8   4   -0.81    2.79
   8   8  -4    6.13    4.08
  -8   8   4    1.31    2.49
   8  -8  -4    6.99    3.88
  -8   8   4    3.64    4.47
   8  -8  -4   -0.61    2.42
  -7  -8   4   43.08    7.02
  -7  -8   4   57.78    7.31
   7   8  -4   54.35    8.87
  -7   8   4   64.41    7.80
   7   8  -4   56.35    5.90
   7   8  -4   62.41    8.75
   7  -8  -4   56.52    8.51
   7   8  -4   57.05    5.01
   7   8  -4   53.32    5.33
  -7   8   4   54.84   10.76
   7  -8  -4   62.63    8.34
   6   8  -4  303.18   20.34
   6  -8  -4  344.23   12.20
   6   8  -4  319.70   14.20
   6  -8  -4  327.12   10.86
   6   8  -4  384.00   20.70
   6  -8  -4  318.16   18.39
   6  -8  -4  294.88   19.08
  -6  -8   4  317.97   16.67
  -6   8   4  288.36   23.85
   6   8  -4  271.35   14.32
  -6  -8   4  325.26   18.13
  -6   8   4  329.38   17.22
  -5  -8   4    2.81    2.39
  -5  -8   4    0.97    1.57
  -5   8   4    1.19    1.42
   5  -8  -4    1.42    2.53
   5  -8  -4    0.41    1.08
   5   8  -4    0.68    2.62
   5  -8  -4    0.60    1.13
  -5   8   4   -0.70    1.51
   5   8  -4    1.41    1.84
   5  -8  -4    0.34    2.12
  -5   8   4    6.90    5.10
   5   8  -4   -0.68    1.89
   4  -8  -4  165.25   10.67
   4   8  -4  174.11   13.91
   4  -8  -4  167.43    8.88
  -4   8   4  182.53    9.56
   4   8  -4  201.37   13.30
  -4  -8   4  164.87   14.31
   4  -8  -4  162.28   13.61
  -4  -8   4  185.78   11.44
   4  -8  -4  178.22   12.67
  -4  -8   4  188.82   13.18
   4   8  -4  176.93   11.83
  -4   8   4  183.54   10.41
   3   8  -4  128.27   10.63
  -3  -8   4  130.62   12.38
   3  -8  -4  143.00    8.69
  -3   8   4  144.33    9.01
   3  -8  -4  134.73   13.56
   3   8  -4  156.49   10.97
  -3  -8   4  136.10   12.14
  -3  -8   4  145.48    9.58
   3  -8  -4  144.04   12.79
   3  -8  -4  146.78   11.43
  -3  -8   4  160.34   11.97
   3   8  -4  153.09   10.86
  -3   8   4  140.48    9.85
  -2   8   4   33.03    4.88
   2  -8  -4   34.57    5.32
  -2  -8   4   33.24    5.63
   2  -8  -4   33.70    5.65
   2  -8  -4   33.82    4.51
  -2   8   4   38.14    4.76
  -2  -8   4   42.37    4.78
   2   8  -4   34.80    4.83
  -2  -8   4   32.94    5.62
   2  -8  -4   29.15    6.01
   2   8  -4   46.05    6.22
  -2  -8   4   40.16    5.96
  -1  -8   4    2.28    1.32
  -1   8   4   -1.21    2.05
   1  -8  -4    3.15    1.93
  -1  -8   4    0.99    2.01
   1  -8  -4   -0.76    1.40
  -1   8   4    1.29    1.41
  -1   8   4    0.80    1.45
   1   8  -4    1.31    1.13
   1  -8  -4    2.43    1.72
   1  -8  -4    2.03    1.70
   1   8  -4    1.45    2.11
  -1  -8   4   -1.87    2.09
   0  -8  -4  264.40   15.44
   0  -8  -4  308.65   18.38
   0  -8  -4  302.19   15.88
   0   8   4  299.97   15.37
   0  -8  -4  298.51   19.13
   0  -8   4  310.22   17.33
   0  -8   4  287.64   11.75
   0  -8   4  314.80   14.48
   0  -8   4  322.31   17.04
   0   8  -4  301.70   16.10
   0  -8  -4  298.91   16.20
   0   8   4  266.80   16.60
  -1   8  -4   43.28    6.31
   1   8   4   47.80    7.21
   1  -8   4   45.42    4.14
   1  -8   4   53.56    6.91
  -1  -8  -4   48.08    6.92
   1  -8   4   43.27    4.53
  -1  -8  -4   36.37    6.62
  -1  -8  -4   37.93    6.85
  -1   8  -4   43.15    6.23
  -1  -8  -4   40.53    5.96
   1   8   4   37.10    5.41
   2  -8   4  444.31   18.31
  -2  -8  -4  431.54   23.04
   2  -8   4  447.90   12.03
   2   8   4  426.25   20.41
  -2  -8  -4  438.18   22.90
   2  -8   4  439.10   19.97
   2   8   4  438.37   16.52
  -2   8  -4  428.90   21.45
  -2   8  -4  415.45   20.26
  -2  -8  -4  425.73   19.70
   2   8   4  383.20   22.10
   3  -8   4  199.17   11.50
  -3  -8  -4  204.94   15.35
  -3  -8  -4  195.83   15.48
   3  -8   4  211.47   13.08
   3   8   4  198.52   14.35
   3   8   4  208.53   10.52
  -3   8  -4  200.81   14.75
  -3   8  -4  230.10   15.02
   3   8   4  186.54   15.46
  -3  -8  -4  203.90   13.71
  -4  -8  -4  122.82   10.83
  -4   8  -4  100.51   11.57
   4  -8   4  100.94    8.84
   4   8   4  103.71   10.86
  -4  -8  -4  104.97   11.89
  -4   8  -4  104.06   10.67
   4   8   4  128.02    7.58
  -4   8  -4  115.56   11.10
   4  -8   4  124.16    8.68
  -4  -8  -4  111.59   11.41
   4   8   4  116.02   12.47
  -5  -8  -4    3.12    2.00
   5   8   4    3.34    1.23
   5   8   4   -0.75    3.42
   5  -8   4    3.04    1.96
  -5   8  -4   -2.29    2.74
   5   8   4   -1.28    2.80
  -5  -8  -4    7.38    3.44
   5  -8   4    2.20    1.39
  -5  -8  -4   -3.34    3.89
  -5   8  -4   10.31    5.04
   6   8   4   -1.16    3.72
   6   8   4    3.23    1.20
   6  -8   4    2.84    1.58
   6  -8   4    3.06    1.84
  -6   8  -4    7.73    3.98
  -6  -8  -4    1.40    2.27
  -6  -8  -4    1.84    3.25
  -6  -8  -4    4.69    3.36
  -6   8  -4    7.15    4.24
   7   8   4   69.96   10.85
  -7  -8  -4   73.45    9.38
   7  -8   4   89.10    8.40
  -7   8  -4   78.20   10.93
   7  -8   4   79.40    6.67
  -7  -8  -4   70.62    9.38
  -7   8  -4   84.13   10.69
  -7  -8  -4   81.35   11.71
  -8  -8  -4  167.16   14.00
  -8   8  -4  129.91   14.19
   8  -8   4  160.46   11.61
  -8  -8  -4  151.31   16.96
  -8  -8  -4  130.05   13.01
   8  -8   4  134.51    8.85
  -8   8  -4  155.50   15.14
   8   8   4  155.31   16.48
  -9  -8  -4  323.67   20.18
  -9   8  -4  259.35   20.80
   9  -8   4  336.78   17.78
  -9  -8  -4  345.60   26.50
  -9  -8  -4  280.04   19.39
  -9   8  -4  292.22   21.86
   9   8   4  296.23   23.46
  10   8   4    0.45    3.59
  10  -8   4    2.13    2.34
 -10   8  -4    3.84    2.50
 -10  -8  -4    7.00    3.81
 -10  -8  -4    9.44    4.80
 -10   8  -4    3.52    3.64
  11   8   4    4.00    4.68
 -11   8  -4   -3.05    2.67
 -11  -8  -4    8.85    4.07
 -11  -8  -4   -3.78    5.11
 -11   8  -4   -1.36    5.03
 -12  -8  -4   16.89    7.07
  13  -9  -4    4.50    4.10
  12   9  -4   22.48    7.11
  12  -9  -4   21.91    6.37
 -12   9   4   20.51    7.13
 -11  -9   4    5.89    3.90
 -11  -9   4    6.48    3.64
  11   9  -4    7.04    4.60
 -11   9   4    2.46    2.13
  11  -9  -4    5.35    3.79
  11  -9  -4    2.38    2.51
 -11   9   4    2.60    3.50
 -10  -9   4    7.89    4.16
 -10  -9   4   14.66    5.01
  10   9  -4   11.47    5.34
 -10   9   4   11.32    3.86
  10  -9  -4    9.45    4.08
  10  -9  -4   15.68    5.64
 -10   9   4   14.61    6.26
  -9  -9   4    5.00    3.81
  -9  -9   4    4.49    2.54
   9   9  -4   -2.45    4.79
  -9   9   4    2.93    3.28
   9  -9  -4    5.85    4.45
  -9   9   4    7.40    5.14
   9  -9  -4    0.07    2.54
  -8  -9   4   34.78    6.73
  -8  -9   4   27.09    5.67
   8   9  -4   38.91    8.53
  -8   9   4   19.77    4.64
   8  -9  -4   25.05    5.87
  -8   9   4   37.25    9.79
   8  -9  -4   28.53    5.90
  -7  -9   4    4.91    2.94
  -7  -9   4    1.05    2.29
   7   9  -4    3.02    2.30
  -7   9   4    1.70    2.22
   7   9  -4    4.09    1.74
   7  -9  -4    0.57    2.98
  -7   9   4    6.32    4.81
   7   9  -4    3.34    1.97
   7  -9  -4    5.93    3.27
  -6  -9   4   19.74    4.64
  -6  -9   4   21.61    4.52
   6  -9  -4   16.88    4.56
   6   9  -4   10.15    3.75
   6  -9  -4   15.63    2.05
   6  -9  -4   17.10    5.28
  -6   9   4   18.49    6.92
   6   9  -4   10.19    3.00
   5  -9  -4   66.53    6.33
   5   9  -4   84.89   10.64
   5  -9  -4   71.28    8.82
   5  -9  -4   62.76    4.98
  -5  -9   4   79.59    8.08
   5  -9  -4   79.83   10.05
  -5  -9   4   75.38    8.69
  -5   9   4   60.50   11.34
   5   9  -4   47.25    6.36
  -5   9   4   72.65    6.21
  -4  -9   4    2.20    1.73
  -4   9   4    0.60    1.21
   4   9  -4    6.06    3.64
   4  -9  -4    7.00    2.91
   4  -9  -4    3.42    1.86
   4  -9  -4    6.67    2.74
  -4   9   4    1.02    2.98
   4   9  -4    1.73    1.93
  -4  -9   4    9.01    3.57
  -3   9   4   43.20    5.77
   3  -9  -4   49.98    6.27
   3   9  -4   46.01    7.49
   3  -9  -4   53.98    5.46
   3  -9  -4   49.39    6.90
  -3  -9   4   37.06    6.94
  -3  -9   4   63.28    6.68
  -3  -9   4   51.44    8.01
   3  -9  -4   49.37    8.01
   3   9  -4   47.49    6.65
  -3  -9   4   45.63    6.75
  -2  -9   4   11.87    3.03
  -2   9   4    7.58    2.70
   2  -9  -4   18.07    4.09
  -2  -9   4   13.61    3.79
   2  -9  -4   11.75    2.86
  -2   9   4    9.35    2.30
   2  -9  -4    7.76    2.84
  -2  -9   4   14.35    3.96
   2  -9  -4    9.08    3.78
   2   9  -4   15.79    4.10
  -2  -9   4   10.05    3.13
  -1   9   4   38.41    6.23
   1  -9  -4   33.83    5.59
  -1  -9   4   34.32    6.05
   1  -9  -4   30.22    5.07
   1  -9  -4   33.13    5.52
   1  -9  -4   31.15    6.50
   1   9  -4   32.16    5.75
  -1   9   4   41.62    5.60
  -1  -9   4   44.60    6.35
  -1  -9   4   31.12    4.10
   0   9   4   -2.73    3.17
   0  -9   4   -0.72    2.05
   0  -9  -4    2.18    2.12
   0   9   4   -3.43    2.93
   0  -9   4   -0.68    1.46
   0  -9  -4    0.66    2.12
   0  -9  -4    2.14    2.98
   0  -9  -4   -2.82    1.98
   0   9  -4    2.70    2.55
   0  -9   4    1.76    1.38
   1   9   4   11.89    2.99
   1  -9   4   16.00    4.68
   1   9   4   12.81    3.22
  -1  -9  -4   16.68    5.02
   1  -9   4   19.14    3.08
   1  -9   4   14.61    3.78
  -1  -9  -4   18.89    5.11
   1  -9   4   13.29    2.45
  -1   9  -4   18.16    4.45
  -1  -9  -4   14.18    3.86
   2   9   4   67.76    9.38
   2  -9   4   82.01    7.88
   2   9   4   62.17    7.87
   2  -9   4   76.80    4.85
  -2  -9  -4   67.06    9.14
  -2  -9  -4   69.52    9.41
  -2   9  -4   73.52    8.87
   2  -9   4   72.69    4.77
   2  -9   4   66.75    8.07
  -2  -9  -4   71.10    8.24
   3   9   4   25.31    6.13
   3  -9   4   45.70    6.33
  -3  -9  -4   40.70    7.31
  -3  -9  -4   26.67    5.46
  -3  -9  -4   43.47    7.60
   3  -9   4   45.48    5.92
  -3   9  -4   45.00    7.37
   4   9   4   16.39    3.07
   4   9   4   18.03    4.80
   4  -9   4   14.20    3.39
   4  -9   4   14.60    3.47
  -4  -9  -4   22.50    5.72
  -4  -9  -4   15.19    4.19
  -4  -9  -4   13.22    5.06
  -4   9  -4   19.60    4.97
   5   9   4   28.33    3.96
   5   9   4   17.18    5.69
   5  -9   4   31.00    5.06
  -5   9  -4   19.70    5.53
  -5  -9  -4   36.57    6.73
  -5  -9  -4   32.40    7.47
   5  -9   4   26.28    4.26
  -5   9  -4   34.70    7.15
  -5  -9  -4   24.45    5.71
   6   9   4   24.99    6.82
  -6  -9  -4   37.71    6.83
   6  -9   4   31.97    5.36
  -6   9  -4   17.40    5.16
   6  -9   4   31.37    4.79
  -6  -9  -4   31.93    6.71
  -6  -9  -4   34.10    8.02
  -6   9  -4   31.68    6.84
   7   9   4    7.50    4.64
   7  -9   4    4.80    1.75
   7  -9   4    8.19    3.00
  -7   9  -4    2.72    3.47
  -7  -9  -4    9.13    4.46
  -7  -9  -4    8.84    5.31
  -7  -9  -4    4.62    3.38
  -7   9  -4   11.89    5.48
   8  -9   4    1.98    1.76
   8   9   4   -0.48    3.21
  -8  -9  -4    4.80    3.13
   8  -9   4    5.91    2.82
  -8   9  -4   -1.59    3.55
  -8  -9  -4    1.35    3.24
  -8  -9  -4   -5.35    5.57
  -8   9  -4    8.37    5.21
   9   9   4   28.29    7.68
   9  -9   4   22.06    4.50
  -9   9  -4   12.33    4.72
  -9  -9  -4   23.60    5.94
  -9  -9  -4   23.21    7.67
  -9  -9  -4   18.61    5.00
  -9   9  -4   18.46    5.63
  10   9   4   26.92    7.58
 -10   9  -4   35.00    8.37
 -10  -9  -4   33.53    7.08
 -10  -9  -4   50.03   11.08
 -10   9  -4   33.13    8.18
 -11   9  -4   -8.02    5.69
 -11  -9  -4    1.73    2.95
 -11  -9  -4    0.12    4.17
 -11   9  -4    0.96    4.12
 -12  -9  -4    6.91    3.95
  12  10  -4   82.73   13.66
  12 -10  -4   75.78   12.02
 -12  10   4   75.02   13.71
  11  10  -4   37.69    9.51
  11 -10  -4   31.12    7.76
 -11  10   4   19.06    6.92
  10  10  -4  104.40   14.98
 -10  10   4   88.42   10.72
 -10 -10   4   83.42   10.68
  10 -10  -4   85.16   11.82
 -10 -10   4  105.97   12.33
  10 -10  -4   94.84   11.86
 -10  10   4   74.58   14.41
  -9 -10   4   16.48    5.29
  -9 -10   4   12.46    4.66
   9  10  -4   20.38    6.98
  -9  10   4   17.55    4.89
   9 -10  -4    7.68    4.71
  -9  10   4   -1.40    4.94
   9 -10  -4   10.92    4.28
  -8 -10   4    6.86    2.84
  -8 -10   4    3.82    2.22
   8  10  -4   12.16    4.41
  -8  10   4    9.03    3.98
   8 -10  -4    9.12    4.45
  -8  10   4    9.64    6.19
   8 -10  -4    6.11    3.62
   7 -10  -4   19.07    5.24
  -7 -10   4   11.95    3.79
   7  10  -4   17.71    5.23
   7 -10  -4   14.07    4.68
  -7  10   4    9.42    6.97
   7  10  -4   12.36    3.13
  -7 -10   4   11.29    4.01
   6  10  -4  286.58   21.34
  -6 -10   4  248.80   15.71
   6 -10  -4  265.86   19.16
   6 -10  -4  271.37   18.44
  -6  10   4  225.86   24.59
  -6 -10   4  279.79   17.91
   6  10  -4  232.68   14.86
  -6  10   4  275.19   11.50
  -5 -10   4    8.55    2.94
  -5  10   4    3.33    1.47
   5 -10  -4    4.03    2.72
   5  10  -4    7.52    3.05
   5 -10  -4    3.19    1.53
   5 -10  -4    3.37    1.11
   5 -10  -4    9.98    3.25
  -5  10   4    6.10    5.40
   5  10  -4    3.55    2.59
  -5 -10   4    1.92    1.95
   4  10  -4  365.16   22.36
   4 -10  -4  348.32   14.25
  -4 -10   4  356.38   17.74
   4 -10  -4  372.57   22.66
   4 -10  -4  364.19   20.80
  -4  10   4  374.01   28.92
  -4 -10   4  401.18   20.93
   4  10  -4  335.03   19.29
  -4  10   4  363.90   16.85
   3 -10  -4   70.52    8.19
   3  10  -4   77.72   10.17
  -3 -10   4   70.54    7.37
   3 -10  -4   71.00    6.52
   3 -10  -4   81.57   10.63
  -3 -10   4   67.52    9.48
  -3 -10   4   71.43    8.64
   3 -10  -4   84.51    9.93
   3  10  -4   74.09    8.85
  -3  10   4   64.80    7.61
  -2  10   4    0.10    2.47
   2 -10  -4    4.09    1.35
   2  10  -4    6.85    4.02
   2 -10  -4   -0.98    1.68
  -2 -10   4   -0.52    2.57
   2 -10  -4    0.89    1.95
  -2 -10   4    1.69    1.56
   2  10  -4   -0.70    1.77
  -2 -10   4    1.38    1.94
  -2 -10   4    2.39    2.26
  -1  10   4    1.08    2.60
  -1 -10   4   -0.96    3.30
   1 -10  -4    4.42    2.85
   1 -10  -4    7.40    4.12
   1  10  -4    6.95    3.39
  -1 -10   4    0.89    1.13
   0 -10  -4  169.82   14.93
   0 -10   4  178.49   14.37
   0 -10   4  161.87    9.70
   0 -10  -4  167.23   15.80
   0 -10   4  151.91   10.91
   0  10  -4  164.69   13.88
   0 -10  -4  162.28   13.42
   0  10   4  142.84   13.65
   1  10   4   44.60    8.13
   1 -10   4   71.65    7.94
   1 -10   4   69.72    5.73
   1 -10   4   66.82    8.76
   1 -10   4   69.42    6.13
  -1 -10  -4   69.60   10.00
   1  10   4   63.84    6.82
  -1 -10  -4   66.51    9.50
  -1 -10  -4   70.90    8.96
  -1  10  -4   63.26    8.89
   2 -10   4  417.72   19.70
   2 -10   4  415.62   21.11
   2 -10   4  411.78   13.51
  -2 -10  -4  406.82   24.37
  -2 -10  -4  404.42   24.35
   2 -10   4  429.85   12.87
   2  10   4  402.02   17.79
  -2  10  -4  390.96   22.39
  -2 -10  -4  389.74   21.63
   2  10   4  337.64   23.81
   3 -10   4  289.19   15.92
   3 -10   4  272.82   16.43
  -3 -10  -4  267.18   19.59
   3  10   4  272.80   14.11
  -3  10  -4  272.70   18.78
  -3 -10  -4  287.54   20.51
   3  10   4  268.88   21.47
  -3 -10  -4  247.66   17.23
   4  10   4   -3.41    5.14
   4 -10   4   -0.37    2.03
   4 -10   4    3.28    1.68
  -4 -10  -4   -0.86    2.91
  -4 -10  -4    5.24    3.01
  -4 -10  -4    6.25    3.40
  -4  10  -4    4.93    3.88
   5  10   4    5.25    3.59
   5 -10   4    9.68    3.06
  -5 -10  -4    8.10    4.33
  -5 -10  -4    6.01    4.18
   5 -10   4    7.34    2.48
  -5  10  -4   13.84    5.11
  -5 -10  -4   13.21    4.38
   6  10   4   -2.29    3.99
  -6 -10  -4   -4.51    4.12
   6 -10   4    0.72    1.64
   6 -10   4    1.68    1.73
  -6 -10  -4    7.24    4.02
  -6 -10  -4   -0.15    2.90
  -6  10  -4   -1.10    2.58
  -7  10  -4   65.11   10.56
   7  10   4   66.27   11.63
  -7 -10  -4  101.69   11.96
   7 -10   4   87.34    8.58
  -7 -10  -4   73.85   10.33
   7 -10   4   71.59    7.40
  -7 -10  -4   82.75   12.55
  -7  10  -4   77.62   11.51
   8  10   4   79.21   13.23
   8 -10   4   85.04    8.68
  -8 -10  -4   93.88   11.63
  -8  10  -4   66.22   10.88
   8 -10   4   76.10    7.75
  -8 -10  -4   98.43   14.12
  -8  10  -4   67.37   11.35
  -8 -10  -4   87.02   11.14
  -9 -10  -4  266.69   20.16
  -9 -10  -4  308.41   21.39
  -9  10  -4  249.88   21.31
  -9  10  -4  256.01   22.60
   9  10   4  252.27   23.61
 -10  10  -4    0.25    4.18
 -10 -10  -4   -4.27    4.11
 -10 -10  -4    8.70    6.20
 -10  10  -4    1.12    3.40
 -11 -10  -4   16.89    7.15
  12  11  -4   29.03    9.02
  11  11  -4  185.25   20.64
  11 -11  -4  176.38   17.79
 -11  11   4  143.65   21.04
 -10 -11   4   -2.49    2.64
  10  11  -4    5.52    5.20
 -10  11   4   -5.19    3.83
  10 -11  -4   -2.25    3.41
 -10  11   4    4.67    6.62
 -10 -11   4    5.44    4.03
   9  11  -4  172.29   18.98
   9 -11  -4  161.92   15.79
  -9 -11   4  156.66   14.13
   9 -11  -4  151.12   15.64
  -9 -11   4  151.04   14.45
  -9  11   4  107.85   18.72
  -9  11   4  147.40   13.79
  -8 -11   4   12.69    4.71
   8  11  -4    6.48    4.21
  -8  11   4    9.46    3.85
   8 -11  -4   13.43    4.62
   8 -11  -4   14.93    4.77
  -8 -11   4    7.63    3.62
   7  11  -4  374.58   26.52
  -7 -11   4  381.01   21.01
   7 -11  -4  357.73   23.24
   7 -11  -4  356.92   22.53
  -7 -11   4  377.44   22.15
  -6 -11   4    7.07    3.19
   6 -11  -4   16.58    4.97
   6  11  -4   20.48    6.35
   6 -11  -4   11.66    4.59
  -6  11   4    8.64    5.97
   6  11  -4    8.00    3.05
  -6 -11   4   13.09    4.81
   5  11  -4  371.64   24.63
  -5 -11   4  383.37   19.77
   5 -11  -4  385.87   23.77
   5 -11  -4  387.50   22.88
  -5  11   4  309.89   29.19
  -5 -11   4  378.64   21.74
   5  11  -4  354.94   20.55
  -5  11   4  382.79   16.90
   4 -11  -4   79.43    8.18
   4  11  -4   79.71   11.03
   4 -11  -4   79.15    6.67
  -4 -11   4   82.74    8.49
   4 -11  -4   92.58   11.39
   4 -11  -4   89.65   10.57
  -4 -11   4   74.13    9.37
   4  11  -4   75.75    9.71
  -4  11   4   67.97   12.75
  -4  11   4   74.35    7.93
  -3  11   4   27.80    4.90
   3 -11  -4   29.64    5.18
   3  11  -4   40.64    8.12
   3 -11  -4   29.65    4.52
   3 -11  -4   37.84    7.45
   3 -11  -4   29.10    6.47
  -3  11   4   41.26    9.96
   3  11  -4   27.90    5.52
  -3 -11   4   39.20    6.53
  -3 -11   4   27.95    4.83
   2  11  -4  169.80   14.91
  -2 -11   4  176.34   16.22
   2 -11  -4  175.04   12.22
  -2 -11   4  144.80   13.83
  -2 -11   4  201.26   15.29
   2  11  -4  149.78   13.86
  -2 -11   4  187.59   12.08
   2 -11  -4  192.14   15.50
  -2  11   4  142.01   13.10
   1  11  -4  171.52   14.57
  -1 -11   4  182.07   15.75
  -1 -11   4  174.63   11.25
  -1 -11   4  159.13   13.08
   1  11  -4  152.86   13.98
   1 -11  -4  193.64   15.57
  -1  11   4  136.99   13.84
   0 -11   4  105.43   11.63
   0 -11  -4  102.01   12.34
   0 -11   4  109.68    8.30
   0 -11  -4   80.81   11.32
   0  11  -4   94.92   11.23
   0 -11  -4  109.10   11.71
   0  11   4   92.44   12.00
   1 -11   4  847.70   30.96
  -1 -11  -4  786.45   35.60
   1 -11   4  821.83   32.77
   1 -11   4  782.83   24.05
  -1 -11  -4  747.51   36.17
   1 -11   4  761.26   24.12
   1  11   4  775.82   27.57
  -1  11  -4  758.53   33.52
  -1 -11  -4  817.73   33.66
   1  11   4  713.60   36.57
   2 -11   4  116.96   10.52
  -2 -11  -4  115.75   13.16
   2 -11   4  116.34   11.48
  -2 -11  -4  110.45   13.03
   2 -11   4  126.84    6.70
   2  11   4  115.26    9.68
   2 -11   4  129.80    7.52
  -2  11  -4  121.53   13.07
  -2 -11  -4  123.86   12.89
   2  11   4  118.53   14.83
   3 -11   4  100.90    9.74
   3  11   4   95.39   13.79
  -3 -11  -4   99.17   12.48
  -3 -11  -4   98.25   12.38
   3 -11   4  103.44   10.50
   3  11   4  100.60    8.89
  -3  11  -4   90.40   11.49
  -3 -11  -4  100.82   11.48
   4  11   4   61.80   11.57
   4 -11   4  102.65   10.00
  -4 -11  -4   85.07   10.72
  -4 -11  -4   78.61   10.91
   4  11   4   88.27    8.14
  -4 -11  -4   74.62   11.21
  -4  11  -4   64.54   10.05
   4 -11   4   88.86    9.08
   5  11   4    6.26    4.83
  -5 -11  -4    9.69    2.86
   5 -11   4   21.14    4.52
  -5 -11  -4   30.95    7.59
  -5 -11  -4   21.71    5.44
  -5  11  -4   30.74    7.20
   5 -11   4   30.04    5.15
  -6 -11  -4  254.48   19.01
   6 -11   4  202.19   13.78
  -6 -11  -4  226.51   20.42
  -6 -11  -4  203.52   17.69
  -6  11  -4  194.48   18.46
   6 -11   4  191.69   13.31
   6  11   4  175.98   20.01
   7  11   4   66.66   12.69
   7 -11   4   61.64    7.37
   7 -11   4   55.90    7.10
  -7 -11  -4   64.85    9.97
  -7  11  -4   37.90    8.43
  -7 -11  -4   59.29    9.86
  -7 -11  -4   57.58   11.11
  -7  11  -4   67.81   11.15
  -8 -11  -4  555.47   29.71
  -8  11  -4  409.49   27.82
   8 -11   4  487.45   21.93
  -8 -11  -4  586.78   35.29
  -8 -11  -4  435.58   26.95
  -8  11  -4  500.27   32.11
   8  11   4  523.03   35.23
  -9  11  -4   64.47   11.17
  -9 -11  -4   70.39   10.41
  -9 -11  -4   91.52   14.43
  -9  11  -4   71.48   12.02
 -10 -11  -4  132.67   14.78
 -10 -11  -4  137.77   18.13
  11 -12  -4   22.00    6.35
 -11  12   4   -3.82    9.24
  10  12  -4   14.53    6.62
  10 -12  -4    2.42    3.05
 -10  12   4   -3.24    7.40
  -9 -12   4   38.87    7.50
   9  12  -4   47.21   10.23
  -9  12   4   43.46    7.80
   9 -12  -4   47.19    9.48
  -9  12   4   10.38    4.94
   9 -12  -4   28.01    7.54
  -9 -12   4   36.01    7.48
   8  12  -4  199.32   20.67
  -8 -12   4  171.10   14.97
   8 -12  -4  175.48   16.68
   8 -12  -4  182.23   17.02
  -8 -12   4  175.87   15.74
  -8  12   4  127.33   20.16
   7 -12  -4    6.32    4.15
   7  12  -4    2.58    3.57
   7 -12  -4   12.02    4.98
  -7  12   4    3.80    5.96
  -7 -12   4    9.36    4.05
  -7 -12   4    4.64    3.19
   6  12  -4  763.17   39.11
  -6 -12   4  720.68   30.16
   6 -12  -4  818.11   36.95
   6 -12  -4  793.81   35.51
  -6 -12   4  758.20   33.16
   6  12  -4  775.21   30.59
  -5  12   4   19.01    4.05
   5  12  -4   15.24    5.04
   5 -12  -4   26.40    6.59
   5 -12  -4   25.26    7.02
  -5  12   4    7.05    3.84
   5  12  -4   17.94    5.26
  -5 -12   4   24.45    5.91
  -5 -12   4   17.49    4.68
   4  12  -4  345.75   24.04
   4 -12  -4  367.87   24.18
  -4  12   4  301.28   28.81
  -4 -12   4  339.92   20.94
   4 -12  -4  331.08   21.91
   4  12  -4  255.64   18.78
  -4 -12   4  329.47   18.07
  -4  12   4  289.95   17.12
  -3  12   4   12.98    3.73
   3  12  -4   16.35    5.19
   3 -12  -4    9.21    3.61
   3 -12  -4   19.47    5.71
  -3  12   4    8.95    4.30
   3  12  -4   17.06    5.34
  -3 -12   4   16.21    3.93
  -3 -12   4    7.64    3.45
   2  12  -4  166.37   15.62
  -2 -12   4  148.61   15.07
  -2 -12   4  168.77   11.98
   2  12  -4  133.31   13.58
  -2  12   4  147.07   14.27
   1  12  -4   83.90   10.96
  -1  12   4   62.92   10.29
  -1 -12   4   81.55    7.97
  -1 -12   4   55.43    8.09
   1 -12  -4   89.49   11.36
   1  12  -4   70.80    9.89
  -1 -12   4   83.81   10.98
   0  12  -4  363.12   22.02
   0 -12  -4  369.43   24.47
   0 -12   4  330.78   19.66
   0 -12   4  370.67   22.73
   0 -12   4  368.90   16.91
   0  12  -4  322.89   22.31
   0 -12  -4  352.03   22.39
   0  12   4  305.90   23.62
  -1  12  -4  445.51   24.18
   1 -12   4  464.97   23.20
  -1 -12  -4  435.36   26.82
   1 -12   4  473.82   25.02
   1 -12   4  475.30   17.93
  -1 -12  -4  458.36   28.62
  -1  12  -4  385.81   24.88
  -1 -12  -4  459.54   26.03
   1  12   4  374.32   27.86
   2 -12   4  355.94   19.74
  -2 -12  -4  341.97   23.81
   2 -12   4  344.97   13.97
   2 -12   4  364.34   21.21
  -2 -12  -4  350.35   24.88
  -2  12  -4  287.03   21.37
  -2 -12  -4  315.71   21.57
   2  12   4  282.76   24.99
   3 -12   4  160.66   13.02
  -3 -12  -4  138.44   15.19
  -3 -12  -4  155.95   16.24
   3 -12   4  167.19   13.87
  -3  12  -4  128.29   14.37
  -3 -12  -4  172.72   15.55
   3  12   4  142.53   17.86
  -4 -12  -4  102.99   12.51
   4  12   4   87.50   14.41
   4 -12   4  107.86   10.87
  -4 -12  -4   99.39   12.58
  -4 -12  -4  103.75   13.28
  -4  12  -4   92.46   12.56
   4 -12   4   93.94    9.86
  -5 -12  -4  156.79   15.38
   5  12   4  122.65   17.38
   5 -12   4  138.50   11.75
  -5 -12  -4  165.74   17.50
  -5 -12  -4  136.24   15.05
  -5  12  -4  121.65   14.96
   5 -12   4  144.47   12.11
   6  12   4    1.40    3.77
   6 -12   4    4.15    2.58
   6 -12   4    2.91    1.93
  -6 -12  -4    5.57    3.41
  -6 -12  -4    4.68    4.49
  -6  12  -4   -0.88    4.35
  -6 -12  -4    3.68    3.25
  -7 -12  -4  354.75   23.70
  -7 -12  -4  292.28   22.48
   7 -12   4  334.77   18.13
  -7 -12  -4  312.37   25.58
   7 -12   4  309.76   18.03
  -7  12  -4  317.68   25.40
   7  12   4  284.00   27.02
   8  12   4   24.92    8.53
  -8  12  -4   29.45    8.27
  -8 -12  -4   39.25    8.08
  -8 -12  -4   31.02    7.48
  -8 -12  -4   34.26    9.38
  -8  12  -4   23.37    7.25
  -9 -12  -4  201.96   18.85
  10 -13  -4   49.61    9.30
   9  13  -4   -3.32    5.12
   9 -13  -4   -5.24    3.66
  -9  13   4    5.54    8.75
   8 -13  -4   -6.89    4.52
   8  13  -4    1.62    3.78
   8 -13  -4   -0.08    2.92
  -8 -13   4    2.27    2.74
  -8 -13   4   -1.31    2.88
   7  13  -4  376.97   28.22
   7 -13  -4  316.79   23.07
   7 -13  -4  340.19   23.86
  -7 -13   4  327.29   20.64
  -7  13   4  288.19   31.96
  -7 -13   4  353.54   22.85
   6  13  -4  121.20   15.74
  -6 -13   4  113.31   11.62
   6 -13  -4  113.54   13.70
   6 -13  -4   99.12   12.34
  -6 -13   4  108.48   12.45
  -6  13   4   98.69   17.99
   5  13  -4  597.32   34.07
  -5 -13   4  538.20   25.56
   5 -13  -4  587.74   32.02
   5 -13  -4  551.16   30.43
  -5  13   4  500.06   40.59
  -5 -13   4  592.67   29.46
   5  13  -4  544.13   27.85
  -4  13   4   -0.88    1.76
   4  13  -4   -0.94    4.28
   4 -13  -4    1.10    3.02
   4 -13  -4    7.32    4.80
  -4  13   4   -4.49    6.37
   4  13  -4   -1.13    3.05
  -4 -13   4   -0.01    2.76
  -4 -13   4   -0.45    2.93
  -3 -13   4   74.90    8.62
  -3  13   4   52.03    8.42
   3  13  -4   65.56   10.75
   3 -13  -4   76.08   11.13
   3 -13  -4   82.44   12.19
  -3  13   4   65.50   13.12
   3  13  -4   71.45   10.55
  -2  13   4   20.00    6.03
   2  13  -4   26.44    6.47
  -2 -13   4   15.96    4.92
   2 -13  -4   31.18    6.83
   2  13  -4   24.57    6.33
  -2 -13   4   28.40    5.32
  -1  13   4   20.55    6.19
   1  13  -4   17.70    5.26
  -1 -13   4   15.26    4.74
   1 -13  -4   22.96    6.50
  -1 -13   4   15.68    3.99
   1  13  -4    7.96    2.46
   0  13  -4  197.79   16.92
   0 -13   4  210.83   15.94
   0 -13  -4  212.97   18.83
   0 -13   4  171.55   16.15
   0 -13   4  210.74   12.93
   0  13  -4  159.61   16.15
   0 -13  -4  197.27   17.51
   0  13   4  152.13   17.74
  -1  13  -4  139.78   14.04
   1  13   4  113.14   16.15
   1 -13   4  123.56   12.21
  -1 -13  -4  123.17   14.58
   1 -13   4  137.36   13.79
   1 -13   4  140.37    9.87
  -1  13  -4  120.38   14.13
  -1 -13  -4  147.55   15.15
  -2  13  -4  317.53   20.89
   2 -13   4  341.38   20.27
  -2 -13  -4  331.03   24.14
  -2  13  -4  284.16   22.45
   2 -13   4  323.28   20.85
  -2 -13  -4  347.35   23.41
   2  13   4  265.56   25.59
   3 -13   4  235.29   16.47
  -3 -13  -4  235.29   20.63
   3 -13   4  237.90   17.41
  -3  13  -4  203.69   19.33
  -3 -13  -4  250.18   19.97
   3  13   4  181.93   21.44
   4  13   4   21.41    8.28
   4 -13   4   36.81    6.62
   4 -13   4   37.52    6.75
  -4 -13  -4   33.80    7.56
  -4 -13  -4   32.43    7.50
  -4 -13  -4   45.61    9.61
  -4  13  -4   34.84    8.21
   5  13   4   43.61   10.96
   5 -13   4   49.46    7.35
  -5 -13  -4   37.47    8.09
  -5 -13  -4   44.77    9.01
  -5 -13  -4   51.72   10.20
  -5  13  -4   39.73    8.81
   5 -13   4   60.37    8.50
   6  13   4    6.98    5.02
   6 -13   4   21.61    4.72
  -6 -13  -4   31.75    7.89
   6 -13   4   27.67    5.60
  -6 -13  -4   32.10    8.08
  -6  13  -4   13.16    5.22
  -6 -13  -4   19.28    6.59
  -7 -13  -4    5.44    3.74
   7  13   4   -0.04    4.96
   7 -13   4    2.25    2.19
  -7 -13  -4    1.88    3.36
  -7 -13  -4   11.44    4.85
  -7  13  -4    2.58    4.34
  -8 -13  -4  178.16   17.65
  -8 -13  -4  135.67   15.80
  -9 -13  -4    0.37    3.86
   9 -14  -4   -2.02    3.65
   8 -14  -4    1.06    3.42
  -8 -14   4   -0.64    2.72
   7  14  -4   -0.86    4.18
   7 -14  -4   -3.03    4.57
  -7  14   4   -8.80   10.08
  -7 -14   4   -1.69    3.43
   6  14  -4  208.67   21.11
   6 -14  -4  174.69   17.60
  -6 -14   4  188.83   15.67
   6 -14  -4  195.72   18.64
  -6 -14   4  190.84   17.04
  -6  14   4  132.29   21.64
   5 -14  -4    0.04    3.91
   5  14  -4    6.91    4.86
   5 -14  -4    2.66    3.02
   5  14  -4    1.28    2.05
  -5 -14   4    4.49    2.78
  -5 -14   4    5.32    4.12
   4  14  -4  109.31   14.76
   4 -14  -4   98.46   12.92
  -4 -14   4   94.14   10.55
   4 -14  -4  113.85   14.36
  -4  14   4   92.29   17.17
   4  14  -4   91.83   11.80
  -4  14   4   81.25    9.99
  -3  14   4   -3.95    4.41
   3  14  -4    3.58    3.20
   3 -14  -4    5.56    2.96
   3 -14  -4   -0.35    3.54
  -3  14   4   -4.43    6.83
   3  14  -4    0.71    3.71
  -3 -14   4    3.95    2.60
  -2  14   4   14.44    5.65
   2  14  -4   15.27    5.50
  -2 -14   4   14.45    5.13
   2 -14  -4   18.75    5.54
   2  14  -4   12.40    2.47
  -2 -14   4   21.25    4.88
  -1  14   4    2.44    4.22
   1  14  -4    2.57    3.62
  -1 -14   4   10.12    4.97
   1 -14  -4    8.53    4.42
  -1 -14   4    5.59    3.06
   1  14  -4   -0.59    4.45
  -1 -14   4    8.83    4.25
   0  14   4   25.27    7.24
   0  14  -4   45.74    8.53
   0 -14   4   35.15    7.80
   0 -14   4   46.20    8.16
   0 -14  -4   42.37    9.27
   0 -14   4   46.11    6.31
   0  14  -4   38.60    8.09
   0 -14  -4   41.96    8.35
  -1 -14  -4   75.86   11.67
   1  14   4   44.19   10.26
  -1  14  -4   73.87   10.86
   1 -14   4   65.21    9.83
   1 -14   4   66.77    9.34
  -1 -14  -4   71.52   11.14
  -1  14  -4   47.27    9.45
  -2  14  -4  156.74   15.33
   2 -14   4  193.90   15.79
  -2 -14  -4  192.06   18.86
   2 -14   4  180.27   15.91
  -2  14  -4  150.61   16.84
  -2 -14  -4  188.32   18.06
   3 -14   4  125.71   12.60
  -3  14  -4  105.40   12.18
   3  14   4   79.86   14.77
   3 -14   4  116.60   12.29
  -3 -14  -4  118.38   14.84
  -3  14  -4   75.20   12.29
  -3 -14  -4  115.46   14.35
   4  14   4    1.84    5.46
   4 -14   4    0.63    2.43
  -4  14  -4    5.68    3.59
   4 -14   4    5.38    3.95
  -4 -14  -4   -1.75    3.64
  -4 -14  -4    6.15    4.79
  -4  14  -4   -5.40    5.74
   5  14   4   -1.35    5.26
  -5  14  -4    6.55    3.74
  -5 -14  -4    6.76    3.71
  -5 -14  -4    1.22    5.37
  -5  14  -4  -10.69    7.80
   5 -14   4    7.30    3.93
   5 -14   4    4.03    3.04
   6 -14   4   -6.18    4.27
  -6 -14  -4   -2.73    6.28
  -6 -14  -4   -1.82    2.76
  -7 -14  -4    6.05    3.82
   8 -15  -4    2.70    3.61
   7 -15  -4   11.27    5.24
  -7 -15   4   17.82    5.20
   6 -15  -4   68.87   11.32
  -6 -15   4   62.39    9.27
   5 -15  -4    1.60    3.78
   5 -15  -4    3.25    3.79
  -5  15   4   -2.38    6.71
  -5 -15   4   -0.24    2.80
   4  15  -4   29.85    7.90
   4 -15  -4   32.24    7.62
  -4  15   4   14.81    5.39
   4  15  -4   40.32    8.29
   4 -15  -4   29.45    8.07
  -4 -15   4   22.29    5.63
  -3  15   4   34.76    6.92
   3  15  -4   54.56   10.58
   3 -15  -4   41.16    8.39
   3 -15  -4   58.95   10.61
  -3  15   4   47.04   11.85
   3  15  -4   34.38    8.04
  -3 -15   4   53.47    7.90
  -2  15   4    8.37    4.12
  -2 -15   4   14.92    5.20
   2  15  -4   18.65    6.57
   2 -15  -4    8.12    4.55
  -2 -15   4   16.09    6.50
  -2 -15   4   12.64    4.07
   2  15  -4    9.43    5.32
  -1  15   4   -5.08    6.05
   1  15  -4    9.32    4.86
  -1 -15   4   13.34    4.97
   1 -15  -4   14.87    5.68
  -1 -15   4   12.58    3.65
   1  15  -4   13.96    6.04
  -1 -15   4   17.23    5.40
   0  15   4   40.30   10.31
   0  15  -4   70.31   11.12
   0 -15   4   53.23    9.29
   0 -15  -4   61.76   10.57
   0  15  -4   44.77    9.50
   0 -15  -4   80.99   12.04
   0 -15   4   57.73    9.27
  -1 -15  -4   65.71   11.20
   1  15   4   55.79   12.17
  -1  15  -4   73.18   11.01
   1 -15   4   73.30    9.94
   1 -15   4   77.52   11.08
  -1 -15  -4   78.05   12.58
  -1  15  -4   86.69   13.51
  -2 -15  -4   -4.39    3.57
  -2  15  -4   -1.31    3.05
   2 -15   4    4.16    4.21
  -2 -15  -4    9.82    5.34
   2 -15   4    0.33    2.80
  -2  15  -4   -3.83    5.43
   3  15   4   11.96    4.14
  -3 -15  -4   31.19    7.78
  -3  15  -4   29.45    7.11
   3 -15   4   30.63    6.80
   3 -15   4   26.46    6.29
  -3 -15  -4   17.17    6.72
  -3  15  -4   21.73    6.69
   4 -15   4   -2.22    2.73
   4  15   4    0.76    6.68
  -4  15  -4   -1.58    2.47
  -4 -15  -4   -0.07    3.68
   4 -15   4    2.86    2.84
  -4  15  -4   -5.19    6.58
  -5  15  -4   96.36   12.19
  -5 -15  -4  116.37   14.86
   5 -15   4  103.43   11.89
  -6  15  -4   30.38    7.38
   6 -15   4   24.28    5.90
  -6 -15  -4   22.55    6.83
  -7  15  -4   31.10    6.95
  -7 -15  -4   36.28    8.12
   6 -16  -4  114.49   15.01
  -6 -16   4   96.86   11.97
   5 -16  -4    7.54    4.67
  -5 -16   4    5.15    3.67
  -4 -16   4  130.26   13.25
   4 -16  -4  118.06   15.42
  -3 -16   4    1.46    4.79
  -3 -16   4    6.63    4.63
   3 -16  -4   -0.03    3.56
   3  16  -4   -0.63    2.54
  -3 -16   4    6.66    3.73
  -2  16   4   15.37    5.92
  -2 -16   4   32.74    7.35
  -2 -16   4   35.58    8.55
   2 -16  -4   31.62    7.71
  -2 -16   4   34.51    6.36
   2  16  -4   29.29    7.73
  -1  16   4   17.47    6.41
   1  16  -4   27.90    7.75
  -1 -16   4   39.96    8.95
  -1 -16   4   25.59    7.15
   1 -16  -4   31.79    8.24
   1  16  -4   26.76    7.63
   0  16   4    0.92    6.10
   0  16  -4   11.14    5.19
   0 -16   4    7.27    2.60
   0 -16   4   17.15    5.62
   0 -16  -4    7.75    3.57
   0  16  -4   10.78    4.27
   1 -16   4  122.49   13.81
   1  16   4   73.19   14.19
  -1  16  -4  104.86   13.89
   1 -16   4  122.88   14.29
  -1  16  -4   96.81   14.58
  -1 -16  -4  137.40   16.75
  -2 -16  -4   83.12   12.97
   2  16   4   62.55   13.65
  -2  16  -4   71.59   11.04
   2 -16   4   72.61   10.66
   2 -16   4   59.79    9.42
  -2  16  -4   60.91   11.41
   3  16   4   29.53    9.79
  -3 -16  -4   56.22   10.66
  -3  16  -4   52.06    9.24
   3 -16   4   56.33    9.25
   3 -16   4   48.71    8.36
   4 -16   4   73.72   10.37
  -4  16  -4   79.60   11.77
  -4 -16  -4   81.14   12.66
   4 -16   4   88.08   11.06
  -5  16  -4   11.22    4.46
  -5 -16  -4   15.98    6.44
   5 -16   4   25.05    6.21
  -6 -16  -4   -2.15    4.51
  -5 -17   4  356.75   23.33
   5 -17  -4  350.00   26.83
   4 -17  -4   14.66    5.66
  -4 -17   4   22.81    5.76
   3 -17  -4   62.13   11.62
   3  17  -4   59.10   10.75
   2  17  -4   43.60    9.99
  -1  17   4   39.70    9.93
  -1 -17   4   53.74   10.46
   1  17  -4   28.51    7.36
   0  17   4    4.69    4.60
   0 -17   4   18.01    6.87
   0  17  -4   13.45    5.32
   1 -17   4  371.34   24.99
   1 -17   4  370.18   26.01
   2 -17   4  108.49   13.57
   2 -17   4  102.33   12.79
   3 -17   4   83.96   11.74
   3 -17   4   74.53   10.98
   4 -17   4   91.39   12.04
  13   0  -5   -2.19    3.54
 -12   0   5   -2.46    3.53
  12   0  -5    0.62    3.48
 -11   0   5   -2.69    2.97
 -11   0   5   -0.66    1.96
  11   0  -5    2.23    2.55
 -10   0   5   -1.21    2.64
 -10   0   5    1.60    2.06
  10   0  -5   -3.03    2.72
  -9   0   5    1.90    1.94
   9   0  -5   -0.30    1.36
  -9   0   5    1.74    1.81
   9   0  -5   -1.31    2.77
   9   0  -5    1.23    1.93
  -8   0   5    1.41    1.91
   8   0  -5   -0.53    1.76
  -8   0   5    1.58    1.82
  -8   0   5   -0.66    0.79
   8   0  -5   -1.26    1.69
   8   0  -5    2.53    2.52
  -7   0   5    1.60    2.07
  -7   0   5    1.05    1.45
  -7   0   5    0.01    0.81
   7   0  -5    0.36    2.24
   7   0  -5    1.65    1.17
  -6   0   5    0.47    1.46
   6   0  -5   -2.04    2.11
  -6   0   5   -0.29    1.28
  -6   0   5   -1.04    1.45
   6   0  -5    0.94    1.89
   6   0  -5   -1.60    2.53
  -5   0   5    2.56    2.24
   5   0  -5   -3.03    2.19
  -5   0   5    4.47    2.28
  -5   0   5    0.07    1.10
   5   0  -5    0.70    1.62
  -5   0   5   -1.29    1.79
  -4   0   5    1.28    1.07
  -4   0   5   -0.27    1.52
   4   0  -5    0.81    1.20
  -4   0   5   -1.56    1.62
  -4   0   5   -0.24    1.33
   4   0  -5   -0.01    1.71
   4   0  -5    0.56    1.21
  -3   0   5   -0.65    1.54
   3   0  -5    2.42    1.24
   3   0  -5    0.74    1.09
   3   0  -5   -0.87    1.43
  -3   0   5    0.22    1.65
  -3   0   5    0.37    1.23
   3   0  -5   -1.39    2.09
  -3   0   5    1.32    1.31
  -2   0   5    0.28    0.93
   2   0  -5   -0.32    1.34
  -2   0   5    0.48    0.95
   2   0  -5   -0.33    0.95
   2   0  -5    1.12    0.88
  -2   0   5   -0.20    1.32
   2   0  -5   -1.59    1.85
  -2   0   5   -0.19    1.73
   2   0  -5    2.87    1.37
   2   0  -5    0.21    1.52
  -1   0   5    1.28    1.28
   1   0  -5   -0.46    1.21
  -1   0   5    1.53    0.99
   1   0  -5    0.81    0.79
   1   0  -5    0.05    1.18
  -1   0   5    1.80    1.61
  -1   0   5   -0.32    1.35
   1   0  -5    1.33    1.38
   1   0  -5    1.21    1.74
   0   0   5   -0.07    0.77
   0   0  -5   -0.57    1.16
   0   0  -5    0.66    0.60
   0   0   5    0.10    0.69
   0   0   5    0.55    1.35
   0   0   5    0.92    1.34
   0   0  -5    0.58    1.71
   0   0  -5    0.02    1.12
   0   0  -5   -1.99    1.15
   0   0   5   -0.52    1.48
   1   0   5    3.65    1.19
  -1   0  -5   -0.56    1.46
  -1   0  -5    0.92    0.66
  -1   0  -5    1.86    1.90
   1   0   5    0.41    1.95
   1   0   5   -0.52    1.05
  -1   0  -5    0.78    1.73
  -1   0  -5    1.21    1.31
   1   0   5    0.32    0.99
   1   0   5    0.33    0.54
  -2   0  -5   -0.38    1.09
  -2   0  -5   -0.12    0.39
  -2   0  -5   -0.63    1.04
   2   0   5    0.22    1.07
   2   0   5    1.77    2.09
  -2   0  -5   -1.82    2.05
  -2   0  -5    0.05    1.17
   2   0   5    0.09    0.87
   2   0   5    0.42    0.77
   3   0   5    5.00    2.26
  -3   0  -5    0.93    1.92
  -3   0  -5    0.19    1.25
   3   0   5    0.77    0.84
   4   0   5    0.21    2.00
  -4   0  -5    0.84    1.53
   4   0   5    3.78    1.73
   5   0   5   -0.05    0.87
   5   0   5   -1.13    1.71
  -5   0  -5    0.02    2.38
   6   0   5    0.81    1.08
  -6   0  -5   -1.73    2.40
   6   0   5   -1.08    2.50
  -6   0  -5    3.04    1.47
   7   0   5   -0.14    0.72
   7   0   5   -1.29    2.25
  -7   0  -5    0.66    2.15
  -7   0  -5    1.29    1.23
   8   0   5    1.75    3.06
  -8   0  -5    2.54    2.69
  -8   0  -5    0.35    1.26
   9   0   5   -0.07    2.43
  -9   0  -5    0.17    2.35
  -9   0  -5    3.56    3.10
  10   0   5   -1.06    2.77
 -10   0  -5    7.44    3.59
 -10   0  -5    3.94    3.20
  11   0   5    1.51    3.49
 -11   0  -5   -0.79    2.59
 -11   0  -5    1.25    2.72
  12   0   5    1.82    3.69
 -12   0  -5   -1.33    3.23
 -12   0  -5   -0.44    2.43
 -13   0  -5   -3.61    3.36
 -13   0  -5   -4.22    4.18
  13  -1  -5   95.98   13.30
  13   1  -5   90.65   13.10
 -12  -1   5  173.11   12.21
  12   1  -5  194.96   18.07
  12  -1  -5  173.23   17.28
 -12  -1   5  182.56   15.00
 -12  -1   5  188.03   15.22
 -12   1   5  169.15   14.71
 -11  -1   5    3.60    2.90
 -11   1   5    2.32    2.52
 -11  -1   5    3.36    2.00
 -11   1   5   -0.05    1.65
  11   1  -5    1.87    3.82
  11  -1  -5    2.29    3.63
  10   1  -5   62.85    6.81
 -10   1   5   63.40    8.10
 -10   1   5   72.38    6.64
  10  -1  -5   69.16    8.82
 -10  -1   5   73.15    7.55
  10   1  -5   73.36   10.81
  10  -1  -5   70.69   10.49
 -10  -1   5   75.82    8.92
  -9  -1   5   19.42    3.85
  -9   1   5   21.67    4.39
   9  -1  -5   18.63    3.15
   9   1  -5   15.94    3.76
   9  -1  -5   21.93    4.52
  -9  -1   5   21.72    4.32
  -9   1   5   23.01    3.82
   9   1  -5   24.60    6.07
   9  -1  -5   18.34    5.17
   8  -1  -5    2.93    1.44
  -8  -1   5    1.62    1.85
  -8   1   5    1.56    1.77
   8   1  -5    0.78    1.31
   8  -1  -5    0.44    1.06
   8  -1  -5    4.15    2.43
  -8  -1   5    3.53    2.01
  -8   1   5   -0.87    1.41
  -8   1   5    1.44    1.00
   8   1  -5   -0.48    2.08
   8  -1  -5   -0.11    2.48
   8   1  -5    3.98    2.28
   7  -1  -5    1.48    0.94
  -7  -1   5    2.10    1.83
  -7   1   5    5.70    2.40
  -7   1   5    0.91    1.46
  -7  -1   5    0.33    1.46
  -7  -1   5    0.90    0.91
  -7   1   5    2.18    0.93
   7   1  -5    2.44    2.29
   7  -1  -5    4.93    3.23
   7   1  -5    2.18    1.35
   7  -1  -5    0.01    2.56
   7  -1  -5    2.84    2.50
   7   1  -5    4.45    2.42
  -6   1   5  354.02   14.36
  -6  -1   5  373.72   13.59
   6  -1  -5  383.84   17.16
  -6   1   5  376.44   14.98
   6   1  -5  376.52   15.42
  -6  -1   5  384.86   16.71
   6   1  -5  406.42   20.53
   6  -1  -5  403.05   20.82
  -6  -1   5  400.15   17.47
  -6   1   5  363.13   16.34
   6  -1  -5  413.85   14.22
  -5  -1   5   56.35    5.40
   5  -1  -5   59.28    6.14
  -5  -1   5   60.94    6.64
  -5   1   5   57.48    5.73
   5   1  -5   54.19    5.74
  -5   1   5   57.38    5.63
  -5  -1   5   63.80    6.48
   5   1  -5   60.14    7.50
  -5   1   5   53.11    5.87
   5  -1  -5   64.19    7.87
   5  -1  -5   61.93    7.20
  -5  -1   5   66.05    6.61
  -5   1   5   55.49    5.95
   5  -1  -5   61.66    5.49
  -4  -1   5  333.33   14.21
   4  -1  -5  337.58   14.68
  -4   1   5  347.43   15.13
  -4  -1   5  338.55   15.61
  -4   1   5  346.66   14.47
  -4  -1   5  348.40   14.88
   4   1  -5  337.26   17.65
   4  -1  -5  333.91   18.03
  -4  -1   5  343.46   18.81
  -4   1   5  333.04   14.52
   4  -1  -5  340.85   16.95
  -4  -1   5  354.93   15.24
  -4   1   5  341.33   14.61
   4   1  -5  349.04   14.44
   4  -1  -5  355.90   14.03
  -3  -1   5   26.39    3.87
  -3   1   5   25.05    3.57
   3   1  -5   27.79    3.74
  -3   1   5   24.70    3.74
   3  -1  -5   26.80    3.51
   3  -1  -5   28.61    4.02
  -3  -1   5   25.64    4.14
   3  -1  -5   25.01    3.64
  -3  -1   5   25.40    3.93
  -3   1   5   25.38    4.04
   3  -1  -5   24.55    4.20
   3   1  -5   29.40    4.98
   3  -1  -5   26.88    5.02
  -3  -1   5   28.41    5.12
  -2  -1   5    1.00    1.27
   2  -1  -5    0.15    1.51
  -2   1   5    1.07    1.16
   2   1  -5    0.63    1.02
   2  -1  -5    1.91    1.07
  -2  -1   5    1.89    1.76
   2   1  -5    1.25    1.66
   2  -1  -5    0.53    1.49
  -2  -1   5    2.03    1.61
  -2   1   5    1.07    1.56
   2  -1  -5    0.98    1.02
  -2   1   5    0.78    1.62
   2   1  -5   -0.36    1.53
   2  -1  -5    2.35    1.99
   2   1  -5    2.85    1.36
   2  -1  -5   -0.28    1.53
  -2  -1   5    1.36    2.02
  -2  -1   5   -0.17    0.91
  -1  -1   5    3.73    1.48
   1  -1  -5    2.46    1.90
  -1   1   5    2.64    1.40
   1   1  -5    2.10    1.40
   1   1  -5    2.25    0.93
   1  -1  -5    0.09    0.82
  -1  -1   5    2.22    1.43
  -1   1   5    4.45    1.79
  -1   1   5    1.12    0.65
  -1  -1   5    1.23    1.86
  -1   1   5    1.01    1.34
   1   1  -5    3.11    2.12
   1  -1  -5    1.72    1.39
   1  -1  -5    0.72    1.19
   1   1  -5    0.48    1.49
   1  -1  -5    2.97    2.19
  -1  -1   5    1.71    0.95
   0   1   5   44.86    5.86
   0   1  -5   44.01    5.42
   0  -1   5   43.71    4.48
   0  -1  -5   43.02    3.58
   0   1  -5   49.76    5.87
   0  -1  -5   50.08    5.65
   0  -1   5   43.79    5.35
   0   1  -5   52.50    6.31
   0   1   5   41.38    5.01
   0  -1  -5   44.51    5.86
   0  -1   5   40.77    5.48
   0  -1  -5   53.80    6.37
   0  -1   5   43.19    3.54
   0   1  -5   42.23    5.19
   0  -1   5   45.18    4.34
   0   1   5   41.72    3.62
   0   1   5   42.64    3.80
   0   1  -5   45.71    3.77
   0  -1  -5   42.36    5.34
  -1  -1  -5  470.20   12.16
   1  -1   5  499.75   20.50
   1   1   5  470.10   20.16
  -1   1  -5  517.04   19.17
  -1  -1  -5  490.78   19.11
  -1   1  -5  477.66   20.47
   1   1   5  454.75   16.86
   1  -1   5  451.37   18.30
   1   1   5  468.95   18.47
  -1  -1  -5  430.34   19.53
  -1   1  -5  465.68   18.05
  -1  -1  -5  467.38   19.65
   1  -1   5  448.81   15.28
   1  -1   5  472.43   11.85
   1  -1   5  462.03   14.60
   1   1   5  441.51   13.05
  -1   1  -5  442.02   12.82
  -1   1  -5  478.26   19.97
  -1  -1  -5  466.55   19.41
   1   1   5  456.12   12.61
   2  -1   5  161.43   11.44
  -2   1  -5  161.38   11.74
   2  -1   5  153.11   10.33
  -2  -1  -5  159.75   11.74
   2   1   5  150.73   10.33
   2  -1   5  160.93    8.31
   2   1   5  169.50    9.78
   2   1   5  171.10   11.79
  -2   1  -5  152.49    9.69
  -2  -1  -5  137.51   10.41
   2  -1   5  152.78    7.21
   2   1   5  149.90    5.58
  -2   1  -5  152.98    6.13
  -2   1  -5  144.78   11.02
  -2  -1  -5  157.08   10.85
  -3   1  -5  338.61   17.70
  -3  -1  -5  324.19   17.32
   3  -1   5  353.02   16.51
   3   1   5  364.90   16.76
   3  -1   5  344.57   12.41
  -3   1  -5  332.44   14.83
   3   1   5  323.36   14.15
  -3   1  -5  326.03    8.55
  -4   1  -5  131.76   11.25
   4  -1   5  134.44   10.32
   4   1   5  128.61   10.23
  -4  -1  -5  125.99   10.79
   4   1   5  140.54    8.77
   4  -1   5  126.72    6.59
  -4   1  -5  133.96    9.19
  -4   1  -5  128.94    3.70
   5   1   5    7.92    2.34
   5  -1   5    7.08    1.36
   5   1   5   15.33    3.96
   5  -1   5    9.16    3.23
  -5   1  -5   11.67    3.77
  -5  -1  -5    6.23    3.10
  -5  -1  -5    8.12    2.54
   6   1   5   22.57    3.62
   6  -1   5   17.69    4.48
   6   1   5   18.12    4.59
  -6   1  -5   16.14    4.23
  -6  -1  -5   16.61    4.06
   6  -1   5   19.41    2.28
  -6  -1  -5   22.61    3.75
  -7  -1  -5   52.62    5.78
   7  -1   5   52.69    7.33
   7   1   5   55.34    7.81
  -7   1  -5   54.42    7.85
  -7  -1  -5   56.34    7.75
  -8   1  -5  101.13    6.14
  -8   1  -5   83.93    9.94
   8  -1   5  106.44   10.79
  -8  -1  -5   93.38    8.38
   8   1   5   97.86   10.65
  -8  -1  -5  101.31   10.78
  -8   1  -5   92.69    9.72
   9  -1   5  253.04   17.40
  -9  -1  -5  240.85   17.22
  -9  -1  -5  245.64   14.74
  -9   1  -5  251.07   18.06
   9   1   5  252.22   18.10
  -9   1  -5  267.85   16.90
 -10   1  -5    5.26    3.77
 -10  -1  -5    0.12    2.10
  10  -1   5    6.58    3.83
  10   1   5    3.88    2.34
 -10   1  -5    8.90    3.70
 -10  -1  -5    7.54    3.59
 -11  -1  -5   90.42   10.98
  11  -1   5   96.96   11.80
  11   1   5   89.22   11.67
 -11   1  -5   87.06   11.13
 -11   1  -5   92.90   10.70
 -11  -1  -5   76.34    9.12
  12  -1   5   66.96   10.31
  12   1   5   68.89   11.15
 -12   1  -5   55.26    9.42
 -12  -1  -5   48.97    8.40
 -12   1  -5   57.19    8.73
 -12  -1  -5   53.47    7.89
  13  -1   5   12.88    5.10
 -13   1  -5   17.16    4.96
 -13  -1  -5   15.06    4.81
 -13   1  -5   17.17    4.81
  13  -2  -5   69.85   11.16
 -12  -2   5   48.69    7.90
 -12   2   5   41.57    7.18
 -12  -2   5   57.74    8.49
 -12  -2   5   36.97    6.21
  12   2  -5   53.29    9.90
  12  -2  -5   40.52    8.31
  11  -2  -5  614.95   28.70
 -11  -2   5  577.13   24.74
  11   2  -5  601.83   31.73
  11  -2  -5  608.69   31.84
 -11  -2   5  631.29   27.62
 -11  -2   5  655.57   28.71
 -11   2   5  598.80   27.38
 -10  -2   5    1.43    2.14
 -10   2   5    0.70    2.35
  10   2  -5   -3.50    2.75
  10  -2  -5   -0.26    2.49
 -10  -2   5   -2.68    2.33
 -10   2   5    0.29    1.35
  10   2  -5    1.30    2.81
  10  -2  -5    1.43    3.37
   9  -2  -5  195.07    7.54
   9   2  -5  206.28   14.33
   9  -2  -5  214.51   14.91
  -9  -2   5  188.43   12.92
  -9   2   5  197.46   10.25
   9   2  -5  208.88   16.74
   9  -2  -5  214.82   17.08
   9  -2  -5  165.25   14.45
  -9  -2   5  203.47   14.29
  -9   2   5  200.06   14.00
  -8  -2   5    3.18    2.00
   8  -2  -5    2.50    0.99
  -8   2   5    1.74    1.92
   8   2  -5    2.85    1.97
   8  -2  -5    1.41    1.37
  -8  -2   5   -0.47    1.53
  -8   2   5    2.37    1.52
   8  -2  -5    1.19    2.26
  -8   2   5    4.10    1.71
   8   2  -5    1.24    1.81
   8  -2  -5    1.31    2.18
   8   2  -5    0.58    1.06
   8   2  -5    1.04    1.25
   8  -2  -5    3.10    2.05
   7   2  -5   71.03    7.51
  -7  -2   5   80.29    8.26
   7  -2  -5   83.26    8.44
  -7   2   5   70.18    6.45
  -7   2   5   74.23    6.16
   7   2  -5   79.46    6.41
   7  -2  -5   83.75   10.11
   7   2  -5   75.72    9.14
   7   2  -5   75.46    6.84
   7  -2  -5   78.07    8.90
  -7  -2   5   85.18    8.43
  -7   2   5   78.01    7.88
   7  -2  -5   80.63    5.56
  -6  -2   5    1.28    1.94
   6  -2  -5    2.17    1.02
  -6   2   5    3.12    2.02
  -6  -2   5    2.14    1.68
  -6   2   5    3.41    1.59
   6  -2  -5    3.96    2.39
  -6   2   5    2.85    1.90
   6   2  -5    5.18    1.71
   6   2  -5    0.62    1.66
   6  -2  -5    2.03    2.50
   6   2  -5    2.40    1.79
   6  -2  -5    3.19    2.19
  -5   2   5  934.27   28.18
  -5   2   5  918.00   25.67
   5  -2  -5  948.35   28.96
   5   2  -5  958.97   27.00
  -5  -2   5 1013.57   29.42
   5   2  -5  991.66   33.02
   5  -2  -5  929.08   33.57
  -5  -2   5  973.64   30.21
  -5   2   5  979.11   28.96
   5  -2  -5 1007.07   33.26
  -5  -2   5  990.28   29.63
  -5   2   5  971.84   28.38
   5  -2  -5  999.97   25.61
  -4  -2   5  217.42   11.09
   4  -2  -5  229.63   11.86
  -4  -2   5  232.89   13.22
  -4   2   5  211.79   12.12
  -4   2   5  213.35   10.81
   4  -2  -5  213.60   13.21
   4  -2  -5  216.44   11.75
  -4  -2   5  239.04   12.18
   4   2  -5  224.68   13.96
   4  -2  -5  218.49   14.60
  -4  -2   5  234.76   15.33
  -4   2   5  222.87   11.79
   4  -2  -5  220.17   13.95
  -4  -2   5  221.30   12.31
  -4   2   5  228.31   11.79
   4   2  -5  215.66   11.43
  -3  -2   5  976.82   27.21
  -3  -2   5  929.79   28.84
  -3   2   5  930.91   28.67
  -3   2   5  870.71   25.13
   3  -2  -5  895.49   25.56
   3  -2  -5  879.16   29.12
  -3  -2   5  929.89   25.60
   3   2  -5  931.91   29.73
   3  -2  -5  920.67   31.40
  -3  -2   5  937.51   31.78
   3  -2  -5  931.22   26.82
   3  -2  -5  901.58   30.38
  -3   2   5  973.47   26.29
  -3  -2   5  912.63   26.67
  -3   2   5  880.06   24.96
   3   2  -5  891.39   25.33
  -2   2   5   95.24    7.90
  -2  -2   5   77.23    7.01
   2  -2  -5   91.39    7.32
  -2  -2   5   91.55    8.07
   2   2  -5   92.28    7.91
  -2   2   5   77.33    6.64
   2  -2  -5   80.29    6.17
   2  -2  -5   85.98    8.09
  -2   2   5   90.57    8.20
   2   2  -5   90.00    7.84
   2  -2  -5   79.27    8.36
  -2  -2   5  101.78    9.14
  -2  -2   5   87.54    6.99
  -2   2   5   90.11    6.45
   2   2  -5   78.65    6.18
   2  -2  -5   82.50    6.91
  -1  -2   5  102.85    8.39
  -1   2   5   90.04    7.57
   1   2  -5   91.85    7.86
   1  -2  -5  102.73    8.06
  -1   2   5   97.70    8.58
   1   2  -5   99.15    8.51
   1  -2  -5   81.59    8.03
  -1  -2   5   84.69    7.67
   1  -2  -5   97.23    6.24
  -1  -2   5   91.83    6.05
   1   2  -5   87.12    7.54
   1  -2  -5   85.16    8.48
  -1   2   5   94.25    7.32
  -1  -2   5   93.89    7.01
  -1   2   5   92.79    6.18
  -1   2   5   97.15    6.17
   1   2  -5   98.68    6.55
   1  -2  -5   94.64    7.74
   0  -2   5   64.87    6.86
   0   2   5   69.67    7.36
   0  -2   5   66.18    6.71
   0   2   5   81.54    7.08
   0  -2  -5   66.92    7.44
   0  -2  -5   71.91    4.88
   0   2  -5   63.49    6.18
   0  -2  -5   75.20    7.79
   0   2  -5   79.19    7.74
   0  -2   5   72.10    5.97
   0   2   5   72.08    4.75
   0   2  -5   67.02    5.13
   0  -2   5   72.87    4.68
   0   2   5   72.73    5.03
   0  -2  -5   67.36    6.68
   0   2  -5   75.46    7.15
   0  -2  -5   72.32    7.13
   1   2   5   96.09    5.43
   1  -2   5   99.58    8.85
   1  -2   5   98.44    6.20
  -1   2  -5   98.21    8.14
   1   2   5  103.85    9.21
  -1   2  -5   92.85    8.68
  -1  -2  -5  100.51    8.29
   1  -2   5   88.25    7.86
   1   2   5   92.48    7.79
  -1  -2  -5   86.85    8.32
  -1  -2  -5   87.31    4.88
   1  -2   5   94.49    4.71
  -1   2  -5   96.21    7.39
  -1  -2  -5   87.88    8.63
   1  -2   5   97.93    6.57
   1   2   5   94.42    4.97
  -1   2  -5   93.77    5.72
  -1  -2  -5   89.10    8.10
  -2   2  -5  715.14   26.91
   2  -2   5  725.36   24.68
  -2  -2  -5  718.12   15.54
   2   2   5  686.48   24.10
  -2  -2  -5  729.03   26.69
   2  -2   5  740.03   18.94
  -2   2  -5  716.58   22.06
   2  -2   5  746.18   13.99
   2  -2   5  724.18   19.91
   2   2   5  717.46   14.77
  -2   2  -5  719.85   17.94
  -2  -2  -5  715.75   25.59
  -3   2  -5  337.33   18.14
   3  -2   5  333.03   16.06
  -3  -2  -5  329.23   17.58
   3   2   5  342.16   16.52
   3  -2   5  307.74   10.47
  -3   2  -5  335.96   13.93
  -3   2  -5  327.81   10.18
  -4  -2  -5  609.01   21.01
   4  -2   5  630.86   23.40
  -4  -2  -5  566.27   24.23
   4   2   5  603.83   23.53
   4  -2   5  574.99   13.44
  -4   2  -5  612.61   19.68
  -4   2  -5  585.97   14.17
  -4   2  -5  617.22   25.68
  -5  -2  -5  179.07   11.01
  -5   2  -5  171.78   13.42
   5  -2   5  167.31   11.75
  -5  -2  -5  166.17   12.80
   5   2   5  155.10   11.91
  -5   2  -5  184.50   10.13
   5  -2   5  180.63    5.15
  -5   2  -5  179.62    6.25
  -6  -2  -5  131.03    9.77
  -6  -2  -5  130.93   11.77
   6  -2   5  125.82   10.64
   6   2   5  132.45   11.44
  -6   2  -5  127.11   11.99
  -6   2  -5  134.37    5.01
  -7   2  -5    2.25    0.79
   7   2   5    1.67    1.09
  -7   2  -5    2.11    0.64
   7  -2   5   -1.26    2.42
   7   2   5   -2.19    2.35
  -7   2  -5    1.43    2.45
  -7  -2  -5    0.94    1.33
  -7   2  -5    3.55    3.08
  -8  -2  -5  166.21   12.66
  -8  -2  -5  197.42   15.04
   8   2   5  195.23   15.29
   8  -2   5  198.04   14.26
  -8   2  -5  194.67   15.69
   8   2   5  209.62   11.52
  -8   2  -5  202.78   14.40
   9   2   5    9.00    3.73
   9  -2   5   13.33    4.28
  -9   2  -5   14.19    4.44
  -9  -2  -5   17.16    4.88
  -9  -2  -5   14.68    3.98
  -9   2  -5   14.29    4.22
 -10  -2  -5  405.65   22.87
  10   2   5  399.55   24.53
  10  -2   5  380.62   22.43
 -10   2  -5  357.58   22.71
 -10   2  -5  382.30   21.95
  11  -2   5    6.40    3.72
  11   2   5    3.96    2.84
 -11   2  -5    3.59    3.22
 -11  -2  -5    8.25    4.14
 -11   2  -5    1.02    2.64
 -11  -2  -5    5.17    3.31
 -12   2  -5  224.54   18.54
 -12  -2  -5  206.96   17.03
  12   2   5  187.00   18.57
 -12   2  -5  213.85   17.55
 -12  -2  -5  199.08   14.68
  12  -2   5  191.83   17.49
 -13   2  -5    8.95    4.13
 -13   2  -5   -0.41    2.92
  13  -3  -5    4.04    4.26
  12  -3  -5  243.38   18.56
  12   3  -5  229.93   20.31
  12  -3  -5  248.53   20.77
 -12  -3   5  216.27   15.84
 -12  -3   5  215.05   16.65
 -12  -3   5  251.11   18.26
 -12   3   5  228.98   17.49
 -11  -3   5   24.44    6.11
 -11   3   5   15.63    4.60
 -11  -3   5   12.62    4.71
  11  -3  -5   16.08    5.06
 -11  -3   5   18.33    4.89
  11   3  -5   18.07    5.57
  11  -3  -5   16.02    5.95
  10   3  -5 1274.28   42.32
 -10  -3   5 1233.52   40.21
  10  -3  -5 1400.51   44.19
 -10   3   5 1250.46   29.79
  10   3  -5 1365.84   47.97
  10  -3  -5 1323.73   47.77
 -10  -3   5 1271.02   40.58
 -10  -3   5 1372.79   43.36
 -10   3   5 1431.28   43.07
  -9  -3   5   39.78    6.64
  -9   3   5   30.76    5.66
   9   3  -5   37.07    6.59
  -9  -3   5   35.82    6.07
  -9  -3   5   23.16    4.72
  -9   3   5   30.37    3.62
   9   3  -5   29.01    5.99
   9  -3  -5   33.67    6.90
   9  -3  -5   20.56    5.12
   9  -3  -5   28.36    5.73
   8  -3  -5  207.20    8.57
   8   3  -5  211.81   15.00
  -8  -3   5  209.04   14.22
  -8   3   5  227.97   10.40
   8  -3  -5  252.04   15.65
  -8   3   5  210.60   12.04
   8   3  -5  223.49    8.90
   8   3  -5  241.88   17.40
   8  -3  -5  223.11   17.01
   8   3  -5  216.80   10.95
   8  -3  -5  219.16   16.86
   8   3  -5  241.35    8.56
  -8  -3   5  219.69   14.59
  -8   3   5  244.38   14.90
   8  -3  -5  236.33    7.67
  -7  -3   5    2.05    1.65
   7  -3  -5    3.93    1.69
  -7   3   5    2.00    2.06
   7   3  -5    7.60    3.42
  -7  -3   5    2.85    2.22
  -7   3   5    0.75    0.88
   7  -3  -5    5.16    2.64
  -7   3   5    3.27    1.80
   7   3  -5    2.16    1.04
   7   3  -5    4.80    3.06
   7  -3  -5    3.23    2.17
   7  -3  -5   -1.32    1.97
   7   3  -5    3.34    1.53
   7  -3  -5    3.80    2.38
  -6  -3   5    2.17    1.80
   6  -3  -5    6.18    1.75
  -6   3   5    6.11    2.67
  -6   3   5    4.75    1.61
  -6  -3   5    6.39    2.57
  -6   3   5   10.42    3.06
   6  -3  -5    3.55    2.14
   6   3  -5    6.95    1.92
   6   3  -5    4.65    3.23
   6  -3  -5    7.95    3.67
   6  -3  -5   10.35    3.76
   6  -3  -5    2.56    2.66
  -5  -3   5   50.20    6.16
  -5   3   5   47.92    6.00
  -5   3   5   66.96    5.64
   5  -3  -5   52.68    6.19
  -5  -3   5   48.21    6.39
   5   3  -5   53.12    7.07
   5  -3  -5   55.07    7.23
   5  -3  -5   45.67    6.91
   5   3  -5   52.86    5.35
   5  -3  -5   55.80    7.37
  -5   3   5   60.27    6.33
   5  -3  -5   63.16    5.26
   4  -3  -5 1384.41   34.35
  -4  -3   5 1305.63   37.83
  -4   3   5 1377.68   37.72
  -4   3   5 1351.16   32.55
  -4  -3   5 1405.77   35.48
   4  -3  -5 1339.76   35.25
   4  -3  -5 1389.44   40.36
   4  -3  -5 1324.87   41.12
  -4  -3   5 1372.86   41.93
   4  -3  -5 1380.42   41.24
  -4   3   5 1403.49   35.48
  -4  -3   5 1360.86   36.48
  -4   3   5 1370.37   34.47
   4   3  -5 1340.22   35.24
   4   3  -5 1329.06   38.48
   4  -3  -5 1335.05   32.72
   3  -3  -5  673.63   21.91
  -3  -3   5  685.71   24.86
  -3   3   5  690.38   24.92
  -3   3   5  664.68   20.78
  -3  -3   5  693.68   21.72
   3  -3  -5  681.59   25.82
   3   3  -5  706.11   24.87
   3  -3  -5  641.66   26.34
  -3  -3   5  713.49   27.30
   3  -3  -5  676.73   26.59
  -3   3   5  654.94   21.33
   3  -3  -5  688.54   21.93
  -3  -3   5  689.83   23.08
   3   3  -5  675.85   22.01
  -3   3   5  675.58   20.91
   2   3  -5 1650.73   41.64
  -2   3   5 1666.67   41.81
   2  -3  -5 1730.39   40.08
  -2  -3   5 1680.58   42.98
  -2   3   5 1679.28   43.60
  -2   3   5 1563.15   37.83
   2  -3  -5 1557.48   43.34
   2   3  -5 1616.43   41.01
   2  -3  -5 1617.86   45.21
  -2  -3   5 1727.46   44.81
   2  -3  -5 1691.09   37.93
   2  -3  -5 1618.57   44.73
  -2  -3   5 1612.29   39.38
   2   3  -5 1617.07   38.14
  -2   3   5 1661.67   36.54
   2  -3  -5 1701.36   39.90
  -1   3   5  196.31   11.64
   1  -3  -5  224.50   11.89
   1   3  -5  210.42   12.89
  -1  -3   5  216.06   12.80
  -1   3   5  211.98   13.38
  -1   3   5  172.17   10.24
  -1  -3   5  209.59    9.61
   1  -3  -5  189.91   12.69
   1  -3  -5  198.73    9.65
   1   3  -5  199.12   11.42
   1  -3  -5  177.29   12.85
  -1  -3   5  185.67   10.62
   1   3  -5  191.43   10.08
  -1   3   5  199.88    9.13
  -1   3   5  202.62    9.75
   1  -3  -5  215.82   11.93
   0  -3   5   13.76    2.93
   0  -3  -5   15.46    3.26
   0   3  -5   10.71    2.27
   0   3   5   16.84    2.38
   0   3  -5   13.99    3.18
   0  -3  -5    9.80    2.85
   0  -3   5   11.67    3.24
   0   3   5   12.13    2.83
   0   3   5   15.47    2.57
   0   3  -5   14.45    3.60
   0   3   5   15.88    3.74
   0  -3  -5   14.27    3.68
   0  -3   5   13.98    2.27
   0   3  -5   15.86    3.01
   0  -3  -5   14.12    3.66
   0   3   5   12.04    3.14
   0  -3  -5   14.42    2.36
  -1   3  -5    8.75    1.87
   1   3   5   10.88    1.72
  -1  -3  -5   14.04    3.54
  -1  -3  -5   10.85    3.02
   1  -3   5   11.36    3.02
   1   3   5   13.96    3.25
  -1   3  -5   18.41    4.09
  -1  -3  -5   13.11    3.94
   1  -3   5   13.45    1.90
  -1   3  -5    7.20    2.19
   1  -3   5   11.50    2.05
   1   3   5   12.75    2.21
   1   3   5   11.14    2.72
  -1  -3  -5   11.68    2.03
   1  -3   5    9.99    2.40
  -2   3  -5  140.89   11.31
   2  -3   5  128.39    9.76
   2  -3   5  132.66    6.34
   2   3   5  142.77   10.19
  -2  -3  -5  127.37   10.71
   2   3   5  133.86    9.67
   2  -3   5  137.31    5.19
  -2  -3  -5  134.53    6.13
  -2   3  -5  133.84    8.08
   2   3   5  147.16    4.96
  -2   3  -5  122.24    7.17
  -3   3  -5  946.89   33.08
   3   3   5  965.14   30.38
  -3  -3  -5  872.46   31.30
   3   3   5  958.63   29.52
   3  -3   5  940.92   18.51
  -3  -3  -5  957.08   19.43
  -3   3  -5  968.01   24.83
  -3   3  -5  961.73   23.25
   3  -3   5  930.92   29.66
  -4  -3  -5  382.93   17.32
  -4   3  -5  380.38   20.40
   4  -3   5  353.61   17.32
  -4  -3  -5  364.70   19.18
   4   3   5  365.20   18.28
  -4  -3  -5  392.48    8.60
   4   3   5  373.25   17.21
  -4   3  -5  379.83   13.80
  -4   3  -5  359.91   12.45
  -5  -3  -5 1600.96   42.82
  -5   3  -5 1682.86   48.87
   5  -3   5 1699.02   44.22
  -5  -3  -5 1624.52   46.50
   5   3   5 1654.71   45.83
   5   3   5 1658.61   42.23
  -5   3  -5 1623.25   35.76
  -5   3  -5 1610.57   34.02
  -5   3  -5 1742.58   44.55
  -6   3  -5    1.40    1.08
   6   3   5    4.45    2.47
   6  -3   5   -2.15    2.40
   6   3   5    2.79    3.17
  -6   3  -5    5.96    3.73
  -6  -3  -5    5.25    3.27
  -6   3  -5    1.87    1.27
  -6  -3  -5    2.24    2.41
  -6   3  -5    7.54    3.41
   7  -3   5   62.87    7.73
   7   3   5   55.42    8.18
  -7   3  -5   50.03    8.02
  -7  -3  -5   41.25    6.85
  -7   3  -5   52.03    4.86
   7   3   5   51.37    6.26
  -7   3  -5   47.07    4.24
  -7  -3  -5   45.57    6.81
  -7   3  -5   58.56    7.66
   8  -3   5   12.67    3.89
   8   3   5    9.78    3.25
  -8   3  -5    9.46    4.61
  -8  -3  -5   16.38    4.54
  -8  -3  -5    5.75    3.22
  -8   3  -5   10.46    3.90
  -9   3  -5  114.99   12.73
  -9  -3  -5  115.78   12.52
  -9  -3  -5  103.77   11.22
   9  -3   5  109.02   10.93
   9   3   5   96.62   11.45
  -9   3  -5  103.25   11.00
  10  -3   5    2.76    3.33
 -10   3  -5    5.12    4.12
 -10  -3  -5    7.56    4.03
  10   3   5   -0.87    2.66
 -10  -3  -5   -3.25    3.64
 -10   3  -5    4.93    3.39
 -11   3  -5  596.67   31.21
 -11  -3  -5  623.72   29.81
  11  -3   5  601.33   29.52
  11   3   5  632.51   34.02
 -11   3  -5  614.90   29.96
 -11  -3  -5  560.00   24.66
  12  -3   5   88.20   11.54
 -12   3  -5   87.74   11.88
 -12  -3  -5   60.99    9.07
 -12  -3  -5   85.15    9.20
 -12   3  -5   68.26    9.85
 -13   3  -5  111.11   13.57
 -13  -4   5    8.63    3.89
  13  -4  -5   13.39    6.00
 -12  -4   5    1.22    3.28
 -12   4   5    0.88    2.72
 -12  -4   5    1.67    2.21
 -12  -4   5   -6.08    3.83
  12  -4  -5    4.77    3.57
  12   4  -5    3.19    3.21
  12  -4  -5    1.23    3.11
  11   4  -5  488.55   25.39
 -11  -4   5  421.68   23.81
  11  -4  -5  499.17   26.37
  11   4  -5  512.02   29.55
  11  -4  -5  540.96   30.14
 -11  -4   5  503.97   25.02
 -11  -4   5  511.22   26.04
 -11   4   5  492.87   25.13
 -10  -4   5   64.71    8.76
 -10   4   5   74.52    9.24
 -10  -4   5   51.18    7.54
  10   4  -5   59.35    8.93
 -10  -4   5   50.05    7.87
  10  -4  -5   83.72    9.97
  10   4  -5   74.08   10.56
  10  -4  -5   60.94    9.90
   9   4  -5  655.46   30.09
  -9   4   5  690.89   18.81
   9  -4  -5  661.60   28.61
   9   4  -5  655.20   31.15
   9  -4  -5  686.64   32.16
  -9  -4   5  705.50   27.45
  -9  -4   5  648.65   28.48
  -9  -4   5  760.57   29.85
  -9   4   5  716.63   28.39
  -8  -4   5    4.74    2.94
  -8   4   5   -0.20    2.08
  -8  -4   5    1.88    1.83
   8   4  -5    2.62    2.02
  -8   4   5    3.14    1.52
  -8   4   5   -0.35    1.26
   8  -4  -5    0.01    2.47
   8   4  -5    1.04    2.89
   8  -4  -5    0.49    2.65
   8   4  -5    0.62    0.65
   8   4  -5   -1.08    1.44
   8  -4  -5   -0.81    2.78
   8   4  -5    1.09    0.67
  -8  -4   5   -0.57    2.69
  -7  -4   5    3.49    2.46
   7  -4  -5    5.92    1.38
  -7   4   5    5.87    2.81
  -7  -4   5    8.65    2.85
   7   4  -5    9.18    3.60
  -7  -4   5   -0.10    2.87
  -7   4   5    5.56    1.69
  -7   4   5    4.91    2.31
   7   4  -5    6.65    1.85
   7   4  -5    9.39    4.10
   7  -4  -5    5.29    2.52
   7  -4  -5   -0.59    2.12
   7   4  -5    6.40    2.41
   7  -4  -5    6.54    2.81
   7   4  -5    4.57    1.49
  -6  -4   5    6.00    2.79
   6  -4  -5    8.50    1.94
  -6   4   5    9.36    2.57
  -6  -4   5    7.28    2.44
  -6  -4   5    4.94    3.13
  -6   4   5    8.19    2.07
  -6   4   5    1.20    1.51
   6   4  -5    5.54    1.71
   6   4  -5    6.23    3.14
   6  -4  -5    7.44    3.39
   6  -4  -5    6.68    3.03
   6  -4  -5    2.40    1.80
   6  -4  -5    4.99    3.23
   6   4  -5   10.38    2.23
   5  -4  -5  156.84    9.41
  -5  -4   5  143.69   11.62
   5   4  -5  167.97    9.69
  -5   4   5  154.98    8.67
  -5   4   5  180.96   12.42
   5  -4  -5  155.16   10.99
   5  -4  -5  166.19   13.41
   5   4  -5  144.46   11.63
   5  -4  -5  173.05   13.72
   5  -4  -5  163.38   13.41
  -5  -4   5  159.93   11.49
   5   4  -5  158.55    8.42
  -5   4   5  158.40   10.46
   5  -4  -5  174.26    8.89
   4  -4  -5   88.85    7.08
  -4  -4   5   75.88    8.18
  -4   4   5   91.14    8.81
  -4   4   5  101.64    7.12
  -4  -4   5  100.12    8.19
   4  -4  -5   90.95    9.66
   4  -4  -5   97.73    8.28
   4   4  -5   90.46    8.65
   4  -4  -5   93.98    9.94
  -4  -4   5   92.06    9.68
   4  -4  -5   81.06    9.19
  -4  -4   5   93.27    8.35
  -4   4   5  101.28    8.07
  -4   4   5   95.32    7.51
   4  -4  -5  101.29    7.14
  -3  -4   5 1774.72   47.36
   3  -4  -5 1850.77   42.37
  -3  -4   5 1864.42   43.05
  -3   4   5 1882.37   48.69
  -3   4   5 1804.88   40.91
   3  -4  -5 1846.23   49.74
   3  -4  -5 1820.52   43.31
   3   4  -5 1854.92   46.02
  -3  -4   5 1858.99   49.61
   3  -4  -5 1805.45   50.41
   3  -4  -5 1853.55   50.86
  -3  -4   5 1892.94   45.15
  -3   4   5 1881.65   43.05
   3   4  -5 1857.57   43.97
  -3   4   5 1854.03   41.61
  -2   4   5  641.00   23.49
  -2  -4   5  636.92   24.41
   2   4  -5  642.13   23.47
   2  -4  -5  633.93   21.40
  -2   4   5  635.01   25.26
  -2   4   5  579.76   19.93
   2  -4  -5  633.50   25.51
   2  -4  -5  615.11   20.47
   2   4  -5  626.58   22.23
  -2  -4   5  622.96   24.55
   2  -4  -5  628.41   25.98
   2  -4  -5  602.87   25.44
  -2  -4   5  616.13   21.92
   2   4  -5  608.18   21.09
  -2   4   5  636.72   19.24
  -2   4   5  639.41   20.48
   2  -4  -5  619.98   21.27
   1   4  -5   99.14    8.96
  -1  -4   5  115.01    7.38
  -1  -4   5  107.25    9.41
  -1   4   5  112.31    8.98
   1  -4  -5  127.12    8.94
  -1   4   5  124.58   10.68
  -1   4   5  113.46    8.23
   1  -4  -5  108.15    9.90
   1  -4  -5  111.12    7.56
   1   4  -5  105.98    8.04
   1  -4  -5  102.04   10.01
  -1  -4   5  101.38    8.15
   1   4  -5   94.83    7.44
  -1   4   5  102.03    6.46
   1  -4  -5  114.33    8.73
   0   4  -5   18.36    3.17
   0  -4  -5   16.89    3.75
   0   4   5   18.60    2.57
   0  -4  -5   16.98    3.42
   0  -4   5   16.47    2.68
   0   4   5   24.14    3.97
   0   4  -5   19.45    4.37
   0  -4  -5   18.70    4.27
   0   4  -5   20.64    3.41
   0  -4  -5   15.84    3.72
   0  -4   5   14.00    3.19
   0   4   5   14.83    3.37
   0   4   5   17.99    2.92
   0  -4  -5   14.10    2.55
   0  -4   5   18.43    3.48
  -1  -4  -5    7.60    1.76
   1   4   5    9.24    3.37
  -1   4  -5    9.19    2.18
  -1  -4  -5    8.05    2.93
   1   4   5    9.64    1.74
   1  -4   5    6.47    1.18
   1  -4   5    4.89    2.83
   1  -4   5    5.07    1.33
   1   4   5    5.04    1.98
  -1   4  -5    6.55    3.03
  -1  -4  -5    8.69    3.15
   1   4   5    8.53    2.02
  -1   4  -5    7.56    2.07
   1   4   5    9.18    2.56
   1  -4   5    4.38    1.91
   2   4   5   25.50    4.88
  -2  -4  -5   25.57    2.95
   2  -4   5   23.94    2.48
   2  -4   5   22.88    4.22
   2   4   5   24.97    4.31
  -2   4  -5   29.87    5.23
  -2  -4  -5   35.11    5.89
   2  -4   5   25.14    2.31
   2  -4   5   26.21    2.04
  -2   4  -5   20.94    3.01
  -2   4  -5   31.66    4.03
   2   4   5   26.39    2.14
   2   4   5   26.38    4.64
  -2   4  -5   23.53    4.30
  -3  -4  -5  573.23   23.02
   3  -4   5  602.07   13.11
  -3   4  -5  583.00   25.62
   3   4   5  608.91   23.56
  -3  -4  -5  579.88   24.73
   3  -4   5  560.94   22.34
   3   4   5  576.81   22.85
  -3   4  -5  602.87   17.32
  -3  -4  -5  573.85   15.63
  -3   4  -5  576.49   22.21
  -3   4  -5  569.01   18.70
   3  -4   5  588.01   13.29
   3   4   5  563.33   24.90
   4   4   5 1357.67   38.50
  -4  -4  -5 1261.87   38.37
  -4   4  -5 1312.91   42.24
   4  -4   5 1356.49   37.71
   4   4   5 1332.25   39.29
  -4  -4  -5 1295.34   40.69
  -4   4  -5 1334.38   28.95
  -4  -4  -5 1337.80   27.19
  -4   4  -5 1278.16   31.80
  -4   4  -5 1330.48   37.70
   4   4   5 1334.82   42.21
   5   4   5   59.84    8.28
  -5  -4  -5   58.89    7.52
   5  -4   5   57.87    7.08
   5   4   5   51.71    7.28
  -5   4  -5   61.31    8.77
  -5   4  -5   51.01    4.04
  -5  -4  -5   55.68    7.60
  -5  -4  -5   54.73    3.59
  -5   4  -5   53.19    5.18
  -5   4  -5   61.21    7.30
   5   4   5   52.05    6.56
  -6  -4  -5  288.38    8.15
  -6   4  -5  311.71   19.87
  -6  -4  -5  260.89   16.91
   6  -4   5  302.16   16.65
  -6  -4  -5  295.04   18.05
   6   4   5  301.55   18.20
   6   4   5  287.34   15.89
  -6   4  -5  313.61   10.28
  -6  -4  -5  310.44    9.08
  -6   4  -5  272.01   12.94
  -6   4  -5  306.35   17.17
   6   4   5  315.00   19.95
   7   4   5   16.72    3.77
   7   4   5   12.12    4.72
   7  -4   5   13.04    3.36
   7   4   5   14.29    4.01
  -7   4  -5   19.96    5.09
  -7  -4  -5   19.37    4.82
  -7   4  -5   16.98    2.26
  -7  -4  -5   15.75    1.82
  -7  -4  -5   14.26    4.40
  -7   4  -5   17.32    4.62
   8   4   5    3.33    4.79
   8   4   5    4.94    2.67
   8  -4   5    3.47    2.43
  -8   4  -5    4.45    4.13
  -8  -4  -5    3.77    3.04
  -8  -4  -5   -1.86    2.62
  -8   4  -5    2.96    2.02
   9   4   5   57.20    9.57
   9  -4   5   65.16    8.51
   9   4   5   43.54    8.09
  -9   4  -5   55.50    9.19
  -9  -4  -5   54.36    8.18
  -9  -4  -5   40.95    7.83
  -9   4  -5   52.55    7.79
 -10   4  -5  453.12   27.09
 -10  -4  -5  468.65   29.42
  10  -4   5  450.82   23.83
 -10  -4  -5  433.88   24.40
  10   4   5  479.17   28.71
 -10   4  -5  459.33   25.23
  11  -4   5   20.90    5.98
 -11   4  -5   12.84    4.74
 -11  -4  -5   12.36    4.67
 -11   4  -5   13.47    4.70
 -12   4  -5  257.90   21.28
 -12  -4  -5  280.39   20.22
  12  -4   5  259.24   19.72
 -12   4  -5  261.96   20.52
 -12  -4  -5  264.68   16.11
 -13  -5   5   30.02    6.48
  13  -5  -5   17.91    6.19
 -12  -5   5   52.59    8.69
 -12  -5   5   61.22    9.36
 -12   5   5   62.09    9.38
 -12  -5   5   50.74    8.70
  12  -5  -5   60.61    9.73
  12   5  -5   59.88   10.37
  12  -5  -5   56.10   10.07
 -11  -5   5   33.52    6.71
 -11  -5   5   35.22    6.61
 -11   5   5   39.21    7.54
  11   5  -5   28.82    6.43
 -11  -5   5   18.42    5.23
  11  -5  -5   19.07    5.20
  11   5  -5   36.97    8.32
  11  -5  -5   22.40    5.96
  10   5  -5  102.63   12.23
 -10  -5   5   96.88   11.60
  10  -5  -5  115.27   11.87
  10   5  -5  107.68   12.92
  10  -5  -5  108.29   13.26
 -10  -5   5  109.37   11.07
 -10  -5   5  101.52   11.17
 -10   5   5  117.40   11.61
  -9  -5   5   11.73    3.25
  -9   5   5   10.66    4.10
  -9  -5   5    9.81    3.90
   9   5  -5    1.14    3.53
  -9  -5   5   -0.71    3.12
   9  -5  -5    6.91    3.71
   9   5  -5   10.78    4.12
   9  -5  -5    8.40    4.52
  -8  -5   5   10.67    3.99
  -8   5   5   10.53    3.65
  -8  -5   5    6.82    3.04
   8   5  -5   12.25    4.06
  -8  -5   5   14.15    4.60
  -8   5   5   11.03    2.14
  -8   5   5    9.19    3.17
   8   5  -5   15.54    4.75
   8   5  -5   10.80    1.62
   8  -5  -5    9.67    3.52
   8  -5  -5   12.78    5.06
   8   5  -5   12.09    2.09
  -7  -5   5   16.51    4.52
   7  -5  -5   11.11    1.78
  -7   5   5   12.49    3.36
  -7  -5   5   15.57    3.68
   7   5  -5   13.05    4.21
  -7  -5   5    7.47    3.22
  -7   5   5   15.18    2.53
  -7   5   5   11.81    3.45
   7   5  -5   12.68    2.40
   7   5  -5   17.62    4.73
   7  -5  -5   13.81    4.66
   7  -5  -5   15.54    3.96
   7   5  -5   11.50    2.02
   6  -5  -5   88.21    6.04
   6   5  -5   93.58    9.60
  -6  -5   5  102.89   10.41
   6   5  -5   94.38    6.97
  -6   5   5   92.77    6.37
  -6   5   5   92.34    9.30
   6  -5  -5  101.59    9.52
   6  -5  -5   93.33   10.84
   6   5  -5  105.29   10.35
   6  -5  -5   95.68   10.53
  -6  -5   5   98.82    8.58
   6   5  -5   93.16    6.33
  -6  -5   5  104.68    9.68
  -6   5   5   85.51    8.32
  -5  -5   5    1.17    1.93
   5  -5  -5    1.68    1.13
  -5   5   5    1.13    1.68
  -5  -5   5    0.05    1.43
   5  -5  -5   -1.20    1.58
  -5  -5   5    0.20    2.70
  -5   5   5    0.81    1.11
  -5   5   5   -1.75    2.71
   5   5  -5   -0.79    1.67
   5  -5  -5    1.15    2.64
   5  -5  -5   -1.39    2.66
   5  -5  -5   -2.30    2.09
   5   5  -5    1.61    1.36
   4  -5  -5  495.47   17.52
  -4  -5   5  449.61   21.94
  -4  -5   5  498.01   20.03
  -4   5   5  479.68   22.46
  -4   5   5  479.04   16.69
   4  -5  -5  475.49   23.91
   4  -5  -5  496.27   20.37
   4   5  -5  511.84   21.46
   4  -5  -5  481.99   23.74
  -4  -5   5  476.16   17.81
  -4  -5   5  492.47   20.57
   4   5  -5  514.11   17.08
  -4   5   5  475.32   18.52
  -3  -5   5    8.60    2.32
  -3   5   5    6.66    2.27
  -3   5   5    8.79    2.46
  -3  -5   5   10.75    2.77
   3  -5  -5    5.92    1.98
  -3  -5   5    7.97    2.35
  -3   5   5    2.98    1.50
   3   5  -5   10.56    2.95
  -3   5   5    5.45    1.92
   3   5  -5   12.69    3.34
   3  -5  -5   18.72    4.85
  -3  -5   5    7.86    3.01
   3  -5  -5   10.95    3.81
  -3  -5   5    3.60    2.24
   3  -5  -5    5.94    2.40
   3   5  -5   10.38    2.65
   2   5  -5   45.93    5.65
  -2  -5   5   50.20    5.36
  -2   5   5   56.59    5.67
   2   5  -5   50.82    6.42
   2   5  -5   52.50    5.88
   2  -5  -5   53.59    5.78
   2  -5  -5   58.72    6.11
  -2  -5   5   59.94    7.32
  -2  -5   5   54.34    7.08
   2  -5  -5   55.08    7.70
  -2  -5   5   56.86    5.04
   2  -5  -5   45.49    6.88
  -2  -5   5   51.68    6.27
   2   5  -5   58.20    5.84
  -2   5   5   52.51    4.98
  -2   5   5   49.25    5.51
   2  -5  -5   53.53    5.90
   1  -5  -5   25.16    3.96
   1   5  -5   19.79    3.47
   1  -5  -5   28.80    4.57
  -1   5   5   30.59    3.50
  -1  -5   5   33.71    5.73
   1  -5  -5   28.12    4.49
  -1   5   5   24.86    3.92
   1   5  -5   30.65    5.19
   1  -5  -5   28.61    5.39
   1   5  -5   28.44    4.18
  -1  -5   5   27.22    3.30
   1  -5  -5   21.89    4.35
  -1   5   5   26.32    3.87
  -1   5   5   28.42    4.85
   1   5  -5   26.74    4.21
  -1  -5   5   20.95    3.90
   0   5   5   17.71    4.16
   0   5  -5   14.32    2.99
   0  -5  -5   18.19    3.24
   0  -5  -5   22.01    4.05
   0  -5   5   17.62    2.43
   0   5   5   14.60    2.38
   0  -5   5   12.40    2.54
   0  -5   5   17.84    4.31
   0  -5  -5   17.05    3.45
   0   5   5   18.02    3.52
   0   5  -5   13.66    3.97
   0  -5  -5   18.46    4.44
   0   5  -5   16.20    3.03
   0  -5   5    9.30    2.72
   0   5   5   13.87    3.40
   0   5  -5   15.88    3.50
   0  -5   5   11.62    2.83
   1   5   5  108.41    7.52
  -1   5  -5  117.66   10.55
   1  -5   5  105.80    9.04
   1   5   5  109.62    8.89
  -1  -5  -5  114.66   10.70
   1   5   5  104.47    9.10
  -1   5  -5  106.88    7.07
   1  -5   5   97.07    5.08
  -1  -5  -5  114.01    7.42
   1  -5   5  108.96    8.56
  -1   5  -5  107.69    8.68
  -1   5  -5  114.07    8.55
   1   5   5  102.98    5.61
   1   5   5  117.99   10.23
   2  -5   5  173.12    8.61
  -2   5  -5  169.62   13.35
   2  -5   5  167.92    5.42
   2  -5   5  159.90   11.42
   2   5   5  169.89   11.73
  -2  -5  -5  177.20   13.29
   2   5   5  176.85   12.58
   2  -5   5  159.11    5.06
  -2   5  -5  174.05    8.45
  -2  -5  -5  167.18    8.83
  -2   5  -5  173.17   11.37
  -2   5  -5  166.08   10.45
   2   5   5  167.17    6.38
   2   5   5  167.34   12.84
   3  -5   5  280.82    9.82
  -3  -5  -5  252.83   15.79
  -3   5  -5  250.23   16.89
   3  -5   5  266.69   14.79
   3   5   5  281.68   15.69
  -3  -5  -5  265.69   16.84
   3   5   5  274.90   15.74
  -3   5  -5  277.11   10.13
  -3  -5  -5  272.98   11.16
   3   5   5  256.56    6.47
  -3   5  -5  258.44   13.20
  -3   5  -5  262.29   14.72
   3   5   5  252.27    6.00
   3   5   5  269.94   17.22
  -4  -5  -5  226.56   15.12
  -4   5  -5  231.13   16.62
   4  -5   5  211.25   13.32
   4   5   5  219.36   14.68
  -4  -5  -5  226.54   15.63
   4   5   5  228.62   14.63
  -4   5  -5  237.96    8.40
   4  -5   5  240.97    7.62
  -4  -5  -5  226.45    9.95
  -4   5  -5  224.00   12.45
  -4   5  -5  232.42   14.17
   4   5   5  242.28   16.83
   5   5   5   62.56    8.91
   5  -5   5   48.51    6.56
   5   5   5   53.84    7.76
   5  -5   5   54.33    2.66
  -5   5  -5   57.61    8.42
  -5   5  -5   58.60    3.26
  -5  -5  -5   55.61    7.98
  -5  -5  -5   45.86    7.32
  -5   5  -5   49.75    5.86
  -5  -5  -5   56.77    4.78
  -5   5  -5   60.85    7.54
  -6   5  -5   11.77    2.98
   6   5   5    5.68    4.10
   6  -5   5   11.41    3.93
  -6   5  -5    6.69    2.96
  -6  -5  -5   10.17    3.86
   6   5   5    9.48    3.68
  -6  -5  -5    2.78    2.70
  -6  -5  -5    9.05    1.85
  -6   5  -5    9.81    3.59
   7   5   5    4.58    3.92
  -7  -5  -5    0.89    1.17
   7  -5   5   -1.98    2.70
   7   5   5   -1.49    2.83
  -7   5  -5   -1.94    2.60
  -7  -5  -5    1.18    2.13
  -7  -5  -5   -0.96    2.48
  -7   5  -5    7.21    3.37
   8   5   5   42.65    8.49
   8  -5   5   39.50    6.43
   8   5   5   30.32    6.60
  -8   5  -5   24.12    5.77
  -8  -5  -5   32.71    6.63
  -8  -5  -5   27.60    6.86
  -8   5  -5   29.22    5.48
  -9   5  -5  139.78   14.79
  -9  -5  -5  116.78   14.30
   9  -5   5  143.90   12.46
  -9  -5  -5  138.56   13.37
   9   5   5  135.45   14.75
  -9   5  -5  131.19   12.92
   9   5   5  134.08   14.82
  10   5   5    4.17    3.72
  10  -5   5    9.21    3.82
  10   5   5    4.01    2.92
 -10   5  -5    9.97    5.20
 -10  -5  -5    4.40    3.65
 -10  -5  -5   -1.78    4.05
 -10   5  -5    4.07    2.50
 -11   5  -5  178.66   17.76
  11  -5   5  176.36   14.99
 -11  -5  -5  172.69   15.57
 -11   5  -5  152.89   15.56
  11   5   5  184.89   18.91
 -12  -5  -5    6.29    2.44
 -12   5  -5   11.43    5.86
 -13  -6   5   -5.84    4.97
 -12  -6   5    6.84    3.66
  12  -6  -5   16.43    5.91
 -11  -6   5    8.10    4.77
 -11  -6   5   -2.33    3.13
 -11   6   5    1.90    3.61
  11   6  -5   -2.30    3.57
 -11  -6   5   -6.05    5.39
  11  -6  -5    3.09    3.38
  11   6  -5   -0.13    2.43
  11  -6  -5   -0.25    3.09
 -10  -6   5   26.90    6.13
 -10  -6   5   34.53    6.31
 -10   6   5   39.16    7.16
  10   6  -5   24.74    5.93
 -10  -6   5   15.55    4.61
  10  -6  -5   39.38    7.70
  10   6  -5   26.86    6.99
  10  -6  -5   35.57    8.03
  -9  -6   5   73.38    9.50
  -9  -6   5   74.19    8.70
  -9   6   5   75.92    9.27
   9   6  -5   69.68   10.08
  -9  -6   5   65.87    9.87
   9   6  -5   71.91   10.55
   9  -6  -5   76.27    9.49
   9  -6  -5   72.12   10.69
  -8  -6   5   -1.96    2.79
  -8  -6   5    0.87    2.21
  -8   6   5   -1.25    1.68
   8   6  -5   -1.72    2.92
  -8  -6   5   -1.60    3.66
  -8   6   5   -0.08    0.86
   8   6  -5    0.19    2.71
   8  -6  -5    3.20    3.13
   8  -6  -5   -3.03    3.22
  -7  -6   5    6.16    3.06
  -7  -6   5    5.76    2.90
  -7   6   5    9.33    2.66
   7  -6  -5    4.53    1.17
   7   6  -5   11.09    4.28
  -7  -6   5   -1.76    3.67
  -7   6   5    5.57    1.56
   7   6  -5    4.65    1.61
   7   6  -5    7.25    3.34
   7  -6  -5    5.40    3.62
   7  -6  -5    4.93    2.51
   7   6  -5    3.49    1.89
  -6  -6   5   -1.55    2.52
  -6  -6   5    2.49    2.33
   6  -6  -5    2.88    1.20
  -6   6   5    4.35    1.92
   6   6  -5    5.30    3.27
  -6  -6   5    0.84    3.08
  -6   6   5    3.82    1.43
   6   6  -5    4.55    2.18
   6   6  -5    6.55    2.95
   6  -6  -5    6.80    4.14
   6  -6  -5    3.89    2.53
   6   6  -5    3.57    1.30
   5  -6  -5   97.00    7.17
  -5  -6   5   88.15   10.04
   5  -6  -5   89.78    6.96
  -5   6   5   98.07    6.83
   5  -6  -5   95.90   11.25
   5  -6  -5   92.78    9.09
   5   6  -5   87.11    9.07
   5  -6  -5   90.36   10.32
  -5  -6   5   89.71    7.91
  -5  -6   5   88.61    8.94
   5   6  -5   88.71    6.77
  -5   6   5  104.22    8.82
  -4  -6   5    3.76    2.39
  -4  -6   5    2.24    1.76
  -4   6   5    3.49    2.08
  -4  -6   5    0.90    2.17
   4  -6  -5    1.09    1.09
  -4   6   5   -0.66    1.42
   4   6  -5    3.01    2.03
   4  -6  -5    2.43    2.33
   4  -6  -5    6.11    3.77
   4  -6  -5    4.35    2.42
   4   6  -5    1.86    1.49
  -3  -6   5   89.43    8.03
   3   6  -5   80.31    8.01
  -3  -6   5   80.02    8.97
   3  -6  -5   83.08    7.06
  -3   6   5   92.46    7.18
   3  -6  -5   84.81   10.19
   3   6  -5  102.12    8.74
   3  -6  -5   85.20    8.17
  -3  -6   5   83.83    9.29
   3  -6  -5   86.67   10.02
  -3  -6   5   91.62    7.13
  -3  -6   5   93.82    8.89
   3   6  -5   93.71    7.39
  -3   6   5   91.14    7.44
  -3   6   5   86.05    7.75
   2  -6  -5   77.37    7.32
  -2   6   5   78.32    7.24
   2   6  -5   79.38    8.38
  -2  -6   5   78.67    8.93
   2  -6  -5   85.08    7.32
  -2   6   5   86.69    7.07
   2  -6  -5   85.15    9.95
   2   6  -5   82.27    7.40
  -2  -6   5   84.99    8.77
   2  -6  -5   84.49    7.67
  -2  -6   5   75.68    6.03
   2  -6  -5   75.94    9.06
  -2  -6   5   91.33    8.71
   2   6  -5   82.81    7.25
  -2   6   5   84.15    6.71
  -2   6   5   85.50    8.01
  -1   6   5   48.03    6.37
   1   6  -5   46.28    5.84
   1  -6  -5   46.12    5.51
  -1   6   5   43.77    5.19
   1  -6  -5   37.71    5.21
   1  -6  -5   47.37    5.76
  -1  -6   5   45.28    6.82
  -1   6   5   44.87    5.45
   1   6  -5   43.29    6.47
   1   6  -5   41.03    5.09
  -1  -6   5   41.85    4.22
   1  -6  -5   42.35    7.06
   1  -6  -5   42.87    6.89
   1   6  -5   43.86    5.45
  -1   6   5   41.33    4.55
  -1  -6   5   38.53    5.46
   0   6  -5    1.57    1.60
   0   6   5    1.02    2.49
   0  -6   5   -0.23    0.83
   0  -6  -5    2.42    2.48
   0   6   5    0.72    1.00
   0  -6  -5    0.23    1.48
   0   6  -5    1.29    1.77
   0  -6   5    3.20    2.33
   0   6   5   -1.41    1.26
   0   6   5    0.95    1.62
   0   6  -5    6.12    1.94
   0  -6  -5   -2.83    3.41
   0  -6   5   -0.89    1.13
   0   6  -5   -1.67    1.88
   0  -6   5   -1.86    2.02
   1  -6   5   21.39    2.41
  -1   6  -5   28.15    4.71
   1   6   5   22.57    5.01
  -1  -6  -5   27.62    4.04
   1   6   5   29.42    4.95
  -1   6  -5   22.37    4.87
   1  -6   5   23.51    4.65
  -1   6  -5   32.32    3.84
  -1  -6  -5   30.29    6.19
  -1   6  -5   24.76    4.55
   1   6   5   28.84    3.10
   2  -6   5  114.93    7.57
  -2  -6  -5  128.44   11.39
  -2   6  -5  100.94   10.36
   2  -6   5  103.93    3.53
   2   6   5  103.74    9.28
  -2  -6  -5  101.91   10.46
   2  -6   5   97.14    3.44
  -2   6  -5  107.60    6.24
  -2  -6  -5  104.38    7.76
  -2   6  -5  111.81    9.38
  -2   6  -5  101.95    8.85
   2  -6   5  122.55   10.06
   2   6   5  103.98    5.45
   2   6   5   93.06    9.82
  -3   6  -5    1.06    1.18
   3   6   5   -0.75    1.87
   3   6   5    0.79    0.67
   3  -6   5    1.85    1.81
   3   6   5    3.31    2.38
  -3   6  -5   -1.92    2.74
  -3  -6  -5   -0.76    2.47
  -3   6  -5    1.55    0.91
  -3  -6  -5    1.49    1.30
  -3  -6  -5    5.27    3.13
   3  -6   5    0.73    1.11
  -3   6  -5   -0.53    1.99
   3   6   5    1.18    0.78
   4  -6   5   77.72    8.15
   4   6   5   69.44    8.52
  -4   6  -5   63.98    8.81
  -4   6  -5   71.62    3.22
  -4  -6  -5   65.89    8.54
  -4  -6  -5   75.78    9.21
  -4   6  -5   75.72    7.94
  -4   6  -5   66.11    7.92
  -4  -6  -5   76.02    6.47
   4  -6   5   74.09    4.95
   4   6   5   86.29   10.37
  -5   6  -5    3.09    1.85
   5   6   5    4.38    3.76
   5  -6   5    6.36    1.26
   5  -6   5    4.60    3.03
  -5   6  -5    2.78    2.37
   5   6   5   -1.69    2.65
  -5  -6  -5    2.59    2.13
  -5  -6  -5    6.59    3.37
  -5   6  -5    5.18    2.94
  -5  -6  -5    2.92    1.50
  -6   6  -5   51.76    7.03
   6   6   5   62.46    9.40
   6  -6   5   55.56    7.31
   6  -6   5   51.62    3.40
  -6   6  -5   61.96    9.30
   6   6   5   47.15    7.74
  -6  -6  -5   51.80    7.85
  -6  -6  -5   45.33    7.90
  -6  -6  -5   50.51    5.57
  -6   6  -5   50.88    7.35
   7   6   5    4.92    3.80
  -7  -6  -5   -0.50    1.83
   7  -6   5    0.67    1.79
  -7   6  -5    2.65    3.04
   7   6   5   -1.70    2.78
  -7  -6  -5    0.40    2.62
  -7  -6  -5    3.64    2.82
  -7   6  -5    0.47    2.18
   8   6   5   39.84    8.83
   8  -6   5   39.52    6.42
  -8   6  -5   42.74    8.42
   8   6   5   38.64    8.04
  -8  -6  -5   33.55    6.54
  -8  -6  -5   28.52    7.09
  -8   6  -5   25.52    5.51
   9   6   5   44.21    9.32
   9  -6   5   35.42    6.14
   9   6   5   23.20    6.09
  -9   6  -5   40.83    7.96
  -9  -6  -5   42.24    7.90
  -9  -6  -5   24.88    6.93
  -9   6  -5   38.45    7.11
  10   6   5    4.41    3.79
  10  -6   5   -2.15    2.09
 -10   6  -5    1.15    2.89
 -10  -6  -5   -0.95    3.26
 -10  -6  -5   -4.17    5.10
 -10   6  -5    4.29    3.60
  11  -6   5   11.35    4.24
 -11   6  -5   23.64    6.52
 -11  -6  -5   11.17    3.46
 -11  -6  -5   27.35    9.40
 -11   6  -5   25.88    7.34
 -12  -6  -5    2.34    2.40
  12  -7  -5   31.80    7.96
 -11  -7   5   26.00    6.25
 -11  -7   5   29.68    6.46
 -11   7   5   20.72    5.76
  11   7  -5   31.22    7.78
  11   7  -5   32.96    8.22
  11  -7  -5   24.43    6.61
  11  -7  -5   25.50    6.95
  10   7  -5  111.47   13.87
  10  -7  -5  122.40   12.93
  10   7  -5  137.46   15.08
  10  -7  -5  128.07   14.47
 -10  -7   5  132.86   12.55
 -10  -7   5  125.19   12.81
 -10   7   5  130.16   12.80
  -9  -7   5   -4.67    3.84
  -9  -7   5   -2.55    2.81
  -9   7   5   -2.26    3.20
   9   7  -5   -3.01    4.38
  -9  -7   5   -1.29    4.93
   9   7  -5    1.00    3.05
   9  -7  -5   -1.12    3.51
   9  -7  -5   -3.91    2.84
   8   7  -5   87.34   11.25
  -8  -7   5   64.53   10.27
   8  -7  -5   98.30   10.81
   8   7  -5  108.00   11.85
   8  -7  -5  108.75   12.71
  -8  -7   5   90.86    9.41
  -8  -7   5   91.90   10.30
  -8   7   5   93.42   10.19
  -7  -7   5   41.07    6.88
  -7  -7   5   35.60    5.70
  -7   7   5   48.33    6.98
   7   7  -5   32.50    6.60
   7   7  -5   43.67    4.61
  -7   7   5   38.94    3.80
  -7  -7   5   23.29    6.07
   7   7  -5   45.03    7.64
   7  -7  -5   38.19    7.25
   7  -7  -5   47.57    7.32
   7   7  -5   30.32    4.10
   6  -7  -5   59.48    5.36
  -6  -7   5   52.14    6.62
   6   7  -5   62.67    8.68
   6  -7  -5   55.97    5.23
  -6   7   5   65.97    5.33
  -6  -7   5   50.29    8.07
   6   7  -5   68.25    8.63
   6  -7  -5   61.27    8.97
  -6  -7   5   70.42    8.49
   6   7  -5   58.23    5.91
   6  -7  -5   54.69    7.57
  -6   7   5   61.48    7.51
  -5  -7   5    0.52    2.61
  -5  -7   5    1.93    1.56
   5  -7  -5   -0.09    1.35
  -5   7   5    1.97    1.70
   5   7  -5    5.12    3.78
  -5  -7   5   -4.11    4.37
   5  -7  -5   -0.92    1.27
  -5   7   5    2.54    1.60
   5   7  -5    2.56    2.46
   5  -7  -5    4.20    3.25
   5  -7  -5   -2.36    3.26
   5   7  -5    1.70    1.85
   5  -7  -5    1.19    2.36
  -4  -7   5  333.12   20.71
   4   7  -5  411.31   18.67
   4  -7  -5  374.18   15.35
  -4   7   5  378.63   15.12
   4  -7  -5  393.26   23.79
   4   7  -5  388.12   19.07
   4  -7  -5  381.79   19.19
   4  -7  -5  386.30   22.50
  -4  -7   5  391.19   16.83
  -4  -7   5  393.77   19.65
   4   7  -5  383.96   16.20
  -4   7   5  395.43   17.72
   3  -7  -5    3.85    2.39
  -3   7   5    7.90    2.74
  -3  -7   5    2.15    1.25
   3  -7  -5    5.73    2.48
  -3   7   5    4.95    2.19
  -3  -7   5    5.83    3.44
   3  -7  -5    1.78    1.20
  -3   7   5    9.31    2.88
   3   7  -5    1.69    1.41
   3   7  -5    4.43    2.63
  -3  -7   5    3.63    2.11
   3  -7  -5    5.17    2.67
   3  -7  -5    4.56    3.12
   3   7  -5    4.10    1.45
  -3  -7   5    2.87    2.11
   2  -7  -5  177.46   11.61
  -2   7   5  197.27   12.22
   2   7  -5  175.38   12.82
  -2  -7   5  179.25   14.01
   2  -7  -5  198.46   11.77
  -2   7   5  181.01   10.99
   2  -7  -5  163.25   14.49
   2   7  -5  202.03   11.94
  -2  -7   5  185.52   13.34
   2  -7  -5  190.41   15.48
  -2  -7   5  186.70   10.08
   2  -7  -5  182.91   12.30
  -2  -7   5  193.61   13.08
   2   7  -5  182.77   11.41
  -2   7   5  202.53   11.14
  -2   7   5  185.54   12.45
   1  -7  -5   86.74    8.24
  -1   7   5   90.80    8.09
   1   7  -5   67.36    8.30
  -1  -7   5   92.85    9.64
  -1   7   5   92.41    8.07
   1  -7  -5   70.90    9.54
   1   7  -5   78.82    6.93
   1  -7  -5   84.88    8.04
  -1  -7   5   83.85    6.23
   1  -7  -5   83.87    7.88
  -1  -7   5   81.40    8.30
   1   7  -5   80.64    7.63
  -1   7   5   79.90    6.65
  -1   7   5   82.57    8.80
   0  -7   5    8.72    1.88
   0   7   5   12.41    3.86
   0   7   5    7.75    1.97
   0  -7  -5   13.00    3.24
   0  -7   5   14.93    4.51
   0   7   5    9.56    2.54
   0   7  -5   13.15    3.79
   0   7   5   13.90    3.74
   0   7  -5    9.57    2.38
   0  -7  -5   13.40    4.38
   0  -7   5    8.53    2.53
   0   7  -5   11.30    3.27
   0  -7   5    7.79    3.04
   1   7   5   62.84    8.21
   1  -7   5   66.21    8.11
   1   7   5   62.47    7.06
  -1   7  -5   68.29    8.89
   1  -7   5   61.38    4.39
  -1   7  -5   63.17    5.22
  -1  -7  -5   49.70    7.84
  -1  -7  -5   65.07    6.95
  -1   7  -5   58.83    6.85
  -1   7  -5   64.92    7.58
   2  -7   5  107.59    8.02
  -2  -7  -5  128.71   12.23
  -2   7  -5  103.90   10.98
   2  -7   5  104.00    9.75
   2   7   5  103.90    9.70
  -2   7  -5  117.50    6.32
  -2  -7  -5  112.09   11.60
   2   7   5  116.73    7.28
  -2  -7  -5  110.50    8.78
  -2   7  -5  121.54   10.35
  -2   7  -5  110.04   10.02
   2   7   5  110.92   11.28
  -3  -7  -5  234.39   16.95
   3  -7   5  242.10   11.51
  -3  -7  -5  221.01   16.36
  -3   7  -5  239.78   17.43
   3  -7   5  245.16   14.96
   3   7   5  216.82   14.78
   3   7   5  228.16    9.34
  -3   7  -5  212.37   14.23
  -3   7  -5  239.02   15.04
  -3  -7  -5  224.30   12.69
   3   7   5  228.64    8.41
   3   7   5  214.49   16.63
  -4   7  -5  246.20   18.43
  -4  -7  -5  278.45   19.23
   4  -7   5  250.12   15.15
   4   7   5  253.89   16.91
  -4  -7  -5  258.24   17.90
  -4   7  -5  227.32   15.42
  -4   7  -5  261.11   16.31
   4   7   5  273.26    8.36
  -4  -7  -5  253.11   13.72
   4  -7   5  286.55   11.70
   4   7   5  258.43    7.47
   4   7   5  231.22   17.80
  -5   7  -5  177.08   15.85
   5  -7   5  179.41   12.77
   5   7   5  194.66   15.15
  -5  -7  -5  185.48   15.17
  -5  -7  -5  190.05   16.29
   5  -7   5  180.58    8.60
  -5   7  -5  161.11   13.20
  -5   7  -5  183.64   14.08
  -5  -7  -5  183.32   11.75
   5   7   5  169.67   15.90
   6  -7   5    2.23    1.00
   6   7   5    7.11    4.67
  -6  -7  -5    1.29    1.91
   6  -7   5    1.78    1.75
  -6   7  -5    0.24    2.35
   6   7   5    0.54    3.43
  -6  -7  -5    3.04    2.73
  -6  -7  -5    1.81    2.43
  -6   7  -5    1.72    2.14
   7   7   5    8.73    4.65
  -7  -7  -5    6.25    3.08
   7  -7   5    7.18    3.03
  -7   7  -5   13.34    4.98
   7   7   5    4.61    3.12
  -7  -7  -5    4.95    3.58
  -7  -7  -5    2.62    2.89
  -7   7  -5    4.10    2.01
   8   7   5   14.93    5.64
   8  -7   5   15.89    4.74
  -8   7  -5    8.92    4.47
   8   7   5    8.24    4.02
  -8  -7  -5    6.06    3.45
  -8  -7  -5    7.43    4.85
  -8   7  -5    9.54    3.55
   9   7   5   93.55   13.37
   9  -7   5  104.22   10.69
  -9  -7  -5   98.33   11.94
  -9   7  -5  104.86   13.32
  -9   7  -5  106.29   12.87
  -9  -7  -5   95.72   14.33
  10   7   5   -2.16    4.39
  10  -7   5    6.40    3.75
 -10   7  -5    1.45    3.99
 -10  -7  -5    3.17    2.49
 -10  -7  -5   12.44    7.85
 -10   7  -5    8.98    5.54
 -11  -7  -5  226.58   24.24
 -11  -7  -5  169.34   15.83
  12  -8  -5   61.73   11.13
  11   8  -5  409.22   28.33
  11  -8  -5  388.15   26.75
 -11  -8   5  369.43   22.82
 -10  -8   5   -2.01    4.25
 -10  -8   5   -2.24    4.12
 -10   8   5    3.33    2.90
  10   8  -5   -2.61    3.27
  10   8  -5   -2.33    3.98
  10  -8  -5   -2.38    3.36
  10  -8  -5   -4.46    3.25
  -9   8   5   82.67   10.20
   9   8  -5  109.21   13.67
   9   8  -5  110.23   13.18
   9  -8  -5  126.37   14.27
  -9  -8   5  115.87   11.52
   9  -8  -5   94.49   11.53
  -9  -8   5  109.34   11.79
  -8  -8   5    0.22    2.23
  -8  -8   5    0.34    2.39
  -8   8   5    2.10    2.58
   8   8  -5   -2.60    3.94
   8   8  -5   -2.70    3.55
   8  -8  -5    0.96    3.54
   8  -8  -5   -6.95    4.78
   7   8  -5   81.60   10.89
   7   8  -5  101.38    7.47
  -7  -8   5   63.53   10.53
   7  -8  -5  105.03   11.17
   7   8  -5  109.26   11.76
   7  -8  -5  113.87   12.65
  -7  -8   5  103.58    9.83
   7   8  -5   90.28    7.63
  -7  -8   5  103.02   10.98
  -7   8   5  110.81   10.80
  -6  -8   5   13.70    4.31
  -6  -8   5   10.31    3.09
  -6   8   5   14.12    4.19
   6   8  -5   16.96    5.04
  -6  -8   5    3.71    2.92
  -6   8   5   12.50    2.41
   6   8  -5   10.00    3.50
   6  -8  -5   12.05    5.16
   6   8  -5    5.37    1.90
   6  -8  -5   12.33    4.00
   5   8  -5  723.75   30.46
  -5  -8   5  644.80   32.01
   5   8  -5  756.31   26.02
   5  -8  -5  739.68   21.68
  -5   8   5  700.67   21.32
   5   8  -5  775.25   29.51
   5  -8  -5  732.45   29.17
   5  -8  -5  729.76   32.42
  -5  -8   5  721.58   25.48
  -5  -8   5  762.01   29.51
   5   8  -5  676.74   24.16
  -5   8   5  758.78   27.11
   4   8  -5   94.03    9.30
  -4  -8   5  102.09   11.51
   4  -8  -5   93.64    7.48
  -4   8   5   93.58    7.33
   4  -8  -5  112.08   13.20
   4   8  -5  100.36    9.57
   4  -8  -5  101.83   11.55
   4  -8  -5   94.35    9.74
  -4  -8   5  108.48    8.80
  -4  -8   5  107.14   10.53
   4   8  -5  111.62    9.09
  -4   8   5  106.79    9.20
   3  -8  -5  416.92   18.76
   3   8  -5  406.63   20.60
  -3  -8   5  404.00   23.17
   3  -8  -5  440.77   17.62
  -3   8   5  437.77   17.46
   3  -8  -5  398.90   24.58
   3   8  -5  436.72   19.66
  -3  -8   5  418.93   22.53
   3  -8  -5  429.77   24.45
  -3  -8   5  416.72   17.30
   3  -8  -5  445.26   21.23
  -3  -8   5  434.03   21.27
   3   8  -5  438.72   18.96
  -3   8   5  425.69   18.38
  -3   8   5  440.62   19.42
  -2   8   5   32.56    5.39
   2  -8  -5   35.23    5.42
   2  -8  -5   40.43    6.19
   2  -8  -5   50.83    6.09
  -2  -8   5   40.08    6.98
   2   8  -5   47.46    6.89
  -2   8   5   36.01    4.86
  -2  -8   5   42.71    4.91
   2   8  -5   45.53    5.77
  -2  -8   5   31.93    5.74
   2  -8  -5   34.54    6.93
   2  -8  -5   40.86    7.54
   2   8  -5   33.79    4.85
  -2  -8   5   39.39    6.08
  -1  -8   5   27.99    3.83
  -1   8   5   25.18    5.26
   1  -8  -5   24.11    4.63
  -1  -8   5   33.91    6.26
   1   8  -5   21.44    4.93
  -1   8   5   21.05    4.07
   1   8  -5   29.46    4.34
   1  -8  -5   28.87    6.51
  -1  -8   5   23.26    4.61
   1   8  -5   22.86    4.40
  -1  -8   5   35.11    5.71
   0   8  -5  114.85   11.87
   0  -8   5  136.66   11.99
   0   8   5  139.29   10.53
   0  -8  -5  151.96   14.17
   0   8  -5  147.27    8.84
   0  -8   5  143.20    7.68
   0  -8   5  163.59   12.48
   0  -8  -5  142.36   11.02
   0   8  -5  152.43   11.41
   0   8   5  147.46   12.62
   1  -8   5  112.38   10.92
  -1   8  -5   87.06   10.58
   1   8   5   95.23    9.31
  -1  -8  -5   98.84   11.39
   1  -8   5  101.01    5.90
  -1   8  -5   96.36    6.55
   1  -8   5  103.02    7.81
  -1  -8  -5  108.45    9.69
  -1   8  -5   89.33    8.96
   1   8   5   91.06   10.16
   2  -8   5  634.82   22.33
  -2  -8  -5  631.93   29.43
  -2   8  -5  544.87   27.95
   2  -8   5  617.80   25.83
   2  -8   5  602.84   12.31
   2   8   5  562.09   24.78
  -2  -8  -5  613.38   28.93
   2   8   5  606.24   19.62
  -2   8  -5  584.49   25.10
  -2  -8  -5  631.58   24.35
   2   8   5  590.66   28.61
   3  -8   5  336.30   14.99
  -3   8  -5  302.58   20.94
  -3  -8  -5  308.26   20.86
   3  -8   5  343.31   18.26
   3   8   5  322.65   18.74
  -3  -8  -5  334.69   21.14
   3   8   5  311.51   12.50
  -3   8  -5  312.48   18.02
  -3  -8  -5  334.32   17.22
   3   8   5  289.35   20.27
  -4   8  -5  205.28   17.39
  -4  -8  -5  244.04   18.70
   4  -8   5  230.18   14.94
   4   8   5  244.73   17.03
  -4  -8  -5  244.70   17.94
  -4   8  -5  209.02   15.26
   4   8   5  242.91    9.46
  -4  -8  -5  239.09   14.67
   4  -8   5  228.31   11.68
   4   8   5  231.94   18.68
  -5  -8  -5  116.72   13.68
   5  -8   5  118.16   10.65
   5   8   5  113.74   11.93
  -5  -8  -5  119.12   12.46
  -5   8  -5  100.06   12.15
  -5   8  -5  103.02   10.90
   5  -8   5  107.64    7.50
  -5  -8  -5  120.31   10.43
   5   8   5  114.89   13.85
   6   8   5   31.25    7.56
  -6  -8  -5   43.51    6.59
   6  -8   5   43.30    6.40
  -6   8  -5   26.36    6.66
   6   8   5   42.27    7.74
  -6  -8  -5   49.70    8.09
   6  -8   5   46.18    4.49
  -6  -8  -5   28.65    7.44
  -6   8  -5   38.48    7.34
   7   8   5   23.01    6.77
   7  -8   5   14.87    4.35
  -7   8  -5   12.97    5.18
  -7  -8  -5   14.17    5.78
  -7  -8  -5   14.16    5.72
  -7  -8  -5   13.89    3.96
  -7   8  -5   24.46    6.94
  -8   8  -5  221.42   19.67
  -8  -8  -5  219.60   21.41
   8  -8   5  229.97   15.62
  -8  -8  -5  198.05   17.14
  -8   8  -5  259.86   19.88
   8   8   5  228.49   21.08
   9   8   5   25.31    7.33
   9  -8   5   24.39    5.40
  -9   8  -5   24.25    6.64
  -9  -8  -5   37.76    7.72
  -9  -8  -5   32.37    8.46
  -9   8  -5   21.87    6.28
 -10   8  -5  351.20   25.87
 -10  -8  -5  396.02   31.75
 -10  -8  -5  385.61   25.07
 -10   8  -5  378.42   26.51
 -11  -8  -5   19.04    5.72
 -11  -8  -5   17.65    6.65
  12  -9  -5  330.84   25.67
  11   9  -5    5.93    4.62
  11  -9  -5    6.26    5.07
  10   9  -5  588.76   34.99
  10  -9  -5  611.39   31.35
  10  -9  -5  618.43   33.84
 -10  -9   5  581.88   28.53
 -10  -9   5  585.15   29.96
 -10   9   5  588.47   29.47
  -9  -9   5   -0.50    2.34
  -9  -9   5    2.13    2.81
   9   9  -5   -0.23    4.03
  -9   9   5   -2.63    3.49
   9  -9  -5   -1.99    4.04
   9  -9  -5   -7.46    5.52
  -8  -9   5   48.03    7.92
  -8  -9   5   57.06    8.15
   8   9  -5   50.35    8.69
  -8   9   5   35.62    6.35
   8  -9  -5   39.92    8.18
   8  -9  -5   51.64    8.51
  -7  -9   5   56.06    8.43
  -7  -9   5   51.87    7.33
   7   9  -5   42.48    8.65
  -7   9   5   46.35    7.05
  -7  -9   5   28.41    7.28
   7   9  -5   38.46    7.00
   7  -9  -5   41.15    8.17
   7  -9  -5   51.46    8.21
   6   9  -5  142.06   14.47
  -6  -9   5  140.90   15.55
   6   9  -5  158.20   11.24
   6   9  -5  160.01   13.77
   6  -9  -5  180.24   14.90
   6  -9  -5  181.45   16.50
  -6  -9   5  173.40   12.78
  -6  -9   5  184.86   14.60
   6   9  -5  141.85   11.15
  -6   9   5  163.71   12.84
   5   9  -5  122.18   12.85
   5   9  -5  114.82   10.25
  -5  -9   5  114.04   13.75
   5  -9  -5  148.98    8.92
  -5   9   5  135.62    8.77
   5   9  -5  148.63   12.74
   5  -9  -5  152.64   14.96
   5  -9  -5  141.36   12.80
  -5  -9   5  133.25   10.77
  -5  -9   5  136.05   12.39
   5   9  -5  125.94   10.70
  -5   9   5  142.45   11.54
   4  -9  -5  624.39   24.29
   4   9  -5  724.81   30.96
   4   9  -5  647.68   27.11
  -4  -9   5  600.79   31.29
   4  -9  -5  681.38   22.54
  -4   9   5  679.77   22.64
   4   9  -5  727.56   27.88
  -4  -9   5  667.92   24.42
   4  -9  -5  691.59   32.78
   4  -9  -5  702.11   29.14
  -4  -9   5  725.58   29.27
   4   9  -5  649.39   25.78
  -4   9   5  704.75   24.69
  -4   9   5  672.08   25.87
   3  -9  -5  291.16   16.51
   3   9  -5  332.03   19.67
  -3  -9   5  296.77   20.79
   3  -9  -5  346.03   15.99
  -3   9   5  320.15   15.51
   3  -9  -5  324.33   22.94
   3   9  -5  352.75   17.89
  -3  -9   5  344.23   15.92
   3  -9  -5  351.45   22.81
   3  -9  -5  351.99   19.45
  -3  -9   5  347.24   19.53
   3   9  -5  348.06   18.09
  -3   9   5  346.40   17.54
   2  -9  -5  357.38   18.62
   2   9  -5  324.24   20.18
  -2  -9   5  378.68   22.77
   2  -9  -5  368.28   17.67
  -2   9   5  360.50   17.20
   2  -9  -5  386.08   24.67
   2   9  -5  389.57   17.78
  -2  -9   5  380.12   16.10
  -2  -9   5  348.16   19.84
   2  -9  -5  409.43   24.90
   2  -9  -5  399.82   20.64
  -2  -9   5  370.21   20.31
   2   9  -5  392.79   19.41
  -2   9   5  358.00   19.23
  -1   9   5    1.34    1.95
   1  -9  -5    1.19    1.98
  -1  -9   5    5.64    3.51
   1   9  -5    0.22    2.57
  -1   9   5    5.13    2.66
   1  -9  -5    3.64    3.01
  -1  -9   5    5.47    2.29
   1   9  -5    7.62    3.26
  -1  -9   5    3.75    2.85
  -1  -9   5    5.70    1.92
   0   9  -5  116.77   12.61
   0  -9   5  147.34   13.28
   0   9   5  145.69   11.57
   0  -9  -5  133.73   14.03
   0  -9   5  146.67    8.51
   0  -9  -5  133.90   11.40
   0   9  -5  141.99   11.90
   0   9   5  144.09   13.20
  -1   9  -5  114.44   12.69
   1  -9   5  135.85   10.49
   1  -9   5  151.81   13.07
   1   9   5  137.22   11.49
   1  -9   5  140.88    7.49
  -1  -9  -5  158.63   15.15
   1  -9   5  151.27    9.52
  -1   9  -5  124.37   11.68
  -1  -9  -5  145.09   12.05
   1   9   5  133.72   13.12
   2   9   5   84.59   10.99
   2  -9   5   92.37    8.53
   2  -9   5   84.38    3.88
   2  -9   5   98.10   10.38
   2   9   5   91.33    9.77
  -2  -9  -5   89.24   11.19
  -2   9  -5   73.69   10.49
  -2  -9  -5   79.38   10.66
  -2   9  -5   82.20    9.58
  -2  -9  -5   88.59    9.38
   3  -9   5  713.67   24.77
  -3   9  -5  624.70   32.49
  -3  -9  -5  713.21   33.83
   3  -9   5  711.80   28.51
   3   9   5  689.45   29.56
  -3  -9  -5  732.77   33.13
   3   9   5  699.22   21.90
  -3   9  -5  716.01   30.16
  -3  -9  -5  716.54   28.33
   3   9   5  644.59   32.60
  -4   9  -5  129.59   14.28
  -4  -9  -5  109.16   13.21
   4  -9   5  116.07   10.93
   4   9   5  108.05   11.78
  -4  -9  -5  123.95   13.52
  -4   9  -5  112.66   11.84
  -4  -9  -5  119.93   11.16
   4  -9   5  129.54    9.53
   4   9   5  120.63   14.42
  -5   9  -5  319.04   22.83
  -5  -9  -5  357.30   24.77
   5  -9   5  335.19   18.76
   5   9   5  328.23   21.85
  -5  -9  -5  327.78   22.12
  -5   9  -5  328.32   20.96
   5  -9   5  365.27   15.61
  -5  -9  -5  339.02   19.61
   5   9   5  282.46   22.60
   6   9   5   75.95   12.24
   6  -9   5   78.66    8.95
  -6  -9  -5   73.12    9.43
  -6   9  -5   55.28    9.94
  -6  -9  -5   73.32   10.47
   6  -9   5   71.40    6.60
  -6   9  -5   79.51   10.89
  -6  -9  -5   65.53   10.80
  -7  -9  -5  142.76   13.28
  -7   9  -5  135.89   15.61
  -7  -9  -5  159.70   17.93
   7  -9   5  158.16   12.70
  -7  -9  -5  157.09   15.59
  -7   9  -5  149.49   15.40
   7   9   5  129.06   16.14
   8   9   5    9.19    4.42
   8  -9   5   12.45    4.45
  -8   9  -5   -0.38    4.61
  -8  -9  -5    4.09    2.57
  -8  -9  -5    8.09    5.27
  -8   9  -5    8.45    4.88
  -9   9  -5  148.31   16.64
  -9  -9  -5  167.15   19.56
   9  -9   5  197.57   14.96
  -9  -9  -5  166.04   16.19
  -9   9  -5  174.92   17.99
   9   9   5  173.79   19.36
 -10  -9  -5    6.51    4.10
 -10  -9  -5    5.70    6.38
 -11  -9  -5  243.92   25.89
  11  10  -5  412.76   30.39
  11 -10  -5  418.19   28.67
 -10 -10   5    8.20    4.09
  10  10  -5   10.67    5.09
  10 -10  -5    4.77    3.19
   9  10  -5  366.77   27.01
   9 -10  -5  351.16   23.38
   9 -10  -5  347.43   25.08
  -9 -10   5  323.72   20.61
  -9 -10   5  353.85   22.74
  -9  10   5  334.81   21.46
  -8 -10   5   21.63    5.70
  -8 -10   5   26.42    5.85
   8  10  -5   17.34    7.06
  -8  10   5   23.93    5.46
   8 -10  -5   12.55    4.81
   8 -10  -5   17.33    5.09
  -7 -10   5    4.37    3.46
   7  10  -5   -3.33    4.09
  -7  10   5    3.92    2.28
   7 -10  -5    2.32    2.84
   7 -10  -5   -4.10    3.65
  -7 -10   5    4.91    3.55
   6 -10  -5    1.06    2.11
  -6 -10   5   -1.69    2.24
   6  10  -5   -3.46    4.25
  -6  10   5    0.47    2.66
  -6 -10   5   -3.78    3.67
   6  10  -5   -0.15    2.08
   6 -10  -5   -1.27    2.71
   6  10  -5    1.41    2.09
  -6 -10   5    0.05    2.32
   5  10  -5  147.81   14.61
   5  10  -5  161.22   12.69
  -5 -10   5  112.75   14.25
  -5 -10   5  145.37   11.52
   5 -10  -5  147.45   15.19
   5 -10  -5  147.03   13.72
  -5 -10   5  161.90   13.98
   5  10  -5  129.88   11.52
  -5  10   5  155.39   10.26
  -5  10   5  145.83   12.08
   4 -10  -5  187.71   12.97
   4  10  -5  178.11   15.91
   4  10  -5  179.46   14.45
  -4 -10   5  166.86   16.65
   4 -10  -5  209.63   11.76
  -4 -10   5  194.18   12.80
   4 -10  -5  201.67   17.70
   4 -10  -5  198.94   15.74
  -4 -10   5  181.58   14.78
   4  10  -5  183.30   14.02
  -4  10   5  204.60   12.99
   3 -10  -5  716.80   28.29
   3  10  -5  811.18   33.47
   3  10  -5  746.24   32.60
  -3 -10   5  782.54   36.19
   3 -10  -5  823.68   26.91
  -3  10   5  773.26   26.98
   3 -10  -5  755.47   37.86
  -3 -10   5  796.47   26.79
   3 -10  -5  841.45   37.74
   3 -10  -5  799.65   32.29
  -3 -10   5  874.90   33.44
   3  10  -5  746.73   30.19
  -3  10   5  793.84   29.28
   2  10  -5  189.42   16.04
  -2 -10   5  190.12   16.77
  -2  10   5  190.68   12.77
   2 -10  -5  217.92   19.04
  -2 -10   5  200.21   11.91
  -2 -10   5  180.26   14.52
   2 -10  -5  206.03   18.32
   2 -10  -5  202.21   15.36
  -2 -10   5  217.01   15.74
   2  10  -5  191.91   14.29
  -2  10   5  183.02   13.99
   1  10  -5  150.53   14.60
  -1 -10   5  163.02   14.90
  -1  10   5  170.18   12.46
   1 -10  -5  170.53   16.65
  -1 -10   5  172.26   10.30
  -1 -10   5  156.09   12.34
  -1 -10   5  156.25   13.30
   1 -10  -5  170.19   13.92
   1  10  -5  160.90   13.48
  -1  10   5  157.34   13.63
   0  10   5    3.40    3.15
   0 -10   5    3.46    3.08
   0  10   5   -4.53    3.26
   0 -10  -5    4.18    2.43
   0  10  -5    0.48    3.33
   0 -10  -5   -2.69    2.86
   0  10  -5    7.05    4.02
   0 -10   5    3.44    1.58
   1  10   5    5.21    2.94
   1 -10   5    6.65    3.32
  -1  10  -5    4.21    3.23
   1  10   5    3.32    2.07
   1 -10   5    2.01    2.16
  -1 -10  -5    3.66    2.19
  -1 -10  -5    4.17    3.39
  -1 -10  -5    5.92    3.64
   1 -10   5    5.88    1.88
  -1  10  -5    6.40    3.09
   1  10   5    8.97    2.93
   2  10   5   48.95    8.89
   2 -10   5   61.17    7.45
   2 -10   5   64.94    3.84
   2 -10   5   66.50    9.05
  -2  10  -5   39.69    8.16
   2  10   5   44.69    7.12
  -2 -10  -5   55.47    9.20
   2  10   5   63.91    6.62
  -2 -10  -5   60.71    9.88
  -2 -10  -5   60.69    8.57
  -2  10  -5   66.58    9.06
   3 -10   5   98.13    8.96
   3  10   5   87.14   12.42
   3 -10   5  108.53   10.87
  -3  10  -5   71.56   11.28
  -3 -10  -5   98.31   12.11
  -3 -10  -5   91.61   12.36
  -3  10  -5   89.62   10.89
  -3 -10  -5   82.30    9.78
  -4  10  -5  594.16   33.36
  -4 -10  -5  670.96   34.90
   4 -10   5  660.70   27.99
  -4 -10  -5  682.82   33.52
  -4  10  -5  686.45   31.65
  -4 -10  -5  657.93   29.79
   4 -10   5  715.81   25.22
   4  10   5  652.28   35.94
   5  10   5   44.79    9.41
  -5 -10  -5   53.45    8.32
   5 -10   5   46.33    7.41
  -5  10  -5   24.25    6.84
  -5 -10  -5   60.52   10.02
  -5 -10  -5   61.37   10.89
   5 -10   5   55.47    6.48
  -5  10  -5   55.83    9.22
  -6  10  -5  205.68   19.34
  -6 -10  -5  259.57   22.31
   6 -10   5  259.86   16.62
  -6 -10  -5  222.44   18.84
  -6  10  -5  232.78   19.06
   6  10   5  258.78   23.15
  -6 -10  -5  225.25   17.73
   7  10   5    4.22    3.66
   7 -10   5    9.85    4.25
  -7  10  -5    2.21    3.67
  -7 -10  -5    8.70    4.61
  -7 -10  -5    8.80    5.75
  -7  10  -5   14.53    5.50
   8  10   5   15.83    6.53
   8 -10   5   14.62    4.94
  -8  10  -5    9.32    4.69
  -8 -10  -5    3.79    2.61
  -8 -10  -5   23.43    7.68
  -8  10  -5   20.83    7.22
  -9 -10  -5    8.98    3.65
  -9 -10  -5    6.79    4.90
 -10 -10  -5  172.23   21.34
 -10 -10  -5  141.34   15.76
  11  11  -5   37.53    9.78
  11 -11  -5   27.55    8.03
  10  11  -5  145.87   18.16
  10 -11  -5  141.13   16.54
  -9 -11   5    0.28    2.61
   9  11  -5   -3.40    3.14
  -9  11   5    4.37    3.78
   9 -11  -5    0.96    5.33
  -8 -11   5   29.58    5.81
   8  11  -5   20.30    5.55
  -8  11   5   19.49    5.09
   8 -11  -5   25.37    7.09
   8 -11  -5   32.49    7.21
  -8 -11   5   19.52    5.77
  -7 -11   5   21.86    5.19
   7  11  -5   28.42    6.94
  -7  11   5   29.38    6.36
   7 -11  -5   22.38    6.55
   7 -11  -5   28.63    6.51
  -7 -11   5   20.00    5.64
  -6 -11   5   11.01    3.76
   6 -11  -5   10.04    4.64
   6  11  -5    8.50    4.99
  -6  11   5   10.67    3.84
  -6 -11   5    2.09    5.48
   6  11  -5    4.73    2.44
   6 -11  -5    4.67    3.09
   6  11  -5    6.31    2.38
  -6 -11   5    9.72    3.24
  -5 -11   5    7.32    3.14
  -5  11   5   10.58    3.02
   5 -11  -5    1.57    3.80
   5  11  -5    9.88    4.37
  -5 -11   5    3.03    4.46
   5  11  -5    9.05    3.55
   5 -11  -5   13.10    5.49
   5  11  -5    1.89    2.92
  -5 -11   5    5.27    2.81
   4  11  -5  230.60   18.60
   4  11  -5  221.29   17.46
  -4 -11   5  213.50   19.77
  -4 -11   5  246.27   15.08
   4 -11  -5  282.31   21.92
   4 -11  -5  275.86   19.45
  -4 -11   5  247.16   17.80
   4  11  -5  217.23   16.42
  -4  11   5  249.67   15.23
  -3  11   5   23.17    5.02
   3  11  -5   25.20    6.36
   3 -11  -5   23.84    6.04
  -3 -11   5   23.87    5.97
   3  11  -5   14.04    4.87
   3 -11  -5   33.50    8.13
   3  11  -5   25.00    5.45
  -3 -11   5   20.66    5.68
  -3 -11   5   23.11    4.46
   2  11  -5  155.61   14.66
   2  11  -5  133.42   14.39
  -2 -11   5  156.52   15.74
   2 -11  -5  146.49   16.25
  -2 -11   5  160.67   11.01
   2 -11  -5  164.22   17.06
  -2 -11   5  162.82   14.24
   2 -11  -5  143.81   13.79
   2  11  -5  145.55   13.57
  -2  11   5  133.85   12.68
  -1  11   5   76.68   10.16
  -1 -11   5   73.18   10.31
  -1 -11   5   83.83    7.46
   1  11  -5   51.26    9.47
   1 -11  -5   77.30    9.88
   1 -11  -5   83.10   12.01
   1  11  -5   69.39    9.43
   0  11   5   63.34    9.80
   0 -11   5   77.16   10.44
   0 -11   5   73.80    6.56
   0  11  -5   55.12    9.49
   0 -11  -5   76.68    9.82
   0 -11  -5   57.33    9.52
   0  11  -5   61.96    9.00
   1  11   5   10.33    4.37
   1 -11   5    6.21    4.02
  -1  11  -5    4.09    2.69
  -1 -11  -5   -1.77    3.72
   1 -11   5   10.84    3.63
  -1 -11  -5    8.31    4.21
  -1 -11  -5   -2.99    2.97
   1 -11   5    6.58    1.68
  -1  11  -5   10.11    4.23
   2  11   5   45.74    9.65
   2 -11   5   72.01    8.28
   2 -11   5   65.53    9.29
  -2  11  -5   51.23   10.23
  -2 -11  -5   52.71    9.32
  -2 -11  -5   57.03   10.14
  -2 -11  -5   54.76    8.35
  -2  11  -5   64.82    9.62
   3 -11   5   99.64    9.54
   3  11   5   86.04   13.05
  -3 -11  -5  104.03   13.70
   3 -11   5   93.28   10.70
  -3  11  -5  101.79   14.27
  -3 -11  -5   88.43   12.22
  -3 -11  -5   95.81   11.32
  -3  11  -5   84.25   11.05
  -4  11  -5  127.52   15.61
  -4 -11  -5  171.63   17.84
   4 -11   5  147.69   13.16
  -4 -11  -5  185.75   17.68
  -4  11  -5  152.36   15.33
  -4 -11  -5  150.73   14.46
   4 -11   5  157.66   11.95
   4  11   5  159.54   17.84
  -5  11  -5  183.96   18.99
  -5 -11  -5  209.40   20.69
   5 -11   5  243.14   16.64
  -5 -11  -5  208.76   18.61
  -5  11  -5  198.00   18.11
   5 -11   5  242.74   14.60
  -5 -11  -5  197.22   17.09
   5  11   5  220.84   22.32
   6  11   5   34.19    9.63
  -6 -11  -5   35.71    7.43
   6 -11   5   37.93    6.53
  -6  11  -5   20.29    6.20
  -6 -11  -5   24.13    6.68
  -6 -11  -5   40.69    8.55
  -6  11  -5   39.39    8.87
   7  11   5   16.24    6.95
   7 -11   5   13.45    3.93
  -7  11  -5   14.91    6.03
  -7 -11  -5   13.97    5.18
  -7 -11  -5   23.90    7.28
  -7  11  -5   12.31    5.48
  -8 -11  -5    1.99    2.96
  -8 -11  -5   -5.62    6.50
  -9 -11  -5    5.95    3.10
  -9 -11  -5   18.70    8.03
  10 -12  -5   -1.45    3.58
  -9 -12   5    1.30    3.94
   9  12  -5    1.66    5.47
   9 -12  -5   -0.41    3.28
  -8 -12   5   40.51    7.28
   8  12  -5   34.09    8.48
  -8  12   5   35.61    7.00
   8 -12  -5   27.17    6.94
   8 -12  -5   37.00    8.41
  -7 -12   5    6.54    3.18
   7  12  -5    4.40    4.63
  -7  12   5    7.06    3.14
   7 -12  -5    7.21    4.21
  -7 -12   5    1.81    3.02
   7 -12  -5   11.49    4.62
  -6 -12   5   -0.59    2.65
   6 -12  -5    1.58    3.68
   6  12  -5   -4.39    4.74
  -6 -12   5   -9.16    7.80
   6 -12  -5   -0.45    3.00
  -6 -12   5    1.29    2.85
   5 -12  -5    3.19    3.96
   5  12  -5    7.56    4.74
  -5 -12   5    4.71    3.71
   5  12  -5   -2.76    3.22
   5 -12  -5    4.41    3.69
   5  12  -5   -2.37    3.14
  -5 -12   5   -1.64    2.81
  -5 -12   5    5.62    3.16
  -4  12   5   42.78    6.62
   4 -12  -5   50.94    8.79
   4  12  -5   57.26    9.94
  -4 -12   5   51.49   10.33
   4  12  -5   32.83    7.41
   4 -12  -5   56.54   10.24
   4  12  -5   42.25    7.34
  -4 -12   5   48.69    7.99
  -4 -12   5   49.95    7.06
  -3  12   5    1.63    1.92
   3  12  -5   -0.33    2.52
   3 -12  -5    3.24    2.99
  -3 -12   5   -3.82    5.20
   3  12  -5   -1.14    3.30
   3 -12  -5    2.38    3.53
   3  12  -5    1.63    2.99
  -3 -12   5    0.85    2.19
  -3 -12   5    2.28    1.61
  -2  12   5    1.69    2.67
   2  12  -5   -0.84    2.70
  -2 -12   5   -0.64    3.10
   2 -12  -5    0.82    2.74
   2  12  -5   -5.36    5.97
   2 -12  -5   -4.67    5.23
   2  12  -5   -2.00    2.41
  -2 -12   5    3.21    2.28
   1  12  -5  123.10   13.23
  -1  12   5   86.44   11.28
  -1 -12   5   81.39   11.52
  -1 -12   5  109.97    9.04
   1 -12  -5  123.70   13.57
   1  12  -5  113.54   12.75
   0  12   5    3.83    3.15
   0 -12   5    9.26    4.16
   0 -12  -5    9.89    4.84
   0 -12  -5    2.20    2.27
   0 -12   5   10.88    4.89
   0 -12   5    4.47    2.09
   0  12  -5    4.59    2.63
   1  12   5    6.96    3.39
   1 -12   5   15.82    4.33
   1 -12   5    9.46    3.99
  -1 -12  -5    8.63    4.35
  -1 -12  -5    9.68    2.95
  -1 -12  -5   11.39    4.38
  -1  12  -5   10.97    4.42
   2  12   5    0.68    4.92
   2 -12   5    7.37    3.68
   2 -12   5   10.68    5.04
  -2  12  -5   -0.59    5.25
  -2 -12  -5    6.03    4.12
  -2 -12  -5   -2.72    3.92
  -2 -12  -5    2.93    3.40
  -2  12  -5    2.57    2.93
   3 -12   5   96.03    9.89
   3  12   5   82.35   13.40
   3 -12   5   99.12   11.49
  -3  12  -5   89.40   13.81
  -3 -12  -5   81.35   12.18
  -3 -12  -5  101.52   13.93
  -3  12  -5   84.62   11.81
  -3 -12  -5   86.34   11.48
  -4 -12  -5   -4.43    4.44
   4  12   5   -7.04    5.46
   4 -12   5    2.91    2.58
   4 -12   5   -0.29    3.15
  -4  12  -5   -2.33    4.09
  -4 -12  -5   -0.02    2.75
  -4 -12  -5   -1.23    4.57
  -4  12  -5    4.40    3.25
   5  12   5    4.37    3.41
  -5 -12  -5   -0.65    3.37
   5 -12   5    7.52    3.22
  -5  12  -5    3.45    4.01
  -5 -12  -5   -0.16    4.84
  -5 -12  -5    1.97    3.89
   5 -12   5   -0.45    1.72
  -5  12  -5    1.49    3.57
   6  12   5   20.89    7.33
  -6 -12  -5   37.56    8.21
   6 -12   5   41.61    7.45
  -6  12  -5   26.69    7.81
  -6 -12  -5   47.21    9.03
  -6 -12  -5   45.53   10.76
  -6  12  -5   33.05    7.78
   7 -12   5   62.43    8.51
  -7 -12  -5   48.41    9.75
  -7 -12  -5   48.87   10.40
  -8 -12  -5   12.48    4.91
   9 -13  -5    9.20    5.19
   8 -13  -5   71.02   11.67
  -8 -13   5   56.79    8.77
   7  13  -5    2.92    5.28
  -7  13   5    1.72    2.85
   7 -13  -5    8.96    5.98
  -7 -13   5    3.62    3.24
   6 -13  -5   -2.40    3.52
   6  13  -5    4.83    4.88
   6 -13  -5    4.54    5.04
  -6 -13   5    4.00    3.87
  -6 -13   5    6.06    3.85
   5 -13  -5    9.05    4.28
   5  13  -5    7.03    4.89
  -5 -13   5    3.46    4.08
   5  13  -5    6.21    3.13
   5 -13  -5   11.19    4.60
  -5 -13   5   18.95    4.85
  -5 -13   5    6.79    3.41
   4  13  -5  106.32   13.60
   4 -13  -5  105.01   13.12
  -4 -13   5   93.92   14.39
   4  13  -5   69.68   10.85
  -4 -13   5  120.34   11.10
   4 -13  -5  118.32   15.19
  -4 -13   5  110.87   12.81
   4  13  -5   83.25   11.16
  -3  13   5   48.08    7.94
   3  13  -5   46.81    8.96
   3 -13  -5   47.68    9.12
  -3 -13   5   39.62    8.53
   3  13  -5   33.83    8.63
   3 -13  -5   45.14    9.78
   3  13  -5   35.81    7.50
  -3 -13   5   46.13    6.77
   2  13  -5  182.98   17.26
  -2 -13   5  166.82   17.36
  -2 -13   5  185.48   13.17
   2 -13  -5  218.28   20.95
   2 -13  -5  202.56   18.18
   2  13  -5  173.03   16.37
  -2  13   5  147.94   14.79
  -1  13   5   41.50    8.08
   1  13  -5   71.64   10.76
  -1 -13   5   56.95   10.01
   1 -13  -5   53.56    9.21
  -1 -13   5   58.88    6.90
   1  13  -5   48.45    8.76
   0  13   5   -2.02    5.17
   0 -13   5    4.90    3.63
   0  13  -5   14.17    5.52
   0 -13   5    2.87    3.93
   0 -13  -5    3.25    2.96
   0  13  -5    5.19    3.03
   1  13   5   -3.35    6.15
  -1  13  -5   12.58    5.12
   1 -13   5    9.27    4.10
  -1 -13  -5    0.55    4.13
  -1 -13  -5   10.61    4.30
  -1 -13  -5    0.37    2.84
   1 -13   5    8.33    3.91
  -1  13  -5    6.07    4.51
   2 -13   5   14.33    4.11
   2  13   5   -1.10    5.00
   2 -13   5   15.40    5.90
  -2 -13  -5   10.18    4.98
  -2 -13  -5   20.05    7.22
  -2 -13  -5    9.14    4.26
  -2  13  -5    6.59    3.76
   3 -13   5   80.12    9.55
   3  13   5   74.46   13.44
   3 -13   5   76.85   10.47
  -3 -13  -5   73.24   11.88
  -3 -13  -5   70.37   11.97
  -3  13  -5   78.02   11.50
  -3 -13  -5   78.01   11.48
  -4 -13  -5   51.86    9.45
   4  13   5   48.51   11.48
   4 -13   5   54.62    7.86
   4 -13   5   59.39    8.70
  -4  13  -5   43.09   10.13
  -4 -13  -5   63.02   11.42
  -4 -13  -5   87.11   13.68
  -4  13  -5   53.43   10.33
   5  13   5  122.71   18.58
  -5  13  -5  139.40   18.13
  -5 -13  -5  172.96   19.72
   5 -13   5  195.65   15.79
  -5 -13  -5  181.94   19.03
  -5  13  -5  150.57   17.57
  -5 -13  -5  215.33   19.69
  -6 -13  -5   -2.71    2.86
   6 -13   5   -2.07    2.50
  -6 -13  -5   -9.88    6.39
  -6 -13  -5   -0.03    3.46
   8 -14  -5   21.93    6.53
   7 -14  -5   57.64   10.73
  -7 -14   5   60.22    9.02
   6 -14  -5   10.63    5.03
  -6 -14   5   13.91    4.27
  -5 -14   5  241.04   17.16
   5 -14  -5  244.56   22.42
   5 -14  -5  265.84   22.08
   4  14  -5    0.93    2.95
   4 -14  -5    2.27    2.99
  -4 -14   5    0.60    4.78
   4  14  -5    7.00    4.84
   4 -14  -5    2.82    4.78
   4  14  -5    1.13    2.71
  -4 -14   5    2.36    2.13
   3  14  -5  477.32   29.99
  -3 -14   5  481.56   32.24
  -3 -14   5  520.93   24.17
   3 -14  -5  519.81   33.80
   3 -14  -5  516.48   31.08
   3  14  -5  438.26   27.93
  -3  14   5  442.15   25.67
  -2  14   5   51.60    9.08
   2  14  -5   76.27   11.49
  -2 -14   5   82.69   12.45
  -2 -14   5   81.25    8.81
   2 -14  -5   77.71   11.81
   2 -14  -5   74.69   12.74
   2  14  -5   73.05   11.33
  -1 -14   5   13.58    4.90
  -1  14   5    5.85    3.18
   1  14  -5    9.97    4.70
  -1 -14   5   10.70    4.94
   1 -14  -5    2.70    3.93
   1  14  -5    2.66    3.76
   0  14  -5  125.87   14.30
   0  14   5   74.82   12.40
   0 -14   5  112.56   12.46
   0 -14   5  133.25   15.23
   0 -14  -5  114.28   14.27
   0  14  -5  101.77   13.64
   1  14   5   -9.13    6.51
  -1  14  -5   10.06    5.19
   1 -14   5    5.06    3.85
   1 -14   5    3.97    2.96
  -1 -14  -5    3.49    4.18
  -1  14  -5    0.80    4.23
   2 -14   5  141.71   13.54
  -2  14  -5  127.28   13.99
   2  14   5  103.51   16.07
  -2 -14  -5  150.63   17.65
   2 -14   5  153.19   15.56
  -2 -14  -5  140.18   15.88
  -2  14  -5  106.56   14.24
   3 -14   5  358.91   21.61
  -3  14  -5  397.98   24.70
  -3 -14  -5  417.08   29.96
   3 -14   5  390.59   24.66
  -3  14  -5  370.64   27.51
  -3 -14  -5  396.70   27.19
   4 -14   5  294.74   20.30
  -4 -14  -5  264.78   23.80
  -4 -14  -5  339.45   25.23
   4 -14   5  286.95   18.93
   4  14   5  218.05   25.60
  -5 -14  -5   53.58   10.11
   5 -14   5   43.29    7.67
  -6 -15   5   92.93   11.15
   6 -15  -5   95.88   14.44
   5 -15  -5    7.89    3.04
  -5 -15   5   16.34    4.58
  -4 -15   5  384.93   21.98
   4 -15  -5  431.46   30.77
   3 -15  -5   71.51   11.84
  -3 -15   5   72.23   12.48
   3 -15  -5   77.32   13.03
   3  15  -5   44.39    8.88
  -2 -15   5  148.22   17.52
  -2 -15   5  189.64   17.08
   2 -15  -5  198.38   21.42
   2 -15  -5  181.59   19.20
   2  15  -5  134.12   15.92
  -2  15   5  144.12   15.83
  -1  15   5   18.49    5.60
  -1 -15   5   55.22   10.65
   1 -15  -5   39.77    8.12
   1  15  -5   23.39    6.49
  -1 -15   5   53.02    9.29
   0  15   5    4.25    4.38
   0 -15   5    8.57    5.34
   0 -15  -5    9.59    5.36
   0  15  -5    6.37    4.69
   0 -15   5   16.03    5.46
   1 -15   5   90.23   11.43
   1 -15   5   95.64   13.08
  -1 -15  -5   87.07   12.82
  -1  15  -5   65.79   11.32
   2 -15   5  107.68   12.21
   2  15   5   87.12   15.83
   2 -15   5  104.55   13.53
  -2 -15  -5  115.60   15.09
  -2  15  -5   84.14   13.07
   3 -15   5  291.61   21.56
  -3 -15  -5  294.57   24.19
   3 -15   5  276.46   19.58
   4 -15   5  129.26   13.93
  -4 -15  -5  164.34   18.37
  -5 -15  -5  185.62   19.44
   3  16  -5  146.66   16.74
   2  16  -5   47.29    9.72
  -1  16   5   56.42   11.24
  -1 -16   5   67.62   10.50
   1  16  -5   70.45   11.98
   0  16   5   -6.34    6.75
   0 -16   5   -1.75    3.88
   0 -16   5   -4.22    5.40
   0 -16  -5   -6.97    5.82
   0  16  -5    5.62    3.09
   1 -16   5   21.02    6.21
   1  16   5   16.07    8.90
   1 -16   5   13.77    5.67
  -1 -16  -5   33.12    9.06
   2 -16   5   72.04   11.35
   2 -16   5   84.49   11.31
  -2 -16  -5   83.68   13.36
   3 -16   5   10.55    4.39
   3 -16   5   13.02    5.41
  -3 -16  -5   17.62    7.11
 -11   0   6    6.11    3.45
 -11   0   6   12.48    3.56
  11   0  -6    9.84    3.85
 -10   0   6   77.69    9.52
 -10   0   6   78.27    8.06
  10   0  -6   71.22   11.07
  -9   0   6   19.29    4.77
   9   0  -6   15.24    3.17
  -9   0   6   20.54    4.25
   9   0  -6   10.51    4.22
   8   0  -6 1493.60   39.41
  -8   0   6 1449.73   39.64
   8   0  -6 1525.99   50.36
  -8   0   6 1468.13   43.51
   7   0  -6   30.64    4.42
  -7   0   6   24.52    5.02
  -7   0   6   30.83    5.01
  -7   0   6   26.83    4.09
   7   0  -6   35.82    7.06
   7   0  -6   28.84    5.39
   6   0  -6  571.78   23.32
  -6   0   6  540.85   20.01
  -6   0   6  561.21   21.68
   6   0  -6  591.26   27.52
   6   0  -6  557.17   24.46
  -6   0   6  549.07   22.60
   6   0  -6  540.72   20.39
   5   0  -6    3.66    1.93
  -5   0   6    6.73    2.89
  -5   0   6    6.04    2.47
  -5   0   6    4.19    1.74
   5   0  -6    4.04    2.37
   5   0  -6    5.30    2.86
   5   0  -6    2.86    2.58
   4   0  -6    1.67    1.52
  -4   0   6    1.74    1.77
  -4   0   6    5.30    2.08
  -4   0   6    2.96    1.57
  -4   0   6    0.63    1.30
   4   0  -6    6.88    2.86
   4   0  -6    5.06    2.96
   3   0  -6    2.06    1.26
  -3   0   6    4.79    1.52
  -3   0   6    1.66    1.22
   3   0  -6    4.52    1.52
  -3   0   6    4.87    2.08
  -3   0   6    4.45    2.23
   3   0  -6    7.40    2.86
   3   0  -6    3.90    2.65
  -2   0   6  715.61   25.92
  -2   0   6  691.04   24.63
   2   0  -6  725.26   26.83
   2   0  -6  685.69   27.04
  -2   0   6  712.52   22.60
   2   0  -6  706.74   20.56
   2   0  -6  698.59   25.29
  -1   0   6 1255.00   34.26
   1   0  -6 1259.82   38.17
   1   0  -6 1257.16   37.76
  -1   0   6 1206.44   35.09
  -1   0   6 1240.16   29.72
  -1   0   6 1298.31   31.74
   1   0  -6 1251.78   28.80
   0   0   6  789.47   25.09
   0   0   6  775.70   26.76
   0   0  -6  803.91   29.54
   0   0  -6  818.65   28.72
   0   0   6  826.26   20.56
   0   0   6  823.54   22.74
   0   0  -6  780.42   19.88
   1   0   6  903.97   29.54
  -1   0  -6  929.83   32.61
  -1   0  -6  927.94   30.71
   1   0   6  919.25   23.13
   1   0   6  893.24   20.21
  -1   0  -6  890.52   20.22
   2   0   6    0.36    1.90
  -2   0  -6    1.80    1.55
   2   0   6    0.29    0.68
   3   0   6    5.15    2.55
  -3   0  -6    3.10    2.75
  -3   0  -6    2.47    2.04
   3   0   6    4.48    1.80
  -4   0  -6   96.89   10.51
   4   0   6   94.01    9.54
   4   0   6  108.26    7.46
  -4   0  -6  102.77    9.46
  -5   0  -6  505.88   25.24
   5   0   6  541.47   24.19
   5   0   6  505.93   16.84
   6   0   6   44.54    7.25
  -6   0  -6   35.95    6.49
  -7   0  -6 1069.98   40.29
   7   0   6 1152.60   39.91
  -8   0  -6   93.93   11.40
   8   0   6   97.76   11.26
   9   0   6   52.98    8.87
  -9   0  -6   40.93    7.93
  -9   0  -6   52.84    8.13
  10   0   6    7.69    4.53
 -10   0  -6    5.10    3.98
 -10   0  -6   12.87    4.55
 -11   0  -6   99.53   12.58
  11   0   6   89.88   11.99
 -11   0  -6   96.62   10.99
 -11  -1   6   39.23    6.94
 -11   1   6   41.72    7.59
 -11  -1   6   43.56    6.37
  11   1  -6   39.77    8.33
  11  -1  -6   46.16    9.58
 -10  -1   6    6.63    3.34
 -10   1   6    0.03    2.52
 -10  -1   6   -1.04    1.65
 -10   1   6   -1.99    1.85
  10   1  -6   -3.17    4.03
  10  -1  -6    2.68    3.04
   9   1  -6  580.05   24.49
  -9  -1   6  597.63   24.28
  -9   1   6  595.37   21.96
   9   1  -6  642.28   31.72
   9  -1  -6  608.63   31.44
  -9  -1   6  626.20   27.20
  -9   1   6  615.03   26.69
  -8  -1   6   17.42    4.35
  -8   1   6   12.90    4.14
   8   1  -6   34.87    5.64
   8  -1  -6   25.90    5.59
  -8  -1   6   22.79    4.52
  -8   1   6   21.96    4.28
   8   1  -6   25.54    6.57
   8  -1  -6   22.89    5.87
   8   1  -6   17.88    3.83
   8  -1  -6   19.28    4.97
   7  -1  -6  521.92   23.01
  -7  -1   6  538.70   18.70
  -7   1   6  537.95   19.88
  -7  -1   6  558.20   22.88
  -7   1   6  528.42   20.39
   7  -1  -6  592.45   24.55
   7   1  -6  548.43   27.26
   7  -1  -6  563.56   27.83
   7   1  -6  507.08   22.59
   7  -1  -6  495.68   24.10
  -7  -1   6  565.15   23.79
  -7   1   6  557.16   23.38
   6  -1  -6   62.12    7.53
  -6  -1   6   62.77    6.17
  -6   1   6   62.19    6.58
  -6  -1   6   68.31    7.70
  -6   1   6   66.95    6.75
   6  -1  -6   67.30    8.08
   6   1  -6   60.61    8.35
   6  -1  -6   72.45    9.41
   6   1  -6   60.71    7.45
   6  -1  -6   61.61    7.97
  -6  -1   6   69.63    7.81
  -6   1   6   62.90    7.19
   6  -1  -6   63.21    6.48
  -5  -1   6    8.19    3.11
   5  -1  -6    4.70    1.56
  -5   1   6    4.54    2.24
   5  -1  -6    7.22    2.84
  -5  -1   6    6.33    2.62
  -5   1   6    5.95    2.30
  -5  -1   6    5.13    2.24
  -5   1   6    8.34    2.97
   5   1  -6    3.30    2.11
   5  -1  -6    7.21    2.67
   5   1  -6    7.46    3.64
   5  -1  -6    0.57    2.43
   5  -1  -6    5.55    2.50
  -4  -1   6   50.27    5.90
   4  -1  -6   58.88    6.33
  -4  -1   6   54.09    6.35
  -4   1   6   55.36    6.44
  -4   1   6   61.50    6.54
   4   1  -6   57.64    6.75
  -4  -1   6   58.56    6.82
  -4  -1   6   52.28    5.89
   4  -1  -6   55.80    7.08
   4   1  -6   49.96    7.38
   4  -1  -6   70.39    8.84
  -4   1   6   57.44    6.16
   4  -1  -6   59.91    7.72
  -4   1   6   59.24    6.31
   4  -1  -6   53.63    6.12
   3  -1  -6  188.39   10.76
  -3  -1   6  190.12   12.04
  -3   1   6  182.08   12.26
  -3  -1   6  188.58   12.38
  -3   1   6  191.42   11.68
   3   1  -6  192.73   12.59
   3  -1  -6  174.62   12.69
   3   1  -6  186.16   13.50
   3  -1  -6  188.12   13.91
  -3  -1   6  185.81   10.58
  -3   1   6  183.02   10.58
  -3  -1   6  191.43   11.37
  -3   1   6  182.22   10.81
   3   1  -6  179.52   10.20
   3  -1  -6  182.20   11.79
  -2   1   6  365.91   17.33
   2  -1  -6  349.50   14.12
  -2  -1   6  353.35   17.38
  -2  -1   6  364.04   17.23
  -2   1   6  344.83   16.27
   2   1  -6  357.90   17.89
   2  -1  -6  341.30   18.08
   2   1  -6  376.85   18.67
   2  -1  -6  336.53   18.54
  -2  -1   6  335.58   15.11
  -2   1   6  344.81   14.49
   2   1  -6  349.59   13.89
   2  -1  -6  337.62   16.55
   1  -1  -6  776.01   21.18
  -1   1   6  787.11   25.92
  -1  -1   6  754.58   26.58
  -1   1   6  739.12   25.38
   1   1  -6  751.97   28.06
   1  -1  -6  752.98   28.23
   1   1  -6  776.40   27.56
   1  -1  -6  760.28   28.73
  -1  -1   6  770.85   21.16
  -1   1   6  741.37   21.29
  -1  -1   6  774.06   23.46
  -1   1   6  754.30   22.04
   1   1  -6  751.16   20.99
   0   1   6  528.88   20.05
   0  -1   6  486.42   20.65
   0   1  -6  530.34   23.34
   0   1   6  472.39   20.12
   0  -1  -6  519.82   23.03
   0   1  -6  515.69   21.27
   0  -1  -6  482.47   22.24
   0  -1   6  507.69   14.97
   0  -1   6  515.38   17.49
   0   1   6  491.63   16.25
   0   1   6  500.20   15.22
   0   1  -6  486.94   15.14
   1   1   6   31.62    3.14
   1  -1   6   44.96    6.09
   1   1   6   23.77    4.73
  -1   1  -6   36.17    6.03
  -1  -1  -6   29.46    5.64
  -1   1  -6   32.03    5.05
  -1  -1  -6   30.89    5.57
   1   1   6   32.70    3.35
   1  -1   6   23.07    3.61
   1  -1   6   30.50    2.75
   1   1   6   26.62    4.06
  -1   1  -6   32.53    3.17
   1  -1   6   27.03    3.50
   2  -1   6   34.10    4.34
   2  -1   6   31.64    5.52
   2   1   6   27.64    4.99
  -2   1  -6   30.70    5.91
  -2  -1  -6   37.13    6.20
  -2   1  -6   43.64    5.88
  -2  -1  -6   30.00    5.20
   2  -1   6   35.14    3.61
   2   1   6   34.42    2.86
  -2   1  -6   34.15    2.93
  -3   1  -6    0.99    0.53
   3  -1   6    5.36    2.84
   3   1   6    1.66    2.49
  -3   1  -6   -2.35    2.02
  -3  -1  -6   -0.40    2.23
  -3   1  -6    0.63    1.40
  -3  -1  -6    3.20    1.75
   3  -1   6    1.17    0.96
  -4   1  -6  158.85   13.61
  -4  -1  -6  189.96   14.63
   4  -1   6  174.43   12.90
   4   1   6  191.84   13.61
   4  -1   6  157.58    8.26
  -4   1  -6  166.18   11.23
  -5   1  -6   90.83   10.76
   5  -1   6  111.93   10.55
   5   1   6  103.56   10.48
  -5  -1  -6   76.09    9.55
   5  -1   6   97.26    5.75
  -5   1  -6  100.59    8.89
  -6   1  -6  840.63   34.72
  -6  -1  -6  854.86   34.46
   6  -1   6  878.11   32.81
   6   1   6  864.92   32.98
  -6   1  -6  866.91   28.85
   7  -1   6   -0.46    2.35
   7   1   6    4.38    3.84
  -7   1  -6    5.79    3.15
  -7  -1  -6    0.57    2.36
  -8   1  -6  202.56   16.90
  -8  -1  -6  210.25   16.84
   8  -1   6  188.83   15.50
   8   1   6  185.16   15.61
  -8   1  -6  213.41   15.80
   9  -1   6   26.12    6.10
   9   1   6   25.35    6.41
  -9   1  -6   28.74    6.63
  -9  -1  -6   34.42    7.32
  -9   1  -6   31.98    6.53
  10  -1   6   27.17    6.63
  10   1   6   20.73    5.77
 -10   1  -6   21.70    5.99
 -10  -1  -6   17.01    5.68
 -10   1  -6   21.32    5.03
 -10  -1  -6   28.06    5.93
  11  -1   6    8.21    4.75
  11   1   6    2.06    3.58
 -11   1  -6    2.16    3.27
 -11  -1  -6    5.03    2.96
 -11   1  -6    0.49    2.42
 -11  -1  -6    2.38    2.66
  12  -1   6  159.50   17.24
 -12  -1  -6  174.25   14.96
 -11  -2   6   19.09    5.55
 -11   2   6   16.26    4.65
 -11  -2   6   23.74    5.92
 -11  -2   6   22.99    4.93
  11   2  -6   17.35    5.42
  11  -2  -6   27.17    7.84
  10  -2  -6  251.37   17.60
 -10  -2   6  196.41   14.10
 -10   2   6  226.14   12.14
  10   2  -6  222.56   19.07
  10  -2  -6  248.29   20.08
 -10  -2   6  231.55   16.91
 -10   2   6  231.37   16.62
  -9  -2   6   -2.09    3.09
  -9   2   6   -3.56    2.25
   9   2  -6   -1.17    1.81
   9  -2  -6   -0.38    1.94
  -9  -2   6    0.99    1.83
  -9   2   6   -0.47    1.33
   9   2  -6   -1.80    2.47
   9  -2  -6    7.22    4.60
   8   2  -6   92.85    9.56
   8  -2  -6  108.44   10.69
  -8  -2   6   92.12    9.31
  -8   2   6   97.47    7.90
   8   2  -6   96.72    7.86
   8  -2  -6   89.00    9.71
   8   2  -6   96.31   11.67
   8  -2  -6  101.06   12.19
  -8  -2   6  109.75   10.63
  -8   2   6   96.79    9.79
  -7  -2   6   10.58    3.86
  -7   2   6    1.22    2.06
  -7  -2   6    9.29    3.35
   7  -2  -6    4.02    2.83
  -7   2   6    3.12    1.53
  -7   2   6    5.04    2.07
   7   2  -6    5.54    3.26
   7  -2  -6    1.71    2.34
   7  -2  -6    6.87    2.73
   7  -2  -6    2.56    1.97
  -6  -2   6   10.00    3.47
  -6   2   6   12.18    3.09
  -6  -2   6    9.23    3.73
   6  -2  -6   11.49    3.47
  -6   2   6   10.05    2.59
  -6   2   6    8.93    2.70
   6   2  -6   13.35    4.31
   6  -2  -6   15.47    5.07
   6  -2  -6    0.86    2.74
  -5  -2   6   -1.87    1.65
   5  -2  -6   -1.96    1.27
  -5   2   6    1.34    1.84
  -5  -2   6    4.61    2.77
  -5   2   6    1.29    1.85
   5  -2  -6   -0.84    1.41
  -5   2   6    0.99    1.26
   5   2  -6    2.96    2.10
   5  -2  -6    1.25    2.22
   5   2  -6   -0.45    2.11
   5  -2  -6    1.30    3.04
  -4  -2   6  160.05   10.75
  -4   2   6  155.30   11.29
   4  -2  -6  170.13   10.84
  -4  -2   6  169.97   12.18
  -4   2   6  154.49   10.22
   4   2  -6  166.86   11.47
   4  -2  -6  164.33   12.70
  -4  -2   6  164.10   10.59
   4   2  -6  157.21   12.45
   4  -2  -6  151.62   13.07
  -4   2   6  165.02   10.65
  -4  -2   6  150.85   10.78
  -4   2   6  153.25   10.36
   4  -2  -6  142.15    9.96
  -3  -2   6  187.01   12.00
   3  -2  -6  194.12   11.05
  -3  -2   6  169.72   12.06
  -3   2   6  186.81   11.28
   3   2  -6  177.43   12.27
   3  -2  -6  195.18   13.81
  -3  -2   6  184.66   10.66
   3   2  -6  187.09   13.06
   3  -2  -6  190.45   14.26
  -3   2   6  180.34   10.71
  -3  -2   6  175.84   11.31
  -3   2   6  189.87   10.87
   3   2  -6  182.41   10.58
   3  -2  -6  199.42   12.01
  -2  -2   6  376.80   17.91
   2  -2  -6  372.57   14.86
  -2  -2   6  342.36   17.40
  -2   2   6  347.23   16.16
   2  -2  -6  354.28   18.93
   2   2  -6  366.87   18.28
   2   2  -6  391.76   18.66
   2  -2  -6  370.70   20.12
  -2  -2   6  353.91   15.94
  -2   2   6  375.99   14.99
  -2   2   6  357.55   14.70
   2   2  -6  362.47   14.84
   2  -2  -6  366.84   17.10
  -1   2   6   81.82    7.88
   1  -2  -6   71.23    5.76
  -1  -2   6   64.24    7.28
  -1   2   6   67.27    7.08
   1  -2  -6   76.36    8.59
  -1  -2   6   67.90    5.48
   1   2  -6   64.48    7.65
   1   2  -6   74.55    7.76
   1  -2  -6   73.01    8.50
  -1  -2   6   70.44    6.59
  -1   2   6   69.96    5.68
   1   2  -6   73.63    5.90
   0  -2   6   34.87    4.48
   0   2   6   28.10    3.37
   0   2  -6   23.77    3.11
   0   2   6   28.70    3.35
   0  -2  -6   33.21    3.58
   0  -2   6   27.68    4.81
   0   2   6   27.21    4.72
   0   2  -6   23.25    4.81
   0  -2   6   29.90    3.19
   0  -2  -6   36.14    6.19
   0   2  -6   33.98    4.96
   0  -2  -6   32.08    5.72
   0   2   6   35.14    5.06
   1   2   6   13.08    2.10
   1   2   6   11.15    2.10
  -1   2  -6    7.36    1.49
   1  -2   6    5.79    1.31
  -1  -2  -6    8.78    1.69
   1  -2   6   13.63    3.66
   1   2   6    5.92    2.24
  -1   2  -6    6.27    3.20
  -1  -2  -6   11.60    3.97
  -1   2  -6    6.27    1.91
  -1  -2  -6    7.49    2.74
   1  -2   6   10.20    2.42
   1   2   6    7.44    2.06
   1  -2   6   10.69    2.35
  -2   2  -6   -0.70    0.77
   2  -2   6    0.03    1.84
   2   2   6    0.04    1.64
  -2   2  -6    2.53    3.03
  -2  -2  -6    4.03    3.08
  -2   2  -6   -1.45    1.64
  -2  -2  -6   -2.15    3.12
   2  -2   6    0.77    0.95
   2   2   6    2.46    2.02
   2   2   6    0.77    0.50
  -3   2  -6  213.70   15.74
   3  -2   6  211.74   13.99
   3   2   6  228.03   14.53
  -3  -2  -6  212.76   15.29
   3   2   6  201.73   12.66
   3  -2   6  198.50    9.25
  -3   2  -6  204.57   11.85
  -3   2  -6  214.56    7.91
   4  -2   6    2.01    0.96
  -4   2  -6    0.39    0.59
   4  -2   6    6.25    2.65
   4   2   6    0.23    1.85
  -4   2  -6    3.55    1.98
  -4  -2  -6    1.30    2.09
  -4   2  -6    0.95    1.87
   4   2   6   -1.18    2.01
  -5   2  -6  394.85   22.66
   5  -2   6  405.07   20.59
  -5  -2  -6  398.52   22.02
   5   2   6  383.86   20.48
   5   2   6  373.07   16.92
  -5   2  -6  394.05   16.71
   5  -2   6  383.43    8.98
   6  -2   6   64.69    8.51
   6   2   6   52.80    7.95
  -6   2  -6   45.91    7.86
   6   2   6   52.86    6.02
  -6  -2  -6   53.41    8.05
  -6   2  -6   61.33    6.21
   7  -2   6   17.79    4.70
   7   2   6   20.20    5.65
  -7   2  -6   20.32    5.82
  -7  -2  -6   17.42    4.77
  -7   2  -6   15.71    3.43
  -7  -2  -6   19.20    4.02
  -7   2  -6   22.83    5.30
   8  -2   6   27.55    5.88
   8   2   6   33.89    6.91
  -8   2  -6   33.55    7.26
  -8  -2  -6   29.26    6.77
  -8   2  -6   38.24    6.85
   9  -2   6    6.02    3.22
   9   2   6    1.52    2.69
  -9   2  -6    4.65    2.60
  -9  -2  -6    5.01    3.13
  -9   2  -6   11.94    4.63
  10  -2   6   65.69    9.67
  10   2   6   68.16   10.45
 -10   2  -6   69.27   10.56
 -10  -2  -6   62.55    9.76
 -10   2  -6   63.61    9.27
  11  -2   6   67.01   10.67
  11   2   6   52.41   10.01
 -11   2  -6   85.24   12.12
 -11  -2  -6   54.56    9.42
 -11   2  -6   48.67    8.12
 -11  -2  -6   59.52    8.70
  12  -2   6   22.05    6.30
 -12  -2  -6   32.50    6.30
 -12  -3   6   -3.01    3.02
 -11  -3   6    3.35    3.28
 -11   3   6    6.97    3.24
 -11  -3   6   10.35    4.49
  11  -3  -6    3.16    2.35
 -11  -3   6    8.23    3.72
  11   3  -6    8.42    5.03
  11  -3  -6    5.75    3.27
 -10  -3   6    3.31    3.07
 -10   3   6    6.11    2.94
  10   3  -6    1.93    2.07
 -10  -3   6    9.52    3.60
  10  -3  -6    5.30    3.53
 -10  -3   6    6.71    3.30
  10   3  -6    1.91    2.62
  10  -3  -6    4.95    3.86
  -9  -3   6    2.16    2.22
  -9   3   6    6.35    3.20
   9   3  -6    2.50    2.41
  -9  -3   6    8.18    3.40
  -9  -3   6   11.19    3.86
   9  -3  -6    4.14    2.59
  -9   3   6    7.59    2.16
   9   3  -6    4.85    3.89
   9  -3  -6   10.91    4.59
  -8  -3   6    4.29    2.20
  -8   3   6    3.31    2.43
   8   3  -6    9.20    4.03
  -8  -3   6   10.40    3.73
  -8   3   6    4.72    1.75
   8  -3  -6    9.54    3.20
   8   3  -6    5.20    3.56
   8   3  -6    8.49    2.41
   8  -3  -6    7.51    3.60
  -7  -3   6   54.20    7.53
  -7   3   6   43.54    6.10
  -7   3   6   55.39    6.67
  -7   3   6   51.56    5.60
   7   3  -6   53.67    5.92
  -7  -3   6   50.72    7.29
   7  -3  -6   57.11    7.62
   7   3  -6   49.12    7.75
   7  -3  -6   55.07    8.77
   7  -3  -6   52.84    7.76
  -6  -3   6   10.75    3.70
  -6   3   6    9.44    3.18
  -6  -3   6   10.82    3.73
  -6   3   6    5.04    2.09
   6  -3  -6   11.18    3.63
  -6   3   6    5.12    2.33
   6   3  -6   11.96    4.37
   6  -3  -6    8.93    3.65
   6  -3  -6   12.66    4.32
  -5  -3   6    1.34    2.11
   5  -3  -6    0.73    1.10
  -5   3   6    4.19    2.29
  -5  -3   6    5.30    3.60
  -5   3   6    3.61    2.24
   5  -3  -6   -1.00    1.90
   5   3  -6   -0.16    1.38
   5   3  -6   -0.25    2.62
   5  -3  -6    0.91    1.68
   5  -3  -6    3.36    3.03
  -4  -3   6    0.65    1.40
   4  -3  -6    0.48    1.59
  -4   3   6    1.47    1.64
  -4  -3   6    5.27    2.98
  -4   3   6    2.12    1.53
   4  -3  -6    1.31    1.84
   4   3  -6    2.64    2.18
   4  -3  -6   -4.70    3.16
   4   3  -6   -2.49    2.58
   4  -3  -6    3.44    2.60
  -3  -3   6   45.06    5.71
  -3  -3   6   50.59    6.78
  -3  -3   6   46.72    5.45
  -3   3   6   43.40    5.44
   3   3  -6   39.31    5.75
   3  -3  -6   45.54    5.36
   3  -3  -6   39.99    6.35
   3   3  -6   52.95    6.79
   3  -3  -6   46.00    7.22
  -3   3   6   42.84    5.34
  -3   3   6   45.52    5.32
   3  -3  -6   44.52    5.65
  -2  -3   6   22.71    4.20
   2  -3  -6   22.52    4.02
  -2   3   6   19.98    3.25
   2   3  -6   22.69    3.69
  -2  -3   6   21.17    4.59
  -2   3   6   18.64    3.74
   2   3  -6   22.60    4.50
   2  -3  -6   27.05    3.93
   2  -3  -6   18.06    4.24
   2   3  -6   20.32    4.35
   2  -3  -6   27.93    6.06
  -2  -3   6   21.14    4.66
  -2  -3   6   19.78    3.41
  -2   3   6   25.64    3.93
  -1  -3   6   25.60    4.35
  -1   3   6   22.83    3.20
   1   3  -6   23.87    3.66
  -1  -3   6   19.66    4.24
  -1   3   6   29.14    4.70
   1   3  -6   27.62    5.22
   1  -3  -6   25.09    4.87
   1  -3  -6   24.15    3.47
   1   3  -6   23.29    4.20
   1  -3  -6   26.08    5.40
   0   3   6   79.44    6.03
   0   3  -6   83.25    8.97
   0   3   6   63.48    7.14
   0   3   6   73.48    7.50
   0  -3  -6   64.78    5.30
   0  -3   6   56.95    7.03
   0  -3   6   68.02    5.08
   0   3  -6   70.58    6.98
   0  -3  -6   63.91    8.13
   0  -3  -6   51.81    7.65
   0  -3   6   74.30    6.87
   0   3   6   62.27    5.00
   0   3  -6   67.06    5.76
   1   3   6    2.74    1.19
  -1   3  -6    4.86    1.88
   1  -3   6    2.32    2.31
   1   3   6    3.10    2.39
  -1   3  -6    0.31    2.34
  -1  -3  -6    2.06    1.15
  -1  -3  -6    5.34    2.91
  -1   3  -6    1.78    1.67
  -1  -3  -6   -1.22    2.82
   1  -3   6    0.98    1.19
   1   3   6   -0.30    1.58
   1  -3   6    2.85    1.07
   1   3   6    1.08    0.84
   1  -3   6    1.37    1.28
   2   3   6    0.96    0.61
   2  -3   6    1.30    0.59
  -2   3  -6    1.66    1.34
   2  -3   6    3.24    3.07
   2   3   6    0.12    1.72
  -2  -3  -6    1.07    0.66
  -2   3  -6   -3.54    3.28
  -2  -3  -6    1.07    1.71
  -2   3  -6    2.01    1.49
  -2  -3  -6   -4.22    3.75
   2  -3   6    0.32    0.84
   2   3   6    0.74    1.69
  -3   3  -6    0.68    0.97
  -3  -3  -6    0.73    0.49
   3  -3   6   -1.46    2.05
   3   3   6    1.61    2.60
  -3   3  -6   -1.18    3.11
  -3  -3  -6   -0.48    2.89
  -3   3  -6   -0.95    1.54
   3   3   6   -1.44    1.83
   3  -3   6    1.23    0.77
   4  -3   6   70.41    8.33
   4   3   6   67.01    8.15
   4   3   6   61.48    7.25
  -4   3  -6   67.42    9.28
  -4   3  -6   65.36    6.10
  -4  -3  -6   51.92    8.02
  -4   3  -6   61.91    4.41
   5  -3   6   20.67    4.56
   5   3   6   20.47    5.11
  -5   3  -6   16.95    5.28
  -5  -3  -6   19.59    5.04
  -5   3  -6   16.42    3.12
  -5   3  -6   25.03    5.17
   5   3   6   15.22    3.56
   6   3   6   13.19    3.24
   6  -3   6   13.44    4.18
   6   3   6   12.37    4.58
  -6   3  -6   11.59    4.68
  -6  -3  -6   13.04    4.43
  -6   3  -6   15.57    3.02
  -6  -3  -6   15.13    3.91
  -6   3  -6   17.23    4.68
   7  -3   6   22.43    5.52
   7   3   6   17.25    5.26
  -7   3  -6    6.15    2.76
  -7  -3  -6   17.83    5.01
  -7  -3  -6    8.98    3.61
  -7   3  -6   13.91    4.71
   8  -3   6    9.74    3.36
   8   3   6   20.61    5.77
  -8   3  -6   17.72    5.75
  -8  -3  -6   11.18    4.73
  -8  -3  -6   16.29    4.49
  -8   3  -6   12.71    4.54
   9  -3   6    5.27    3.97
   9   3   6    0.65    2.48
  -9   3  -6    1.83    2.52
  -9  -3  -6   -2.00    3.05
  -9   3  -6    1.45    2.43
  10  -3   6    5.21    3.94
  10   3   6   -1.44    3.69
 -10   3  -6    0.04    3.49
 -10  -3  -6   -0.17    3.87
 -10   3  -6   -1.83    3.25
  11  -3   6   19.15    5.78
 -11  -3  -6    5.03    3.50
 -11   3  -6   19.12    5.32
 -12  -4   6   14.59    4.50
 -11  -4   6    2.92    2.70
 -11   4   6    1.51    2.28
 -11  -4   6    1.75    2.69
 -11  -4   6    0.32    2.32
  11  -4  -6    8.99    4.72
  11   4  -6   -1.23    4.81
  11  -4  -6   -2.85    3.40
  10   4  -6  162.65   14.86
 -10  -4   6  129.74   12.87
  10  -4  -6  155.07   14.22
  10   4  -6  186.31   17.45
  10  -4  -6  166.16   17.06
 -10  -4   6  168.17   14.03
 -10  -4   6  157.45   14.23
 -10   4   6  175.77   14.76
  -9  -4   6    0.06    2.81
  -9   4   6    3.94    3.39
  -9  -4   6    4.68    3.08
   9   4  -6    0.47    2.57
  -9  -4   6    1.94    2.96
   9  -4  -6    3.48    2.63
   9   4  -6    7.13    4.58
   9  -4  -6    2.19    2.90
   8   4  -6  106.69   11.18
  -8  -4   6  107.01   10.99
   8  -4  -6  105.15   10.83
  -8   4   6  114.35    7.86
   8   4  -6  129.68   13.22
   8  -4  -6  118.18   13.42
  -8  -4   6  119.88   10.67
   8   4  -6  105.63    6.66
  -8  -4   6  113.08   11.34
  -8   4   6  108.20   10.60
  -7  -4   6   10.23    3.16
  -7   4   6    3.02    2.66
  -7  -4   6    9.39    3.26
   7   4  -6   14.03    4.64
  -7  -4   6    6.22    2.81
  -7   4   6    7.85    2.28
   7  -4  -6    6.55    3.28
   7   4  -6    5.30    1.99
   7   4  -6   11.68    5.16
   7  -4  -6   16.83    5.83
   7  -4  -6   -1.34    3.23
   7   4  -6    9.23    2.33
  -6  -4   6    5.37    3.15
  -6   4   6    4.29    2.36
  -6  -4   6    6.11    2.82
  -6   4   6    6.04    2.12
   6  -4  -6    5.52    2.71
   6   4  -6    5.32    2.48
   6  -4  -6    6.96    3.80
   6  -4  -6    2.67    2.51
   6   4  -6    6.08    2.26
  -5  -4   6   36.05    5.70
  -5   4   6   27.92    4.79
   5  -4  -6   27.10    4.56
  -5  -4   6   30.00    6.05
  -5   4   6   25.41    3.93
   5   4  -6   27.90    4.58
   5  -4  -6   29.23    5.11
   5   4  -6   31.33    5.87
   5  -4  -6   40.89    7.47
   5  -4  -6   24.62    5.69
   4  -4  -6   95.99    8.41
  -4  -4   6  105.23   10.46
   4   4  -6  109.24    9.30
  -4   4   6  105.45    8.21
   4  -4  -6  114.13    9.40
   4  -4  -6   98.24   10.60
   4   4  -6  113.74   10.36
   4  -4  -6  105.19   11.17
  -4  -4   6  110.11    9.64
  -4   4   6  100.85    8.56
   4  -4  -6  122.11    8.98
  -3  -4   6  159.51   12.90
   3   4  -6  177.14   12.43
  -3   4   6  154.56   10.32
  -3  -4   6  156.09   10.25
   3  -4  -6  148.98   12.96
   3  -4  -6  168.77   10.93
   3   4  -6  179.04   12.57
   3  -4  -6  164.70   14.05
  -3  -4   6  169.11   11.75
  -3   4   6  150.44   10.23
  -3   4   6  166.58   10.36
   3  -4  -6  173.03   11.19
  -2  -4   6  350.17   18.89
   2   4  -6  358.82   18.72
  -2   4   6  323.81   15.57
  -2  -4   6  338.51   14.75
   2  -4  -6  352.44   15.48
   2   4  -6  373.81   17.88
   2  -4  -6  339.64   20.29
  -2  -4   6  350.69   19.44
  -2  -4   6  341.83   16.69
  -2   4   6  337.51   14.42
   2  -4  -6  341.11   19.71
  -2   4   6  322.39   14.82
   2  -4  -6  374.30   17.38
  -1   4   6   89.02    7.10
   1   4  -6   77.21    8.79
  -1  -4   6   77.50    8.57
  -1   4   6   85.95    7.93
   1  -4  -6   76.88    9.06
   1  -4  -6   87.75    6.95
   1   4  -6  100.04    8.62
   1  -4  -6   76.58    9.50
  -1  -4   6   81.91    7.75
   1   4  -6   93.34    7.60
  -1   4   6   86.36    6.46
   0  -4   6   71.25    8.27
   0   4   6   64.69    7.07
   0  -4  -6   76.96    9.17
   0  -4  -6   72.86    5.96
   0   4  -6   64.77    8.24
   0   4  -6   69.03    6.91
   0  -4   6   71.72    5.51
   0  -4  -6   66.23    8.85
   0  -4   6   72.78    7.11
   0   4   6   70.24    5.38
   0   4  -6   67.79    6.31
   1   4   6    4.77    1.34
  -1   4  -6    5.54    1.85
   1  -4   6    8.23    2.98
   1   4   6    7.66    3.27
  -1   4  -6    3.83    2.59
  -1  -4  -6   10.14    4.01
  -1   4  -6    3.97    2.02
  -1  -4  -6   -0.59    1.97
   1  -4   6    1.71    0.75
   1  -4   6    5.14    1.77
  -1  -4  -6    5.94    1.71
   1  -4   6    4.33    1.81
   1   4   6    4.48    1.59
   2   4   6    9.83    1.34
  -2   4  -6    7.88    2.03
   2  -4   6   11.24    1.59
   2  -4   6   10.37    3.28
   2   4   6   10.40    3.47
  -2   4  -6   13.91    4.76
  -2  -4  -6   11.77    3.76
  -2   4  -6    8.72    2.26
  -2  -4  -6    8.94    2.07
   2  -4   6   11.48    1.69
   2  -4   6    9.15    1.63
   2  -4   6    9.24    1.72
   2   4   6    4.51    2.16
  -3   4  -6  150.60   13.67
   3  -4   6  159.72   12.19
   3   4   6  155.96   12.34
  -3  -4  -6  152.00   13.41
  -3  -4  -6  153.57    6.63
   3   4   6  168.31   12.47
  -3   4  -6  161.37    9.31
  -3   4  -6  177.62   12.78
  -3   4  -6  143.09    8.44
  -4   4  -6    1.26    0.93
   4  -4   6    0.60    2.18
   4   4   6    2.43    2.68
  -4   4  -6    1.11    2.23
  -4  -4  -6    1.21    3.14
  -4  -4  -6    2.98    0.80
  -4   4  -6    2.27    1.27
  -4   4  -6    1.16    2.45
   4   4   6    3.65    2.32
  -5  -4  -6  331.11   18.61
  -5   4  -6  346.51   22.03
   5  -4   6  350.01   19.27
   5   4   6  336.44   19.86
  -5  -4  -6  342.45   20.96
  -5   4  -6  358.70   13.26
  -5   4  -6  355.71   19.40
   6  -4   6   43.90    7.05
   6   4   6   38.15    7.17
  -6   4  -6   41.23    8.44
  -6  -4  -6   35.88    6.69
  -6  -4  -6   41.08    6.75
  -6   4  -6   46.14    7.31
   7  -4   6   61.32    8.62
   7   4   6   65.68    9.86
  -7   4  -6   55.47    9.21
  -7  -4  -6   64.98    9.25
  -7  -4  -6   62.94    8.43
  -7   4  -6   56.42    8.38
   8  -4   6    7.99    3.31
   8   4   6   10.20    4.25
  -8   4  -6    5.23    3.40
  -8  -4  -6    3.67    3.12
  -8  -4  -6    7.47    3.39
  -8   4  -6   15.52    4.64
   9  -4   6    6.09    4.01
   9   4   6   -2.29    3.43
  -9   4  -6    1.83    2.73
  -9  -4  -6   -1.12    2.95
  -9   4  -6    5.01    3.49
  10  -4   6   43.51    8.09
  10   4   6   43.03    9.34
 -10   4  -6   34.49    7.86
 -10  -4  -6   29.43    7.06
 -10   4  -6   34.58    7.21
  11  -4   6   50.16    9.24
 -11  -4  -6   26.24    6.84
 -12  -5   6    6.51    3.45
 -11  -5   6  116.40   13.09
  11  -5  -6  130.72   13.88
  11   5  -6  146.70   16.13
  11  -5  -6  137.91   16.06
 -11  -5   6  139.54   13.30
 -11  -5   6  133.34   13.92
 -11   5   6  137.38   13.85
 -10  -5   6    6.03    3.31
 -10   5   6    7.66    4.05
 -10  -5   6    6.39    3.71
  10   5  -6    1.96    3.61
 -10  -5   6    4.73    3.06
  10  -5  -6    3.00    3.11
  10   5  -6    7.47    4.53
  10  -5  -6    5.24    4.73
   9   5  -6  659.27   32.05
  -9  -5   6  675.16   31.63
   9  -5  -6  752.97   32.40
   9   5  -6  745.77   34.74
   9  -5  -6  794.08   37.28
  -9  -5   6  748.95   29.86
  -9  -5   6  762.74   32.32
  -9   5   6  772.71   31.46
  -8  -5   6   46.08    7.27
  -8   5   6   40.03    7.14
  -8  -5   6   53.45    7.60
   8   5  -6   47.98    7.86
  -8   5   6   40.95    4.69
  -8  -5   6   54.40    8.54
   8  -5  -6   51.52    7.82
   8   5  -6   40.52    7.56
   8  -5  -6   47.41    8.95
   7   5  -6  140.68   12.79
  -7  -5   6  127.20   12.58
  -7   5   6  142.06    8.91
   7   5  -6  151.98    9.54
   7  -5  -6  150.14   12.75
   7  -5  -6  131.78   13.64
   7   5  -6  141.28   13.45
   7  -5  -6  155.07   15.18
  -7  -5   6  146.27   11.50
  -7  -5   6  122.09   11.95
   7   5  -6  138.38    8.32
  -7   5   6  127.13   11.25
  -6  -5   6    0.18    2.51
   6  -5  -6    0.48    0.59
  -6   5   6    0.22    2.47
  -6  -5   6    0.01    1.41
  -6  -5   6    1.98    2.48
  -6   5   6    5.09    2.26
   6   5  -6    5.50    3.74
   6  -5  -6    2.27    2.68
   6  -5  -6   -1.85    2.96
   6  -5  -6    0.36    3.73
   6   5  -6    0.23    1.33
  -5  -5   6   67.72    8.10
   5  -5  -6   60.91    6.46
   5   5  -6   57.52    6.58
  -5   5   6   53.96    5.84
  -5  -5   6   71.84    9.36
   5  -5  -6   65.42    7.86
   5   5  -6   68.64    8.38
   5  -5  -6   73.43    9.84
   5  -5  -6   50.91    8.37
  -5  -5   6   63.55    6.85
   5   5  -6   72.23    6.43
  -5   5   6   62.57    7.06
  -4  -5   6   65.24    7.61
   4  -5  -6   61.30    6.68
   4   5  -6   71.24    7.75
  -4   5   6   67.00    6.47
  -4  -5   6   68.60    8.74
   4  -5  -6   69.45    7.68
   4   5  -6   76.58    8.54
   4  -5  -6   65.73    9.44
   4  -5  -6   64.85    9.12
  -4  -5   6   70.64    6.77
   4   5  -6   60.89    6.36
  -4   5   6   67.25    6.99
   4  -5  -6   59.96    6.43
  -3  -5   6  571.53   25.83
   3   5  -6  548.87   23.52
  -3   5   6  524.14   20.20
  -3  -5   6  548.35   21.11
   3  -5  -6  556.58   27.06
   3  -5  -6  549.78   21.77
   3   5  -6  559.12   23.22
   3  -5  -6  529.49   26.87
  -3  -5   6  544.18   19.26
  -3  -5   6  528.56   22.67
   3   5  -6  597.32   20.99
  -3   5   6  530.46   20.08
   3  -5  -6  565.40   21.61
  -2  -5   6  477.01   23.34
   2   5  -6  501.77   23.09
  -2  -5   6  482.06   18.80
  -2   5   6  486.97   19.64
   2  -5  -6  511.54   25.30
   2  -5  -6  520.03   19.98
   2   5  -6  496.94   20.98
   2  -5  -6  488.69   25.40
  -2  -5   6  479.10   23.21
  -2  -5   6  492.20   17.24
  -2  -5   6  472.54   20.94
   2   5  -6  515.23   19.88
  -2   5   6  513.85   18.42
  -2   5   6  493.94   19.49
   2  -5  -6  490.83   20.79
  -1   5   6  319.28   14.72
   1   5  -6  321.06   18.61
  -1  -5   6  319.95   18.44
  -1  -5   6  298.19   13.62
  -1   5   6  303.94   15.57
   1  -5  -6  291.49   18.76
   1  -5  -6  338.31   14.99
   1   5  -6  321.73   15.69
   1  -5  -6  286.26   19.30
  -1  -5   6  291.66   17.03
  -1  -5   6  309.02   12.36
  -1  -5   6  318.94   16.46
   1   5  -6  343.89   16.20
   1   5  -6  296.99   15.27
  -1   5   6  315.18   13.25
   0  -5   6   53.16    7.47
   0   5   6   53.06    6.55
   0  -5  -6   62.98    6.03
   0   5  -6   46.23    7.35
   0   5  -6   52.75    5.82
   0  -5  -6   49.64    7.60
   0  -5   6   59.36    4.70
   0  -5  -6   48.11    7.75
   0  -5   6   54.45    6.51
   0   5  -6   51.11    6.60
   0   5  -6   54.69    5.99
   0   5   6   51.71    4.79
   1  -5   6   56.34    4.67
   1  -5   6   52.25    4.66
   1  -5   6   60.82    7.73
   1   5   6   54.66    7.10
  -1   5  -6   54.24    7.98
  -1  -5  -6   49.36    5.02
  -1   5  -6   58.77    5.92
  -1  -5  -6   61.50    8.45
   1  -5   6   55.42    4.00
  -1   5  -6   55.40    5.99
   1   5   6   53.71    4.28
  -1   5  -6   50.67    6.50
   1  -5   6   46.42    5.96
   2  -5   6   73.12    5.43
  -2   5  -6   83.81   10.23
   2  -5   6   75.63    4.06
   2  -5   6   72.51    4.82
   2   5   6   66.21    8.06
   2  -5   6   69.92    8.09
  -2  -5  -6   66.30    5.51
  -2   5  -6   80.31    6.50
   2  -5   6   77.53    3.72
  -2  -5  -6   78.52    9.50
  -2   5  -6   82.92    8.53
  -2   5  -6   61.01    6.16
   2   5   6   66.31    3.83
  -3   5  -6   19.55    3.58
   3  -5   6   17.24    1.88
   3  -5   6   21.09    2.05
   3  -5   6   21.59    4.71
   3   5   6   24.76    5.07
  -3   5  -6   23.99    6.23
  -3  -5  -6   20.10    5.24
  -3   5  -6   18.87    3.04
  -3   5  -6   20.22    4.48
  -3  -5  -6   17.68    2.64
  -4   5  -6  759.69   33.86
   4  -5   6  731.83   28.87
   4   5   6  781.87   30.83
  -4  -5  -6  773.47   32.53
  -4   5  -6  797.49   20.81
  -4  -5  -6  783.79   18.88
  -4   5  -6  801.16   29.89
  -4   5  -6  694.97   23.01
   4   5   6  754.63   33.14
   5   5   6   42.58    8.43
   5  -5   6   34.67    6.07
   5   5   6   38.19    6.90
  -5   5  -6   30.25    6.68
  -5   5  -6   30.57    3.16
  -5  -5  -6   34.90    6.69
  -5  -5  -6   31.92    6.39
  -5   5  -6   32.92    6.09
  -6  -5  -6  380.99   22.36
  -6   5  -6  411.09   25.44
   6  -5   6  411.15   21.73
   6   5   6  436.12   24.28
  -6  -5  -6  412.97   24.08
  -6   5  -6  427.49   22.53
   6   5   6  416.03   25.39
  -7  -5  -6   79.70   10.41
   7  -5   6   84.80    9.96
  -7  -5  -6   97.03   11.80
   7   5   6  112.24   12.37
  -7   5  -6   88.67   12.09
  -7   5  -6  100.96   11.15
   8  -5   6   74.26    9.66
   8   5   6   71.23   10.83
  -8   5  -6   87.35   12.33
  -8  -5  -6   82.88   11.10
  -8  -5  -6   71.67   10.29
  -8   5  -6   91.93   11.04
   9  -5   6   15.03    4.69
   9   5   6   10.18    3.93
  -9   5  -6   11.50    4.81
  -9  -5  -6    9.16    4.71
  -9  -5  -6   15.90    5.83
  -9   5  -6    9.22    4.32
  10  -5   6  110.99   12.42
 -10  -5  -6   94.14   12.39
 -10   5  -6  101.76   12.47
  11  -5   6  134.01   14.32
 -11  -5  -6  143.99   15.28
 -12  -6   6    2.25    2.83
 -11  -6   6   -0.71    3.50
  11  -6  -6   11.45    5.58
  10   6  -6  237.51   19.95
 -10  -6   6  196.54   17.99
  10  -6  -6  239.65   18.91
  10   6  -6  227.63   19.32
  10  -6  -6  254.40   21.61
 -10  -6   6  199.46   15.85
 -10  -6   6  254.85   18.79
 -10   6   6  253.65   18.41
  -9  -6   6   54.97    8.42
  -9  -6   6   54.99    8.02
  -9   6   6   72.02    9.72
   9   6  -6   55.35    9.38
  -9  -6   6   46.25    8.71
   9  -6  -6   64.67    9.40
   9   6  -6   57.71    9.30
   9  -6  -6   56.01   10.02
   8   6  -6  744.07   33.53
  -8  -6   6  694.29   33.62
   8  -6  -6  789.48   32.71
   8   6  -6  774.30   34.32
   8  -6  -6  880.79   38.89
  -8  -6   6  784.48   30.10
  -8  -6   6  823.70   33.20
  -8   6   6  811.56   31.79
  -7  -6   6   51.41    7.74
  -7  -6   6   57.21    7.34
  -7   6   6   47.73    7.06
   7   6  -6   58.74    8.82
  -7   6   6   52.62    5.37
  -7  -6   6   47.37    8.25
   7   6  -6   51.89    8.23
   7  -6  -6   58.90    9.58
   7  -6  -6   55.82    8.02
   7   6  -6   45.07    4.74
  -6  -6   6  152.65   14.24
  -6   6   6  175.17   10.11
   6  -6  -6  187.97   14.08
   6  -6  -6  147.59   14.87
   6   6  -6  156.53   13.55
   6  -6  -6  180.50   16.19
  -6  -6   6  175.76   12.33
  -6  -6   6  173.05   13.63
   6   6  -6  156.40    9.64
  -6   6   6  163.45   12.33
  -5  -6   6    8.03    3.23
  -5  -6   6    7.34    2.55
  -5   6   6    4.53    2.68
   5  -6  -6    6.02    2.09
  -5  -6   6    0.92    2.47
  -5   6   6    4.65    1.68
   5   6  -6    4.92    2.72
   5   6  -6    2.42    1.87
   5  -6  -6    5.75    2.83
   5  -6  -6    3.73    2.89
   5  -6  -6    1.67    2.11
   5   6  -6    3.68    1.70
   4  -6  -6   58.01    6.43
  -4  -6   6   50.69    6.81
  -4   6   6   54.14    6.29
   4  -6  -6   55.10    6.31
  -4   6   6   58.94    6.18
  -4  -6   6   55.58    8.25
   4   6  -6   58.17    7.05
   4   6  -6   62.39    7.95
  -4  -6   6   69.43    6.80
   4  -6  -6   60.46    9.50
   4  -6  -6   63.35    9.36
   4   6  -6   57.46    6.20
   4  -6  -6   48.86    6.73
   3  -6  -6  184.05   12.03
  -3  -6   6  170.06   14.55
   3   6  -6  182.66   13.32
  -3   6   6  169.86   11.04
   3  -6  -6  178.64   15.50
   3  -6  -6  191.35   12.71
   3   6  -6  187.43   12.82
   3  -6  -6  176.59   15.48
  -3  -6   6  175.95   10.58
  -3  -6   6  177.99   12.98
   3   6  -6  194.62   11.82
  -3   6   6  172.30   11.04
  -2  -6   6  427.26   18.42
   2   6  -6  465.82   22.69
  -2  -6   6  441.75   23.15
  -2   6   6  427.13   18.66
   2  -6  -6  451.65   24.81
   2  -6  -6  460.59   19.61
   2   6  -6  471.59   20.15
   2  -6  -6  422.77   24.43
  -2  -6   6  419.95   21.99
  -2  -6   6  454.69   16.62
  -2  -6   6  475.12   21.38
   2   6  -6  456.33   19.16
  -2   6   6  450.70   17.61
  -1   6   6  915.69   28.63
  -1  -6   6  896.07   27.48
   1   6  -6  927.35   34.46
  -1  -6   6  937.28   34.56
  -1   6   6  932.82   29.99
   1  -6  -6  946.45   36.74
   1   6  -6  946.09   29.03
   1  -6  -6  936.97   28.90
   1  -6  -6  929.03   37.84
  -1  -6   6  958.64   32.94
  -1  -6   6  943.07   24.68
  -1  -6   6  952.64   31.74
   1   6  -6  925.62   29.80
  -1   6   6  922.55   25.94
   0   6   6  354.51   16.11
   0   6  -6  347.16   20.60
   0  -6   6  337.96   19.50
   0   6   6  353.86   17.79
   0  -6  -6  361.85   21.71
   0   6  -6  375.39   16.06
   0  -6  -6  340.94   15.53
   0  -6  -6  359.06   22.82
   0  -6   6  345.99   12.45
   0  -6   6  385.76   18.59
   0   6  -6  359.25   17.79
   0   6   6  363.92   13.82
  -1   6  -6  218.53   16.59
   1  -6   6  233.26   15.76
   1   6   6  232.70   14.63
  -1  -6  -6  238.23   17.29
  -1   6  -6  264.89   12.32
   1  -6   6  224.60    8.53
  -1  -6  -6  257.31   12.47
  -1   6  -6  253.31   14.83
  -1   6  -6  228.08   13.45
   1   6   6  233.05    9.72
   1   6   6  251.12   17.09
   2   6   6   44.80    7.30
  -2  -6  -6   29.78    4.03
  -2   6  -6   32.96    5.10
   2  -6   6   34.57    3.75
   2  -6   6   34.48    4.16
   2  -6   6   37.96    6.33
   2  -6   6   33.20    1.87
   2   6   6   38.82    6.13
  -2   6  -6   32.01    6.83
  -2   6  -6   36.49    4.24
  -2  -6  -6   36.17    7.11
   2   6   6   37.23    3.21
  -2   6  -6   26.76    5.23
   3   6   6   43.38    7.85
   3  -6   6   57.99    4.26
   3  -6   6   62.27    7.89
   3   6   6   56.08    7.70
  -3   6  -6   58.00    8.71
  -3   6  -6   55.64    4.70
  -3  -6  -6   59.11    8.87
  -3  -6  -6   57.35    5.32
  -3   6  -6   49.99    6.48
  -3   6  -6   58.57    7.72
   3  -6   6   58.58    4.58
  -4   6  -6    4.78    2.08
   4   6   6    7.93    4.36
  -4  -6  -6    2.63    1.11
   4  -6   6    4.32    1.04
   4  -6   6    4.46    2.78
   4   6   6    4.34    2.79
  -4   6  -6   -0.91    2.77
  -4  -6  -6    6.27    3.24
  -4   6  -6    4.80    1.23
  -4  -6  -6   11.00    4.74
  -4   6  -6    7.07    3.14
  -5  -6  -6  432.40   24.53
  -5   6  -6  430.28   26.14
   5  -6   6  449.51   22.49
   5   6   6  491.24   25.16
  -5  -6  -6  459.24   25.49
  -5   6  -6  451.38   23.17
   5   6   6  465.36   27.02
   6   6   6    0.08    2.98
   6  -6   6    7.80    3.89
   6   6   6   13.22    4.27
  -6   6  -6    2.93    3.36
  -6  -6  -6    4.34    2.62
  -6  -6  -6    4.12    3.13
  -6   6  -6    2.67    3.00
  -7  -6  -6  501.67   28.50
  -7   6  -6  490.65   29.34
   7  -6   6  519.75   25.36
   7   6   6  498.62   27.92
  -7  -6  -6  515.58   27.85
  -7   6  -6  530.21   26.72
   7   6   6  516.90   30.52
   8   6   6    2.93    4.13
   8  -6   6   -0.08    2.83
   8   6   6    0.61    2.80
  -8   6  -6    6.39    4.12
  -8  -6  -6    2.33    2.78
  -8  -6  -6   -0.04    2.30
  -8   6  -6   -1.18    3.44
   9   6   6  102.54   14.44
   9  -6   6   95.77   11.37
   9   6   6   90.60   13.13
  -9   6  -6  106.49   14.11
  -9  -6  -6   98.65   12.51
  -9  -6  -6  112.27   14.93
  -9   6  -6   85.95   11.46
  10  -6   6    2.93    2.41
 -10  -6  -6    8.12    2.87
 -11  -7   6   -0.73    3.87
 -10  -7   6    4.28    2.97
 -10  -7   6   10.05    3.32
 -10   7   6    7.09    3.54
  10   7  -6    2.08    3.51
 -10  -7   6   -4.53    5.39
  10  -7  -6    4.83    3.44
  10   7  -6   11.31    5.31
  10  -7  -6    9.17    5.77
   9   7  -6  411.19   26.43
  -9  -7   6  364.49   25.92
   9  -7  -6  440.22   25.21
   9   7  -6  465.70   26.98
   9  -7  -6  421.08   27.71
  -9  -7   6  390.28   21.91
  -9  -7   6  421.50   24.13
  -9   7   6  451.98   24.55
  -8  -7   6    8.91    4.00
  -8  -7   6    4.10    2.77
  -8   7   6   18.43    5.30
   8   7  -6    4.02    2.57
  -8  -7   6    8.72    3.71
   8   7  -6   13.00    5.01
   8  -7  -6   24.14    6.94
   8  -7  -6    9.64    3.95
   7   7  -6  701.37   32.27
  -7  -7   6  655.80   33.58
  -7   7   6  739.73   22.18
   7  -7  -6  746.16   31.55
   7   7  -6  779.00   33.19
   7  -7  -6  777.53   36.34
  -7  -7   6  755.16   28.86
  -7  -7   6  786.12   32.13
   7   7  -6  710.59   23.31
  -7   7   6  779.31   30.58
  -6  -7   6   23.34    5.44
  -6  -7   6   34.55    5.59
  -6   7   6   18.71    3.98
   6   7  -6   31.75    6.78
  -6  -7   6   21.52    5.97
  -6   7   6   27.29    4.12
   6   7  -6   24.04    4.46
   6   7  -6   20.90    5.51
   6  -7  -6   19.48    5.57
   6  -7  -6   24.58    5.31
   6  -7  -6   27.52    5.72
   6   7  -6   22.40    4.07
  -5  -7   6    5.98    3.69
  -5  -7   6    8.21    3.05
  -5   7   6    2.26    1.82
  -5  -7   6    9.78    5.08
  -5   7   6    4.94    2.13
   5   7  -6    3.06    1.55
   5   7  -6    5.64    2.71
   5  -7  -6    7.27    3.76
   5  -7  -6    8.23    3.44
   5  -7  -6    4.93    2.90
   5   7  -6    2.23    1.42
  -4  -7   6    0.90    1.96
  -4  -7   6   -1.18    1.68
   4  -7  -6    1.70    1.48
  -4   7   6    3.18    2.30
  -4  -7   6    8.36    4.35
   4  -7  -6    3.67    2.11
  -4   7   6    1.48    1.71
   4   7  -6    1.30    1.76
   4   7  -6    3.19    2.47
   4  -7  -6    0.66    3.24
   4  -7  -6    1.47    2.72
   4  -7  -6    1.72    1.78
   4   7  -6    1.89    1.66
  -3  -7   6   35.50    4.84
   3  -7  -6   35.57    5.47
  -3   7   6   33.85    5.19
  -3  -7   6   33.68    6.66
  -3   7   6   39.29    5.36
   3   7  -6   35.57    6.24
   3   7  -6   34.41    5.84
   3  -7  -6   29.55    6.58
   3  -7  -6   28.03    6.01
   3  -7  -6   31.85    5.39
   3   7  -6   30.38    4.79
  -3  -7   6   38.42    6.56
   2   7  -6  162.43   13.45
  -2  -7   6  154.66   13.87
  -2   7   6  153.38   10.90
   2  -7  -6  156.35   14.79
   2   7  -6  145.06   10.82
   2  -7  -6  148.99   11.39
  -2  -7   6  145.71   12.72
   2  -7  -6  141.80   14.32
  -2  -7   6  158.57    9.49
  -2  -7   6  140.85   11.84
   2   7  -6  157.04   11.20
  -2   7   6  143.95   10.01
  -1  -7   6  572.57   22.10
   1   7  -6  597.92   27.94
  -1  -7   6  661.85   29.25
  -1   7   6  625.17   24.10
   1  -7  -6  637.53   30.48
   1   7  -6  674.47   23.44
   1  -7  -6  627.05   23.97
  -1  -7   6  624.95   26.12
   1  -7  -6  652.45   32.05
  -1  -7   6  598.71   19.26
  -1  -7   6  641.93   26.18
   1   7  -6  608.50   24.06
  -1   7   6  625.13   20.99
   0  -7   6  708.17   23.90
   0   7   6  729.53   25.65
   0   7  -6  700.46   31.32
   0  -7   6  761.31   31.17
   0   7   6  724.20   27.27
   0  -7  -6  725.58   32.89
   0   7  -6  797.57   24.55
   0  -7   6  733.13   20.25
   0  -7  -6  756.12   35.49
   0  -7  -6  769.85   26.04
   0  -7   6  750.41   28.34
   0   7  -6  757.74   27.68
   0   7   6  736.82   22.08
   0   7   6  764.62   31.37
   1   7   6   69.41    9.10
   1   7   6   66.12    7.97
   1  -7   6   69.32    8.73
  -1   7  -6   53.53    8.57
   1  -7   6   57.72    4.15
  -1   7  -6   63.28    5.80
  -1  -7  -6   58.10    6.40
  -1  -7  -6   55.40    8.85
   1   7   6   53.97    4.96
  -1   7  -6   47.69    6.78
   2  -7   6   38.38    4.77
   2   7   6   45.80    8.17
  -2  -7  -6   32.28    4.67
   2  -7   6   35.28    6.35
   2   7   6   26.79    5.34
  -2   7  -6   31.92    7.05
  -2   7  -6   29.98    3.52
  -2  -7  -6   29.74    6.63
   2   7   6   31.02    3.25
  -2   7  -6   29.49    5.49
   3   7   6    7.36    4.16
   3   7   6    6.36    1.15
  -3  -7  -6    4.03    1.62
   3  -7   6    5.32    1.93
   3   7   6    9.03    3.48
  -3   7  -6    5.60    4.47
   3  -7   6    5.68    2.08
  -3   7  -6    6.20    1.52
  -3  -7  -6    7.00    3.75
  -3   7  -6    6.75    2.91
   4   7   6   19.40    6.20
  -4  -7  -6   12.75    2.68
   4  -7   6   16.00    4.27
   4   7   6   22.58    5.48
  -4   7  -6   11.27    4.39
  -4  -7  -6   21.78    5.95
  -4  -7  -6   20.38    6.31
   4  -7   6   11.82    2.18
  -4   7  -6   14.23    3.72
  -5  -7  -6  144.09   14.88
  -5   7  -6  136.44   14.84
   5  -7   6  140.19   12.45
   5   7   6  129.73   12.93
  -5  -7  -6  108.30   12.63
  -5   7  -6  145.73   13.34
   5   7   6  146.54   15.56
  -6  -7  -6  707.15   35.09
  -6   7  -6  736.35   36.15
   6  -7   6  728.65   30.28
   6   7   6  737.65   33.81
  -6  -7  -6  711.99   33.92
  -6   7  -6  727.23   31.70
   6   7   6  710.28   36.11
   7   7   6   13.16    5.89
   7  -7   6    9.54    4.03
   7   7   6    9.45    4.55
  -7   7  -6    4.02    3.80
  -7  -7  -6   11.66    4.89
  -7  -7  -6   10.87    5.45
  -7   7  -6    3.97    2.49
  -8   7  -6  232.86   20.86
  -8  -7  -6  225.05   21.03
   8  -7   6  234.42   17.34
   8   7   6  211.20   19.36
  -8  -7  -6  225.68   19.03
  -8   7  -6  231.13   18.51
   8   7   6  249.34   22.29
   9  -7   6   27.34    5.94
  -9  -7  -6   32.51    7.39
  -9  -7  -6   23.31    7.42
  10  -7   6    9.94    4.72
 -10  -7  -6   10.77    4.78
  11   8  -6    2.25    4.07
 -10  -8   6   31.66    6.57
  10   8  -6   24.09    7.42
 -10  -8   6   18.95    6.74
  10   8  -6   30.02    7.10
  10  -8  -6   23.95    7.15
  -9  -8   6   12.92    5.01
  -9  -8   6   16.19    5.05
  -9   8   6   17.77    5.22
   9   8  -6    7.20    4.04
  -9  -8   6    8.90    5.63
   9   8  -6   14.80    4.43
   9  -8  -6    3.91    3.49
   9  -8  -6   12.48    5.31
   8   8  -6  172.02   16.68
  -8  -8   6  144.01   16.38
   8  -8  -6  188.70   16.25
   8   8  -6  214.56   17.66
   8  -8  -6  181.84   17.88
  -8  -8   6  201.74   14.94
  -8  -8   6  210.86   16.81
  -8   8   6  189.42   15.36
  -7  -8   6    7.10    3.26
  -7  -8   6    4.14    2.20
  -7   8   6   10.31    4.28
   7   8  -6    4.15    3.76
  -7  -8   6    8.04    3.19
   7   8  -6   16.30    5.67
   7  -8  -6    0.04    4.10
   7  -8  -6    4.86    2.44
  -6  -8   6   19.58    5.15
  -6  -8   6   13.51    3.29
  -6   8   6   14.33    4.39
   6   8  -6   12.42    4.39
  -6  -8   6    7.72    4.57
  -6   8   6    9.43    2.92
   6   8  -6   10.30    3.12
   6   8  -6   15.78    4.38
   6  -8  -6    9.86    4.16
   6  -8  -6   13.83    4.14
   6   8  -6   13.73    3.48
  -5  -8   6   52.57    8.08
  -5  -8   6   42.93    6.18
  -5   8   6   37.98    6.18
   5   8  -6   52.59    8.39
  -5  -8   6   36.26    7.36
  -5   8   6   44.45    5.35
   5   8  -6   44.32    6.57
   5   8  -6   42.25    6.66
   5  -8  -6   42.11    8.58
   5  -8  -6   33.81    7.31
   5   8  -6   45.34    6.03
   5  -8  -6   51.07    7.63
  -4  -8   6   -0.02    1.59
  -4   8   6    4.69    2.51
  -4  -8   6    6.82    3.49
  -4   8   6    4.16    2.11
   4   8  -6    6.83    3.42
   4   8  -6    7.05    2.91
   4  -8  -6    1.77    2.83
   4  -8  -6    0.13    2.54
   4   8  -6    0.83    1.59
   4  -8  -6    2.58    2.77
  -4  -8   6    2.44    2.17
  -3  -8   6   -0.03    1.76
  -3   8   6   -1.15    2.10
  -3  -8   6    5.07    3.20
  -3   8   6    2.15    1.91
   3   8  -6    2.10    2.23
   3   8  -6    4.64    2.59
   3  -8  -6   -1.80    3.65
   3  -8  -6    3.15    3.91
   3   8  -6    0.91    2.12
   3  -8  -6   -0.97    1.86
  -3  -8   6    2.59    2.70
   2   8  -6  344.08   20.67
  -2  -8   6  339.56   21.53
  -2   8   6  325.50   16.78
   2  -8  -6  332.81   22.78
   2   8  -6  354.04   17.41
   2  -8  -6  321.55   18.11
  -2  -8   6  323.34   14.56
   2  -8  -6  328.35   23.17
  -2  -8   6  326.81   19.05
   2   8  -6  314.07   17.02
  -2   8   6  345.00   16.27
   1   8  -6  101.06   11.47
  -1  -8   6   96.73   11.06
  -1   8   6   97.74    9.13
   1   8  -6   96.58    8.30
  -1  -8   6   99.52    7.19
  -1  -8   6   78.62    8.82
   1  -8  -6   86.70    8.88
   1  -8  -6   80.72   11.10
   1  -8  -6   84.54   12.04
  -1  -8   6   88.44    9.89
   1   8  -6   80.94    8.47
  -1   8   6   83.61    7.49
  -1   8   6   95.09   10.37
   0   8  -6  104.40   11.99
   0  -8   6  100.63   11.40
   0   8   6  113.87   10.24
   0  -8  -6  108.22   12.72
   0   8  -6  106.15    8.09
   0  -8   6  105.50    6.82
   0  -8   6   95.58    9.11
   0  -8  -6   96.45    9.11
   0  -8   6  113.26   10.65
   0   8  -6  102.71    9.95
   0   8   6   95.45    7.43
   0   8   6  104.69   11.52
   1   8   6   65.82    9.67
   1  -8   6   65.62    8.97
   1  -8   6   69.93    4.66
   1   8   6   68.38    8.18
  -1   8  -6   72.54   10.66
  -1   8  -6   72.43    6.20
  -1  -8  -6   72.29   10.61
  -1  -8  -6   60.37    7.09
  -1   8  -6   60.17    7.84
   1   8   6   66.43    5.71
   2  -8   6  108.04    8.65
  -2   8  -6  106.25   12.59
   2  -8   6  121.30   11.85
   2   8   6  104.89   10.65
  -2  -8  -6  105.41   12.44
  -2   8  -6  112.50    6.82
  -2  -8  -6  107.13    9.20
  -2   8  -6  118.44   11.14
   2   8   6  109.18    6.75
   2   8   6  116.44   13.13
   3   8   6   -0.11    2.64
  -3  -8  -6    0.98    1.67
   3  -8   6    1.40    2.39
   3   8   6   -2.38    3.33
  -3   8  -6    0.87    2.90
   3  -8   6    0.78    1.34
  -3  -8  -6   -2.45    3.84
  -3   8  -6   -0.88    1.96
   4   8   6   20.11    6.81
   4  -8   6   14.56    4.29
  -4  -8  -6   13.15    3.41
  -4   8  -6    1.93    3.29
   4   8   6   11.76    4.28
  -4  -8  -6   15.65    5.31
  -4  -8  -6   15.66    5.44
  -4   8  -6   11.97    4.21
  -5  -8  -6  197.71   18.44
  -5   8  -6  200.18   18.71
   5  -8   6  199.25   15.34
   5   8   6  206.52   16.89
  -5  -8  -6  207.29   17.76
  -5   8  -6  207.84   16.19
   5   8   6  208.05   19.29
   6   8   6   74.40   12.20
   6  -8   6   66.88    8.89
  -6   8  -6   55.84   10.06
   6   8   6   62.21    9.61
  -6  -8  -6   63.91   10.32
  -6  -8  -6   50.87    9.77
  -6   8  -6   52.98    8.66
  -7   8  -6  170.46   18.03
  -7  -8  -6  147.08   16.87
   7  -8   6  159.60   13.82
   7   8   6  159.51   16.36
  -7  -8  -6  168.41   16.56
  -7   8  -6  153.26   14.91
   7   8   6  150.00   17.66
   8   8   6   14.63    6.78
   8  -8   6   10.85    4.02
  -8   8  -6   25.56    7.36
   8   8   6   11.87    4.04
  -8  -8  -6   25.40    6.81
  -8  -8  -6   13.99    5.42
  -8   8  -6   28.11    7.12
   9  -8   6   13.62    4.60
  -9  -8  -6   19.90    6.54
  -9  -8  -6   27.99    8.63
  11   9  -6   -1.12    3.79
  10   9  -6    6.66    3.96
  10  -9  -6    9.52    5.08
  -9  -9   6    0.93    2.57
  -9   9   6    4.48    2.94
   9   9  -6   -3.17    3.88
  -9  -9   6    2.65    3.30
   9   9  -6   -0.56    3.30
   9  -9  -6   -1.17    3.19
   9  -9  -6    3.92    3.61
  -8  -9   6    1.70    2.81
  -8  -9   6    4.93    3.28
  -8   9   6    4.20    2.42
   8   9  -6   -0.98    3.56
  -8  -9   6   -1.66    5.90
   8   9  -6   10.14    5.05
   8  -9  -6    4.78    5.10
   8  -9  -6   -0.94    2.41
  -7  -9   6   49.42    8.11
  -7  -9   6   43.53    7.13
  -7   9   6   42.51    7.39
   7   9  -6   48.80    9.00
  -7  -9   6   35.77    8.41
   7   9  -6   63.48    9.32
   7  -9  -6   40.24    7.97
   7  -9  -6   47.21    7.93
  -6  -9   6   -1.60    3.06
  -6  -9   6   -1.81    2.05
  -6   9   6    5.28    3.82
   6   9  -6   -0.50    2.40
  -6  -9   6   -2.33    3.80
   6   9  -6    0.76    2.16
   6   9  -6   -4.99    3.32
   6  -9  -6   -5.04    4.31
   6  -9  -6    3.14    4.05
   6   9  -6    1.22    1.60
  -5  -9   6   16.92    4.01
  -5   9   6    9.80    3.57
   5   9  -6   24.11    6.41
  -5  -9   6   29.62    7.19
  -5   9   6   14.50    2.89
   5   9  -6   21.74    4.92
   5   9  -6   10.97    3.63
   5  -9  -6   17.77    6.03
   5   9  -6   16.66    4.15
   5  -9  -6   18.16    5.35
  -5  -9   6   11.35    4.22
  -4  -9   6    1.43    1.53
  -4   9   6   -0.58    2.69
  -4  -9   6    0.50    2.57
  -4   9   6    3.51    2.46
   4   9  -6    5.36    3.02
   4   9  -6    2.93    2.80
   4  -9  -6    1.89    3.06
   4  -9  -6   -0.90    3.40
   4   9  -6    3.17    3.20
   4  -9  -6    9.20    4.22
  -4  -9   6    0.01    1.95
   3  -9  -6   32.85    6.23
  -3  -9   6   32.66    4.99
  -3   9   6   31.15    5.27
  -3  -9   6   37.59    8.07
  -3   9   6   30.20    5.04
   3   9  -6   32.71    6.58
   3   9  -6   35.46    5.66
   3  -9  -6   30.14    8.00
   3  -9  -6   22.77    6.79
   3   9  -6   36.22    6.14
  -3  -9   6   24.11    5.59
  -2  -9   6   -1.05    1.55
  -2   9   6    1.08    2.21
   2  -9  -6    0.59    2.36
  -2   9   6    0.92    1.87
  -2  -9   6   -0.84    3.01
  -2   9   6    1.97    2.15
   2   9  -6    2.14    2.03
   2   9  -6    1.61    1.89
   2  -9  -6    1.18    3.00
   2  -9  -6   -2.86    2.86
   2   9  -6    1.89    1.93
  -2  -9   6   -0.74    2.89
  -1  -9   6    1.96    1.42
  -1   9   6    4.50    3.37
   1  -9  -6    1.14    1.99
  -1   9   6    0.49    1.55
  -1  -9   6    7.53    4.23
   1   9  -6    1.62    3.03
  -1   9   6    1.13    2.10
   1   9  -6    1.82    1.49
   1  -9  -6    1.53    3.15
   1  -9  -6    0.40    4.11
   1   9  -6   -1.17    2.69
  -1  -9   6    3.89    3.18
   0   9   6   57.15    9.00
   0   9   6   45.52    5.41
   0  -9  -6   54.29    7.35
   0  -9   6   63.10    9.55
   0   9  -6   48.58    8.53
   0   9   6   50.69    7.19
   0  -9   6   46.22    4.63
   0   9  -6   49.06    5.53
   0  -9  -6   49.84    9.18
   0   9  -6   42.22    6.67
   1   9   6   40.81    8.13
   1  -9   6   36.49    5.56
   1   9   6   30.66    4.14
  -1  -9  -6   26.86    5.17
   1  -9   6   44.85    7.96
  -1   9  -6   38.20    8.30
   1   9   6   32.14    5.68
  -1  -9  -6   45.85    9.00
  -1   9  -6   32.50    6.05
   2   9   6   15.58    5.19
   2   9   6   10.10    2.36
  -2  -9  -6   13.76    3.39
   2  -9   6    9.22    3.90
  -2   9  -6    5.70    3.77
   2   9   6    7.69    2.95
  -2  -9  -6    6.22    4.16
   2  -9   6    7.29    2.78
  -2   9  -6    1.96    2.32
   3   9   6    7.19    3.93
   3  -9   6    7.42    3.23
  -3   9  -6    4.07    3.01
   3   9   6    1.54    2.69
  -3  -9  -6    7.78    3.43
   3  -9   6    3.55    1.94
  -3  -9  -6    9.18    4.72
  -3  -9  -6    7.92    5.12
  -3   9  -6   -0.56    3.03
   4   9   6   21.36    6.35
   4  -9   6   31.28    6.02
  -4   9  -6   33.96    7.81
   4   9   6   24.40    6.00
  -4  -9  -6   24.25    5.11
  -4  -9  -6   27.37    6.73
  -4  -9  -6   28.98    7.43
  -4   9  -6   20.29    5.26
   5   9   6    0.63    4.63
   5  -9   6    6.66    3.16
  -5   9  -6    4.97    3.54
   5   9   6    7.27    3.30
  -5  -9  -6    8.38    5.13
  -5  -9  -6    4.97    3.68
  -5   9  -6    5.62    4.06
   6   9   6    1.23    3.94
   6  -9   6    1.89    2.33
  -6   9  -6   -1.89    3.48
   6   9   6   -6.83    5.49
  -6  -9  -6    1.72    2.33
  -6  -9  -6    2.97    4.01
  -6   9  -6    8.88    5.19
   7   9   6   12.14    6.97
   7  -9   6   12.64    4.21
  -7   9  -6    7.20    4.91
  -7  -9  -6   23.14    6.34
  -7  -9  -6   13.29    5.12
  -7   9  -6   20.12    6.62
   8  -9   6   47.76    7.80
  -8  -9  -6   41.67    8.91
  -8  -9  -6   27.95    7.75
   9  -9   6    2.91    2.83
  -9  -9  -6   -3.75    3.38
  10  10  -6   22.26    7.28
  -9 -10   6    2.15    3.39
   9  10  -6    1.52    4.33
   9 -10  -6    2.52    3.54
   8  10  -6  181.79   18.45
  -8 -10   6  107.99   16.46
   8 -10  -6  171.07   16.28
   8 -10  -6  183.43   18.73
  -8 -10   6  173.77   14.64
  -8 -10   6  183.01   16.39
  -8  10   6  169.44   15.12
  -7 -10   6    0.71    2.19
  -7  10   6    0.85    2.64
   7  10  -6   -3.13    3.98
  -7 -10   6   -8.60    7.38
   7 -10  -6   -1.36    3.59
   7 -10  -6    3.27    4.03
  -7 -10   6    4.53    4.10
   6  10  -6   90.11   12.03
  -6 -10   6   84.30   13.32
   6  10  -6  109.12   11.87
   6 -10  -6  115.97   14.70
  -6 -10   6   96.57   10.11
  -6 -10   6  103.08   11.97
   6 -10  -6   94.58   11.75
  -6  10   6   95.98   10.84
  -5 -10   6   42.35    6.35
  -5  10   6   38.21    6.76
   5  10  -6   53.66    9.19
  -5 -10   6   37.68    9.02
   5  10  -6   39.24    6.80
   5  10  -6   37.09    6.80
   5 -10  -6   39.77    9.08
   5  10  -6   40.54    6.61
   5 -10  -6   55.95    9.11
  -5 -10   6   26.69    6.24
   4 -10  -6    2.17    2.60
  -4 -10   6   -2.68    2.00
  -4  10   6    3.24    3.00
   4  10  -6    1.01    3.08
  -4 -10   6    2.46    2.96
   4  10  -6    4.30    2.93
  -4  10   6   -1.65    1.90
   4  10  -6   -5.26    3.43
   4 -10  -6    4.02    3.70
   4 -10  -6   -0.44    3.65
   4  10  -6    8.01    3.71
  -4 -10   6    2.66    2.46
  -3 -10   6    6.98    2.31
  -3  10   6   13.28    4.27
   3 -10  -6    5.71    2.23
  -3  10   6    5.35    2.33
  -3 -10   6    7.32    3.76
   3  10  -6    5.13    3.11
  -3  10   6    8.15    2.99
   3 -10  -6    5.70    3.51
   3 -10  -6    5.77    4.26
   3  10  -6    6.27    3.48
  -3 -10   6    1.18    2.66
   2  10  -6  150.70   14.89
  -2 -10   6  148.13   15.31
  -2  10   6  170.42   12.70
   2 -10  -6  166.40   17.41
  -2 -10   6  171.94   11.02
   2 -10  -6  172.79   18.09
   2 -10  -6  163.23   13.99
  -2 -10   6  178.87   15.07
   2  10  -6  155.76   13.23
  -2  10   6  161.07   12.07
  -2  10   6  173.42   14.39
  -1  10   6   80.61   10.25
   1 -10  -6   74.50    9.43
  -1  10   6   81.01    9.07
  -1 -10   6   80.42   11.20
   1  10  -6   60.93    9.81
  -1 -10   6   78.77    6.99
   1 -10  -6   86.40   12.47
   1 -10  -6   91.92   13.53
   1  10  -6   85.78   10.11
  -1  10   6   72.38    7.73
   0  10  -6  133.85   14.74
   0 -10   6  173.45   16.04
   0  10   6  157.11   13.17
   0 -10  -6  176.11   17.52
   0 -10  -6  156.22   13.45
   0  10  -6  184.09   14.70
   0  10   6  159.49   11.01
   0  10   6  157.67   15.32
   1 -10   6  155.16   11.92
  -1  10  -6  132.73   15.23
   1 -10   6  145.97   14.09
   1  10   6  128.11   12.08
  -1 -10  -6  136.66   15.25
  -1 -10  -6  129.22   12.34
  -1  10  -6  143.52   13.47
   1  10   6  124.09    9.19
   1  10   6  117.11   13.53
   2  10   6   22.96    7.06
   2  10   6   12.43    2.88
   2 -10   6   11.18    4.60
   2 -10   6   14.38    3.63
  -2 -10  -6   15.18    4.71
  -2  10  -6    9.18    3.77
   2  10   6    3.80    3.32
  -2 -10  -6   13.74    5.14
  -2  10  -6   18.26    5.85
   3  10   6   11.31    5.39
   3 -10   6    8.46    3.79
  -3  10  -6    0.14    4.19
   3  10   6    0.10    4.47
  -3 -10  -6    7.00    3.60
   3 -10   6    6.42    1.95
  -3 -10  -6   16.13    6.37
  -3 -10  -6    1.60    4.38
  -3  10  -6   11.98    4.73
   4  10   6   11.64    6.73
   4 -10   6   12.11    4.51
  -4  10  -6    7.29    4.15
   4  10   6    1.38    2.67
  -4 -10  -6    4.95    2.54
  -4 -10  -6    8.46    4.03
  -4 -10  -6    5.29    3.42
  -4  10  -6   18.47    6.10
   5  10   6  123.95   16.26
  -5  10  -6  128.55   15.77
   5 -10   6  129.70   12.93
  -5 -10  -6  123.73   15.05
  -5 -10  -6  101.16   14.29
  -5  10  -6  127.73   14.10
   6  10   6   41.78   10.00
   6 -10   6   42.39    7.62
  -6  10  -6   54.04   10.93
  -6 -10  -6   32.56    7.79
  -6 -10  -6   35.57    8.00
  -6  10  -6   48.99    9.66
  -7 -10  -6  206.64   22.26
   7 -10   6  188.43   15.83
  -7 -10  -6  210.84   19.63
   8 -10   6    6.58    3.68
  -8 -10  -6   13.11    6.13
  -9 -10  -6   10.24    8.21
   9  11  -6  303.25   25.65
  -8 -11   6   -0.85    2.59
  -8  11   6   -1.90    2.43
   8  11  -6    1.73    3.46
   8 -11  -6    2.53    3.91
   7  11  -6  121.22   15.14
  -7 -11   6  107.14   16.15
   7 -11  -6  132.61   14.68
  -7 -11   6  150.88   13.40
   7 -11  -6  170.76   18.23
  -7 -11   6  143.56   14.80
  -7  11   6  141.88   14.02
  -6 -11   6   61.70    8.44
  -6  11   6   44.36    7.64
   6  11  -6   46.04    8.87
  -6 -11   6   48.31   11.28
   6 -11  -6   58.05   10.53
   6 -11  -6   59.91   10.04
  -6 -11   6   53.80    8.63
  -5 -11   6    9.98    3.49
  -5  11   6    5.76    2.99
   5  11  -6   19.48    6.48
  -5 -11   6    2.55    3.62
   5  11  -6   13.92    4.46
   5 -11  -6   12.14    4.85
   5  11  -6    8.99    3.61
  -5 -11   6    1.40    3.60
   5 -11  -6   12.56    4.45
   4  11  -6  142.15   14.75
   4  11  -6  132.88   13.69
  -4 -11   6  109.07   14.49
  -4 -11   6  130.50   10.91
   4 -11  -6  141.92   16.46
   4 -11  -6  142.18   14.08
  -4 -11   6  145.92   14.19
   4  11  -6  116.58   11.96
  -4  11   6  123.69   11.85
   3  11  -6  235.00   18.47
   3  11  -6  172.00   16.61
  -3 -11   6  209.06   19.42
   3 -11  -6  239.29   22.08
  -3 -11   6  234.84   14.09
   3 -11  -6  207.36   20.24
   3 -11  -6  235.69   18.18
  -3 -11   6  228.11   17.74
   3  11  -6  177.45   15.10
  -3  11   6  195.20   14.47
  -3  11   6  208.93   15.56
   2  11  -6  143.06   15.41
  -2 -11   6  131.22   15.34
  -2  11   6  140.04   11.94
   2 -11  -6  146.72   16.67
  -2 -11   6  139.00   10.30
   2 -11  -6  157.45   17.95
   2 -11  -6  141.52   13.90
  -2 -11   6  154.78   14.63
   2  11  -6  128.22   12.82
  -2  11   6  127.88   11.32
  -2  11   6  141.22   13.55
   1  11  -6  350.20   25.36
  -1 -11   6  396.01   25.99
  -1  11   6  415.88   22.01
   1 -11  -6  413.94   28.51
   1 -11  -6  439.39   30.57
   1 -11  -6  430.64   24.14
   1  11  -6  436.25   24.12
  -1  11   6  394.83   24.11
   0  11   6   83.81   11.59
   0 -11   6  103.11   12.61
   0 -11  -6  102.23   13.98
   0  11  -6   65.66   11.06
   0  11   6   82.29    9.82
   0 -11  -6   96.17   11.11
   0  11  -6   88.56   11.12
   1  11   6    2.05    2.32
   1 -11   6    9.63    4.21
  -1 -11  -6   -0.44    2.61
  -1  11  -6    1.87    3.81
   1 -11   6    4.76    2.53
   1  11   6    3.09    2.35
  -1 -11  -6    7.20    4.71
  -1  11  -6    7.13    4.57
   2  11   6   50.34    9.72
   2 -11   6   61.29    7.61
   2 -11   6   43.04    8.14
  -2  11  -6   34.45    8.82
  -2 -11  -6   51.70    8.25
  -2 -11  -6   61.38   10.86
  -2  11  -6   45.03    8.25
   3  11   6    4.15    3.14
   3 -11   6   10.67    4.04
  -3  11  -6    5.26    3.16
   3 -11   6   16.64    3.94
  -3 -11  -6   15.04    4.65
  -3 -11  -6   12.84    5.12
  -3 -11  -6   10.96    5.10
  -3  11  -6   19.44    5.72
  -4 -11  -6  257.99   23.20
  -4  11  -6  238.37   22.68
   4 -11   6  283.51   19.73
  -4 -11  -6  278.81   23.18
  -4  11  -6  271.32   21.13
  -4 -11  -6  278.86   19.67
   4  11   6  263.17   24.51
   5  11   6   74.70   13.47
   5 -11   6   68.60    9.80
  -5  11  -6   53.67   10.87
  -5 -11  -6   79.99   12.31
  -5 -11  -6   83.77   13.66
  -5  11  -6   86.96   12.31
  -6 -11  -6  455.89   32.79
   6 -11   6  453.27   25.14
  -6 -11  -6  425.44   28.88
   7 -11   6   18.21    4.97
  -7 -11  -6   17.29    5.77
  -8 -12   6  344.16   21.78
  -7 -12   6   15.89    5.45
  -7  12   6    6.66    3.95
   7 -12  -6   13.67    6.06
  -6 -12   6   69.87    8.96
   6  12  -6   58.30   10.67
  -6  12   6   50.47    8.40
   6 -12  -6   72.36   12.04
   6 -12  -6   57.60    9.83
   5 -12  -6    8.30    4.85
  -5  12   6    1.69    3.30
   5  12  -6   12.07    6.13
  -5 -12   6   15.12    6.62
   5 -12  -6    8.35    5.30
  -5 -12   6    3.43    2.62
  -5 -12   6   10.24    4.04
   4  12  -6  144.08   15.71
   4  12  -6  114.43   13.43
  -4 -12   6   99.59   15.21
  -4 -12   6  126.70   11.05
   4 -12  -6  145.35   17.15
   4 -12  -6  138.16   14.62
  -4 -12   6  157.08   15.17
   4  12  -6  115.84   12.67
  -4  12   6  123.62   12.25
   3  12  -6  143.98   15.21
  -3 -12   6  130.54   16.12
   3  12  -6   91.91   12.55
  -3 -12   6  135.40   10.94
   3 -12  -6  113.84   13.36
   3 -12  -6  135.09   16.71
  -3 -12   6  122.58   13.65
   3  12  -6  114.36   12.61
  -3  12   6  116.27   12.08
  -3  12   6  108.83   11.03
   2  12  -6  327.17   22.44
   2  12  -6  234.05   21.06
  -2 -12   6  277.70   22.80
   2 -12  -6  263.69   23.60
   2 -12  -6  329.51   26.91
   2 -12  -6  321.18   22.02
   2  12  -6  259.07   19.48
  -2  12   6  256.43   19.32
   1  12  -6  241.27   22.23
  -1 -12   6  322.92   23.95
   1 -12  -6  302.34   25.04
   1 -12  -6  297.34   25.85
   1 -12  -6  314.14   21.93
   1  12  -6  295.72   21.08
  -1  12   6  274.78   20.96
   0  12   6  106.10   13.71
   0 -12   6  138.43   12.69
   0 -12   6  149.41   15.76
   0  12  -6   83.61   13.38
   0 -12  -6  127.61   15.79
   0 -12  -6  121.97   13.90
   0  12  -6  130.41   13.95
   1  12   6   43.23    9.09
   1 -12   6   77.89   11.28
  -1  12  -6   38.55    8.84
  -1 -12  -6   47.09    8.35
  -1 -12  -6   50.02    9.77
  -1  12  -6   47.62    8.91
   1 -12   6   66.38    8.74
   2 -12   6   36.77    6.27
   2  12   6   15.63    5.09
   2 -12   6   26.56    7.23
  -2  12  -6   13.05    5.08
  -2 -12  -6   26.28    6.67
  -2 -12  -6   30.36    7.98
  -2  12  -6   28.30    7.06
   3  12   6  105.28   15.28
  -3 -12  -6  173.63   19.27
   3 -12   6  156.81   15.34
  -3 -12  -6  156.43   17.50
  -3  12  -6  112.95   16.48
  -3  12  -6  152.82   16.04
  -3 -12  -6  153.45   15.29
   4  12   6   -6.87    5.79
   4 -12   6    5.38    3.86
  -4  12  -6   10.85    5.85
  -4 -12  -6    4.22    4.94
  -4 -12  -6   -1.86    3.54
  -4  12  -6    6.72    3.36
  -5 -12  -6  347.98   28.73
   5 -12   6  380.22   23.58
   6 -12   6   10.77    4.63
   7 -12   6  161.49   15.02
  -7 -13   6  174.58   15.24
  -6  13   6   -0.93    3.54
  -6 -13   6   -1.45    3.15
   5 -13  -6   17.87    6.49
  -5  13   6   15.11    5.14
  -5 -13   6   16.25    3.48
   4 -13  -6   -5.88    4.79
  -4  13   6   -1.95    2.40
   4  13  -6    0.60    3.42
   4 -13  -6   -1.33    3.80
   4  13  -6   -7.29    5.30
  -4 -13   6   -1.28    2.37
  -4 -13   6   -2.19    2.38
   3 -13  -6   63.29   10.56
   3  13  -6   64.11   10.58
  -3 -13   6   54.10   10.50
   3  13  -6   44.32    9.29
   3 -13  -6   75.86   13.37
   3  13  -6   40.10    7.89
   2  13  -6  281.38   21.52
  -2 -13   6  245.01   22.34
   2 -13  -6  275.98   25.21
   2 -13  -6  252.86   20.59
   2  13  -6  239.05   19.54
  -2  13   6  238.95   19.11
   1  13  -6   89.18   12.47
  -1  13   6   71.35   10.91
   1 -13  -6   86.15   12.17
  -1 -13   6   70.54   11.75
   1  13  -6   65.13   12.42
   1 -13  -6   80.70   13.70
   1  13  -6   68.05   10.56
   0 -13   6  165.12   14.51
   0 -13   6  160.67   17.17
   0 -13  -6  143.42   17.48
   0  13  -6  109.14   16.55
   0 -13  -6  153.55   16.15
   0  13  -6  160.55   16.31
   0  13   6  133.50   16.22
   1  13   6   55.80   11.09
   1 -13   6   76.03   11.50
  -1  13  -6   42.40   10.20
  -1 -13  -6   74.69   11.16
  -1 -13  -6   72.10   12.25
   1 -13   6   57.83    8.59
  -1  13  -6   71.37   10.94
   2  13   6   15.83    6.80
   2 -13   6   15.48    5.31
  -2  13  -6   -9.97    7.95
  -2 -13  -6   22.08    5.84
  -2 -13  -6    4.08    3.69
  -2  13  -6    2.25    3.05
   2 -13   6   10.79    3.76
   3  13   6   33.10    9.80
   3 -13   6   29.83    7.33
  -3 -13  -6   10.84    4.09
  -3 -13  -6   32.69    9.01
  -3  13  -6   15.08    5.41
   4 -13   6   80.24   11.14
   5 -13   6   -2.73    3.36
   6 -13   6  183.86   16.42
  -6 -14   6    9.74    3.01
  -5  14   6   -9.34    5.18
   3 -14  -6    1.49    4.38
   3  14  -6    3.62    5.28
   3  14  -6   -1.34    3.76
  -2  14   6   73.22   11.21
   2 -14  -6   59.12   10.65
   2  14  -6   67.51   12.67
   2  14  -6   59.26   10.25
  -1  14   6   50.77    9.74
   1 -14  -6   74.39   11.88
  -1 -14   6   78.59   11.99
   1  14  -6   51.68   10.46
   1  14  -6   57.92   10.56
  -1 -14   6   72.91   10.18
   0  14   6   41.65    9.78
   0 -14   6   58.87    9.07
   0 -14   6   57.06   10.23
   0 -14  -6   34.45    8.11
   0  14  -6   67.29   10.96
   1  14   6   21.50    6.90
   1 -14   6   23.92    5.84
   1 -14   6   25.56    7.17
  -1  14  -6   14.00    6.74
  -1 -14  -6   20.57    6.31
  -1  14  -6   26.82    6.86
   2  14   6   10.27    4.83
   2 -14   6    0.44    3.20
  -2 -14  -6    2.16    3.39
   3 -14   6    1.02    3.13
  -3 -14  -6    6.68    4.38
   4 -14   6    1.40    3.83
   5 -14   6   46.07    8.53
   3  15  -6   -5.43    6.61
  -2 -15   6   28.69    7.09
   2  15  -6    9.54    5.76
   2  15  -6   19.24    7.01
  -1  15   6   29.72    7.09
   1 -15  -6   19.35    6.61
   1  15  -6   24.42    8.15
  -1 -15   6   39.04    7.98
   1  15  -6   27.57    6.74
   0  15   6   -2.95    5.05
   0 -15  -6    2.32    3.79
   0 -15   6   -2.01    3.20
   1  15   6   39.08   10.24
  -1 -15  -6   47.80    9.96
  -2 -15  -6   10.18    6.22
 -10   0   7   -2.36    2.97
 -10   0   7    1.90    2.33
  10   0  -7    3.49    4.37
  -9   0   7   -1.13    2.36
  -9   0   7    2.77    2.38
   9   0  -7   -3.54    3.78
  -8   0   7   -0.24    2.29
  -8   0   7    0.85    1.98
   8   0  -7   -2.34    3.42
   8   0  -7   -2.15    2.90
  -7   0   7   -0.78    2.44
  -7   0   7   -2.42    2.64
   7   0  -7    7.77    4.63
   7   0  -7    0.51    2.79
  -6   0   7   -3.62    3.10
  -6   0   7   -0.62    1.72
   6   0  -7   -2.13    3.69
   6   0  -7    0.67    2.34
  -5   0   7   -1.44    1.63
  -5   0   7    1.31    1.83
   5   0  -7    4.03    3.52
   5   0  -7    1.26    3.19
  -4   0   7   -0.71    1.49
  -4   0   7    0.37    1.86
   4   0  -7    0.63    2.53
   4   0  -7    1.43    2.63
  -3   0   7    0.32    1.71
  -3   0   7    0.45    1.24
  -3   0   7    2.88    2.72
   3   0  -7    4.03    3.67
   3   0  -7    2.68    2.77
  -2   0   7    2.73    1.52
   2   0  -7    1.31    1.29
  -2   0   7    1.15    1.21
  -2   0   7    2.64    2.39
   2   0  -7    0.07    1.91
   2   0  -7    0.04    2.00
  -1   0   7    0.51    1.66
  -1   0   7    1.42    2.47
   1   0  -7   -3.34    3.53
   1   0  -7   -0.76    2.25
  -1   0   7    3.95    2.45
   0   0   7    1.07    1.13
   0   0   7   -0.40    2.31
   0   0  -7    2.09    2.56
   0   0  -7    1.79    2.78
   0   0   7   -2.16    1.93
   0   0   7   -1.90    1.52
   1   0   7   -2.33    2.37
   1   0   7    0.48    0.89
  -1   0  -7    1.78    2.80
  -1   0  -7    2.13    2.29
   1   0   7   -0.51    1.68
   1   0   7   -0.79    0.90
   2   0   7    0.09    1.87
  -2   0  -7    2.32    3.41
  -2   0  -7    0.36    2.36
   2   0   7    1.78    1.71
   3   0   7    1.07    2.70
  -3   0  -7    1.64    2.38
  -3   0  -7    2.28    2.65
   4   0   7    2.21    2.63
  -4   0  -7   -0.81    2.26
  -4   0  -7    0.12    1.82
   5   0   7   -0.27    2.53
  -5   0  -7    2.35    3.38
  -5   0  -7   -1.11    2.01
   6   0   7   -1.07    2.32
  -6   0  -7   -3.70    4.13
  -6   0  -7   -2.01    1.88
   7   0   7    0.51    2.61
  -7   0  -7    4.05    3.18
  -7   0  -7    1.03    1.98
   8   0   7    0.75    2.39
  -8   0  -7    1.56    3.01
   9   0   7    6.79    5.18
  -9   0  -7   -2.21    2.86
  -9   0  -7    3.35    3.83
 -10  -1   7   11.28    4.87
 -10   1   7    5.56    3.46
 -10  -1   7    1.53    2.26
  10   1  -7    2.08    2.73
  10  -1  -7    4.09    3.54
  -9  -1   7    4.16    3.54
  -9   1   7    1.04    2.32
  -9  -1   7    1.13    1.91
  -9   1   7    0.21    1.43
   9   1  -7    5.09    3.67
   9  -1  -7   -3.31    4.18
  -8  -1   7  249.76   15.92
  -8   1   7  252.01   14.89
   8  -1  -7  264.79   17.42
   8   1  -7  290.32   21.20
   8  -1  -7  272.03   21.07
  -8  -1   7  278.27   18.09
  -8   1   7  275.76   17.57
  -7  -1   7   69.71    8.54
  -7   1   7   66.25    7.71
   7   1  -7   66.04    8.20
   7   1  -7   53.27    8.80
   7  -1  -7   70.50   10.38
   7  -1  -7   72.52    9.10
  -7   1   7   71.04    8.62
  -7  -1   7   76.47    8.66
  -6  -1   7  106.86   10.07
  -6   1   7  108.14    9.56
   6   1  -7  110.30   10.39
   6  -1  -7  113.20   11.46
   6   1  -7  110.27   12.46
   6  -1  -7  132.33   13.62
  -6  -1   7  111.48   10.58
  -6   1   7  102.52    9.83
  -5  -1   7   10.47    3.48
  -5   1   7    7.13    2.76
  -5  -1   7    8.01    2.94
  -5   1   7   10.40    3.35
   5   1  -7   10.79    3.46
   5  -1  -7   10.28    3.41
   5   1  -7    7.95    3.64
   5  -1  -7    9.72    3.59
  -4  -1   7    8.04    2.90
  -4   1   7   10.26    2.81
  -4  -1   7   12.07    3.70
  -4   1   7    7.60    3.36
   4   1  -7   10.69    3.66
   4  -1  -7    3.62    2.52
   4   1  -7    7.57    3.67
   4  -1  -7    9.95    4.36
  -3  -1   7    0.47    1.50
  -3   1   7    1.20    1.80
  -3  -1   7    0.09    1.46
  -3  -1   7    2.78    2.33
  -3   1   7    3.36    2.45
  -3   1   7   -0.07    1.35
   3   1  -7    2.14    2.64
   3  -1  -7   -1.25    1.95
   3   1  -7    1.38    2.63
   3  -1  -7    4.56    2.60
  -2  -1   7   41.77    5.51
  -2   1   7   35.70    4.94
   2   1  -7   34.20    4.36
  -2  -1   7   44.62    6.69
  -2   1   7   39.38    6.04
   2   1  -7   37.05    6.70
   2  -1  -7   49.69    7.62
  -2   1   7   36.92    4.79
  -2  -1   7   41.62    4.94
   2   1  -7   38.57    6.70
   2  -1  -7   41.24    6.85
  -1  -1   7  343.87   17.05
  -1  -1   7  367.44   19.33
  -1   1   7  343.56   18.10
   1   1  -7  391.44   21.40
   1  -1  -7  393.75   21.55
   1   1  -7  376.43   19.89
   1  -1  -7  378.82   20.94
  -1  -1   7  363.87   16.22
  -1   1   7  372.55   15.76
   1   1  -7  360.01   14.12
   0  -1   7   97.27    8.38
   0   1   7   93.78    8.81
   0  -1   7   95.59    9.74
   0   1   7   87.50    9.11
   0   1  -7   98.50   10.79
   0  -1  -7   88.16   10.22
   0   1  -7   87.50    9.12
   0  -1  -7   89.33   10.18
   0  -1   7  103.57    7.91
   0  -1   7   90.38    6.10
   0   1   7  101.01    7.20
   0   1  -7   93.40    6.31
   0   1   7   97.28    6.44
   1   1   7  160.45    7.44
   1  -1   7  162.53   10.71
   1  -1   7  168.58   12.92
  -1   1  -7  176.50   14.77
   1   1   7  161.79   12.55
   1   1   7  160.82   11.49
  -1  -1  -7  159.39   14.09
  -1   1  -7  159.89   12.37
  -1  -1  -7  176.69   13.97
   1  -1   7  153.11    9.16
   1   1   7  167.25    8.59
   1  -1   7  165.41    6.80
  -1   1  -7  161.32    7.75
   2  -1   7   47.64    7.29
   2   1   7   41.97    6.62
  -2   1  -7   44.63    7.57
  -2  -1  -7   56.94    8.55
  -2   1  -7   49.36    6.85
  -2  -1  -7   58.12    8.06
   2   1   7   40.96    3.16
   2   1   7   44.05    6.00
   3  -1   7   10.63    4.04
   3   1   7   10.14    3.58
  -3   1  -7    9.21    3.87
  -3  -1  -7   13.55    4.77
  -3   1  -7   13.21    3.68
  -3  -1  -7    8.31    3.62
   3   1   7   12.89    3.34
   4  -1   7   -2.35    2.54
   4   1   7   -3.16    2.87
  -4   1  -7   -1.08    2.58
  -4  -1  -7   -0.37    2.30
  -4   1  -7    5.21    2.52
  -4  -1  -7   -0.99    2.75
  -5   1  -7   92.26   11.65
   5   1   7   85.59   10.38
   5  -1   7   77.78    9.66
  -5  -1  -7   75.43   10.34
  -5   1  -7   86.96    8.76
  -5  -1  -7   99.27   10.77
   6   1   7   87.14   11.11
   6  -1   7   82.88   10.33
  -6   1  -7   86.82   11.76
  -6  -1  -7   75.68   10.69
  -6   1  -7   79.08    8.48
  -6  -1  -7   77.06    9.74
  -7   1  -7  228.31   19.23
  -7  -1  -7  211.13   18.07
   7  -1   7  247.59   18.53
   7   1   7  244.02   18.84
   8  -1   7   -3.85    3.79
  -8   1  -7   -2.37    3.84
  -8  -1  -7    6.43    3.87
  -8   1  -7    2.09    3.07
   9  -1   7   54.90    9.88
   9   1   7   61.47   10.17
  -9  -1  -7   55.39    9.62
  -9   1  -7   68.20    9.92
 -11  -2   7   26.54    5.70
 -10  -2   7    6.11    4.15
 -10   2   7   -4.90    3.28
 -10  -2   7    2.12    2.45
  10   2  -7    3.93    3.01
  10  -2  -7   -2.66    4.00
  -9   2   7   84.95   10.25
  -9  -2   7   75.59    9.26
  -9   2   7   76.05    7.72
   9   2  -7   87.48   12.24
   9  -2  -7   76.23   11.49
  -9  -2   7  101.84   11.38
  -8  -2   7   14.35    4.40
  -8   2   7   19.98    4.70
   8  -2  -7   24.98    5.71
  -8  -2   7   17.12    4.86
  -8   2   7   20.56    4.11
   8   2  -7   20.24    5.75
   8  -2  -7   19.46    6.06
   8  -2  -7   21.25    4.95
   7  -2  -7  643.67   27.31
  -7  -2   7  590.34   26.42
  -7   2   7  612.42   23.46
   7   2  -7  639.04   25.44
   7  -2  -7  646.36   29.53
   7   2  -7  609.22   30.53
   7  -2  -7  636.09   32.29
  -7  -2   7  602.75   27.10
  -7   2   7  631.56   26.75
   6  -2  -7  163.21   12.66
  -6  -2   7  148.67   12.48
  -6   2   7  162.70   11.40
   6   2  -7  152.04   11.96
   6  -2  -7  179.88   15.02
   6   2  -7  160.20   14.51
   6  -2  -7  156.60   15.20
  -6  -2   7  159.97   12.93
  -6   2   7  155.32   12.15
   5  -2  -7  237.99   14.82
  -5  -2   7  213.34   15.03
  -5   2   7  232.30   13.86
   5   2  -7  229.47   15.02
   5  -2  -7  248.82   17.42
   5   2  -7  230.27   17.05
   5  -2  -7  235.32   18.15
  -5  -2   7  245.89   15.38
  -5   2   7  232.69   14.44
  -4  -2   7   23.53    5.07
  -4   2   7   16.34    3.98
   4  -2  -7   19.59    3.89
  -4  -2   7   21.87    4.80
  -4   2   7   20.26    4.25
   4   2  -7   16.36    4.48
   4  -2  -7   12.93    3.86
   4   2  -7   13.58    4.05
   4  -2  -7   19.94    5.40
  -3  -2   7   20.39    3.73
  -3  -2   7   23.36    4.47
  -3   2   7   16.05    3.62
   3  -2  -7   16.56    3.40
  -3  -2   7   14.37    4.06
  -3   2   7   19.36    4.22
   3   2  -7   11.38    3.41
   3  -2  -7   16.90    4.79
   3   2  -7   23.03    5.17
   3  -2  -7   14.09    4.52
  -3   2   7   16.26    3.49
   2  -2  -7   86.64    7.21
  -2  -2   7   83.49    9.25
  -2   2   7   85.27    8.61
   2   2  -7   93.87   10.08
   2  -2  -7   91.66   10.23
   2   2  -7   91.13    9.51
   2  -2  -7   92.95   10.70
  -2  -2   7   86.77    7.17
  -2  -2   7   93.49    8.46
  -2   2   7   93.72    7.82
  -2   2   7   80.76    7.04
   1  -2  -7  134.29    8.42
  -1  -2   7  116.18    9.52
  -1  -2   7  115.04   10.92
   1   2  -7  136.98   12.62
  -1   2   7  128.25   10.61
   1  -2  -7  122.10   11.91
   1   2  -7  130.76   11.27
   1  -2  -7  117.15   12.01
  -1  -2   7  131.27    9.70
  -1   2   7  128.79    8.73
   1   2  -7  119.45    8.17
   0   2   7  648.59   20.05
   0  -2   7  674.72   23.52
   0  -2   7  675.36   27.75
   0   2  -7  705.23   30.26
   0   2   7  683.16   26.63
   0  -2  -7  703.53   30.30
   0   2  -7  703.41   26.83
   0  -2  -7  701.52   30.27
   0  -2   7  679.80   19.22
   0  -2   7  653.55   22.79
   0   2   7  701.81   20.88
   0   2  -7  670.43   20.23
   1   2   7  155.27    7.94
  -1   2  -7  170.55   14.67
   1  -2   7  155.69   12.74
   1   2   7  147.98   12.11
  -1  -2  -7  149.71   13.67
  -1   2  -7  160.82   11.97
  -1  -2  -7  163.17   13.85
   1  -2   7  154.47    9.57
   1   2   7  146.72    7.68
   1  -2   7  164.63    6.90
  -1   2  -7  167.69    8.45
  -2   2  -7  276.55   19.19
   2  -2   7  289.46   17.59
   2   2   7  313.38   18.20
  -2  -2  -7  292.38   19.33
   2  -2   7  282.94   13.15
   2   2   7  277.15   16.03
  -2   2  -7  287.60   15.68
  -2  -2  -7  272.09   18.37
   2   2   7  265.86    7.77
   3  -2   7   23.50    5.36
   3   2   7   19.07    4.76
  -3   2  -7   30.85    6.98
  -3  -2  -7   22.98    5.77
  -3   2  -7   28.86    4.81
  -3  -2  -7   22.81    5.58
   3   2   7   22.62    4.49
   4  -2   7   50.17    7.67
   4   2   7   42.04    7.24
  -4   2  -7   55.62    9.06
  -4  -2  -7   52.78    8.53
  -4   2  -7   44.44    5.93
  -4  -2  -7   45.05    7.32
   5  -2   7    1.61    2.20
   5   2   7    4.35    2.99
  -5   2  -7   11.83    4.85
  -5  -2  -7    8.96    4.43
  -5   2  -7    6.76    2.78
  -5  -2  -7    2.69    2.41
  -6   2  -7  268.32   20.67
   6  -2   7  274.00   18.95
  -6  -2  -7  253.06   19.57
   6   2   7  275.90   19.39
   7  -2   7    9.92    4.50
   7   2   7    8.29    5.04
  -7   2  -7    2.82    4.03
  -7  -2  -7   12.82    5.42
  -7   2  -7   13.75    5.21
  -8   2  -7  376.86   25.98
  -8  -2  -7  392.97   25.14
   8  -2   7  385.04   23.92
   8   2   7  357.18   24.03
  -8   2  -7  394.56   23.40
   9  -2   7    3.55    4.21
  -9  -2  -7    7.39    5.57
 -11  -3   7    1.92    2.12
 -10  -3   7   27.89    6.87
 -10   3   7   34.73    6.87
 -10  -3   7   38.10    7.06
  10  -3  -7   31.65    7.03
 -10  -3   7   30.44    6.28
  10   3  -7   33.56    8.25
  10  -3  -7   27.28    7.16
  -9  -3   7    3.92    3.39
  -9   3   7    1.06    2.85
  -9  -3   7    1.77    2.93
   9   3  -7    2.11    3.29
   9  -3  -7    3.25    3.37
  -9  -3   7    3.77    3.19
   9   3  -7    2.03    3.03
   9  -3  -7    0.22    2.84
  -8  -3   7   69.43    9.15
   8   3  -7   81.26    9.86
  -8   3   7   55.06    8.23
  -8   3   7   60.89    6.62
   8  -3  -7   69.55    9.26
  -8  -3   7   59.33    8.43
   8   3  -7   73.60   10.68
   8  -3  -7   68.40   11.06
   8  -3  -7   55.22    8.66
   7  -3  -7  118.86   11.41
  -7  -3   7  114.03   11.53
  -7   3   7  102.63    8.82
   7   3  -7  114.33    9.75
   7  -3  -7  113.36   12.50
   7   3  -7  122.67   13.11
   7  -3  -7  126.24   14.08
  -7  -3   7  106.10   10.99
  -7   3   7  126.95   11.42
   6  -3  -7  766.07   29.56
  -6  -3   7  766.36   31.32
  -6   3   7  756.86   26.24
   6   3  -7  791.85   28.57
   6  -3  -7  749.86   33.22
   6   3  -7  785.34   33.46
   6  -3  -7  831.21   36.83
  -6  -3   7  780.18   30.61
  -6   3   7  778.71   29.31
   5  -3  -7  372.69   18.82
  -5  -3   7  351.91   20.31
  -5   3   7  314.95   16.33
   5   3  -7  347.01   18.42
   5  -3  -7  372.88   22.27
   5   3  -7  356.90   21.30
   5  -3  -7  390.34   23.68
  -5  -3   7  347.23   19.18
  -5   3   7  354.95   18.12
   4  -3  -7  330.35   16.68
  -4  -3   7  312.43   18.71
  -4   3   7  281.79   15.37
   4   3  -7  317.50   18.05
   4  -3  -7  314.36   20.21
   4   3  -7  315.63   19.13
   4  -3  -7  317.65   20.98
  -4  -3   7  304.66   17.16
  -4   3   7  321.11   16.47
  -3  -3   7   43.66    6.35
  -3   3   7   37.54    5.33
  -3  -3   7   41.83    6.76
  -3   3   7   34.50    5.44
   3  -3  -7   40.83    5.55
   3   3  -7   44.88    6.75
   3  -3  -7   32.94    6.51
   3   3  -7   37.31    6.41
   3  -3  -7   37.45    7.30
  -3  -3   7   42.80    5.49
  -2  -3   7   11.56    3.24
  -2   3   7    5.54    2.11
  -2   3   7    8.75    2.35
  -2  -3   7    7.06    3.14
  -2   3   7    8.99    2.73
   2  -3  -7    4.15    1.84
   2   3  -7    6.09    3.48
   2  -3  -7    5.21    2.99
   2   3  -7   10.88    3.75
   2  -3  -7    9.09    4.26
  -2  -3   7    8.74    2.48
  -1  -3   7   25.54    4.61
  -1   3   7   22.29    3.56
   1   3  -7   20.55    3.46
  -1   3   7   24.22    3.84
  -1  -3   7   32.26    5.76
   1  -3  -7   22.33    3.50
  -1   3   7   19.88    4.24
   1   3  -7   22.65    5.03
   1  -3  -7   22.53    5.49
   1   3  -7   24.03    4.73
   1  -3  -7   25.57    5.51
   0  -3  -7  208.74   10.07
   0  -3   7  191.90   14.49
   0   3  -7  200.58   15.83
   0   3   7  208.20   14.02
   0  -3  -7  201.40   16.02
   0   3  -7  205.37   13.39
   0  -3  -7  203.74   16.22
   0  -3   7  193.43    9.48
   0  -3   7  192.26   11.91
   0   3   7  196.38    9.90
   0   3  -7  190.77   10.48
   1   3   7  892.61   23.30
  -1  -3  -7  959.12   22.23
  -1   3  -7  974.01   37.00
   1  -3   7  949.65   33.64
   1   3   7  941.90   32.50
  -1  -3  -7  938.96   36.21
  -1   3  -7  925.06   29.67
  -1  -3  -7  893.22   35.82
   1  -3   7  897.16   27.00
   1   3   7  910.28   21.69
  -1   3  -7  841.04   23.50
  -2   3  -7   96.74   11.38
   2  -3   7   96.92   10.24
   2   3   7  102.79   10.30
  -2  -3  -7  101.96   11.85
  -2   3  -7   89.88    8.28
  -2  -3  -7   76.90   10.19
  -3   3  -7  713.22   32.50
   3  -3   7  632.52   27.77
   3   3   7  625.70   27.68
  -3  -3  -7  662.94   30.86
  -3   3  -7  650.11   23.47
  -3  -3  -7  644.53   30.73
   4  -3   7    5.38    2.38
   4   3   7    9.03    3.93
  -4   3  -7   13.34    5.11
  -4  -3  -7    4.91    3.72
  -4   3  -7    6.02    2.59
  -4  -3  -7    5.40    2.36
   5  -3   7   29.82    6.07
   5   3   7   33.50    6.93
  -5   3  -7   37.75    7.53
  -5  -3  -7   34.30    7.55
  -5   3  -7   29.88    4.48
  -5   3  -7   30.91    6.35
   6  -3   7   19.14    5.03
   6   3   7   18.66    5.81
  -6   3  -7   15.88    4.73
  -6  -3  -7   17.20    5.82
  -6   3  -7   20.88    5.47
  -7   3  -7  285.81   22.21
   7  -3   7  279.31   19.75
  -7  -3  -7  287.60   21.29
   7   3   7  298.96   21.21
  -7   3  -7  325.65   20.84
   8  -3   7    6.14    4.76
   8   3   7    5.52    3.77
  -8   3  -7    6.65    4.20
  -8  -3  -7    7.66    4.62
  -8   3  -7    9.29    5.09
   9  -3   7  397.18   25.03
 -11  -4   7  125.44   13.16
 -10  -4   7    2.85    2.85
 -10   4   7    1.11    2.67
 -10  -4   7    7.42    3.59
  10  -4  -7    5.91    3.84
 -10  -4   7   10.35    4.70
  -9  -4   7   -0.53    2.15
  -9   4   7   -1.43    3.32
  -9  -4   7    5.51    3.44
   9   4  -7    0.96    2.26
  -9  -4   7    5.70    4.29
   9  -4  -7    4.08    2.87
   9   4  -7    1.52    3.20
   9  -4  -7    5.11    4.49
  -8  -4   7   15.89    4.77
  -8   4   7   13.52    4.33
  -8  -4   7   12.99    4.05
   8   4  -7   14.77    5.14
  -8  -4   7   12.07    3.97
   8  -4  -7    7.85    3.17
  -8   4   7   12.35    2.79
   8   4  -7   12.72    5.20
   8  -4  -7   13.51    5.95
   8  -4  -7    7.57    3.58
  -7  -4   7  298.99   19.54
   7  -4  -7  293.99   18.49
  -7   4   7  274.15   14.35
   7  -4  -7  265.00   19.84
   7   4  -7  311.48   21.02
   7  -4  -7  278.29   21.52
  -7  -4   7  270.89   16.49
  -7  -4   7  308.51   19.38
   7   4  -7  291.64   13.63
  -7   4   7  276.80   17.44
  -6  -4   7  133.28   13.02
   6  -4  -7  114.96   11.06
  -6   4   7  119.23    9.47
   6   4  -7  130.20   10.81
   6  -4  -7  116.92   13.35
   6   4  -7  125.35   12.79
   6  -4  -7  126.48   14.22
  -6  -4   7  123.86   11.76
  -6   4   7  108.01   10.47
  -5  -4   7  600.92   27.89
   5  -4  -7  595.26   24.99
  -5   4   7  591.72   22.64
   5   4  -7  589.97   24.77
   5  -4  -7  636.66   30.89
   5   4  -7  588.16   27.66
   5  -4  -7  601.59   30.72
  -5  -4   7  616.62   26.40
  -5   4   7  558.10   23.66
  -4  -4   7  218.30   16.27
   4   4  -7  204.84   14.57
   4  -4  -7  222.89   14.08
  -4   4   7  226.00   13.50
   4  -4  -7  216.34   17.34
   4   4  -7  233.99   16.23
   4  -4  -7  234.20   18.42
  -4  -4   7  234.34   15.18
  -4   4   7  227.35   13.78
  -3  -4   7   -0.02    2.06
  -3   4   7    2.48    1.98
  -3  -4   7   -0.64    3.03
  -3   4   7    4.41    2.51
   3  -4  -7    2.04    1.58
   3   4  -7    4.65    2.56
   3  -4  -7    4.78    3.00
   3   4  -7    1.14    1.64
   3  -4  -7    0.88    3.15
  -2  -4   7   12.78    3.40
  -2   4   7   10.76    3.14
  -2   4   7    5.21    2.37
  -2  -4   7    8.52    3.24
  -2   4   7    9.20    3.02
   2   4  -7    9.50    3.63
   2  -4  -7   11.39    2.97
   2  -4  -7   11.22    4.54
   2   4  -7    6.52    2.65
   2  -4  -7   17.50    5.49
  -2  -4   7    9.65    2.55
  -1   4   7   17.45    3.13
  -1  -4   7   23.59    5.40
  -1   4   7   25.04    4.72
   1   4  -7   27.39    5.43
   1  -4  -7   23.68    3.86
   1  -4  -7   20.13    5.48
   1   4  -7   23.00    4.56
   1  -4  -7   25.95    6.47
  -1   4   7   24.82    4.06
  -1  -4   7   26.00    3.89
  -1  -4   7   26.56    4.75
   0   4  -7  187.02   15.46
   0  -4   7  174.93   14.06
   0  -4  -7  181.66    9.78
   0   4   7  188.45   13.21
   0  -4  -7  178.96   15.17
   0   4  -7  199.92   12.80
   0  -4  -7  168.61   15.30
   0  -4   7  183.08   12.00
   0   4   7  181.20    9.26
   0   4  -7  177.26   10.73
  -1   4  -7  284.71   19.76
   1  -4   7  303.95   18.64
  -1  -4  -7  294.43   12.11
   1   4   7  313.60   18.07
  -1  -4  -7  291.31   19.79
  -1   4  -7  300.48   15.60
  -1  -4  -7  303.05   20.91
   1  -4   7  295.30   15.27
   1   4   7  306.15   11.22
  -1   4  -7  286.62   13.35
  -2  -4  -7  821.40   19.96
  -2   4  -7  865.57   36.20
   2  -4   7  782.72   31.52
   2   4   7  759.33   30.25
  -2  -4  -7  824.04   34.80
  -2   4  -7  791.52   26.16
  -2  -4  -7  769.91   35.10
   2  -4   7  769.92   18.11
  -2   4  -7  846.06   31.08
   3  -4   7    5.44    3.08
   3   4   7    5.12    2.88
  -3   4  -7    8.22    4.31
  -3  -4  -7   -0.15    2.58
  -3   4  -7    3.43    1.76
  -3  -4  -7    4.13    3.36
  -3   4  -7   13.51    4.82
   4  -4   7   54.63    7.92
   4   4   7   53.11    8.33
  -4   4  -7   69.14   10.42
  -4   4  -7   53.48    5.75
  -4  -4  -7   49.54    8.66
  -4   4  -7   55.14    8.01
   5  -4   7    9.77    4.55
   5   4   7    8.90    4.18
  -5   4  -7    4.37    3.24
  -5  -4  -7    1.82    3.70
  -5   4  -7    9.25    4.25
   6  -4   7   25.84    5.71
   6   4   7   28.64    6.46
  -6   4  -7   41.65    8.25
  -6  -4  -7   28.10    6.97
  -6   4  -7   43.99    7.62
   7  -4   7   47.84    8.22
   7   4   7   50.34    9.29
  -7   4  -7   52.05    9.90
  -7  -4  -7   48.07    8.60
  -7   4  -7   37.53    7.44
  -8   4  -7  524.89   31.85
   8  -4   7  513.98   28.04
  -8  -4  -7  487.29   28.95
   8   4   7  540.27   30.60
  -8   4  -7  541.21   28.76
   9  -4   7   60.83    9.78
 -11  -5   7    3.78    3.35
 -10   5   7    4.10    3.43
 -10  -5   7    2.22    2.94
 -10  -5   7   -1.88    2.91
  10  -5  -7    3.32    3.34
  -9  -5   7    2.07    3.06
  -9   5   7    2.54    2.53
  -9  -5   7    4.38    2.72
   9   5  -7   -1.18    2.76
  -9  -5   7    3.01    2.32
   9  -5  -7    6.71    3.67
   9   5  -7    1.87    2.78
   9  -5  -7    6.25    5.22
   8   5  -7   89.80   11.04
  -8  -5   7  107.03   12.27
   8  -5  -7  110.74   11.94
   8   5  -7  103.91   12.57
   8  -5  -7  131.15   15.37
  -8  -5   7  113.12   11.08
  -8  -5   7  118.40   12.41
  -8   5   7  113.04   11.74
  -7  -5   7    5.50    3.26
  -7   5   7    1.97    2.18
  -7  -5   7    9.55    3.97
  -7  -5   7    7.98    4.56
  -7   5   7    5.59    2.32
   7  -5  -7    6.43    3.40
   7   5  -7    4.50    3.60
   7  -5  -7    7.46    3.99
   7  -5  -7    4.85    2.96
   7   5  -7    8.46    2.64
  -6  -5   7  185.00   15.79
  -6   5   7  204.91   12.33
   6  -5  -7  196.80   14.73
   6   5  -7  197.58   13.26
   6  -5  -7  202.76   17.74
   6   5  -7  213.05   16.71
   6  -5  -7  219.62   18.88
  -6  -5   7  189.87   13.22
  -6  -5   7  205.69   15.24
   6   5  -7  212.38   12.10
  -6   5   7  206.51   14.52
  -5  -5   7    7.38    3.31
  -5   5   7    8.51    3.03
  -5  -5   7   14.67    4.04
  -5  -5   7   12.38    5.52
  -5   5   7   12.78    3.18
   5   5  -7   13.82    4.17
   5  -5  -7    8.15    3.18
   5   5  -7    6.41    3.84
   5  -5  -7    8.77    3.96
   5  -5  -7   14.23    5.14
   5   5  -7    9.30    2.93
  -4  -5   7    1.50    1.79
  -4   5   7    1.38    1.87
  -4  -5   7    0.89    1.55
  -4  -5   7   10.07    4.86
  -4   5   7   -1.68    2.50
   4   5  -7    1.77    2.47
   4  -5  -7    3.14    2.98
   4   5  -7    5.84    2.93
   4  -5  -7    6.04    3.86
   4  -5  -7    0.26    2.17
   4   5  -7    1.10    1.90
  -3  -5   7    9.02    3.28
  -3   5   7    7.13    2.80
  -3  -5   7    8.16    2.61
  -3  -5   7   -0.17    3.11
  -3   5   7    3.25    2.28
   3   5  -7    7.29    3.61
   3   5  -7    8.28    3.26
   3  -5  -7    8.35    2.84
   3  -5  -7    7.30    3.71
   3  -5  -7    8.20    3.71
   3   5  -7    9.38    3.39
  -2   5   7    0.69    1.60
  -2  -5   7    1.18    1.63
  -2  -5   7   -2.52    2.97
  -2   5   7    0.17    1.82
   2   5  -7   -2.21    3.02
   2  -5  -7    1.19    2.73
   2   5  -7    2.48    2.97
   2  -5  -7    1.70    2.23
   2  -5  -7    8.36    3.62
   2   5  -7    3.37    3.20
  -2  -5   7    6.94    2.92
  -1   5   7   95.96    8.30
   1   5  -7  107.80   11.68
  -1  -5   7  114.08   11.59
  -1   5   7  109.53   10.18
   1  -5  -7  105.04   11.95
   1  -5  -7  115.00    8.92
  -1  -5   7  109.95    8.23
   1   5  -7  109.81    9.71
   1  -5  -7  128.09   13.95
  -1  -5   7  115.19    7.63
  -1  -5   7  106.19    9.87
   1   5  -7  122.98   10.49
  -1   5   7  102.70    7.75
   0   5   7  148.93   10.04
   0   5  -7  160.12   14.63
   0  -5   7  154.44   13.34
   0   5   7  153.05   12.28
   0  -5  -7  158.63   14.67
   0  -5  -7  162.21    9.95
   0   5  -7  158.39   11.23
   0  -5  -7  147.07   14.82
   0  -5   7  155.80    8.36
   0  -5   7  165.14   12.11
   0   5  -7  163.17   12.38
   0   5   7  160.87    9.01
  -1   5  -7  198.02   16.42
   1  -5   7  166.73   14.20
   1   5   7  216.43   14.94
  -1  -5  -7  177.49   15.74
  -1  -5  -7  216.67   10.77
  -1   5  -7  200.18   12.22
  -1  -5  -7  189.58   17.04
   1  -5   7  198.26    8.49
   1  -5   7  197.47   12.92
  -1   5  -7  195.64   14.07
   1   5   7  195.75    8.82
  -2  -5  -7   56.91    4.94
   2  -5   7   75.22    9.54
   2   5   7   67.93    8.50
  -2   5  -7   57.56    8.92
  -2   5  -7   64.13    6.56
  -2  -5  -7   65.37    9.67
  -2  -5  -7   55.34    9.51
  -2   5  -7   53.65    7.77
   3  -5   7   12.24    4.69
   3   5   7    5.98    3.15
  -3   5  -7    4.25    2.73
  -3  -5  -7    7.07    4.00
  -3   5  -7   12.31    3.00
   4  -5   7   20.43    5.12
   4   5   7   22.36    5.87
  -4   5  -7   10.91    3.63
  -4  -5  -7   14.46    5.26
  -4   5  -7   22.31    5.07
   5  -5   7   10.34    4.46
   5   5   7    6.53    3.45
  -5   5  -7    4.53    3.46
  -5  -5  -7   10.64    4.39
  -5   5  -7    0.75    2.32
   6  -5   7   12.86    4.37
   6   5   7   14.94    5.24
  -6   5  -7   11.12    4.93
  -6  -5  -7   12.91    5.26
  -6   5  -7   15.23    5.10
  -7   5  -7  189.28   18.67
   7  -5   7  186.98   16.10
   7   5   7  186.75   17.27
  -7  -5  -7  168.49   16.74
  -7   5  -7  196.53   16.76
   8  -5   7    1.38    3.28
  -8  -5  -7    0.42    2.87
   9  -5   7   95.98   12.12
 -10  -6   7    0.48    3.56
  -9  -6   7    7.74    3.39
  -9   6   7    8.00    3.36
  -9  -6   7    8.47    2.90
   9   6  -7   17.80    5.84
  -9  -6   7   11.12    6.08
   9  -6  -7    9.65    4.72
   9   6  -7    2.63    2.94
   9  -6  -7    9.84    5.15
  -8  -6   7   -3.59    3.28
  -8   6   7    4.68    4.04
  -8  -6   7    2.34    2.79
   8   6  -7   -0.04    2.71
  -8  -6   7    4.09    4.18
   8  -6  -7    1.32    2.82
   8   6  -7    3.30    3.57
   8  -6  -7   -0.07    3.46
  -7  -6   7   25.99    5.81
  -7   6   7   19.17    5.25
  -7  -6   7   21.51    4.84
   7   6  -7   24.53    6.17
  -7  -6   7   22.24    6.20
  -7   6   7   27.37    4.49
   7  -6  -7   16.75    5.13
   7   6  -7   25.62    6.59
   7  -6  -7   21.56    6.31
   7  -6  -7   10.76    3.70
  -6  -6   7   -2.81    3.27
  -6   6   7   -0.85    2.01
  -6  -6   7    0.78    1.89
  -6  -6   7    4.20    4.06
  -6   6   7    2.29    1.90
   6   6  -7    2.85    2.27
   6   6  -7    0.47    2.94
   6  -6  -7    3.54    3.05
   6  -6  -7    1.38    2.70
   6  -6  -7   -1.96    4.43
   6   6  -7    1.20    1.68
  -5  -6   7   52.82    7.80
  -5   6   7   51.78    7.17
  -5  -6   7   61.80    9.55
  -5   6   7   54.40    6.40
   5   6  -7   66.95    8.11
   5   6  -7   61.02    8.56
   5  -6  -7   56.55    7.85
  -5  -6   7   66.25    7.62
   5  -6  -7   67.07   10.86
   5  -6  -7   63.11   10.25
   5   6  -7   61.58    6.84
  -4  -6   7   37.33    6.55
  -4   6   7   50.27    6.75
  -4  -6   7   44.95    5.92
  -4  -6   7   42.05    7.87
  -4   6   7   43.20    5.87
   4   6  -7   53.37    7.71
   4   6  -7   42.77    6.96
   4  -6  -7   46.26    8.57
   4  -6  -7   50.92    9.22
   4  -6  -7   41.74    6.54
   4   6  -7   50.60    6.49
  -3  -6   7    9.55    3.99
  -3   6   7    6.38    2.69
  -3  -6   7    8.30    2.55
  -3  -6   7   12.46    4.72
  -3   6   7    4.85    2.16
   3   6  -7    9.14    3.95
   3   6  -7    6.84    3.05
   3  -6  -7    9.63    3.91
   3  -6  -7    5.73    3.39
   3  -6  -7    7.03    2.91
   3   6  -7    6.55    2.68
  -2   6   7    3.22    2.21
  -2  -6   7    4.70    1.86
  -2  -6   7    2.22    2.65
  -2   6   7   -0.28    2.09
   2   6  -7    1.63    2.01
   2   6  -7    2.73    1.96
   2  -6  -7    3.16    3.08
   2  -6  -7    3.67    3.96
   2  -6  -7    9.70    3.24
   2   6  -7    2.80    2.76
  -2  -6   7    6.25    2.59
  -1   6   7   20.43    3.88
  -1  -6   7   14.89    2.89
  -1  -6   7    8.94    4.00
  -1   6   7   11.52    3.41
   1   6  -7    8.29    3.69
   1   6  -7   10.14    3.21
   1  -6  -7    7.97    4.20
   1  -6  -7   15.46    6.39
   1  -6  -7   13.20    3.52
   1   6  -7   20.76    4.50
  -1  -6   7   11.52    3.82
   0  -6   7   34.04    6.70
   0   6   7   41.75    6.43
   0   6  -7   33.00    7.19
   0  -6   7   35.66    3.90
   0   6  -7   37.98    5.51
   0  -6  -7   39.59    7.43
   0  -6  -7   45.84    8.77
   0  -6  -7   40.99    5.33
   0   6   7   41.74    4.72
   0   6  -7   34.60    5.92
   0  -6   7   37.25    6.10
   1   6   7    0.97    1.02
   1  -6   7    1.56    2.74
   1   6   7    3.90    3.11
  -1   6  -7    7.76    4.51
  -1  -6  -7   -0.60    3.66
  -1   6  -7    4.06    2.16
  -1  -6  -7   -1.66    3.96
  -1  -6  -7    0.82    1.26
  -1   6  -7    2.73    1.90
   2   6   7   95.39   10.31
   2  -6   7   79.90   10.00
  -2  -6  -7   69.71    6.15
  -2   6  -7   67.76   10.28
  -2   6  -7   83.90    6.97
  -2  -6  -7   75.76   10.48
  -2  -6  -7   73.91   11.66
  -2   6  -7   78.44    9.17
   3  -6   7    4.80    3.75
   3   6   7    5.36    3.84
  -3   6  -7    7.24    5.02
  -3  -6  -7    7.08    4.01
  -3   6  -7    5.08    3.45
   4  -6   7   18.42    5.04
   4   6   7   17.89    4.98
  -4   6  -7   21.83    6.61
  -4  -6  -7   14.26    4.92
  -4   6  -7   21.08    5.17
   5  -6   7    0.57    3.35
   5   6   7    2.18    3.20
  -5  -6  -7   -0.28    2.62
  -5   6  -7    0.32    2.21
   6  -6   7   30.69    6.59
   6   6   7   33.31    7.59
  -6   6  -7   36.24    8.51
  -6  -6  -7   29.01    7.65
  -6   6  -7   38.49    7.36
   7  -6   7   15.63    4.45
   7   6   7   13.79    4.55
  -7   6  -7   27.29    8.43
  -7  -6  -7   17.78    5.56
  -7   6  -7   17.22    5.17
   8  -6   7    0.89    3.06
   9  -6   7   22.42    6.91
  -9  -7   7   17.20    4.81
  -9   7   7   25.21    6.18
   9   7  -7   12.28    4.82
  -9  -7   7   10.09    4.68
   9  -7  -7   20.60    5.81
   9   7  -7   17.96    6.12
  -8  -7   7   61.83    9.50
  -8  -7   7   62.59    8.46
  -8   7   7   67.84    9.83
   8   7  -7   49.86    8.84
  -8  -7   7   61.29   10.46
   8  -7  -7   73.81   10.22
   8   7  -7   77.34   11.25
   8  -7  -7   73.72   12.02
  -7  -7   7   -0.36    2.63
  -7  -7   7    1.78    2.57
  -7   7   7    9.60    4.73
   7   7  -7    3.33    3.84
  -7  -7   7    0.64    2.83
   7   7  -7    0.09    2.64
   7  -7  -7    5.58    3.24
   7  -7  -7    3.22    3.37
  -6  -7   7  191.38   17.52
   6   7  -7  216.27   14.28
  -6   7   7  199.36   12.20
   6  -7  -7  183.27   15.31
   6  -7  -7  200.32   19.03
   6   7  -7  203.12   16.63
   6  -7  -7  205.16   19.02
  -6  -7   7  207.71   14.27
  -6  -7   7  237.15   17.42
   6   7  -7  189.72   12.07
  -6   7   7  185.45   14.42
  -5  -7   7   18.14    5.37
  -5  -7   7   13.95    3.88
  -5   7   7   15.58    3.95
  -5  -7   7   11.86    5.18
  -5   7   7    5.62    2.19
   5   7  -7   14.75    4.34
   5   7  -7   14.60    4.39
   5  -7  -7    3.77    4.03
   5  -7  -7    3.81    2.89
   5  -7  -7   13.14    4.11
   5   7  -7    5.37    1.90
  -4  -7   7   28.19    5.88
  -4  -7   7   30.05    4.80
  -4   7   7   29.16    5.43
  -4  -7   7   30.39    7.22
  -4   7   7   31.13    4.98
   4   7  -7   37.07    6.42
   4   7  -7   25.26    5.62
   4  -7  -7   38.76    8.57
   4  -7  -7   32.52    8.28
   4  -7  -7   26.32    5.38
   4   7  -7   26.41    4.70
  -3  -7   7   38.26    5.34
  -3   7   7   41.29    6.02
  -3  -7   7   35.63    7.92
  -3   7   7   49.16    6.56
   3   7  -7   52.91    8.26
   3   7  -7   40.35    6.40
   3  -7  -7   39.93    8.47
   3  -7  -7   51.22    9.81
   3  -7  -7   43.06    6.67
   3   7  -7   50.25    6.88
  -3  -7   7   43.45    7.22
  -2  -7   7    2.90    1.40
  -2   7   7    4.02    2.46
  -2  -7   7   14.01    5.08
  -2   7   7    7.77    3.21
   2   7  -7    4.35    2.74
   2   7  -7    5.38    2.93
   2  -7  -7   12.87    5.62
   2  -7  -7    8.28    5.42
   2  -7  -7    5.10    2.02
   2   7  -7    3.78    2.68
  -2  -7   7    5.19    3.43
  -1   7   7   69.61    8.45
  -1  -7   7   47.78    7.98
   1  -7  -7   65.46    7.56
   1   7  -7   66.67    9.93
   1   7  -7   65.20    7.50
  -1  -7   7   59.74    5.68
   1  -7  -7   75.49   11.14
   1  -7  -7   64.13   10.69
   1   7  -7   66.35    8.18
  -1   7   7   57.57    6.22
  -1  -7   7   68.80    8.62
   0   7  -7  111.36   12.79
   0  -7   7  115.40   12.36
   0   7   7   97.74   10.23
   0  -7  -7  118.83   13.91
   0  -7  -7  124.48    9.89
   0   7  -7  108.23    8.98
   0  -7   7   97.45    6.61
   0  -7  -7  119.07   14.55
   0  -7   7  118.04   11.13
   0   7  -7  119.43   11.23
   0   7   7  119.32    8.28
  -1   7  -7  191.92   17.28
   1  -7   7  167.25   14.85
   1   7   7  183.67   14.35
  -1  -7  -7  208.29   18.02
  -1  -7  -7  190.22   11.82
  -1   7  -7  203.54   11.59
  -1  -7  -7  174.29   17.94
  -1   7  -7  172.54   13.89
  -2   7  -7   94.99   12.53
   2  -7   7   91.10   11.03
   2   7   7   87.14   10.10
  -2  -7  -7   89.81    7.55
  -2  -7  -7   81.84   11.09
  -2   7  -7   80.90    9.58
   3   7   7   91.64   10.95
   3  -7   7   74.13    9.89
  -3   7  -7   76.00   11.70
  -3  -7  -7   72.18   10.64
  -3   7  -7   81.70    9.87
   4  -7   7    5.30    2.80
   4   7   7   18.79    5.01
  -4   7  -7   14.14    5.80
  -4  -7  -7   11.67    4.71
  -4   7  -7   10.79    4.16
   5  -7   7    7.00    3.64
   5   7   7    8.31    4.60
  -5   7  -7   15.53    6.62
  -5  -7  -7    3.71    2.76
  -5   7  -7    7.82    3.30
   6  -7   7    3.51    2.92
   6   7   7    2.20    3.40
  -6   7  -7    8.69    4.06
  -6  -7  -7    3.10    3.61
  -6   7  -7   -0.57    3.00
  -7  -7  -7  152.48   16.30
   7  -7   7  147.66   14.60
  -7  -7  -7  163.34   17.15
   8  -7   7    1.55    2.90
   9  -7   7   99.73   12.48
  10   8  -7   -2.00    4.21
  -9  -8   7   90.38   10.80
   9   8  -7   85.44   12.44
  -8  -8   7   27.96    7.03
  -8  -8   7   27.42    5.81
  -8   8   7   34.86    6.84
   8   8  -7   34.57    7.89
  -8  -8   7   28.42    7.16
   8   8  -7   27.37    7.07
   8  -8  -7   33.95    7.45
   8  -8  -7   27.70    7.91
   7   8  -7  422.68   26.37
  -7  -8   7  391.74   27.52
   7  -8  -7  450.63   25.99
   7   8  -7  471.28   26.54
   7  -8  -7  463.41   30.05
  -7  -8   7  482.66   23.56
  -7  -8   7  486.22   26.66
  -7   8   7  475.77   25.00
  -6   8   7   69.35    9.13
   6   8  -7   79.03   11.00
  -6  -8   7   82.75   12.34
   6   8  -7   83.26   10.66
  -6  -8   7   76.11    8.88
   6  -8  -7   96.98   13.64
   6  -8  -7   82.57   12.63
   6  -8  -7   93.15   11.12
  -6  -8   7   96.32   11.40
  -5  -8   7  102.16   13.20
   5   8  -7  116.13   11.39
  -5   8   7  116.38    9.65
   5  -8  -7  112.08   11.79
   5   8  -7  125.03   12.40
   5  -8  -7  121.62   14.88
  -5  -8   7  115.77   10.24
   5  -8  -7  107.80   14.01
  -5  -8   7  130.17   12.96
   5   8  -7  111.28    9.75
  -5   8   7  110.99   10.95
  -4  -8   7   14.93    3.57
  -4   8   7   11.31    3.49
  -4  -8   7   15.59    5.32
  -4   8   7   14.71    3.83
   4   8  -7   12.56    3.90
   4   8  -7   10.28    3.62
   4  -8  -7   22.05    5.84
   4  -8  -7   12.16    4.03
   4  -8  -7   14.69    4.31
   4   8  -7    7.43    2.49
  -4  -8   7   16.07    4.94
  -3  -8   7    1.51    1.54
  -3   8   7    6.18    2.64
  -3  -8   7   12.44    6.28
  -3   8   7    9.48    3.45
   3   8  -7    4.48    2.01
   3   8  -7    0.18    1.79
   3  -8  -7    9.10    3.75
   3  -8  -7   11.28    4.79
   3  -8  -7    7.39    3.42
   3   8  -7    4.67    2.47
  -3  -8   7    5.46    2.78
   2   8  -7  146.30   14.64
  -2  -8   7  150.04   15.32
  -2   8   7  154.66   12.14
   2  -8  -7  149.30   16.11
   2  -8  -7  154.17   12.61
   2   8  -7  154.25   12.04
   2  -8  -7  131.51   15.48
  -2  -8   7  151.97   10.01
  -2  -8   7  155.14   13.65
   2   8  -7  154.91   12.52
  -2   8   7  148.39   10.95
   1   8  -7  107.33   12.59
  -1  -8   7  138.67   14.28
  -1   8   7  105.99   10.72
   1  -8  -7  106.93   13.47
   1   8  -7  115.09    9.69
   1  -8  -7  105.66    9.99
  -1  -8   7   99.57    7.46
   1  -8  -7  113.53   14.24
  -1  -8   7  104.56   11.12
   1   8  -7   99.18   10.11
  -1   8   7   99.34    8.45
   0   8  -7  551.54   30.32
   0  -8   7  518.33   27.78
   0   8   7  538.51   24.92
   0  -8  -7  552.72   31.16
   0   8  -7  546.86   21.17
   0  -8  -7  559.70   23.35
   0  -8  -7  513.36   31.97
   0   8  -7  554.26   25.62
   0   8   7  511.58   19.19
   1  -8   7  158.23   10.90
  -1   8  -7  151.47   15.89
   1  -8   7  156.66   14.85
   1   8   7  159.58   13.67
  -1  -8  -7  151.01   16.22
  -1  -8  -7  144.49   10.96
  -1  -8  -7  153.39   17.64
  -1   8  -7  147.26   13.14
  -2   8  -7  122.09   14.59
   2  -8   7  128.43   13.08
   2   8   7  134.70   12.72
  -2  -8  -7  139.30   15.24
  -2  -8  -7  113.41    9.21
  -2   8  -7  111.53   11.77
   3   8   7   17.04    7.39
   3  -8   7   10.67    4.65
   3   8   7   11.19    4.28
  -3   8  -7   10.72    4.93
  -3  -8  -7   11.61    5.11
  -3   8  -7    8.66    3.33
   4   8   7   26.03    7.92
   4  -8   7   24.17    6.22
   4   8   7   20.70    5.72
  -4   8  -7   21.90    7.32
  -4  -8  -7   20.45    5.79
  -4   8  -7   26.46    6.38
   5   8   7   23.10    7.87
   5  -8   7   28.44    6.48
   5   8   7   21.12    6.92
  -5   8  -7   32.99    8.51
  -5  -8  -7   27.20    7.32
  -5   8  -7   28.02    6.41
  -6  -8  -7  269.99   22.70
   6  -8   7  275.46   20.21
  -6  -8  -7  301.51   23.61
   7  -8   7   13.10    5.04
  -7  -8  -7   12.25    7.18
   8  -8   7  304.83   21.65
   9   9  -7   -1.80    4.18
   8   9  -7  198.23   19.25
   8   9  -7  217.98   18.78
  -8  -9   7  195.71   15.80
  -8   9   7  217.43   17.60
   7   9  -7  171.51   17.29
  -7  -9   7  146.77   17.73
   7  -9  -7  150.67   15.13
   7   9  -7  172.19   15.97
   7  -9  -7  154.50   17.51
  -7  -9   7  160.32   13.75
  -7  -9   7  179.32   16.17
  -7   9   7  162.28   14.63
   6   9  -7  338.48   23.26
  -6  -9   7  295.56   24.45
   6  -9  -7  348.03   22.56
   6   9  -7  363.94   22.49
   6  -9  -7  342.45   26.03
  -6  -9   7  328.06   18.70
  -6  -9   7  343.96   22.38
  -6   9   7  315.27   20.01
   5   9  -7  159.97   15.91
  -5  -9   7  160.65   17.26
   5   9  -7  152.99   13.33
   5  -9  -7  135.21   16.46
   5  -9  -7  133.28   13.53
   5   9  -7  164.42   14.43
   5  -9  -7  155.81   17.45
  -5  -9   7  142.49   11.51
  -5  -9   7  162.99   15.03
   5   9  -7  146.49   12.15
  -5   9   7  151.24   13.13
  -4   9   7   76.09    8.11
  -4  -9   7   73.73   11.49
   4  -9  -7   90.72   10.74
   4   9  -7   74.16    9.34
   4   9  -7   74.78    9.84
  -4  -9   7   66.49    7.57
   4  -9  -7   61.23   11.06
   4  -9  -7   54.81   10.44
   4   9  -7   69.40    8.62
  -4   9   7   70.36    8.65
  -4  -9   7   88.82   10.81
  -3  -9   7    1.63    1.51
  -3   9   7    4.56    2.80
  -3  -9   7    7.53    4.36
  -3   9   7    4.31    3.17
   3   9  -7    1.26    2.31
   3   9  -7    0.63    2.35
   3  -9  -7    3.88    3.60
   3  -9  -7   11.56    5.28
   3  -9  -7    2.71    2.86
   3   9  -7   -0.48    3.11
  -3  -9   7    5.39    3.00
  -2  -9   7  105.20   13.60
  -2   9   7   91.72    9.48
   2   9  -7   72.30   10.46
   2   9  -7   89.60    9.23
   2  -9  -7   92.90   10.51
  -2  -9   7   89.07    7.67
   2  -9  -7   79.76   12.17
   2  -9  -7   70.79   11.70
  -2   9   7   80.30    8.43
   2   9  -7   76.95    8.96
  -2  -9   7   78.77    9.91
   1   9  -7  208.04   18.59
  -1  -9   7  244.96   19.92
  -1   9   7  227.58   15.89
   1  -9  -7  225.47   20.37
   1   9  -7  237.31   14.19
   1  -9  -7  217.77   15.57
   1  -9  -7  241.25   22.08
  -1  -9   7  232.25   17.24
   1   9  -7  219.12   15.77
  -1   9   7  222.28   13.42
   0  -9   7   87.21   11.65
   0   9   7   77.21    9.38
   0   9  -7   71.01   11.20
   0  -9  -7   75.63    8.67
   0  -9  -7  100.23   13.57
   0  -9  -7   82.27   13.08
   0   9  -7   68.62    8.90
  -1   9  -7  466.33   29.62
   1  -9   7  546.27   28.80
   1   9   7  517.16   25.90
  -1  -9  -7  547.80   31.66
  -1  -9  -7  515.04   23.11
  -1  -9  -7  491.53   33.31
  -1   9  -7  510.97   25.91
   1   9   7  476.33   29.05
   2   9   7   36.99    8.68
   2  -9   7   39.97    7.85
   2   9   7   38.99    7.47
  -2   9  -7   40.15    9.38
  -2  -9  -7   48.97    9.76
  -2   9  -7   30.35    6.37
  -3   9  -7  113.22   15.14
   3  -9   7  130.82   13.74
   3   9   7  126.73   13.61
  -3  -9  -7  148.09   16.24
  -3   9  -7  126.13   13.19
   3   9   7  128.80   16.01
   4   9   7   20.90    7.12
   4  -9   7   21.57    5.69
   4   9   7    6.62    3.69
  -4   9  -7   17.29    7.41
  -4  -9  -7   30.75    8.42
  -4   9  -7    8.93    3.24
  -5   9  -7  128.80   16.47
   5  -9   7  134.82   14.10
   5   9   7  123.91   13.96
  -5  -9  -7  148.31   16.53
  -5   9  -7  117.15   13.51
   5   9   7  138.02   17.49
   6  -9   7    6.10    3.04
  -6  -9  -7   11.77    5.71
  -7  -9  -7  223.41   22.72
   7  -9   7  231.53   18.69
   8  -9   7    7.86    3.69
  -8 -10   7    3.39    3.02
   8  10  -7    4.77    3.93
   8  10  -7    2.57    3.43
   7  10  -7  187.11   18.49
   7 -10  -7  208.66   18.41
   7  10  -7  225.35   18.68
  -7 -10   7  215.44   16.00
  -7  10   7  205.08   16.89
   6  10  -7  151.79   16.26
   6 -10  -7  181.45   16.72
   6  10  -7  161.26   14.86
   6 -10  -7  169.78   18.98
  -6 -10   7  163.56   13.42
  -6 -10   7  180.40   16.38
  -6  10   7  141.65   13.73
   5  10  -7  292.12   21.78
  -5 -10   7  244.97   22.59
   5 -10  -7  292.11   20.88
   5  10  -7  269.06   18.83
  -5 -10   7  267.60   16.60
   5 -10  -7  307.28   25.36
  -5 -10   7  285.48   20.46
  -5  10   7  259.72   18.00
  -4 -10   7   55.38    7.13
  -4  10   7   61.45    8.58
  -4 -10   7   48.83    9.90
  -4  10   7   59.83    7.60
   4  10  -7   52.87    8.79
   4  10  -7   54.25    7.93
   4 -10  -7   67.65   12.18
   4 -10  -7   40.10    8.95
   4 -10  -7   64.91    9.61
   4  10  -7   51.88    7.74
  -4 -10   7   60.34    9.37
  -3 -10   7   28.28    4.79
  -3  10   7   31.03    5.92
  -3 -10   7   26.97    7.30
  -3  10   7   31.93    5.68
   3  10  -7   32.83    7.45
   3  10  -7   24.08    5.21
   3 -10  -7   31.29    9.13
   3 -10  -7   32.72    8.55
   3  10  -7   35.75    7.20
   3 -10  -7   36.96    7.18
  -3 -10   7   42.92    8.13
  -2  10   7    1.12    1.67
  -2 -10   7   -1.71    2.86
  -2  10   7    5.95    3.44
   2  10  -7   -0.95    3.47
   2  10  -7    3.33    1.90
   2 -10  -7   -2.69    4.07
   2 -10  -7   11.34    6.06
   2  10  -7    5.91    4.13
  -2 -10   7   -3.14    3.22
   2 -10  -7   -2.09    2.75
   1 -10  -7   33.56    6.58
  -1  10   7   23.28    4.50
  -1 -10   7   24.82    7.33
  -1  10   7   24.19    5.66
   1  10  -7   29.74    7.41
   1 -10  -7   51.29   10.17
   1 -10  -7   25.76    7.24
   1  10  -7   33.66    6.86
   0  10  -7  146.70   16.94
   0 -10   7  168.07   16.53
   0  10   7  180.96   14.81
   0 -10  -7  166.14   18.01
   0 -10  -7  195.59   21.19
   0 -10  -7  158.75   13.61
   0  10  -7  178.76   15.50
   0  10   7  159.33   16.08
   1  10   7   57.80   10.59
  -1 -10  -7   49.87    7.15
   1 -10   7   44.81    8.00
   1  10   7   50.72    8.44
  -1  10  -7   41.39    9.75
  -1 -10  -7   46.46    9.98
  -1  10  -7   55.24    8.76
  -2  10  -7  354.77   27.36
   2 -10   7  407.26   25.33
   2  10   7  375.01   23.44
  -2 -10  -7  410.13   28.22
  -2  10  -7  380.56   23.56
   2  10   7  389.06   27.67
   3  10   7    6.11    4.72
   3 -10   7   -0.13    2.91
  -3  10  -7    6.09    5.50
   3  10   7    2.67    2.71
  -3 -10  -7   13.02    6.74
  -3  10  -7    5.26    2.99
   4  10   7   81.34   14.18
   4 -10   7   75.41   10.71
  -4  10  -7   75.89   13.16
   4  10   7   68.27   10.85
  -4  10  -7   74.87   11.38
   5 -10   7    8.01    3.72
   6 -10   7   51.88    9.16
  -6 -10  -7   39.63    9.94
   7 -10   7    6.16    3.77
  -7 -10  -7   -0.93    5.15
  -7 -11   7   -3.60    3.55
   6 -11  -7  154.93   16.14
  -6 -11   7  149.70   12.96
  -6  11   7  140.46   13.93
  -5 -11   7   25.16    5.03
  -5  11   7   15.23    4.62
   5  11  -7   26.70    7.58
   5 -11  -7   38.44    8.54
  -5 -11   7   26.53    6.84
  -4  11   7    8.15    3.81
   4  11  -7   21.20    6.47
   4  11  -7   16.57    5.62
   4 -11  -7   16.10    6.79
   4  11  -7    6.36    3.53
   4 -11  -7   16.07    4.94
  -4 -11   7   11.98    4.11
  -3  11   7   16.79    4.72
  -3 -11   7   20.39    7.28
  -3  11   7   12.94    3.73
   3  11  -7   11.38    4.51
   3 -11  -7   13.61    6.59
   3 -11  -7   14.57    5.56
   3  11  -7   15.31    4.74
  -3 -11   7   14.28    5.21
   3 -11  -7   18.63    5.66
   2 -11  -7   15.36    5.03
  -2  11   7   23.82    5.17
  -2 -11   7   19.69    7.09
  -2  11   7   20.60    4.74
   2  11  -7   22.33    6.32
   2 -11  -7   25.43    7.27
   2 -11  -7   32.85    8.92
   2  11  -7   32.93    6.80
  -2 -11   7   17.67    5.85
   1 -11  -7   -1.50    2.52
  -1  11   7    7.27    4.56
  -1 -11   7    6.04    5.95
   1  11  -7    4.50    4.94
  -1  11   7   -0.29    2.72
   1 -11  -7   -6.17    4.96
   1 -11  -7   -7.30    6.61
   1  11  -7    0.52    2.76
   0  11   7   91.25   12.61
   0 -11  -7   82.90   10.43
   0 -11   7   80.63    9.30
   0 -11   7   91.79   12.64
   0  11  -7   94.13   13.97
   0  11   7   81.60   10.46
   0 -11  -7   92.26   13.69
   0 -11  -7   75.77   13.52
   0  11  -7   81.91   11.02
   1 -11   7  123.49   14.45
   1  11   7  116.34   12.76
  -1 -11  -7  132.60   16.48
  -1  11  -7  107.45   15.36
  -1 -11  -7  119.26   12.54
  -1  11  -7  127.02   14.08
   1  11   7  124.06   15.41
   2  11   7   37.57    9.16
   2 -11   7   21.80    6.08
  -2  11  -7   25.62    7.98
   2  11   7   40.89    7.86
  -2  11  -7   40.39    8.88
   3  11   7   68.03   12.79
   3 -11   7   56.99    9.70
  -3  11  -7   73.49   13.19
   3  11   7   72.09   10.42
   4 -11   7   45.62    8.97
   5 -11   7   12.33    4.88
   6 -11   7   -3.04    4.07
  -6 -12   7   24.43    5.48
  -6  12   7   12.50    5.11
  -5  12   7   -0.07    2.48
   5 -12  -7    2.62    3.24
  -4  12   7   -4.69    2.54
   4 -12  -7    5.62    4.22
   3 -12  -7   51.36    9.22
  -3  12   7   46.90    7.42
   3  12  -7   50.40   10.51
   3  12  -7   35.91    7.67
  -3 -12   7   62.35   10.25
   2 -12  -7    0.41    3.06
  -2  12   7    2.03    3.47
   2  12  -7    3.39    4.37
   2  12  -7    0.11    2.29
  -1  12   7    2.39    3.87
   1 -12  -7   -2.70    2.40
   1  12  -7    7.20    5.20
   1  12  -7   -0.27    2.26
   0 -12  -7   -3.36    3.75
   0 -12   7    2.73    4.13
   0  12  -7   -2.85    3.33
   0  12  -7   -0.82    2.34
   1  12   7   28.36    8.55
   1 -12   7   47.79    9.34
  -1  12  -7   29.63    8.96
  -1  12  -7   52.53    9.39
   2  12   7    7.22    4.83
   2 -12   7   10.01    5.49
   3 -12   7   21.78    6.76
  -5  13   7   34.36    7.69
  -4  13   7   52.91    8.70
   3 -13  -7   30.96    7.67
   3  13  -7   30.98    8.73
   3  13  -7   32.15    7.13
   2 -13  -7   -4.76    3.08
   2  13  -7   -0.91    3.60
  -1  13   7   11.28    5.04
   1 -13  -7    3.00    2.81
   1  13  -7    9.52    5.27
   1  13  -7   16.97    6.41
   0  13   7   15.62    6.02
   0 -13  -7   16.89    5.49
   0  13  -7   13.25    6.56
   0  13  -7   12.73    4.75
   1  13   7   66.55   12.55
   2  14  -7   61.18   12.46
   1 -14  -7   17.29    6.73
  -9   0   8   22.52    6.37
  -9   0   8   16.99    4.44
  -8   0   8   75.82   10.07
  -8   0   8   63.53    8.26
   8   0  -8   79.47   11.96
  -7   0   8    6.20    3.54
  -7   0   8    0.08    2.52
   7   0  -8   -0.40    2.83
   7   0  -8    6.55    3.90
  -6   0   8   17.23    4.53
  -6   0   8   22.40    5.07
   6   0  -8   15.82    4.24
   6   0  -8   17.15    5.16
  -5   0   8   59.95    8.05
  -5   0   8   58.46    7.96
   5   0  -8   65.17    9.13
   5   0  -8   69.74   10.10
  -4   0   8  400.06   21.40
   4   0  -8  416.92   23.61
   4   0  -8  436.10   25.34
  -4   0   8  415.30   20.74
  -3   0   8  586.59   26.60
   3   0  -8  649.51   30.24
   3   0  -8  675.60   31.22
  -3   0   8  630.83   25.37
  -2   0   8  127.90   11.98
   2   0  -8  149.12   14.34
   2   0  -8  142.92   13.68
  -2   0   8  141.65   10.89
  -1   0   8  216.28   15.74
   1   0  -8  223.87   17.57
   1   0  -8  235.75   17.39
  -1   0   8  220.58   12.96
   0   0   8    0.40    1.57
   0   0   8    0.13    2.04
   0   0  -8   -2.31    2.86
   0   0  -8    1.40    2.22
   1   0   8   32.02    6.38
  -1   0  -8   19.36    5.38
  -1   0  -8   16.82    4.79
   2   0   8  109.35   11.83
  -2   0  -8  106.12   12.74
  -2   0  -8  103.46   11.18
   3   0   8  577.63   28.17
  -3   0  -8  617.72   31.91
  -3   0  -8  593.46   27.28
   4   0   8    7.62    4.74
  -4   0  -8    3.80    3.71
  -4   0  -8    4.76    3.14
  -5   0  -8  479.36   28.84
   5   0   8  451.89   25.85
  -5   0  -8  445.13   23.47
   6   0   8   84.26   11.09
  -6   0  -8   91.21   12.95
  -9  -1   8   97.86   10.49
  -9   1   8  102.94   10.15
  -9  -1   8   99.56   11.86
  -9   1   8  102.37   11.88
  -8  -1   8   20.92    5.33
  -8   1   8   19.37    5.49
  -8  -1   8   20.18    5.07
  -8   1   8   16.73    4.19
   8   1  -8   12.49    4.83
   8  -1  -8   12.02    5.28
  -7  -1   8    8.38    3.70
  -7   1   8    4.62    2.48
  -7  -1   8   12.01    4.32
  -7   1   8    5.54    2.86
   7   1  -8    6.58    4.12
   7  -1  -8   16.01    5.41
   7  -1  -8   10.85    5.40
  -6  -1   8   58.26    8.23
  -6   1   8   69.68    8.85
  -6  -1   8   76.70    9.29
  -6   1   8   68.58    8.39
   6   1  -8   65.67    9.09
   6  -1  -8   72.62    9.73
   6   1  -8   69.38   10.47
   6  -1  -8   75.88   11.19
  -5  -1   8  216.37   15.91
  -5   1   8  222.59   15.17
   5   1  -8  222.61   16.58
   5  -1  -8  241.70   18.16
   5   1  -8  231.57   18.60
   5  -1  -8  217.43   18.50
  -5  -1   8  214.41   15.55
  -5   1   8  241.50   15.98
  -4  -1   8  325.56   19.64
  -4   1   8  323.76   18.49
   4   1  -8  318.39   20.42
   4  -1  -8  305.47   20.57
   4   1  -8  329.69   21.72
   4  -1  -8  331.85   22.42
  -4  -1   8  310.14   18.11
  -4   1   8  326.87   18.02
  -3  -1   8  208.75   15.61
  -3   1   8  182.26   14.04
   3   1  -8  215.17   16.69
   3  -1  -8  202.98   16.45
   3   1  -8  218.84   17.03
   3  -1  -8  224.40   17.95
  -3  -1   8  190.04   13.46
  -3   1   8  226.11   14.22
  -2  -1   8  167.21   13.99
  -2   1   8  191.10   14.32
   2   1  -8  155.90   14.53
   2  -1  -8  188.70   16.12
   2   1  -8  183.95   15.13
   2  -1  -8  176.94   15.55
  -2  -1   8  156.08   11.63
  -2   1   8  165.84   11.55
  -1  -1   8    1.66    1.65
  -1   1   8    4.47    1.94
  -1  -1   8    6.32    3.55
  -1   1   8    5.12    3.52
   1   1  -8    4.22    4.02
   1  -1  -8    1.43    2.66
   1   1  -8    3.80    3.29
   1  -1  -8   -0.31    2.86
   0   1   8   26.21    4.07
   0  -1   8   27.64    5.91
   0   1   8   18.98    4.95
   0   1  -8   27.38    6.90
   0  -1  -8   34.85    6.89
   0   1  -8   24.40    5.36
   0  -1  -8   27.58    5.78
   0  -1   8   28.38    4.56
   1  -1   8    1.69    2.34
   1   1   8    0.44    2.52
  -1   1  -8    0.40    2.06
  -1  -1  -8    2.05    2.89
  -1   1  -8    1.23    2.40
  -1  -1  -8    6.16    3.63
   2  -1   8  298.42   19.46
  -2   1  -8  310.90   21.83
   2   1   8  317.65   19.87
  -2  -1  -8  305.44   21.61
  -2   1  -8  287.91   17.95
  -2  -1  -8  289.96   19.53
   3  -1   8   40.34    7.47
   3   1   8   38.23    7.42
  -3   1  -8   42.37    8.28
  -3  -1  -8   47.98    8.63
  -3   1  -8   44.40    7.07
  -3  -1  -8   42.47    7.65
  -4   1  -8  514.98   29.44
   4  -1   8  437.89   25.00
   4   1   8  441.21   25.10
  -4  -1  -8  480.27   28.31
  -4   1  -8  469.75   22.81
  -4  -1  -8  498.82   26.17
   5  -1   8    5.62    4.20
   5   1   8   13.51    4.34
  -5   1  -8   11.33    5.57
  -5  -1  -8   24.01    7.31
  -5  -1  -8   13.61    4.26
   6  -1   8   50.26    8.72
   6   1   8   55.04    9.33
  -6   1  -8   57.37   10.41
  -6  -1  -8   41.93    8.79
  -6  -1  -8   51.37    8.25
 -10  -2   8   16.39    5.12
  -9  -2   8    7.49    5.19
  -9   2   8   -0.86    2.46
  -9  -2   8    4.33    3.57
  -8   2   8    0.53    2.66
  -8  -2   8   -1.61    2.51
  -8   2   8    0.43    2.31
   8   2  -8    8.17    4.75
   8  -2  -8    0.05    3.19
  -7  -2   8    6.32    3.89
  -7   2   8   -4.50    4.00
  -7  -2   8    4.80    2.93
  -7   2   8    0.47    1.89
   7   2  -8   -1.21    2.28
   7  -2  -8    8.59    4.92
   7  -2  -8    3.33    3.79
  -6  -2   8  121.95   12.24
  -6   2   8  108.92   10.26
   6   2  -8  125.60   12.25
   6  -2  -8  127.04   13.71
   6   2  -8  128.36   13.88
   6  -2  -8  135.92   15.06
  -6  -2   8  121.58   12.09
  -6   2   8  106.90   10.88
  -5  -2   8  138.05   12.97
  -5   2   8  134.22   11.44
   5   2  -8  125.98   12.24
   5  -2  -8  141.88   14.22
   5   2  -8  124.41   13.92
   5  -2  -8  129.90   14.53
  -5  -2   8  136.65   12.35
  -5   2   8  128.42   11.47
  -4  -2   8  129.12   12.47
  -4   2   8  130.81   11.42
   4   2  -8  120.52   12.07
   4  -2  -8  130.95   13.61
   4   2  -8  119.44   12.70
   4  -2  -8  126.74   13.96
  -4  -2   8  120.36   11.23
  -4   2   8  112.17   10.37
  -3  -2   8   14.25    3.61
  -3   2   8   22.72    4.62
  -3  -2   8   18.40    5.02
  -3   2   8   13.13    4.04
   3   2  -8   17.90    4.86
   3  -2  -8   18.67    5.65
   3   2  -8   19.89    5.16
   3  -2  -8   20.73    5.92
  -2  -2   8   -0.39    1.90
  -2   2   8    1.89    2.06
  -2  -2   8    3.84    3.03
  -2   2   8   -0.67    2.05
   2   2  -8    3.22    3.81
   2  -2  -8   -4.41    3.91
   2   2  -8    0.91    2.36
   2  -2  -8    0.72    4.09
  -1  -2   8    2.11    1.67
  -1   2   8    3.75    2.27
  -1  -2   8    4.25    2.95
  -1   2   8    5.37    3.17
   1   2  -8    3.31    2.70
   1  -2  -8   10.02    5.06
   1   2  -8    4.60    3.16
   1  -2  -8    4.27    2.36
   0  -2   8    3.45    3.21
   0   2   8    5.09    3.38
   0   2  -8   -2.61    2.10
   0  -2  -8    0.83    3.00
   0   2  -8    0.97    2.56
   0  -2  -8    2.47    2.79
   0  -2   8    0.17    1.67
   1  -2   8  193.56   15.74
  -1   2  -8  213.41   18.08
   1   2   8  203.30   15.62
  -1  -2  -8  239.69   18.85
  -1   2  -8  217.60   15.18
  -1  -2  -8  207.24   17.06
   2  -2   8    4.80    3.52
   2   2   8    0.42    2.64
  -2   2  -8    0.91    3.64
  -2  -2  -8    2.78    3.53
  -2   2  -8    4.24    2.50
  -2  -2  -8    3.17    2.51
  -3   2  -8  212.94   18.53
   3  -2   8  212.20   16.83
   3   2   8  228.84   17.39
  -3  -2  -8  209.23   18.23
  -3   2  -8  212.66   14.42
  -3  -2  -8  203.30   17.08
   4  -2   8   20.04    5.15
   4   2   8   17.42    5.19
  -4   2  -8   20.35    6.06
  -4  -2  -8   14.64    5.60
  -4   2  -8   22.83    4.58
  -4  -2  -8   30.56    7.02
   5  -2   8    2.42    3.62
   5   2   8    2.81    3.04
  -5   2  -8    4.32    3.31
  -5  -2  -8    4.19    3.59
  -5  -2  -8    0.31    3.50
   6  -2   8   -0.97    2.56
   6   2   8   10.10    4.79
  -6  -2  -8    3.42    3.32
  -6  -2  -8    1.41    2.51
  -6   2  -8   14.79    5.53
 -10  -3   8    2.78    3.13
  -9   3   8   21.69    5.78
  -9  -3   8   23.18    6.14
  -9  -3   8   17.35    5.29
  -8  -3   8    6.62    3.34
  -8   3   8    6.12    3.54
   8  -3  -8   10.53    4.68
  -8  -3   8    7.08    3.48
   8   3  -8    7.05    4.88
  -7  -3   8    4.73    3.76
  -7   3   8    1.07    2.26
   7  -3  -8   11.96    4.37
  -7  -3   8    1.99    3.32
  -7   3   8    5.87    2.68
   7   3  -8   11.14    5.03
   7  -3  -8    2.27    3.62
   7  -3  -8    7.79    3.96
  -6  -3   8    3.06    2.36
  -6   3   8   -0.87    2.75
   6  -3  -8    1.93    1.97
  -6  -3   8    2.16    3.00
  -6   3   8    1.07    2.01
   6   3  -8    4.89    2.45
   6   3  -8    4.44    4.09
   6  -3  -8    9.61    4.13
   6  -3  -8    3.14    2.98
  -5  -3   8   11.42    3.30
  -5   3   8   10.10    3.55
   5  -3  -8   13.16    3.91
  -5  -3   8   12.95    3.67
  -5   3   8   11.50    3.83
   5   3  -8   10.66    4.38
   5   3  -8    8.63    3.76
   5  -3  -8   13.09    4.62
   5  -3  -8   16.53    5.51
  -4  -3   8    1.27    1.88
  -4   3   8    4.39    2.85
   4  -3  -8    3.48    2.36
  -4  -3   8    3.54    2.28
  -4   3   8    3.96    2.92
   4   3  -8    6.68    3.48
   4  -3  -8    3.98    3.14
   4   3  -8   11.92    4.03
   4  -3  -8    5.40    3.19
  -3  -3   8    5.08    2.38
  -3   3   8    9.50    3.11
   3  -3  -8    7.23    2.48
  -3  -3   8    6.27    2.67
  -3   3   8   15.95    4.20
   3   3  -8   13.48    4.14
   3  -3  -8   13.66    4.14
   3   3  -8   12.97    4.74
   3  -3  -8   10.36    4.51
  -2  -3   8   36.30    6.00
  -2   3   8   38.62    5.51
   2  -3  -8   37.35    5.22
  -2  -3   8   31.32    6.53
  -2   3   8   25.31    5.54
   2   3  -8   41.49    7.81
   2  -3  -8   44.68    8.65
   2   3  -8   34.53    6.30
   2  -3  -8   44.13    7.93
  -1   3   8    1.68    1.86
  -1  -3   8    1.44    3.12
  -1   3   8   -2.06    2.90
   1   3  -8   -0.07    3.05
   1  -3  -8   -2.01    3.07
   1   3  -8    1.98    2.68
   1  -3  -8    0.13    3.07
  -1  -3   8   -2.71    2.70
   0  -3   8    2.34    2.34
   0   3   8    0.87    2.32
   0   3  -8    6.39    3.92
   0  -3  -8    3.69    2.73
   0   3  -8   -2.95    2.58
   0  -3  -8    2.58    3.69
   0  -3   8   -1.21    2.48
   1  -3   8    1.42    3.00
   1   3   8   -0.22    2.76
  -1   3  -8   -3.24    2.96
  -1  -3  -8   -2.33    2.92
  -1   3  -8   -1.56    2.48
  -1  -3  -8    0.53    2.22
   1  -3   8   -1.38    1.31
   2  -3   8   19.84    5.75
   2   3   8   35.82    6.84
  -2   3  -8   31.02    7.65
  -2  -3  -8   34.53    7.95
  -2   3  -8   23.91    4.54
  -2  -3  -8   26.55    6.56
   3  -3   8    8.39    3.92
   3   3   8    2.72    2.65
  -3   3  -8    3.73    2.97
  -3  -3  -8    5.71    2.59
  -3   3  -8    9.53    3.28
  -3  -3  -8    5.70    3.99
   4  -3   8   12.59    5.22
   4   3   8   15.55    5.11
  -4   3  -8   15.45    5.42
  -4  -3  -8   13.24    4.50
  -4  -3  -8    8.48    3.43
  -4   3  -8   13.97    5.11
   5  -3   8   11.63    4.40
   5   3   8   11.32    4.36
  -5   3  -8    9.19    2.91
  -5  -3  -8    5.73    4.18
  -5  -3  -8    1.32    2.93
   6  -3   8    4.69    3.98
  -6  -3  -8    6.19    4.15
  -7  -3  -8   -7.50    4.39
 -10  -4   8   36.57    7.95
   9  -4  -8    8.08    4.37
  -9  -4   8    9.54    4.47
  -8  -4   8    0.16    3.56
  -8   4   8   -2.77    3.04
  -8  -4   8    3.20    3.44
   8   4  -8    9.84    5.45
   8  -4  -8    7.51    3.82
  -8  -4   8    2.19    3.62
   8   4  -8    1.66    3.01
  -7  -4   8   24.88    5.84
  -7   4   8   20.66    5.14
  -7  -4   8   21.39    4.86
   7  -4  -8   21.32    5.47
  -7  -4   8   19.31    5.27
  -7   4   8   19.71    4.19
   7   4  -8   24.41    7.03
   7  -4  -8   31.56    8.00
   7  -4  -8   19.58    5.76
   6  -4  -8   97.00   10.65
  -6   4   8   81.61    8.66
   6   4  -8   82.50    9.44
  -6  -4   8   79.88   10.78
   6   4  -8   85.49   11.44
   6  -4  -8   97.44   13.01
   6  -4  -8   87.38   12.58
  -6  -4   8   82.20    9.03
  -6  -4   8   98.50   11.13
   6   4  -8   83.12    8.40
  -6   4   8   85.43    9.83
   5  -4  -8   97.52   10.05
  -5  -4   8   95.45   11.45
  -5   4   8   98.41    9.58
   5   4  -8  114.13   11.70
   5  -4  -8  105.89   13.22
   5   4  -8  113.80   12.51
   5  -4  -8  113.74   13.90
  -5  -4   8  115.53   11.72
  -5   4   8  109.42   10.60
   4  -4  -8  143.08   11.76
  -4  -4   8  151.46   14.30
  -4   4   8  130.08   11.38
   4   4  -8  130.42   12.77
   4  -4  -8  142.51   15.17
   4   4  -8  121.57   12.45
   4  -4  -8  150.15   15.83
  -4  -4   8  144.41   12.70
  -4   4   8  135.18   11.35
  -3  -4   8   39.32    6.61
  -3   4   8   27.99    5.10
   3  -4  -8   36.02    5.76
  -3  -4   8   37.44    7.05
  -3   4   8   30.96    5.74
   3   4  -8   40.51    7.43
   3  -4  -8   31.29    7.30
   3   4  -8   30.14    6.06
   3  -4  -8   27.15    6.62
  -2   4   8    4.35    2.24
   2  -4  -8   11.99    3.03
  -2  -4   8   10.49    4.65
  -2   4   8   11.31    3.89
   2   4  -8    5.93    3.64
   2  -4  -8   12.98    5.14
   2   4  -8    7.96    2.88
   2  -4  -8    6.59    3.60
  -2  -4   8    8.64    3.31
  -1   4   8    7.75    2.84
   1  -4  -8    5.94    2.14
  -1  -4   8    8.55    4.78
  -1   4   8   -0.86    1.99
   1   4  -8    7.15    3.98
   1  -4  -8    1.55    2.64
   1   4  -8    6.16    3.34
   1  -4  -8    7.41    3.94
  -1  -4   8    7.57    3.19
   0  -4   8    9.89    4.76
   0   4   8    4.27    2.94
   0   4  -8   -3.17    2.93
   0  -4  -8    3.77    2.49
   0   4  -8   10.71    3.63
   0  -4  -8    2.97    3.54
   0  -4   8    0.93    1.60
  -1   4  -8  156.04   15.92
   1  -4   8  153.14   14.41
   1   4   8  152.21   13.50
  -1  -4  -8  166.37   16.15
  -1   4  -8  144.41   11.62
  -1  -4  -8  135.25   15.01
   2  -4   8   -1.41    2.96
   2   4   8    3.37    3.92
  -2   4  -8    3.04    3.17
  -2  -4  -8   -0.54    3.02
  -2   4  -8   -2.25    2.28
  -2  -4  -8   -0.72    3.90
  -2   4  -8    0.87    2.77
  -3   4  -8  267.48   21.50
   3  -4   8  230.85   18.06
   3   4   8  240.31   18.17
  -3  -4  -8  212.37   18.85
  -3  -4  -8  203.39   18.92
  -3   4  -8  249.32   17.68
   4  -4   8   19.97    5.57
   4   4   8   16.03    5.22
  -4   4  -8    8.72    3.70
  -4  -4  -8   15.19    5.44
  -4  -4  -8   11.75    4.30
  -4   4  -8    8.97    4.42
   5  -4   8   16.14    4.97
   5   4   8   19.31    6.12
  -5   4  -8   16.23    6.10
  -5  -4  -8   21.61    6.73
  -5  -4  -8   22.87    6.39
  -5   4  -8   25.48    6.76
   6  -4   8   -4.60    3.50
  -6  -4  -8   -1.10    3.46
  -8  -5   8   -2.07    3.60
  -8   5   8    4.09    3.40
  -8  -5   8    3.23    2.62
   8   5  -8    6.12    4.08
  -8  -5   8    7.36    5.24
   8  -5  -8   -3.57    3.97
   8   5  -8    0.75    3.31
  -7  -5   8   55.87    8.94
  -7   5   8   56.24    8.40
  -7  -5   8   57.52    8.09
  -7  -5   8   62.33   10.25
   7  -5  -8   56.81    8.45
   7   5  -8   51.21    9.02
   7  -5  -8   66.35   11.04
   6  -5  -8  102.91   11.16
  -6  -5   8  105.10   12.77
  -6   5   8   93.25    9.15
   6  -5  -8  108.84   14.29
   6   5  -8  100.96   12.11
   6  -5  -8  117.93   14.75
  -6  -5   8  102.58   10.17
  -6  -5   8  107.63   11.78
   6   5  -8   99.76    8.97
  -6   5   8   83.95    9.77
  -5  -5   8  307.36   21.62
   5  -5  -8  328.52   19.43
  -5   5   8  318.27   17.55
   5   5  -8  323.01   19.73
   5  -5  -8  306.96   23.24
   5   5  -8  326.50   21.37
   5  -5  -8  317.22   24.03
  -5  -5   8  313.86   17.21
  -5  -5   8  319.32   20.23
   5   5  -8  330.31   17.29
  -5   5   8  310.34   18.52
  -4  -5   8  290.22   20.70
   4  -5  -8  328.22   18.54
   4   5  -8  289.35   19.45
  -4   5   8  315.88   17.82
   4  -5  -8  315.45   23.28
   4   5  -8  319.37   20.44
   4  -5  -8  298.72   22.81
  -4  -5   8  312.95   16.35
  -4  -5   8  303.67   19.30
   4   5  -8  308.61   16.97
  -4   5   8  289.56   17.06
  -3  -5   8   58.12    8.23
  -3   5   8   59.29    7.21
  -3  -5   8   71.86   10.39
  -3   5   8   66.19    8.10
   3  -5  -8   61.48    7.46
   3   5  -8   78.79    9.68
   3   5  -8   72.34   10.12
   3  -5  -8   64.70   10.80
   3  -5  -8   81.71   12.23
  -3  -5   8   69.33    7.17
   3   5  -8   68.42    8.38
  -2   5   8    7.90    3.07
  -2  -5   8   10.17    2.94
  -2  -5   8    2.44    3.03
  -2   5   8    5.30    2.82
   2  -5  -8   11.80    3.59
   2   5  -8    9.45    4.47
   2   5  -8    6.98    3.26
   2  -5  -8   13.10    4.78
   2  -5  -8   11.44    5.58
   2   5  -8   15.60    4.11
  -2  -5   8   15.01    4.26
  -1  -5   8    7.33    2.62
  -1  -5   8    8.44    4.30
  -1   5   8    8.91    3.48
   1  -5  -8    1.63    1.40
   1   5  -8    7.57    4.54
   1  -5  -8    4.81    3.35
   1   5  -8   10.02    3.77
   1  -5  -8    1.93    2.75
   1   5  -8    8.56    3.83
  -1  -5   8    2.90    1.90
   0  -5   8   94.34   11.61
   0   5   8   95.64   10.31
   0   5  -8   75.51    8.47
   0   5  -8   78.10   11.22
   0  -5  -8   84.58   11.59
   0  -5  -8   79.87   11.85
   0  -5   8   79.45    8.75
   0   5  -8   91.45   10.15
   1  -5   8   14.37    4.70
   1   5   8   23.49    5.77
  -1   5  -8    6.14    3.29
  -1  -5  -8   16.94    6.22
  -1   5  -8   13.91    3.95
  -1  -5  -8    6.48    3.75
  -1   5  -8   14.08    4.55
  -2   5  -8  604.88   32.80
   2  -5   8  585.47   29.55
   2   5   8  602.21   28.80
  -2  -5  -8  605.26   32.62
  -2  -5  -8  577.43   32.92
  -2   5  -8  628.09   28.32
   3  -5   8   19.23    5.59
   3   5   8   12.09    4.47
  -3   5  -8   13.05    5.66
  -3  -5  -8   13.91    5.29
  -3  -5  -8    5.73    2.68
  -3   5  -8   20.01    5.28
  -4   5  -8  177.94   18.29
   4  -5   8  169.01   15.49
   4   5   8  191.02   16.83
  -4  -5  -8  168.00   17.18
  -4  -5  -8  159.23   17.49
  -4   5  -8  205.68   16.46
   5  -5   8   26.41    6.49
  -5  -5  -8   13.33    5.00
   6  -5   8   25.50    6.14
  -8   6   8   41.86    7.77
  -8  -6   8   23.86    5.56
   8   6  -8   26.92    6.95
   8  -6  -8   26.10    6.60
  -7  -6   8    3.07    2.60
  -7   6   8    2.85    3.44
  -7  -6   8    2.24    2.43
   7   6  -8   10.09    5.28
  -7  -6   8    4.96    4.23
   7  -6  -8    5.14    3.52
   7   6  -8    2.33    2.53
   7  -6  -8   -1.32    3.64
  -6  -6   8   83.79   10.77
  -6  -6   8  101.16   13.12
  -6   6   8   91.63    9.06
   6   6  -8   94.67   11.98
   6  -6  -8   81.18   10.32
   6  -6  -8   85.23   12.73
  -6  -6   8  107.00   10.47
   6  -6  -8  108.38   14.23
  -6   6   8   96.53   10.82
  -5  -6   8  219.03   18.91
   5   6  -8  225.60   16.57
   5  -6  -8  240.23   16.97
  -5   6   8  223.12   14.68
   5  -6  -8  221.74   20.65
   5   6  -8  259.80   18.88
   5  -6  -8  280.43   22.78
  -5  -6   8  213.05   14.57
  -5  -6   8  212.41   16.94
   5   6  -8  227.01   14.38
  -5   6   8  237.05   16.22
  -4  -6   8  247.00   19.68
   4   6  -8  234.38   17.72
   4  -6  -8  252.10   16.61
  -4   6   8  238.50   15.54
   4  -6  -8  230.64   20.55
   4   6  -8  242.55   17.58
   4  -6  -8  226.52   20.47
  -4  -6   8  214.89   13.78
  -4  -6   8  238.76   17.28
   4   6  -8  253.22   15.59
  -4   6   8  222.95   15.19
  -3  -6   8  375.76   24.42
   3   6  -8  417.18   24.75
  -3   6   8  406.19   20.93
   3  -6  -8  446.37   21.53
   3  -6  -8  429.45   27.79
   3   6  -8  420.36   22.70
   3  -6  -8  458.62   29.29
  -3  -6   8  394.07   18.13
  -3  -6   8  380.37   21.88
   3   6  -8  441.51   21.44
  -3   6   8  392.28   19.51
  -2   6   8   79.87    9.16
   2  -6  -8   76.78    8.33
  -2  -6   8   62.33    9.85
   2   6  -8   63.66    9.80
   2   6  -8   59.51    8.08
   2  -6  -8   62.80   10.59
  -2  -6   8   74.01    7.05
   2  -6  -8   69.09   11.24
  -2   6   8   68.08    7.45
   2   6  -8   62.61    8.37
  -2  -6   8   68.65    8.66
   1  -6  -8   72.52    7.62
  -1  -6   8   74.72   10.57
  -1   6   8   56.32    8.03
   1   6  -8   72.28    8.46
   1   6  -8   69.36   10.56
   1  -6  -8   85.04   12.32
   1  -6  -8   74.45   11.97
   1   6  -8   52.99    7.90
  -1  -6   8   66.32    8.95
   0  -6   8    4.43    3.06
   0   6   8   22.53    5.84
   0   6  -8   16.23    5.55
   0   6  -8   13.34    3.50
   0  -6  -8   10.25    5.09
   0  -6  -8   19.31    5.80
   0   6  -8   15.48    4.59
   0  -6   8   13.35    3.52
  -1   6  -8  157.06   16.35
   1  -6   8  134.30   14.02
   1   6   8  127.25   12.52
  -1  -6  -8  126.18   14.64
  -1  -6  -8  134.63   15.81
  -1   6  -8  126.38   12.38
   2  -6   8   11.58    5.00
   2   6   8    6.13    4.06
  -2   6  -8    3.62    3.10
  -2  -6  -8   12.11    4.54
  -2  -6  -8    6.94    3.51
  -2   6  -8   12.37    4.48
  -3   6  -8  443.75   29.16
   3  -6   8  452.82   26.35
   3   6   8  459.38   25.71
  -3  -6  -8  484.85   29.53
  -3  -6  -8  431.23   30.21
  -3   6  -8  483.37   25.74
   4  -6   8    7.93    4.10
   4   6   8   10.28    4.71
  -4   6  -8    2.59    5.16
  -4  -6  -8    9.91    4.72
  -4  -6  -8    2.92    3.17
  -4   6  -8   18.74    5.85
   5  -6   8  204.52   17.90
  -8  -7   8    7.43    3.68
  -8   7   8    8.08    4.52
   8   7  -8    9.54    4.27
  -7  -7   8    2.01    3.21
  -7  -7   8   -3.03    2.92
  -7   7   8    4.06    3.61
   7   7  -8    2.27    4.19
   7  -7  -8   -0.09    2.33
   7   7  -8    1.37    2.83
   7  -7  -8    4.46    3.33
  -6  -7   8   10.35    4.72
  -6  -7   8    3.43    2.34
  -6   7   8   11.07    4.42
  -6  -7   8    8.65    5.15
   6  -7  -8    2.77    3.32
   6   7  -8    4.54    3.18
   6  -7  -8    8.36    4.15
   5   7  -8   97.97   11.32
  -5   7   8   93.55    9.26
   5  -7  -8   98.34   11.27
  -5  -7   8   85.18   12.04
   5   7  -8   86.37   11.03
  -5  -7   8   89.75    9.34
   5  -7  -8  111.03   14.61
   5  -7  -8  101.06   14.11
  -5  -7   8   93.10   11.51
   5   7  -8   90.24    9.22
  -5   7   8   88.79   10.16
  -4  -7   8  195.18   18.25
   4   7  -8  215.70   17.22
  -4   7   8  190.21   14.06
   4  -7  -8  179.40   14.44
   4  -7  -8  201.71   19.95
   4   7  -8  184.46   15.22
   4  -7  -8  192.70   19.23
  -4  -7   8  186.53   12.77
  -4  -7   8  165.66   14.84
   4   7  -8  195.98   14.22
  -4   7   8  181.61   13.94
  -3  -7   8  185.30   17.18
   3   7  -8  189.35   16.76
  -3   7   8  216.43   15.11
   3  -7  -8  206.74   14.97
   3  -7  -8  196.65   19.33
   3   7  -8  195.07   15.12
   3  -7  -8  210.42   20.26
  -3  -7   8  187.14   12.11
  -3  -7   8  202.70   16.10
   3   7  -8  190.25   14.15
  -3   7   8  184.23   13.22
  -2  -7   8  270.53   20.88
   2   7  -8  270.07   20.65
  -2   7   8  248.50   16.75
   2  -7  -8  255.68   16.07
   2  -7  -8  264.50   22.17
   2   7  -8  280.18   17.42
   2  -7  -8  252.46   22.44
  -2  -7   8  247.19   17.53
   2   7  -8  253.45   16.94
  -1  -7   8    0.21    3.16
  -1   7   8    5.11    3.79
   1   7  -8    5.62    4.42
   1   7  -8    5.42    2.71
   1  -7  -8    3.66    4.16
   1  -7  -8   -0.10    3.76
   1   7  -8    1.48    2.13
  -1  -7   8   -1.08    2.66
   0  -7   8    5.08    3.73
   0   7   8    9.73    4.23
   0   7  -8    5.11    2.46
   0  -7  -8    6.45    4.19
   0  -7  -8   10.68    3.98
   0   7  -8   12.22    4.23
   1  -7   8   14.83    5.01
   1   7   8   16.67    5.32
  -1   7  -8   22.89    6.78
  -1  -7  -8   18.45    5.47
  -1  -7  -8   19.83    6.16
  -1   7  -8   25.17    6.02
   2  -7   8  115.32   13.33
   2   7   8  108.92   12.28
  -2   7  -8   89.84   13.18
  -2  -7  -8   97.07   13.33
  -2  -7  -8   92.02   13.53
  -2   7  -8  111.91   12.22
   3  -7   8   50.66    9.12
   3   7   8   53.52    8.96
  -3   7  -8   30.40    7.95
  -3  -7  -8   45.53    9.06
  -3  -7  -8   39.00    9.52
  -3   7  -8   55.90    8.96
   4  -7   8  407.83   25.41
  -8  -8   8   -4.39    4.00
   8   8  -8    0.66    3.11
  -7  -8   8   12.56    4.44
  -7   8   8    9.33    4.08
   7   8  -8   12.81    5.14
   7  -8  -8   17.38    5.96
   7   8  -8   15.38    5.89
  -6  -8   8    7.31    3.19
  -6   8   8   10.28    4.33
   6   8  -8   10.11    5.36
   6   8  -8   13.23    4.93
   6  -8  -8    7.16    3.41
   6  -8  -8    2.21    3.02
  -6  -8   8    7.77    4.14
  -5  -8   8    6.70    2.65
  -5   8   8    9.51    3.65
   5   8  -8   15.48    4.48
   5  -8  -8    5.50    3.23
   5  -8  -8    2.08    3.45
  -5  -8   8   10.07    4.29
  -4  -8   8  179.95   18.36
   4   8  -8  170.15   15.50
  -4   8   8  178.67   13.60
   4  -8  -8  180.21   15.10
   4  -8  -8  179.37   19.22
   4   8  -8  180.19   15.20
  -4  -8   8  169.96   15.37
   4   8  -8  161.50   13.10
  -4   8   8  173.43   13.84
  -3   8   8   56.36    7.50
  -3  -8   8   50.05    9.45
  -3   8   8   55.28    7.89
   3   8  -8   55.32    9.50
   3   8  -8   51.36    7.77
   3  -8  -8   41.90    9.35
   3  -8  -8   56.04   10.82
   3  -8  -8   75.06    9.22
   3   8  -8   54.69    7.80
  -3  -8   8   40.43    7.40
  -2  -8   8    8.44    5.10
  -2   8   8    6.80    3.70
   2   8  -8    2.30    3.45
   2   8  -8    7.93    3.41
   2  -8  -8   10.93    6.61
   2  -8  -8   -0.08    4.24
   2  -8  -8    1.50    2.31
   2   8  -8    6.51    3.45
  -2  -8   8    8.49    3.72
  -1  -8   8   12.49    4.94
  -1   8   8   12.22    4.62
   1   8  -8   13.53    5.39
   1  -8  -8    8.63    4.13
   1  -8  -8    6.28    3.67
   1   8  -8   13.68    4.17
  -1  -8   8   14.94    4.95
   0  -8   8   35.56    7.73
   0   8   8   45.79    7.75
   0   8  -8   17.42    5.10
   0  -8  -8   39.18    8.53
   0  -8  -8   29.45    8.07
   0   8  -8   30.53    6.67
   1  -8   8   11.83    4.58
   1   8   8    0.30    3.35
  -1   8  -8    6.99    4.57
  -1  -8  -8    8.15    4.91
  -1  -8  -8    7.08    3.63
  -1   8  -8    8.38    3.46
   2  -8   8   31.46    7.52
   2   8   8   24.89    6.38
  -2   8  -8   33.17    8.67
  -2  -8  -8   18.32    6.57
  -2   8  -8   30.00    6.49
  -3   8  -8  189.13   19.85
   3  -8   8  229.96   19.19
   3   8   8  196.56   17.25
  -3  -8  -8  176.27   20.97
  -7  -9   8    0.41    2.11
  -7   9   8    0.42    2.65
  -6  -9   8    6.44    3.49
  -6   9   8   -0.26    3.00
   6   9  -8    1.31    2.96
   6  -9  -8   -4.76    4.13
  -5   9   8   11.01    4.37
   5   9  -8    7.67    3.77
   5  -9  -8    9.79    5.87
   5  -9  -8   12.87    4.94
  -5  -9   8    9.86    4.74
  -4   9   8   -3.78    1.99
   4   9  -8    7.66    4.40
   4   9  -8    2.38    2.68
   4  -9  -8    0.80    4.26
   4  -9  -8    1.86    2.16
   4   9  -8   -2.74    3.00
  -4  -9   8   -4.64    4.28
  -3   9   8    1.12    2.05
   3   9  -8   -1.58    2.70
   3  -9  -8   -0.91    4.05
   3  -9  -8    0.45    2.12
   3   9  -8   -3.34    4.28
  -3  -9   8    1.80    3.38
  -2   9   8   36.84    6.70
   2   9  -8   31.49    7.18
   2  -9  -8   23.80    6.86
   2  -9  -8   28.77    5.82
   2   9  -8   22.88    5.32
  -2  -9   8   29.14    6.46
  -1   9   8   17.93    5.07
   1   9  -8   15.60    6.18
   1  -9  -8    8.30    3.87
   1   9  -8    9.31    3.94
   0   9   8    0.41    3.06
   0   9  -8    5.11    5.65
   0   9  -8    1.37    2.39
   1   9   8    1.38    2.78
  -1   9  -8   -2.46    2.33
   2   9   8   18.69    5.42
  -2   9  -8   15.87    7.14
  -6  10   8    8.04    4.36
   6  10  -8   -4.47    4.12
  -5  10   8   12.49    4.99
   5  10  -8   11.19    3.54
   5 -10  -8    7.06    4.01
   4 -10  -8  111.89   12.73
  -4 -10   8   92.44   12.35
  -3  10   8   69.73    9.11
   3  10  -8   63.61   10.66
   3 -10  -8   62.70    9.81
   3  10  -8   59.01    8.88
  -3 -10   8   83.85   11.27
  -2  10   8   43.20    7.28
   2  10  -8   34.04    7.44
   2 -10  -8   32.17    6.74
   2  10  -8   32.34    7.08
  -2 -10   8   32.82    7.38
  -1  10   8   57.76    8.78
   1  10  -8   64.45   11.40
   1  10  -8   54.88    8.93
   0  10   8   11.19    4.85
   0  10  -8    5.01    2.68
   1  10   8   11.69    4.85
  -1  10  -8   35.35   10.43
   4 -11  -8  122.97   14.25
   3  11  -8  124.92   15.14
   3 -11  -8  144.74   14.91
   3  11  -8  128.36   13.69
  -2  11   8   26.50    6.62
   2  11  -8   37.75    9.10
   2  11  -8   37.07    7.78
   1  11  -8   10.58    6.67
   1  11  -8   17.85    6.64
   0  11   8   35.42    7.22
  -8   0   9   -3.92    3.63
  -7   0   9    4.68    3.99
  -7   0   9    2.44    3.06
  -6   0   9   -1.93    3.06
  -6   0   9   -1.10    3.47
  -5   0   9    0.83    2.65
  -5   0   9   -3.88    3.16
   5   0  -9    0.37    2.32
   5   0  -9    5.31    4.90
  -4   0   9    1.85    2.12
  -4   0   9    0.62    3.16
   4   0  -9   -0.89    3.21
   4   0  -9   -0.52    3.63
  -3   0   9   -1.15    2.63
   3   0  -9    0.95    3.39
   3   0  -9    0.22    2.37
  -2   0   9    5.02    3.53
   2   0  -9   -5.49    4.41
   2   0  -9   -3.88    3.99
  -1   0   9    1.13    2.67
   1   0  -9    1.62    3.25
   1   0  -9   -3.46    3.99
   0   0   9   -1.36    3.07
   0   0  -9    0.45    3.23
   0   0  -9   -2.96    4.62
   1   0   9    1.19    3.06
  -1   0  -9    3.14    3.01
  -1   0  -9   -2.25    4.07
  -2   0  -9   -2.87    3.18
  -2   0  -9   -4.76    4.75
  -3   0  -9    3.03    2.69
  -8  -1   9   11.72    3.95
  -7  -1   9   -5.41    3.27
  -7   1   9   -0.68    2.32
  -7  -1   9    3.79    2.98
  -7   1   9    3.27    2.67
  -6  -1   9    2.65    2.77
  -6   1   9   -0.29    3.25
  -6  -1   9    7.98    3.43
  -6   1   9    9.56    4.30
   6   1  -9   -1.25    3.71
   6  -1  -9    9.06    5.49
  -5  -1   9    8.43    4.26
  -5   1   9    3.64    3.21
  -5  -1   9    4.43    3.63
  -5   1   9   10.18    4.01
   5   1  -9   10.85    4.52
   5  -1  -9   -3.65    4.79
   5   1  -9    7.47    4.69
   5  -1  -9    8.76    5.24
  -4  -1   9   33.35    6.42
  -4   1   9   30.34    5.64
  -4  -1   9   35.55    6.90
  -4   1   9   29.81    6.49
   4   1  -9   28.24    6.63
   4  -1  -9   28.50    6.58
   4   1  -9   30.21    7.30
   4  -1  -9   32.69    8.09
  -3  -1   9  239.68   18.17
  -3   1   9  229.52   17.09
   3   1  -9  220.13   18.79
   3  -1  -9  236.61   19.71
   3   1  -9  235.33   18.94
   3  -1  -9  232.50   20.01
  -3  -1   9  227.06   15.76
  -2  -1   9   37.19    7.77
  -2   1   9   19.53    5.17
   2   1  -9   19.73    5.74
   2  -1  -9   35.87    7.94
   2   1  -9   31.76    6.94
   2  -1  -9   21.31    6.21
  -1  -1   9   50.22    8.16
  -1   1   9   55.32    8.68
   1   1  -9   49.36    9.08
   1  -1  -9   43.70    8.12
   1   1  -9   55.02    8.79
   1  -1  -9   37.59    7.39
   0  -1   9    8.93    4.15
   0   1   9   11.56    4.94
   0   1  -9    3.01    2.73
   0  -1  -9    6.42    4.89
   0   1  -9    3.38    2.48
   0  -1  -9   -0.93    3.39
   1  -1   9    4.96    3.73
   1   1   9    9.79    4.08
  -1   1  -9    4.29    3.18
  -1  -1  -9    8.97    3.88
  -1   1  -9    4.14    3.10
  -1  -1  -9    0.30    2.48
  -2   1  -9   -2.49    3.61
  -2  -1  -9   -4.43    5.09
  -2   1  -9    2.58    2.53
  -2  -1  -9    2.06    3.09
  -3  -1  -9   96.32   12.02
  -4  -1  -9   45.22    8.14
  -7  -2   9   27.67    6.12
  -7   2   9   34.30    7.08
  -7  -2   9   32.39    7.27
  -7   2   9   28.19    5.54
  -6  -2   9    2.48    2.49
  -6   2   9    2.38    2.84
  -6  -2   9    5.76    3.31
  -6   2   9    1.61    2.32
   6   2  -9    2.11    3.92
   6  -2  -9    3.27    4.01
  -5  -2   9    9.18    3.78
  -5   2   9   10.45    3.74
  -5  -2   9   13.10    4.91
  -5   2   9   16.03    4.58
   5   2  -9   18.68    5.71
   5  -2  -9    8.98    4.74
   5   2  -9    8.62    2.87
   5  -2  -9    6.46    4.93
  -4  -2   9  117.05   13.07
  -4   2   9  102.63   11.10
   4   2  -9  121.39   13.42
   4  -2  -9  118.06   14.18
   4   2  -9  110.50   13.10
   4  -2  -9  108.86   13.80
  -4  -2   9  118.28   11.84
  -4   2   9  114.75   11.27
  -3   2   9  101.77   11.03
   3   2  -9  100.71   12.82
  -3  -2   9   89.90   11.39
   3   2  -9   86.55   11.67
   3  -2  -9   88.92   12.11
   3  -2  -9  103.17   13.40
  -3  -2   9   89.35   10.05
  -2  -2   9  439.01   25.61
  -2   2   9  407.24   23.43
   2   2  -9  414.93   26.29
   2  -2  -9  408.41   26.56
   2   2  -9  455.34   25.62
   2  -2  -9  401.31   26.50
  -1  -2   9   31.88    7.00
  -1   2   9   19.73    5.32
   1   2  -9   28.13    7.17
   1  -2  -9   33.37    8.12
   1   2  -9   29.99    6.34
   1  -2  -9   27.39    6.19
   0   2   9   88.82   11.27
   0  -2   9   81.70   11.10
   0   2  -9   81.69   10.70
   0   2  -9   89.15   12.66
   0  -2  -9   72.22   11.05
   0  -2  -9   80.08   11.62
   1  -2   9    2.70    3.21
   1   2   9    2.33    3.86
  -1   2  -9   -1.67    3.53
  -1  -2  -9   -1.45    4.15
  -1   2  -9    1.91    2.29
  -1  -2  -9    8.10    4.95
  -2   2  -9   43.54    9.61
  -2  -2  -9   29.85    7.66
  -2  -2  -9   48.55    8.90
  -3  -2  -9    1.05    3.39
  -4  -2  -9  254.53   20.31
  -7  -3   9  113.91   13.26
  -7   3   9  111.18   12.62
  -6  -3   9   32.04    6.74
  -6   3   9   42.46    7.83
  -6   3   9   41.49    6.73
   6   3  -9   43.09    8.55
   6  -3  -9   45.56    9.63
  -5  -3   9   15.19    4.39
  -5   3   9   21.00    5.32
  -5  -3   9   19.71    5.82
  -5   3   9   18.23    4.94
   5   3  -9   10.70    3.95
   5   3  -9   10.54    4.51
   5  -3  -9   28.88    7.49
  -4  -3   9   13.34    4.11
  -4   3   9   22.72    4.94
  -4  -3   9   20.69    6.20
  -4   3   9   24.08    5.74
   4   3  -9   23.46    6.20
   4  -3  -9   16.76    5.05
   4   3  -9   16.66    4.88
   4  -3  -9   14.80    6.08
  -3  -3   9  118.06   13.48
  -3   3   9   94.81   10.86
   3   3  -9  105.30   13.11
   3   3  -9  107.24   12.50
   3  -3  -9  121.25   15.13
   3  -3  -9   93.47   12.89
  -3  -3   9   95.71   10.55
  -2  -3   9  123.00   13.53
  -2   3   9  104.36   11.36
   2   3  -9  111.65   13.46
   2   3  -9   96.74   11.40
   2  -3  -9  105.92   13.71
   2  -3  -9   92.05   12.85
  -1  -3   9  487.34   27.84
   1   3  -9  492.50   29.48
  -1   3   9  492.06   25.75
   1  -3  -9  513.18   30.53
   1   3  -9  468.76   25.14
   1  -3  -9  466.73   29.18
   0  -3   9    2.74    3.78
   0   3   9    0.57    2.27
   0   3  -9   -4.82    3.63
   0  -3  -9    2.39    3.60
   0   3  -9    1.78    2.77
   0  -3  -9    7.47    5.07
  -1   3  -9  181.10   18.07
   1   3   9  161.47   14.92
  -1  -3  -9  181.08   18.15
  -1   3  -9  164.46   13.63
  -1  -3  -9  174.91   17.28
  -2   3  -9    8.09    4.41
  -2  -3  -9    7.11    4.34
  -3  -3  -9   56.27   10.67
  -4  -3  -9    8.94    4.54
  -5  -3  -9  313.12   23.70
  -7  -4   9  115.61   11.92
  -7   4   9  105.35   11.83
  -6  -4   9   56.55    9.40
  -6   4   9   49.29    8.27
  -6   4   9   59.33    8.02
   6   4  -9   59.31   10.49
   6  -4  -9   73.89   11.98
  -6  -4   9   74.45    9.07
  -5  -4   9   -2.45    2.66
  -5   4   9   -0.39    3.16
  -5  -4   9    2.04    2.32
   5  -4  -9    6.08    3.23
  -5   4   9   -0.04    2.72
   5   4  -9    6.70    3.90
   5  -4  -9    6.21    4.24
   5   4  -9    4.12    3.02
  -4  -4   9   20.51    5.28
  -4  -4   9   32.66    5.84
  -4   4   9   22.89    5.49
   4   4  -9   30.44    6.65
   4   4  -9   19.54    5.44
   4  -4  -9   29.76    7.84
   4   4  -9   36.62    6.89
  -3  -4   9   51.77    8.05
  -3   4   9   53.73    7.99
   3   4  -9   53.27    9.13
   3  -4  -9   54.57    9.90
   3   4  -9   60.82    8.99
   3  -4  -9   52.89   10.73
  -2  -4   9  222.00   18.80
   2   4  -9  220.60   19.27
  -2   4   9  215.84   16.46
   2  -4  -9  216.57   20.24
   2   4  -9  240.22   17.56
   2  -4  -9  256.41   21.75
  -2  -4   9  225.17   16.14
  -1   4   9   59.78    8.66
   1   4  -9   68.80   11.09
   1  -4  -9   69.43   11.26
   1   4  -9   49.53    7.65
   1  -4  -9   74.34   12.23
   0   4  -9  291.77   22.97
   0   4   9  296.51   20.12
   0  -4  -9  280.39   22.83
   0   4  -9  293.68   18.54
   0  -4  -9  286.66   23.42
   0   4  -9  325.17   20.37
   1   4   9   23.53    5.73
  -1   4  -9   17.22    6.39
  -1  -4  -9   35.21    8.48
  -1  -4  -9   31.64    8.29
  -1   4  -9   32.36    6.77
  -2  -4  -9    6.60    4.45
  -3  -4  -9   -0.82    3.09
  -4  -4  -9   93.23   13.41
  -5  -4  -9    9.65    4.62
  -7   5   9   -1.19    2.26
  -7  -5   9    3.03    2.78
  -6  -5   9   -1.54    3.26
  -6   5   9    4.17    2.70
  -6  -5   9    5.33    3.76
   6  -5  -9    5.91    3.87
   6   5  -9   14.34    6.59
   6  -5  -9    2.65    4.56
  -5  -5   9   11.00    4.90
  -5  -5   9    1.32    2.10
   5  -5  -9   10.20    5.30
  -5   5   9    2.66    2.40
   5   5  -9    2.95    3.51
   5  -5  -9    2.64    5.17
  -4  -5   9   -0.64    3.14
  -4   5   9   11.53    4.25
   4   5  -9    6.83    4.48
   4   5  -9    6.39    3.86
   4  -5  -9    7.02    6.26
   4   5  -9    2.74    2.86
  -3   5   9   94.93   10.57
   3  -5  -9  112.08   14.78
   3   5  -9   97.67   11.49
   3   5  -9   87.06   12.28
  -3  -5   9   97.14   11.01
   3   5  -9   84.40    9.95
  -2   5   9   76.62    9.89
   2   5  -9   65.10   10.91
   2   5  -9   77.24    9.79
   2  -5  -9   91.18   13.56
   2  -5  -9   75.54   12.51
   2   5  -9   72.21    9.33
  -2  -5   9   64.25    8.77
  -1   5   9   80.05   10.12
   1   5  -9  101.16   13.59
   1  -5  -9   91.21   13.26
   1   5  -9   75.57    9.54
   1  -5  -9   96.25   13.79
   1   5  -9   80.49   10.40
   0   5   9    8.01    3.38
   0   5  -9    5.43    5.01
   0  -5  -9    3.01    4.16
   0  -5  -9    8.19    4.78
   0   5  -9    8.43    4.42
  -1   5  -9    0.05    4.47
  -1  -5  -9   -3.61    4.00
  -2  -5  -9   13.77    5.42
  -3  -5  -9   19.32    6.11
  -4  -5  -9    6.57    5.44
  -6   6   9    9.47    3.35
  -6  -6   9   20.58    5.09
   6  -6  -9   17.12    5.75
   6  -6  -9   18.92    7.00
  -5  -6   9    0.96    3.58
  -5   6   9   -1.35    2.32
   5   6  -9    5.92    4.13
   5  -6  -9    0.66    3.12
  -4   6   9   -0.38    2.09
   4   6  -9    6.43    3.52
   4   6  -9    4.51    3.10
   4  -6  -9   11.71    5.73
   4   6  -9    6.22    3.17
  -4  -6   9   11.80    4.21
  -3   6   9    8.39    3.53
   3   6  -9    1.00    2.82
   3   6  -9    3.91    2.77
   3  -6  -9    7.91    5.12
   3   6  -9   -0.04    2.91
  -3  -6   9    3.63    3.64
  -2   6   9   11.40    4.61
   2   6  -9    9.24    5.44
   2  -6  -9    8.80    5.46
   2   6  -9    6.32    2.57
  -2  -6   9   10.08    4.31
  -1   6   9    0.05    2.15
   1   6  -9    3.90    4.62
   1   6  -9    9.26    4.11
   0   6   9   59.18    9.04
   0   6  -9   44.31    8.75
   0   6  -9   56.92    8.77
   6  -7  -9   -1.33    2.77
   5   7  -9   16.75    6.14
   5  -7  -9   10.22    4.46
  -5  -7   9   21.63    5.83
  -4   7   9    4.11    2.56
   4   7  -9    2.96    3.64
   4   7  -9    1.76    1.97
  -4  -7   9    0.37    3.88
  -3   7   9   54.36    8.14
   3   7  -9   49.42    9.02
   3   7  -9   42.52    7.14
  -3  -7   9   45.59    7.57
  -2   7   9   51.62    8.45
   2   7  -9   59.98   10.65
   2   7  -9   70.72    9.52
  -2  -7   9   61.77    9.16
  -1   7   9   96.20   11.56
   1   7  -9   82.84   12.08
   1   7  -9   88.64   10.94
   0   7  -9   15.59    6.30
  -4  -8   9  145.08   14.73
  -3   8   9   85.66   10.43
   3   8  -9   82.42   12.33
   3   8  -9   78.91   10.16
  -3  -8   9   81.18   11.42
   2   8  -9  312.38   24.40
  -2   8   9  322.40   20.86
  -2  -8   9  334.71   22.33
   2   8  -9  313.46   20.69
   1   8  -9   28.28    8.55
   2   9  -9   35.16    8.80
   4   0 -10   14.21    5.48
   3   0 -10   59.28   10.70
   1   0 -10   79.88   11.48
   0   0 -10   46.25    8.90
   4  -1 -10   31.79    8.36
   3   1 -10    3.76    4.42
   2   1 -10   37.25    8.02
   1   1 -10    7.29    4.00
   0   1 -10  233.85   19.06
   0  -1 -10  254.35   21.19
   3   2 -10    0.84    2.72
   2   2 -10    3.94    2.61
   1   2 -10  148.56   15.03
   3   3 -10   -2.42    3.02
   0   0   0    0.00    0.00
TITL LS036_Mo in P2(1)/c
REM P2(1)/c (#14 in standard setting)
CELL 0.71073  11.662203  14.081429   7.351930  90.0000  94.7149  90.0000
ZERR    6.00   0.000154   0.000193   0.000095   0.0000   0.0013   0.0000
LATT  1
SYMM -x, y+1/2,-z+1/2
SFAC C H N Br Bi
UNIT 30.00 36.00 12.00 18.00 6.00
TREF
HKLF 4
END
_computing_structure_solution     'SHELXT 2014/5 (Sheldrick, 2014)'
;
_shelx_hkl_checksum              36965
_shelx_res_file
;
TITL ls036_mo_a.res in P2(1)/c
    x.res
    created by SHELXL-2018/3 at 10:08:08 on 04-May-2020
REM Old TITL LS036_Mo in P2(1)/c
REM SHELXT solution in P2(1)/c
REM R1 0.063, Rweak 0.003, Alpha 0.020, Orientation as input
REM Formula found by SHELXT: C5 N Br4 Bi
CELL 0.71073 11.6622 14.08143 7.35193 90 94.7149 90
ZERR 4 0.00015 0.00019 0.00009 0 0.0013 0
LATT 1
SYMM -X,0.5+Y,0.5-Z
SFAC C H Bi Br N
UNIT 20 28 4 16 8
SIZE 0.21 0.08 0.06
L.S. 8
PLAN  10
TEMP -113
CONF
BOND $H
list 4
fmap 2
OMIT -2 0 2
acta
HTAB N1 Br3
EQIV $3 x, -y+3/2, z+1/2
HTAB N2 Br1_$3
EQIV $4 -x+1, y+1/2, -z+3/2
HTAB N2 Br4_$4
EQIV $5 x, y, z+1
WGHT    0.023100    0.977400
FVAR       0.14124
BI1   3    0.264478    0.334819    0.523862    11.00000    0.01459    0.01259 =
         0.01554    0.00034    0.00109   -0.00020
BR1   4    0.135010    0.477819    0.370052    11.00000    0.01822    0.01742 =
         0.02881    0.00382   -0.00217    0.00216
BR2   4    0.416222    0.450998    0.692596    11.00000    0.01819    0.01716 =
         0.02310   -0.00160   -0.00186   -0.00246
BR3   4    0.119866    0.332143    0.823843    11.00000    0.01692    0.01733 =
         0.02218    0.00167    0.00430    0.00106
BR4   4    0.400315    0.328189    0.214402    11.00000    0.01725    0.01806 =
         0.01999   -0.00210    0.00321   -0.00329
N1    5    0.170496    0.574941    0.911954    11.00000    0.06167    0.02038 =
         0.04174   -0.00983    0.02520   -0.01727
H1    2    0.144357    0.523358    0.881145    11.00000    0.06463
N2    5    0.324868    0.830250    1.018147    11.00000    0.02493    0.02723 =
         0.03830    0.00078   -0.00594   -0.00588
H21   2    0.285306    0.877908    0.977832    11.00000    0.05869
H22   2    0.389253    0.830102    1.079364    11.00000    0.05649
C1    1    0.276740    0.578283    1.003282    11.00000    0.06291    0.02461 =
         0.03395    0.01001    0.02566    0.01948
AFIX  43
H11   2    0.314405    0.520835    1.040513    11.00000   -1.20000
AFIX   0
C2    1    0.328971    0.661596    1.041421    11.00000    0.02919    0.03233 =
         0.02117    0.00507    0.00592    0.01195
AFIX  43
H2    2    0.402901    0.662979    1.106108    11.00000   -1.20000
AFIX   0
C3    1    0.274098    0.747051    0.985462    11.00000    0.02041    0.02081 =
         0.01617    0.00175    0.00270   -0.00036
C4    1    0.163531    0.741044    0.895280    11.00000    0.02249    0.02261 =
         0.02567   -0.00112    0.00000    0.00137
AFIX  43
H4    2    0.122560    0.797233    0.859612    11.00000   -1.20000
AFIX   0
C5    1    0.115544    0.654964    0.859353    11.00000    0.02832    0.03292 =
         0.03178   -0.00611    0.00737   -0.01195
AFIX  43
H5    2    0.041453    0.651245    0.795595    11.00000   -1.20000
AFIX   0
HKLF 4
REM  ls036_mo_a.res in P2(1)/c
REM wR2 = 0.0496, GooF = S = 1.049, Restrained GooF = 1.049 for all data
REM R1 = 0.0231 for 2794 Fo > 4sig(Fo) and 0.0290 for all 3127 data
REM 121 parameters refined using 0 restraints
END
WGHT      0.0231      0.9773
REM Highest difference peak  1.256,  deepest hole -2.215,  1-sigma level  0.216
Q1    1   0.2558  0.3366  0.4098  11.00000  0.05    1.26
Q2    1   0.2847  0.3348  0.6452  11.00000  0.05    1.22
Q3    1   0.2637  0.3977  0.5309  11.00000  0.05    1.18
Q4    1   0.2468  0.2564  0.4381  11.00000  0.05    0.98
Q5    1   0.1508  0.4808  0.4807  11.00000  0.05    0.84
Q6    1   0.3988  0.4434  0.5826  11.00000  0.05    0.72
Q7    1   0.1438  0.4133  0.3638  11.00000  0.05    0.69
Q8    1   0.4633  0.3802  0.7728  11.00000  0.05    0.69
Q9    1   0.2181  0.2962  0.8868  11.00000  0.05    0.69
Q10   1   0.3549  0.3246  0.0018  11.00000  0.05    0.68
;
_shelx_res_checksum              37235
loop_
_space_group_symop_operation_xyz
'x, y, z'
'-x, y+1/2, -z+1/2'
'-x, -y, -z'
'x, -y-1/2, z-1/2'
loop_
_atom_site_type_symbol
_atom_site_label
_atom_site_fract_x
_atom_site_fract_y
_atom_site_fract_z
_atom_site_U_iso_or_equiv
_atom_site_adp_type
_atom_site_calc_flag
_atom_site_occupancy
_atom_site_disorder_assembly
_atom_site_disorder_group
Bi Bi1 0.26448(2) 0.33482(2) 0.52386(2) 0.01425(5) Uani d 1 . .
Br Br1 0.13501(3) 0.47782(3) 0.37005(5) 0.02171(10) Uani d 1 . .
Br Br2 0.41622(3) 0.45100(3) 0.69260(5) 0.01968(9) Uani d 1 . .
Br Br3 0.11987(3) 0.33214(3) 0.82384(5) 0.01866(9) Uani d 1 . .
Br Br4 0.40032(3) 0.32819(3) 0.21440(5) 0.01834(9) Uani d 1 . .
N N1 0.1705(4) 0.5749(3) 0.9120(6) 0.0401(11) Uani d 1 . .
H H1 0.144(5) 0.523(5) 0.881(8) 0.06(2) Uiso d 1 . .
N N2 0.3249(4) 0.8303(3) 1.0181(6) 0.0306(9) Uani d 1 . .
H H21 0.285(5) 0.878(5) 0.978(8) 0.059(19) Uiso d 1 . .
H H22 0.389(5) 0.830(4) 1.079(8) 0.056(19) Uiso d 1 . .
C C1 0.2767(5) 0.5783(4) 1.0033(6) 0.0393(13) Uani d 1 . .
H H11 0.314405 0.520835 1.040512 0.047 Uiso calc 1 . .
C C2 0.3290(4) 0.6616(3) 1.0414(6) 0.0274(10) Uani d 1 . .
H H2 0.402901 0.662979 1.106108 0.033 Uiso calc 1 . .
C C3 0.2741(3) 0.7471(3) 0.9855(5) 0.0191(8) Uani d 1 . .
C C4 0.1635(3) 0.7410(3) 0.8953(5) 0.0237(9) Uani d 1 . .
H H4 0.122560 0.797233 0.859612 0.028 Uiso calc 1 . .
C C5 0.1155(4) 0.6550(3) 0.8594(6) 0.0307(11) Uani d 1 . .
H H5 0.041453 0.651245 0.795595 0.037 Uiso calc 1 . .
loop_
_atom_site_aniso_label
_atom_site_aniso_U_11
_atom_site_aniso_U_22
_atom_site_aniso_U_33
_atom_site_aniso_U_12
_atom_site_aniso_U_13
_atom_site_aniso_U_23
Bi1 0.01459(8) 0.01259(9) 0.01554(8) -0.00020(5) 0.00109(6) 0.00034(5)
Br1 0.01822(19) 0.0174(2) 0.0288(2) 0.00216(16) -0.00217(16) 0.00382(16)
Br2 0.01819(18) 0.0172(2) 0.0231(2) -0.00246(15) -0.00186(15) -0.00160(15)
Br3 0.01692(19) 0.0173(2) 0.0222(2) 0.00106(15) 0.00430(15) 0.00167(14)
Br4 0.01725(19) 0.0181(2) 0.01999(19) -0.00329(15) 0.00321(15) -0.00210(14)
N1 0.062(3) 0.020(2) 0.042(2) -0.017(2) 0.025(2) -0.0098(19)
N2 0.025(2) 0.027(2) 0.038(2) -0.0059(18) -0.0059(19) 0.0008(18)
C1 0.063(4) 0.025(3) 0.034(3) 0.019(3) 0.026(3) 0.010(2)
C2 0.029(2) 0.032(3) 0.021(2) 0.012(2) 0.0059(18) 0.0051(18)
C3 0.0204(19) 0.021(2) 0.0162(19) -0.0004(17) 0.0027(15) 0.0018(16)
C4 0.022(2) 0.023(2) 0.026(2) 0.0014(18) 0.0000(17) -0.0011(17)
C5 0.028(2) 0.033(3) 0.032(2) -0.012(2) 0.007(2) -0.006(2)
loop_
_atom_type_symbol
_atom_type_description
_atom_type_scat_dispersion_real
_atom_type_scat_dispersion_imag
_atom_type_scat_source
C C 0.0033 0.0016 'International Tables Vol C Tables 4.2.6.8 and 6.1.1.4'
H H 0.0000 0.0000 'International Tables Vol C Tables 4.2.6.8 and 6.1.1.4'
Bi Bi -4.1077 10.2566 'International Tables Vol C Tables 4.2.6.8 and 6.1.1.4'
Br Br -0.2901 2.4595 'International Tables Vol C Tables 4.2.6.8 and 6.1.1.4'
N N 0.0061 0.0033 'International Tables Vol C Tables 4.2.6.8 and 6.1.1.4'
loop_
_exptl_crystal_face_index_h
_exptl_crystal_face_index_k
_exptl_crystal_face_index_l
_exptl_crystal_face_perp_dist
-5 -4 0 0.0377
5 4 0 0.0377
0 -1 0 0.0361
1 0 0 0.0437
-1 0 0 0.0306
-1 -5 0 0.0328
1 5 0 0.0318
5 1 1 0.0466
-5 1 0 0.0322
-2 1 5 0.0937
3 -1 -5 0.0924
-1 1 0 0.0331
loop_
_geom_angle_atom_site_label_1
_geom_angle_atom_site_label_2
_geom_angle_atom_site_label_3
_geom_angle_site_symmetry_1
_geom_angle_site_symmetry_3
_geom_angle
_geom_angle_publ_flag
Br2 Bi1 Br1 . . 93.702(13) ?
Br2 Bi1 Br4 . . 90.017(12) ?
Br1 Bi1 Br4 . . 91.046(12) ?
Br2 Bi1 Br3 . . 93.452(12) ?
Br1 Bi1 Br3 . . 89.314(12) ?
Br4 Bi1 Br3 . . 176.482(12) ?
Br2 Bi1 Br4 . 4_566 87.020(12) ?
Br1 Bi1 Br4 . 4_566 176.605(12) ?
Br4 Bi1 Br4 . 4_566 92.272(11) ?
Br3 Bi1 Br4 . 4_566 87.331(11) ?
Br2 Bi1 Br3 . 4_565 169.462(12) ?
Br1 Bi1 Br3 . 4_565 95.756(12) ?
Br4 Bi1 Br3 . 4_565 85.182(11) ?
Br3 Bi1 Br3 . 4_565 91.301(11) ?
Br4 Bi1 Br3 4_566 4_565 83.810(12) ?
Bi1 Br3 Bi1 . 4_566 92.407(11) y
Bi1 Br4 Bi1 . 4_565 95.064(11) y
C5 N1 C1 . . 120.6(4) ?
C5 N1 H1 . . 121(4) ?
C1 N1 H1 . . 118(4) ?
C3 N2 H21 . . 114(4) ?
C3 N2 H22 . . 117(4) ?
H21 N2 H22 . . 128(6) ?
C2 C1 N1 . . 120.9(5) ?
C2 C1 H11 . . 119.6 ?
N1 C1 H11 . . 119.6 ?
C1 C2 C3 . . 119.9(5) ?
C1 C2 H2 . . 120.0 ?
C3 C2 H2 . . 120.0 ?
N2 C3 C4 . . 121.2(4) ?
N2 C3 C2 . . 121.1(4) ?
C4 C3 C2 . . 117.7(4) ?
C5 C4 C3 . . 119.7(4) ?
C5 C4 H4 . . 120.1 ?
C3 C4 H4 . . 120.1 ?
N1 C5 C4 . . 121.2(5) ?
N1 C5 H5 . . 119.4 ?
C4 C5 H5 . . 119.4 ?
loop_
_geom_bond_atom_site_label_1
_geom_bond_atom_site_label_2
_geom_bond_site_symmetry_2
_geom_bond_distance
_geom_bond_publ_flag
Bi1 Br1 . 2.7079(4) y
Bi1 Br2 . 2.6431(4) y
Bi1 Br3 . 2.8846(4) y
Bi1 Br3 4_565 3.1822(4) y
Bi1 Br4 . 2.8787(4) y
Bi1 Br4 4_566 3.0620(4) y
N1 C5 . 1.338(7) ?
N1 C1 . 1.361(7) ?
N1 H1 . 0.81(6) ?
N2 C3 . 1.326(6) y
N2 H21 . 0.85(6) ?
N2 H22 . 0.84(6) ?
C1 C2 . 1.341(7) ?
C1 H11 . 0.9500 ?
C2 C3 . 1.408(6) ?
C2 H2 . 0.9500 ?
C3 C4 . 1.403(5) ?
C4 C5 . 1.352(6) ?
C4 H4 . 0.9500 ?
C5 H5 . 0.9500 ?
loop_
_geom_hbond_atom_site_label_D
_geom_hbond_atom_site_label_H
_geom_hbond_atom_site_label_A
_geom_hbond_site_symmetry_A
_geom_hbond_distance_DH
_geom_hbond_distance_HA
_geom_hbond_distance_DA
_geom_hbond_angle_DHA
_geom_hbond_publ_flag
N1 H1 Br3 . 0.81(6) 2.74(6) 3.521(4) 163(6) yes
N2 H21 Br1 4_576 0.85(6) 2.76(7) 3.605(5) 173(5) yes
N2 H22 Br4 2_656 0.84(6) 2.78(6) 3.620(4) 179(5) yes
loop_
_geom_torsion_atom_site_label_1
_geom_torsion_atom_site_label_2
_geom_torsion_atom_site_label_3
_geom_torsion_atom_site_label_4
_geom_torsion_site_symmetry_1
_geom_torsion_site_symmetry_2
_geom_torsion_site_symmetry_3
_geom_torsion_site_symmetry_4
_geom_torsion
_geom_torsion_publ_flag
C5 N1 C1 C2 . . . . -0.5(7) ?
N1 C1 C2 C3 . . . . -0.5(7) ?
C1 C2 C3 N2 . . . . -178.6(4) ?
C1 C2 C3 C4 . . . . 1.9(6) ?
N2 C3 C4 C5 . . . . 178.1(4) ?
C2 C3 C4 C5 . . . . -2.4(6) ?
C1 N1 C5 C4 . . . . -0.1(7) ?
C3 C4 C5 N1 . . . . 1.5(7) ?

_cod_database_fobs_code 2022118
