#------------------------------------------------------------------------------
#$Date: 2021-01-01 10:40:07 +0200 (Fri, 01 Jan 2021) $
#$Revision: 260342 $
#$URL: file:///home/coder/svn-repositories/cod/cif/2/02/23/2022306.cif $
#------------------------------------------------------------------------------
#
# This file is available in the Crystallography Open Database (COD),
# http://www.crystallography.net/. The original data for this entry
# were provided by IUCr Journals, http://journals.iucr.org/.
#
# The file may be used within the scientific community so long as
# proper attribution is given to the journal article from which the
# data were obtained.
#
data_2022306
loop_
_publ_author_name
'Niu, Xiang-Long'
'Wei, Lin'
'Liu, Jian-Cheng'
'Jia, Wan-He'
'Ma, Jian-Ping'
'Wang, Lei'
'Wang, Jian-Cheng'
'Dong, Yu-Bin'
_publ_section_title
;
 Syntheses and structures of three macrocyclic supramolecular complexes
 and one Zn^II^-containing coordination polymer generated from a
 semi-rigid multidentate N-containing ligand
;
_journal_coeditor_code           OP3008
_journal_issue                   1
_journal_name_full               'Acta Crystallographica Section C'
_journal_page_first              29
_journal_page_last               39
_journal_paper_doi               10.1107/S2053229620016083
_journal_volume                  77
_journal_year                    2021
_chemical_formula_iupac          '[Zn I2 (C12 H10 N6)], C H Cl3'
_chemical_formula_moiety         'C12 H10 I2 N6 Zn, C H Cl3'
_chemical_formula_sum            'C13 H11 Cl3 I2 N6 Zn'
_chemical_formula_weight         676.80
_chemical_name_systematic
'<i>catena</i>-Poly[[[diiodidozinc(II)]-\m-4-{2-[(pyridin-3-yl)methyl]-2<i>H</i>-tetrazol-5-yl}pyridine] chloroform monosolvate]'
_space_group_IT_number           2
_space_group_name_Hall           '-P 1'
_space_group_name_H-M_alt        'P -1'
_symmetry_cell_setting           triclinic
_symmetry_space_group_name_H-M   'P -1'
_atom_sites_solution_hydrogens   geom
_audit_creation_method           SHELXL-97
_cell_angle_alpha                69.430(14)
_cell_angle_beta                 65.912(18)
_cell_angle_gamma                65.912(18)
_cell_formula_units_Z            2
_cell_length_a                   9.804(13)
_cell_length_b                   11.350(14)
_cell_length_c                   11.350(14)
_cell_measurement_reflns_used    2745
_cell_measurement_temperature    298(2)
_cell_measurement_theta_max      20.624
_cell_measurement_theta_min      2.341
_cell_volume                     1026(2)
_computing_cell_refinement
;
APEX2 (Bruker, 2012)
;
_computing_data_collection
;
APEX2 (Bruker, 2012)
;
_computing_data_reduction
;
SAINT (Bruker, 2012)
;
_computing_publication_material
;
SHELXL2018 (Sheldrick, 2015b)
;
_computing_structure_refinement
;
SHELXL2018 (Sheldrick, 2015b)
;
_computing_structure_solution
;
SHELXT (Sheldrick, 2015a)
;
_diffrn_ambient_temperature      298(2)
_diffrn_measured_fraction_theta_full 0.985
_diffrn_measured_fraction_theta_max 0.985
_diffrn_measurement_device_type  'Bruker APEXII CCD area detector'
_diffrn_measurement_method       'phi and omega scans'
_diffrn_radiation_monochromator  graphite
_diffrn_radiation_source         'fine-focus sealed tube'
_diffrn_radiation_type           MoK\a
_diffrn_radiation_wavelength     0.71073
_diffrn_reflns_av_R_equivalents  0.1284
_diffrn_reflns_av_unetI/netI     0.1317
_diffrn_reflns_limit_h_max       11
_diffrn_reflns_limit_h_min       -11
_diffrn_reflns_limit_k_max       13
_diffrn_reflns_limit_k_min       -13
_diffrn_reflns_limit_l_max       8
_diffrn_reflns_limit_l_min       -13
_diffrn_reflns_number            5299
_diffrn_reflns_theta_full        25.049
_diffrn_reflns_theta_max         25.049
_diffrn_reflns_theta_min         2.016
_exptl_absorpt_coefficient_mu    4.604
_exptl_absorpt_correction_T_max  0.6312
_exptl_absorpt_correction_T_min  0.4908
_exptl_absorpt_correction_type   multi-scan
_exptl_absorpt_process_details
;
(SADABS; Bruker, 2012)
;
_exptl_crystal_colour            yellow
_exptl_crystal_density_diffrn    2.190
_exptl_crystal_density_method    'not measured'
_exptl_crystal_description       block
_exptl_crystal_F_000             636
_exptl_crystal_size_max          0.18
_exptl_crystal_size_mid          0.15
_exptl_crystal_size_min          0.11
_refine_diff_density_max         2.403
_refine_diff_density_min         -1.890
_refine_ls_extinction_method     none
_refine_ls_goodness_of_fit_ref   1.228
_refine_ls_hydrogen_treatment    constr
_refine_ls_matrix_type           full
_refine_ls_number_parameters     239
_refine_ls_number_reflns         3598
_refine_ls_number_restraints     48
_refine_ls_restrained_S_all      1.234
_refine_ls_R_factor_all          0.1638
_refine_ls_R_factor_gt           0.1308
_refine_ls_shift/su_max          0.000
_refine_ls_shift/su_mean         0.000
_refine_ls_structure_factor_coef Fsqd
_refine_ls_weighting_details
'w=1/[\s^2^(Fo^2^)+(0.1720P)^2^] where P=(Fo^2^+2Fc^2^)/3'
_refine_ls_weighting_scheme      calc
_refine_ls_wR_factor_gt          0.3222
_refine_ls_wR_factor_ref         0.3469
_reflns_number_gt                2424
_reflns_number_total             3598
_reflns_threshold_expression     'I > 2\s(I)'
_cod_data_source_file            op3008sup1.cif
_cod_data_source_block           IV
_cod_database_code               2022306
_shelx_hkl_file
;
  -1   0   0  565.13    7.24
  -2   0   0  624.59   11.62
  -3   0   0    5.04    1.22
  -4   0   0   30.02    2.85
  -5   0   0   48.98    5.44
  -6   0   0   -0.27    1.53
  -7   0   0    4.64    2.19
  -8   0   0   71.28    7.22
  -9   0   0   16.75    4.62
 -10   0   0   31.75    7.74
   0   1  -1   56.52    2.55
   1   1  -1  263.84    7.20
  -1   1  -1  195.96    5.55
   2   1  -1 1892.96   18.92
  -2   1  -1   56.15    2.60
  -3  -1   1  852.13   14.88
  -3   1  -1    4.20    1.40
  -4  -1   1  185.07    6.20
  -4   1  -1   46.50    3.80
  -5  -1   1   34.89    3.81
  -5   1  -1  326.48   12.80
  -6  -1   1    8.29    1.97
  -6   1  -1  497.48   21.60
  -7  -1   1    0.96    1.22
  -7   1  -1  126.95    8.40
  -8  -1   1    1.70    2.28
  -8   1  -1   61.09    8.88
  -9  -1   1    9.92    4.91
  -9   1  -1    2.61    3.44
  10   1  -1   16.52    6.68
 -10   1  -1    4.22    3.39
   0   2  -2   40.46    2.51
   1   2  -2    0.64    0.71
  -1   2  -2   62.27    4.52
   2   2  -2   12.48    2.29
  -2   2  -2  156.32    6.53
   3   2  -2    0.47    0.48
  -3   2  -2   58.67    3.81
   4   2  -2  264.06    8.55
  -4   2  -2  344.10   11.25
   5   2  -2    8.69    1.95
  -5   2  -2   18.21    3.31
   6   2  -2    7.51    2.87
  -6   2  -2    3.52    2.27
   7   2  -2    3.97    3.39
  -7   2  -2   19.91    5.39
   8   2  -2   15.39    5.73
  -8   2  -2   28.31    6.51
   9   2  -2    4.77    4.23
  -9   2  -2    7.24    4.34
  10   2  -2   12.54    6.97
 -10   2  -2    8.00    5.32
   0   3  -3   53.51    3.12
   1   3  -3   90.04    4.28
  -1   3  -3    5.82    1.63
   2   3  -3  121.69    6.15
  -2   3  -3   77.40    5.33
   3   3  -3   45.15    3.49
  -3   3  -3    2.52    1.48
   4   3  -3    0.54    0.86
  -4   3  -3   -1.01    1.03
   5   3  -3   22.65    2.92
  -5   3  -3   12.10    2.87
   6   3  -3   31.51    2.74
  -6   3  -3    7.83    2.74
   7   3  -3   15.97    2.97
  -7   3  -3    6.02    2.63
   8   3  -3    3.80    2.82
  -8   3  -3    3.35    3.37
   9   3  -3    4.46    3.56
  -9   3  -3    6.49    5.00
  10   3  -3   29.06    7.65
 -10   3  -3    0.66    4.78
   0   4  -4   98.43    5.97
   1   4  -4    4.18    2.26
  -1   4  -4   18.44    2.61
   2   4  -4   17.11    2.51
  -2   4  -4    3.20    1.67
   3   4  -4   70.40    3.97
  -3   4  -4   38.99    4.38
   4   4  -4   93.49    5.07
  -4   4  -4   40.31    3.75
   5   4  -4   40.62    2.98
  -5   4  -4   66.22    5.36
   6   4  -4   19.81    2.67
  -6   4  -4   47.71    5.88
   7   4  -4    1.69    1.31
  -7   4  -4   23.56    5.04
   8   4  -4    4.28    1.68
  -8   4  -4    2.44    2.40
   9   4  -4    6.00    2.71
  -9   4  -4    7.74    5.11
   0   5  -5   63.04    5.60
   1   5  -5    6.74    2.09
  -1   5  -5  140.69    7.22
   2   5  -5   18.05    4.22
  -2   5  -5  102.46    5.67
   3   5  -5    8.91    2.37
  -3   5  -5  144.62    7.46
   4   5  -5   -0.03    1.21
  -4   5  -5   51.88    4.66
   5   5  -5    2.02    1.22
  -5   5  -5    8.00    2.31
   6   5  -5    5.56    1.26
  -6   5  -5    0.93    2.02
   7   5  -5    9.05    1.71
  -7   5  -5    0.12    1.46
   8   5  -5    3.88    1.41
  -8   5  -5    0.18    2.42
   0   6  -6   18.07    3.08
   1   6  -6   58.16    5.24
  -1   6  -6   81.20    7.94
   2   6  -6   27.48    3.86
  -2   6  -6    9.19    3.13
  -3   6  -6    0.58    1.57
  -4   6  -6    0.25    1.44
  -5   6  -6    1.25    1.51
  -6   6  -6    8.71    2.59
  -7   6  -6   12.24    3.35
 -11   0  -1    0.35    2.02
  11   1   0   11.71    7.17
 -10  -1   0    4.26    4.69
 -10   0  -1    1.92    4.55
  -9  -1   0    5.32    3.05
  -9   0  -1    1.03    2.42
  -8  -1   0   12.07    3.04
  -8   0  -1    3.37    2.71
  -7  -1   0   54.49    7.33
  -7   0  -1   22.34    4.36
  -6  -1   0  101.21    7.11
  -6   0  -1  137.06   10.55
  -5  -1   0   61.20    4.10
  -5   0  -1   95.46    5.19
  -4  -1   0  138.80    5.43
  -4   0  -1  139.84    7.36
  -3  -1   0   63.20    4.75
  -3   0  -1   90.44    4.92
  -2  -1   0  772.58   13.62
  -2   0  -1   18.99    1.48
  -1   0  -1  227.45    3.80
   1   1   0  371.47    8.30
   0   0  -1  100.79    2.24
   0   1   0  296.51    5.09
  -1   0   1    0.81    0.37
  -1   1   0  199.95    5.09
  -2   0   1  195.29    6.52
  -2   1   0 1092.88   14.82
  -3   0   1  225.38    8.18
  -3   1   0  211.46    8.34
  -4   0   1  589.58   13.55
  -4   1   0   30.50    2.98
  -5   0   1  302.52   10.66
  -5   1   0   83.30    8.08
  -6   0   1   44.84    4.26
  -6   1   0   19.09    3.21
  -7   0   1    1.28    1.80
  -7   1   0    6.97    4.62
  -8   0   1   33.56    5.86
  -8   1   0   24.93    5.08
  -9   0   1   14.04    4.86
  -9   1   0   23.84    4.80
 -10   0   1    3.78    3.70
 -10   1   0   36.57    6.68
  11   2  -1   -0.05    7.43
 -10   1  -2    2.79    3.20
  10   2  -1   48.03   11.20
  -9   1  -2   13.94    4.89
   9   2  -1  117.62   14.33
  -8   1  -2   65.03   10.33
   8   2  -1   83.71    9.60
  -7   1  -2   87.29    7.76
   7   2  -1   84.99    6.86
  -6   1  -2   36.07    5.67
   6   2  -1    1.84    1.47
  -5   1  -2    9.78    2.34
   5   2  -1    0.85    1.51
  -4   1  -2   55.39    4.52
   4   2  -1    1.46    1.08
  -3   1  -2  366.21    9.32
  -2   1  -2  227.14    6.11
   2   2  -1   49.87    3.52
  -1   1  -2  209.11    4.88
   1   2  -1  283.78    5.81
   0   1  -2  287.64    5.94
   0   2  -1  420.01    7.16
   1   1  -2  928.63   14.87
  -1   2  -1 1274.15   15.73
   2   1  -2  103.19    4.29
  -2   2  -1   79.09    4.57
   3   1  -2  147.46    4.06
  -3   2  -1   24.93    2.63
  -4  -1   2   20.41    3.05
  -4   2  -1   14.83    2.65
  -5  -1   2    2.33    1.08
  -5   2  -1   69.18    6.83
  -6  -1   2   25.41    3.60
  -6   2  -1   72.91    6.45
  -7  -1   2   64.74    7.96
  -7   2  -1  129.09   13.41
  -8   2  -1   40.60    5.82
   9   1  -2    8.78    4.59
  -9   2  -1   26.86    8.85
  10   1  -2    8.77    6.36
 -10   2  -1    2.96    4.36
 -10   2  -3    2.88    4.76
  10   3  -2   17.34    7.24
  -9   2  -3    6.50    3.01
   9   3  -2    1.58    3.62
  -8   2  -3    8.53    5.48
   8   3  -2    7.52    3.41
  -7   2  -3    5.86    3.26
   7   3  -2   31.38    4.40
  -6   2  -3   55.24    5.59
   6   3  -2   12.60    2.48
  -5   2  -3  152.02    7.19
   5   3  -2    1.80    0.68
  -4   2  -3  264.42    9.00
   4   3  -2   98.78    7.69
  -3   2  -3  209.96    7.05
   3   3  -2  360.81    9.87
  -2   2  -3  284.17    9.33
   2   3  -2  726.64   13.77
  -1   2  -3   25.52    2.32
   1   3  -2  474.58   10.05
   0   2  -3   63.90    3.43
   0   3  -2  198.12    5.76
   1   2  -3   14.72    2.21
  -1   3  -2    0.67    1.25
   2   2  -3   15.34    1.86
  -2   3  -2    1.36    1.56
   3   2  -3   45.58    4.02
  -3   3  -2    8.49    2.11
   4   2  -3   26.23    2.46
  -4   3  -2    3.66    1.58
   5   2  -3   46.32    4.25
  -5   3  -2   12.96    3.33
   6   2  -3    1.89    2.19
  -6   3  -2   48.88    6.79
   7   2  -3    0.60    2.58
  -7   3  -2   15.33    3.87
   8   2  -3    9.29    4.57
  -8   3  -2   12.21    5.09
   9   2  -3   10.72    6.04
  -9   3  -2    9.15    4.15
  10   2  -3   17.91   10.32
 -10   3  -2    2.69    7.87
 -10   3  -4   10.57    4.40
  10   4  -3   29.11    9.94
  -9   3  -4   30.64    8.24
   9   4  -3    8.80    4.89
  -8   3  -4   14.65    4.18
   8   4  -3    6.65    4.07
  -7   3  -4    5.55    2.90
   7   4  -3   15.27    4.15
  -6   3  -4    2.26    1.78
   6   4  -3   28.22    2.85
  -5   3  -4    1.03    1.67
   5   4  -3   53.69    3.76
  -4   3  -4   18.84    2.79
   4   4  -3   41.03    3.94
  -3   3  -4  219.15    8.93
   3   4  -3   74.47    5.20
  -2   3  -4   73.93    5.36
   2   4  -3   34.61    3.25
  -1   3  -4  125.22    5.47
   1   4  -3  150.75    6.91
   0   3  -4   88.73    3.97
   0   4  -3   81.27    5.50
   1   3  -4   23.83    2.99
  -1   4  -3   50.95    4.09
   2   3  -4   15.04    1.71
  -2   4  -3   10.65    2.45
   3   3  -4    9.08    1.76
  -3   4  -3   39.64    4.62
   4   3  -4   19.08    2.25
  -4   4  -3   56.13    4.34
   5   3  -4   38.72    2.78
  -5   4  -3   75.78    6.72
   6   3  -4   20.97    3.33
  -6   4  -3   17.31    3.94
   7   3  -4   21.62    3.63
  -7   4  -3    4.20    3.45
   8   3  -4    1.90    1.98
  -8   4  -3    5.39    2.82
   9   3  -4    5.64    3.57
  -9   4  -3    8.42    6.16
  -9   4  -5   11.58    5.91
   9   5  -4    4.67    2.22
  -8   4  -5   13.34    3.46
   8   5  -4    0.64    1.03
  -7   4  -5    5.87    2.75
   7   5  -4    1.78    0.87
  -6   4  -5   13.41    3.27
   6   5  -4    0.18    0.92
  -5   4  -5   20.47    3.36
   5   5  -4    2.09    1.18
  -4   4  -5   28.70    3.40
   4   5  -4   14.85    2.17
  -3   4  -5   38.03    3.75
   3   5  -4   51.18    4.57
  -2   4  -5   91.07    5.56
   2   5  -4   36.13    4.40
  -1   4  -5  201.24    7.78
   1   5  -4    2.54    1.85
   0   4  -5  152.03    7.39
   0   5  -4   10.15    2.92
   1   4  -5   41.08    4.47
  -1   5  -4   38.57    3.97
   2   4  -5    4.93    1.61
  -2   5  -4   16.30    2.50
   3   4  -5    3.16    1.54
  -3   5  -4   -0.93    1.60
   4   4  -5    5.50    1.77
  -4   5  -4    9.38    2.63
   5   4  -5    1.06    1.05
  -5   5  -4   21.75    2.90
   6   4  -5    1.70    0.80
  -6   5  -4   37.54    4.85
   7   4  -5    9.93    1.77
  -7   5  -4   13.52    3.03
   8   4  -5   12.80    3.31
  -8   5  -4    7.35    3.63
  -9   5  -4    3.35    3.79
  -8   5  -6    2.79    2.65
   8   6  -5    0.91    0.87
  -7   5  -6   11.07    2.63
   7   6  -5   -1.04    0.52
  -6   5  -6   14.83    3.07
   6   6  -5    0.58    0.70
  -5   5  -6    3.15    1.33
   5   6  -5    8.06    1.98
  -4   5  -6    1.23    1.56
   4   6  -5    9.65    2.03
  -3   5  -6   -0.67    1.17
   3   6  -5   11.21    2.82
  -2   5  -6    2.56    2.37
   2   6  -5    3.05    2.48
  -1   5  -6    2.10    1.83
   1   6  -5    3.77    2.14
   0   5  -6   31.55    4.22
   0   6  -5   10.39    2.85
   1   5  -6   99.89    5.51
  -1   6  -5   34.63    5.81
   2   5  -6   49.31    4.47
  -2   6  -5   30.82    3.78
  -3   6  -5   34.25    3.82
  -4   6  -5   17.03    3.04
  -5   6  -5    6.52    2.11
  -6   6  -5    1.89    1.72
  -7   6  -5    2.77    2.24
  -8   6  -5    2.99    3.53
   1   7  -6    3.87    3.17
   0   7  -6    3.77    2.52
  -1   7  -6   17.99    3.53
  -2   7  -6   20.90    3.94
  -3   7  -6   14.58    2.65
  -4   7  -6    6.53    2.09
  -5   7  -6    6.60    2.06
  -6   7  -6    5.79    2.20
 -11  -1  -1   18.20    7.34
 -10  -1  -1   19.41    5.45
  -9  -1  -1    1.93    2.20
  -8  -1  -1   17.46    4.88
  -7  -1  -1    4.90    2.01
  -6  -1  -1   23.62    3.19
  -5  -1  -1    2.37    1.13
  -4  -1  -1    2.63    1.03
  -2  -1  -1    3.43    0.93
   1   1   1   10.43    1.54
   0   1   1    1.76    0.40
  -1   1   1   22.06    1.81
  -2   1   1   22.14    2.18
  -3   1   1   18.38    2.09
  -4   1   1   56.60    5.59
  -5   1   1  114.94    7.21
  -6   1   1   87.53    9.64
  -7   1   1    3.30    2.55
  -8   1   1    2.67    2.52
  -9   1   1   10.05    3.68
 -10   1   1   23.79    7.45
 -11   0  -2    2.32    7.43
  11   2   0    8.52   10.43
 -10   0  -2   -1.26    2.88
  10   2   0   32.23    8.44
  -9   0  -2   -1.12    2.12
   9   2   0   14.81    4.42
  -8   0  -2    6.57    3.20
   8   2   0   -0.62    2.43
  -7   0  -2    7.70    3.85
  -6   0  -2  116.27    7.33
  -5   0  -2   40.46    4.27
   5   2   0  160.19    6.71
  -4   0  -2    2.09    1.69
   4   2   0  248.18    8.24
  -3   0  -2    1.67    1.02
   3   2   0 1323.13   19.91
  -2   0  -2  240.83    5.25
   2   2   0   40.47    4.63
  -1   0  -2   13.71    0.74
   1   2   0   27.57    2.24
   0   0  -2  116.04    2.67
   0   2   0    3.35    1.38
  -1   0   2  126.45    4.28
  -1   2   0   96.54    4.86
  -2   0   2  230.49    4.96
  -2   2   0  115.58    5.27
  -3   0   2  160.25    5.11
  -3   2   0  198.24    7.71
  -4   0   2  137.21    5.37
  -4   2   0   97.74    6.14
  -5   0   2   48.22    3.81
  -5   2   0   84.97    6.32
  -6   0   2    1.26    1.37
  -6   2   0   31.13    5.48
  -7   0   2   64.09    8.07
  -7   2   0    8.32    3.70
  -8   0   2   44.37    7.71
  -8   2   0    1.91    3.00
  -9   0   2   18.32    5.14
  -9   2   0    8.45    4.13
 -10   0   2   10.02    5.49
 -10   2   0    7.82    3.07
 -11   1  -3    4.88    4.62
  11   3  -1    0.95    7.59
 -10   1  -3    4.48    3.73
  10   3  -1   12.66    6.93
  -9   1  -3   -0.46    4.29
   9   3  -1   48.75    9.15
  -8   1  -3    0.51    1.91
   8   3  -1   84.90    9.93
  -7   1  -3    6.68    4.57
   7   3  -1  196.80   12.50
  -6   1  -3   27.61    4.73
   6   3  -1   78.74    6.19
  -5   1  -3  157.35    7.09
   5   3  -1   49.92    4.11
  -4   1  -3  527.27   11.44
   4   3  -1  157.96    7.81
  -3   1  -3  818.34   14.78
   3   3  -1    5.44    2.09
  -2   1  -3  508.45    9.46
   2   3  -1  206.10    8.22
  -1   1  -3   26.98    2.86
   1   3  -1   85.30    3.94
   0   1  -3    1.44    0.94
   0   3  -1  453.15   10.36
   1   1  -3   64.06    3.07
  -1   3  -1 1495.88   22.92
   2   1  -3  115.64    4.37
  -2   3  -1  943.77   17.76
   3   1  -3    6.10    1.10
  -3   3  -1  427.05   11.22
   4   1  -3    7.62    1.42
  -4   3  -1   79.12    5.84
   5   1  -3   65.11    4.21
  -5   3  -1   14.44    2.78
   6   1  -3  108.14    7.46
  -6   3  -1    6.84    3.63
   7   1  -3   78.17    7.47
  -7   3  -1    0.88    2.42
   8   1  -3   37.05    7.33
  -8   3  -1    1.45    5.33
   9   1  -3    0.37    6.89
  -9   3  -1    6.59    3.47
  10   1  -3   13.83    8.23
 -10   3  -1   -0.81    6.97
 -10   2  -4   44.79   11.06
  10   4  -2    9.40    4.52
  -9   2  -4   27.17    4.83
   9   4  -2   16.52    4.24
  -8   2  -4   55.16    9.11
   8   4  -2    1.65    2.68
  -7   2  -4    1.92    2.24
   7   4  -2    2.03    2.01
  -6   2  -4   -0.60    2.43
   6   4  -2   22.81    4.31
  -5   2  -4    2.91    1.82
   5   4  -2    0.69    1.38
  -4   2  -4   -0.26    1.56
   4   4  -2   19.86    2.56
  -3   2  -4   41.14    3.20
   3   4  -2  164.33    8.05
  -2   2  -4  408.31   10.37
   2   4  -2  857.73   18.51
  -1   2  -4  530.04    9.94
   1   4  -2  604.69   13.25
   0   2  -4  632.31   11.08
   0   4  -2  306.21   10.61
   1   2  -4  350.75    9.50
  -1   4  -2  260.03    9.05
   2   2  -4  127.20    5.95
  -2   4  -2    3.12    1.80
   3   2  -4   10.84    1.57
  -3   4  -2   14.57    2.97
   4   2  -4    2.03    0.98
  -4   4  -2   22.68    3.24
   5   2  -4    0.67    0.95
  -5   4  -2    0.27    1.91
   6   2  -4   -0.31    1.31
  -6   4  -2   22.69    4.01
   7   2  -4    8.06    2.79
  -7   4  -2   60.39    8.08
   8   2  -4   17.40    4.41
   9   2  -4   13.97    6.02
  -9   4  -2   26.04    9.12
 -10   3  -5    2.02    2.78
  10   5  -3    3.15    3.85
  -9   3  -5   11.96    5.76
   9   5  -3    1.96    2.75
  -8   3  -5   26.56    4.46
   8   5  -3    2.16    1.76
  -7   3  -5   70.20    7.80
   7   5  -3    0.28    1.13
  -6   3  -5   94.14    6.20
   6   5  -3   -0.22    0.82
  -5   3  -5   37.83    4.06
   5   5  -3   10.27    2.13
  -4   3  -5   26.72    2.87
   4   5  -3   29.80    3.47
  -3   3  -5   -1.40    1.57
   3   5  -3   42.07    4.84
  -2   3  -5   29.26    3.49
   2   5  -3   27.84    4.00
  -1   3  -5    9.27    1.83
   1   5  -3   32.64    3.85
   0   3  -5   36.92    2.92
   0   5  -3   17.46    3.20
   1   3  -5   70.04    4.59
  -1   5  -3    1.98    1.81
   2   3  -5   89.11    5.38
  -2   5  -3    0.32    1.64
   3   3  -5   16.98    2.12
  -3   5  -3   17.67    3.31
   4   3  -5    8.69    1.41
  -4   5  -3   83.26    6.03
   5   3  -5    1.15    0.98
  -5   5  -3   49.13    4.28
   6   3  -5    0.35    0.64
  -6   5  -3   42.76    5.47
   7   3  -5    0.93    1.71
  -7   5  -3    7.14    2.73
   8   3  -5   15.91    6.12
  -8   5  -3    0.79    2.22
   9   3  -5   33.98   11.67
  -9   5  -3    3.67    4.44
  -9   4  -6    3.44    4.10
   9   6  -4    3.96    1.99
  -8   4  -6    1.02    2.08
   8   6  -4    2.94    1.27
  -7   4  -6    4.28    2.50
   7   6  -4   -0.11    0.72
  -6   4  -6    2.53    2.06
   6   6  -4    1.29    1.06
  -5   4  -6    3.43    1.72
   5   6  -4    8.97    1.53
  -4   4  -6   11.31    2.08
   4   6  -4   13.42    3.02
  -3   4  -6    4.09    1.83
   3   6  -4   20.24    3.30
  -2   4  -6    1.93    2.08
   2   6  -4    2.27    2.98
  -1   4  -6    1.38    1.49
   1   6  -4    2.20    1.78
   0   4  -6    4.63    2.04
   0   6  -4    4.87    3.45
   1   4  -6   25.79    3.17
  -1   6  -4    3.19    2.70
   2   4  -6   35.51    3.79
  -2   6  -4    2.21    2.05
   3   4  -6   26.19    3.28
  -3   6  -4    5.65    2.13
  -4   6  -4    0.09    1.59
  -5   6  -4    0.73    1.58
  -6   6  -4    3.40    1.98
  -7   6  -4    2.89    1.98
  -8   6  -4    9.52    4.17
   7   7  -5    1.19    0.66
   6   7  -5    1.82    1.28
   5   7  -5    0.26    1.08
   4   7  -5   18.69    3.57
   3   7  -5   22.62    3.48
   2   7  -5   31.55    4.21
   1   7  -5   36.00    5.49
   0   7  -5    0.59    2.59
  -1   7  -5   -0.40    2.69
  -2   7  -5    4.82    2.68
  -3   7  -5    0.30    1.53
  -4   7  -5    1.72    1.63
  -5   7  -5    1.37    1.34
  -6   7  -5    4.58    2.29
  -7   7  -5    5.56    2.82
   0   8  -6    1.49    2.33
  -1   8  -6    1.55    1.50
  -2   8  -6    8.66    2.47
  -3   8  -6   15.41    3.17
  -4   8  -6   14.94    2.93
  -5   8  -6   10.90    2.58
 -11  -1  -2   15.25    5.98
  11   2   1   32.18   10.05
 -10  -1  -2   16.87    4.08
  10   2   1   32.10    7.50
  -9  -1  -2    7.98    5.38
  -8  -2  -1    5.47    4.11
  -8  -1  -2    6.89    2.76
  -7  -2  -1   86.17    7.35
  -7  -1  -2   16.50    3.12
  -6  -2  -1  208.27    9.22
  -6  -1  -2    3.54    1.57
  -5  -2  -1  722.87   20.67
  -5  -1  -2   32.97    3.29
  -4  -1  -2  336.60    8.89
   4   2   1  297.91    7.84
  -3  -1  -2  536.74    9.49
   3   2   1  201.21    6.95
  -2  -1  -2 3915.86   34.71
   2   2   1  328.03    9.94
   1   1   2   20.31    1.20
   1   2   1  412.26    8.15
   0   1   2   83.29    2.11
   0   2   1  173.66    5.48
  -1   1   2   -0.07    0.64
  -1   2   1  118.56    5.65
  -2   1   2    3.83    0.95
  -2   2   1   16.43    1.81
  -3   1   2   15.82    2.77
  -3   2   1   24.36    2.81
  -4   1   2   66.40    4.30
  -4   2   1   74.76    6.21
  -5   1   2   36.83    5.43
  -5   2   1   86.53    6.81
  -6   1   2   19.15    3.80
  -6   2   1   32.69    6.69
  -7   1   2    1.35    1.88
  -7   2   1    1.20    1.95
  -8   1   2    5.65    2.84
  -8   2   1    8.96    4.48
  -9   1   2   13.74    5.18
  -9   2   1    8.24    3.33
 -10   1   2    2.26    2.38
 -10   2   1    5.78    3.52
 -11   0  -3   -4.01    5.69
  11   3   0   14.76    9.39
 -10   0  -3   22.61    5.28
  10   3   0    3.15    5.00
  -9   0  -3   40.30    6.12
   9   3   0   10.46    4.71
  -8   0  -3   75.06    8.15
   8   3   0   25.10    5.39
  -7   0  -3   40.10    6.48
   7   3   0    3.92    2.59
  -6   0  -3   15.46    2.80
   6   3   0    4.24    2.23
  -5   0  -3  102.05    8.17
   5   3   0  394.93   11.76
  -4   0  -3   98.63    5.50
   4   3   0  145.26    4.92
  -3   0  -3  131.57    5.48
   3   3   0  392.93   13.01
  -2   0  -3  624.68    8.87
  -1   0  -3  865.04    9.61
   1   3   0   52.47    3.83
   0   0  -3  490.38    7.05
   0   3   0  326.34    9.02
   1   0  -3   60.10    2.57
  -1   3   0  111.56    5.45
  -2   0   3    0.88    0.44
  -2   3   0  151.44    7.90
  -3   0   3    0.35    0.90
  -3   3   0   16.66    2.64
  -4   0   3    3.71    1.37
  -4   3   0    6.52    2.18
  -5   0   3   34.53    4.65
  -5   3   0  167.37    9.99
  -6   0   3  103.96    8.08
  -6   3   0  120.07    8.95
  -7   0   3   64.24    5.72
  -7   3   0   93.37   10.39
  -8   0   3   26.15    4.92
  -8   3   0    6.30    3.75
  -9   3   0    7.72    5.45
  10   0  -3    8.86    7.08
 -11   1  -4    2.88    4.30
  11   4  -1    5.54    4.36
 -10   1  -4    4.54    3.86
  10   4  -1    1.51    3.57
  -9   1  -4   16.43    6.31
   9   4  -1    3.03    2.52
  -8   1  -4   25.94    4.34
   8   4  -1    1.57    2.13
  -7   1  -4   72.01    9.45
   7   4  -1   46.84    4.08
  -6   1  -4   54.81    5.43
   6   4  -1    3.14    2.05
  -5   1  -4    8.06    2.47
   5   4  -1   74.48    5.28
  -4   1  -4    1.10    1.26
   4   4  -1   15.99    2.42
  -3   1  -4    9.47    1.38
   3   4  -1    5.32    2.04
  -2   1  -4   34.86    2.90
   2   4  -1    4.44    2.22
  -1   1  -4  443.97    7.71
   1   4  -1    4.08    1.66
   0   1  -4  730.24   10.50
   0   4  -1   17.98    2.89
   1   1  -4  794.76   12.38
  -1   4  -1  379.49   14.58
   2   1  -4  429.16    9.72
  -2   4  -1  241.12   10.37
   3   1  -4    6.25    1.15
   4   1  -4    0.22    0.77
  -4   4  -1  154.42    7.54
   5   1  -4   11.92    2.31
  -5   4  -1   46.10    5.38
   6   1  -4   37.02    5.26
  -6   4  -1    1.59    2.23
   7   1  -4    1.97    3.51
  -7   4  -1    6.29    2.87
   8   1  -4    7.95    4.23
  -8   4  -1    6.98    4.44
   9   1  -4   32.58    8.24
  -9   4  -1    5.40    4.94
 -10   2  -5    8.75    6.89
  10   5  -2    2.79    5.03
  -9   2  -5    3.23    2.54
   9   5  -2    7.84    2.50
  -8   2  -5   32.18    6.45
   8   5  -2   10.85    2.57
  -7   2  -5   24.70    4.16
   7   5  -2   33.77    4.26
  -6   2  -5  209.85   11.76
   6   5  -2   29.81    3.20
  -5   2  -5  113.09    6.94
   5   5  -2   37.46    4.13
  -4   2  -5   91.35    5.07
   4   5  -2    8.39    2.16
  -3   2  -5    0.82    1.17
   3   5  -2   15.40    3.15
  -2   2  -5   22.39    2.40
   2   5  -2   20.94    3.51
  -1   2  -5  134.31    4.90
   1   5  -2   72.18    5.42
   0   2  -5   18.96    1.92
   0   5  -2  184.70    9.03
   1   2  -5    2.28    1.02
  -1   5  -2  188.78    8.71
   2   2  -5  100.15    4.37
  -2   5  -2  102.71    7.68
   3   2  -5   97.50    4.38
  -3   5  -2   64.93    6.47
   4   2  -5   74.31    4.46
  -4   5  -2    1.54    1.69
   5   2  -5   19.61    2.52
  -5   5  -2    1.63    2.14
   6   2  -5    3.08    1.04
  -6   5  -2   17.45    4.09
   7   2  -5    1.19    1.35
  -7   5  -2    4.37    3.34
   8   2  -5    4.12    2.17
  -8   5  -2   15.32    4.26
   9   2  -5    7.93    3.85
  -9   5  -2   23.24    7.76
 -10   3  -6    1.48    2.54
  10   6  -3    6.47    2.75
  -9   3  -6    8.27    5.47
   9   6  -3   10.33    2.25
  -8   3  -6   14.66    3.56
   8   6  -3    1.74    1.15
  -7   3  -6   33.00    5.53
   7   6  -3    1.11    0.99
  -6   3  -6    7.89    2.14
   6   6  -3    1.15    1.17
  -5   3  -6   -0.37    1.35
   5   6  -3   19.81    2.89
  -4   3  -6   28.42    2.78
   4   6  -3    5.81    2.48
  -3   3  -6   75.35    5.13
   3   6  -3   19.47    2.94
  -2   3  -6   86.71    5.60
   2   6  -3   39.79    4.54
  -1   3  -6    9.06    1.95
   1   6  -3  117.53    6.52
   0   3  -6    3.93    1.54
   0   6  -3  163.28   10.02
   1   3  -6   35.36    4.15
  -1   6  -3  130.69    8.86
   2   3  -6   40.97    3.52
  -2   6  -3   58.57    5.12
   3   3  -6    6.08    1.53
  -3   6  -3    3.76    2.10
   4   3  -6   -0.33    0.82
  -4   6  -3   11.46    2.69
  -5   6  -3    1.92    1.50
  -6   6  -3    9.05    2.73
  -7   6  -3    6.11    2.45
  -8   6  -3    4.65    3.61
   9   7  -4    0.14    1.10
   8   7  -4    1.02    0.78
  -7   4  -7    4.26    2.82
   7   7  -4    1.94    1.12
   6   7  -4   -0.55    0.94
   5   7  -4   15.58    2.64
   4   7  -4   40.56    4.42
   3   7  -4   84.33    8.53
   2   7  -4   39.67    4.92
   1   7  -4   47.17    6.46
   0   7  -4    2.54    2.44
  -1   7  -4   19.68    5.34
  -2   7  -4   12.61    3.47
  -3   7  -4    0.38    1.49
  -4   7  -4    0.93    1.61
  -5   7  -4    6.59    2.36
  -6   7  -4    6.61    2.55
  -7   7  -4    7.14    3.32
   6   8  -5    5.22    1.63
   5   8  -5   -0.06    1.67
   4   8  -5    2.26    2.06
   3   8  -5    5.13    2.70
   2   8  -5   13.99    3.33
   1   8  -5   48.71    7.11
   0   8  -5    1.93    2.38
  -1   8  -5    1.28    1.73
  -2   8  -5    9.18    3.47
  -3   8  -5    8.25    2.24
  -4   8  -5    4.54    1.98
  -5   8  -5    3.90    1.69
  -6   8  -5    2.19    2.43
  -2   9  -6    3.19    2.32
  -3   9  -6    5.30    2.99
  -4   9  -6    7.49    2.62
  11   2   2   25.94    6.44
  -9  -2  -2   37.29    7.39
  -8  -2  -2    2.37    2.33
  -7  -2  -2   15.16    3.45
  -6  -2  -2   47.48    4.99
  -5  -2  -2   88.43    6.05
   3   2   2  917.81   14.79
   2   2   2 1595.47   17.24
   1   2   2 1192.21   14.65
   0   2   2 1405.97   16.14
  -1   2   2   26.74    1.97
  -2   2   2    1.41    1.07
  -3   2   2   48.20    4.74
  -4   2   2   10.81    2.20
  -5   2   2    2.02    2.96
  -6   2   2   29.69    4.21
  -7   2   2   58.76    9.47
  -8   2   2   44.24    7.29
  -9   2   2    3.33    2.83
 -11  -1  -3    2.00    4.27
  11   3   1   14.02    7.53
 -10  -1  -3   33.21    8.80
  10   3   1    3.79    4.53
  -9  -1  -3   68.85    8.77
   9   3   1    3.84    4.48
  -8  -1  -3  174.36   10.42
   8   3   1   40.32    7.85
  -7  -1  -3  230.59   10.27
   7   3   1    5.53    2.54
  -6  -1  -3  135.12    7.63
   6   3   1  227.57   10.40
  -5  -1  -3   96.16    5.72
   5   3   1  256.70   10.95
  -4  -1  -3   82.13    4.60
   4   3   1  312.69    8.92
  -3  -1  -3    1.15    1.11
   3   3   1  213.81    9.21
  -2  -1  -3   -0.06    1.14
   2   3   1  118.51    5.28
   1   3   1    8.02    2.24
   0   1   3  675.03    7.63
   0   3   1  746.62   13.32
  -1   1   3  430.76    8.32
  -1   3   1    1.67    1.41
  -2   1   3  296.47    6.23
  -2   3   1    5.68    1.70
  -3   1   3  188.94    7.50
  -3   3   1  134.07    7.90
  -4   1   3   20.76    3.17
  -4   3   1  306.75   12.07
  -5   1   3   20.10    3.24
  -5   3   1  152.92   10.73
  -6   1   3    1.85    1.55
  -6   3   1   83.93    8.18
  -7   1   3    4.43    2.42
  -7   3   1   27.15    7.25
  -8   1   3   30.03    7.38
  -8   3   1    6.62    2.90
  -9   1   3    4.51    2.36
  -9   3   1    3.77    4.01
 -11   0  -4   -1.16    4.49
  11   4   0    9.88    7.46
 -10   0  -4    8.75    3.61
  10   4   0   21.70    6.39
  -9   0  -4    8.98    3.80
   9   4   0   18.28    4.89
  -8   0  -4    1.99    3.22
   8   4   0    7.67    3.33
  -7   0  -4   20.81    4.64
   7   4   0    4.46    2.35
  -6   0  -4   74.17    5.76
   6   4   0    2.62    1.07
  -5   0  -4  433.89   15.47
   5   4   0   68.10    7.78
  -4   0  -4  223.90    7.21
   4   4   0   55.47    5.22
  -3   0  -4  151.85    5.40
  -2   0  -4   25.17    1.58
   2   4   0   17.97    3.17
  -1   0  -4   59.46    1.95
   1   4   0    2.07    2.28
   0   0  -4   44.83    2.09
   0   4   0  112.70    7.00
   1   0  -4   22.84    1.51
  -1   4   0   50.67    3.73
   2   0  -4   58.04    2.42
  -2   4   0   69.38    5.58
  -3   0   4  126.60    6.52
  -3   4   0    8.26    2.10
  -4   0   4   27.82    2.57
  -4   4   0    3.24    2.08
  -5   0   4    0.74    0.94
  -5   4   0   45.10    5.93
  -6   0   4    4.07    1.80
  -6   4   0   33.82    6.20
  -7   4   0   11.63    3.35
   8   0  -4    5.61    3.98
  -8   4   0   24.21    7.04
   9   0  -4   15.37    5.45
  -9   4   0    3.88    2.66
 -11   1  -5   -1.94    3.01
  11   5  -1   10.86   10.06
 -10   1  -5    9.22    4.29
  10   5  -1    6.10    5.50
  -9   1  -5    9.11    5.42
   9   5  -1   10.45    5.43
  -8   1  -5    1.58    2.17
   8   5  -1   37.41    7.15
  -7   1  -5    5.44    4.18
   7   5  -1   18.63    3.01
  -6   1  -5    1.12    1.66
   6   5  -1    5.28    2.23
  -5   1  -5    4.35    2.23
   5   5  -1    0.86    1.47
  -4   1  -5   14.70    2.33
   4   5  -1  128.84    6.86
  -3   1  -5    5.95    1.08
   3   5  -1  168.13    9.21
  -2   1  -5   19.56    2.23
   2   5  -1   87.40    6.42
  -1   1  -5   24.13    1.87
   1   5  -1   80.32    5.48
   0   1  -5   53.84    3.10
   0   5  -1   11.95    3.13
   1   1  -5   10.13    1.61
  -1   5  -1   26.55    4.85
   2   1  -5    2.50    1.12
  -2   5  -1   17.05    3.05
   3   1  -5    5.57    0.70
  -3   5  -1   16.76    3.50
   4   1  -5   34.84    2.57
  -4   5  -1   14.91    2.66
   5   1  -5   58.54    4.98
  -5   5  -1    0.67    2.26
   6   1  -5   30.59    4.97
  -6   5  -1   27.16    4.71
   7   1  -5    2.87    3.53
  -7   5  -1    1.02    3.27
   8   1  -5    6.30    5.69
  -8   5  -1    3.30    2.92
   9   1  -5   14.03    8.31
 -10   2  -6    9.78    6.58
  10   6  -2    1.94    2.97
  -9   2  -6    9.46    3.14
   9   6  -2    1.46    1.67
  -8   2  -6   11.68    4.56
   8   6  -2    4.03    1.41
  -7   2  -6   18.18    3.55
   7   6  -2   22.53    2.88
  -6   2  -6   53.71    6.15
   6   6  -2   88.24    5.79
  -5   2  -6   26.47    3.58
   5   6  -2   88.58    5.85
  -4   2  -6    0.30    1.12
   4   6  -2   62.51    6.09
  -3   2  -6    3.71    1.24
   3   6  -2   -1.35    1.60
  -2   2  -6   40.52    3.27
   2   6  -2    3.46    2.34
  -1   2  -6   30.11    2.51
   1   6  -2    7.77    2.20
   0   2  -6    2.96    1.14
   0   6  -2    0.69    2.28
   1   2  -6   23.91    2.22
  -1   6  -2   18.32    4.56
   2   2  -6   81.05    4.37
  -2   6  -2   65.81    6.94
   3   2  -6   66.67    3.70
  -3   6  -2   68.09    6.17
   4   2  -6   16.42    1.90
  -4   6  -2   83.57    6.39
  -5   6  -2   17.13    2.88
  -6   6  -2    6.33    2.77
  -7   6  -2    2.40    2.08
  -8   6  -2    3.03    2.64
  -9   3  -7   10.86    5.91
   9   7  -3    4.48    1.68
  -8   3  -7    3.85    2.63
   8   7  -3    7.82    1.72
  -7   3  -7   10.21    3.05
   7   7  -3    3.58    1.29
  -6   3  -7    9.77    2.32
   6   7  -3   -0.45    0.72
  -5   3  -7   66.54    5.12
   5   7  -3    5.94    2.37
   4   7  -3    0.59    2.04
   3   7  -3    4.84    4.23
   2   7  -3   22.03    4.31
   1   7  -3  115.44    9.01
   0   7  -3  175.75    9.87
  -1   7  -3  248.45   14.40
  -2   7  -3   81.72    7.13
  -3   7  -3   11.98    2.92
  -4   7  -3    2.69    1.90
  -5   7  -3    2.32    1.75
  -6   7  -3    1.97    1.98
  -7   7  -3    3.70    2.67
   8   8  -4    0.10    0.62
   7   8  -4    1.76    1.19
   6   8  -4    0.06    1.10
   5   8  -4    3.80    1.76
   4   8  -4    8.38    4.07
   3   8  -4   36.83    5.50
   2   8  -4   34.40    4.48
   1   8  -4   26.58    5.79
   0   8  -4   -0.09    2.34
  -1   8  -4    5.27    3.22
  -2   8  -4    2.86    2.51
  -3   8  -4   -1.26    1.45
  -4   8  -4    1.06    1.60
  -5   8  -4    8.35    2.24
  -6   8  -4   10.61    3.06
   6   9  -5    0.98    1.72
   5   9  -5    3.13    2.26
   4   9  -5    2.65    2.44
   3   9  -5    6.63    2.28
   2   9  -5    2.49    3.26
   1   9  -5    0.69    2.34
   0   9  -5    5.02    2.94
  -1   9  -5    3.82    1.92
  -2   9  -5    1.93    1.87
  -3   9  -5    4.05    2.18
  -4   9  -5    3.61    2.31
  11   3   2    7.88    5.86
 -10  -2  -3    1.59    5.35
  10   3   2    5.37    5.69
  -9  -2  -3   17.74    4.35
   9   3   2   27.42    6.65
  -8  -2  -3   28.25    4.11
   8   3   2   55.59    6.34
  -7  -2  -3  162.25    9.46
   7   3   2  110.86    9.75
  -6  -2  -3  115.93    6.63
   6   3   2   61.58    6.62
  -5  -2  -3  180.08    8.12
   5   3   2  111.44    6.56
  -4  -2  -3    3.39    2.40
   4   3   2   73.44    5.27
   3   2   3   94.44    4.51
   3   3   2   21.92    3.00
   2   2   3   66.38    3.46
   2   3   2  585.62   10.14
   1   2   3    9.50    1.16
   1   3   2  647.20   11.27
   0   2   3   68.62    3.26
   0   3   2 3074.15   36.86
  -1   2   3  296.62    7.40
  -1   3   2  391.05   12.05
  -2   2   3  543.69   13.49
  -2   3   2   43.80    3.82
  -3   2   3  676.36   14.27
  -3   3   2    9.68    2.40
  -4   2   3  150.57   10.92
  -4   3   2   18.84    3.53
  -5   2   3    6.10    1.94
  -5   3   2   25.88    4.25
  -6   2   3    2.28    3.25
  -6   3   2   10.65    4.68
  -7   2   3   27.73    5.26
  -7   3   2   19.16    4.14
  -8   2   3    7.09    2.75
  -8   3   2   80.26   13.24
  -9   2   3    4.95    3.50
  -9   3   2   19.19    5.55
 -11  -1  -4    2.86    3.05
  11   4   1   34.17    8.91
 -10  -1  -4   22.97    7.69
  10   4   1   91.87   12.95
  -9  -1  -4   12.82    3.77
   9   4   1   96.30   11.34
  -8  -1  -4   46.51    5.58
   8   4   1   23.05    4.86
  -7  -1  -4    2.98    2.09
   7   4   1   22.46    3.86
  -6  -1  -4   33.25    4.06
   6   4   1   21.49    2.47
  -5  -1  -4  300.63   11.19
   5   4   1   16.53    3.73
  -4  -1  -4  879.74   18.66
   4   4   1   12.35    2.87
  -3  -1  -4  609.18   10.66
   3   4   1  494.05   12.52
  -2  -1  -4  163.74    5.87
   2   4   1  458.50   11.09
   1   4   1  421.24   10.95
   0   1   4  234.17    3.83
   0   4   1   24.41    3.06
  -1   1   4   70.45    2.38
  -1   4   1   74.87    5.58
  -2   1   4   17.86    1.56
  -2   4   1    0.79    1.49
  -3   1   4    1.04    0.63
  -3   4   1    9.63    2.29
  -4   1   4   49.88    3.60
  -4   4   1   41.89    4.79
  -5   1   4   50.82    4.49
  -5   4   1  103.23    7.82
  -6   1   4   36.05    5.15
  -6   4   1   34.07    4.90
  -7   1   4   11.81    4.56
  -7   4   1   47.69    7.77
  -8   1   4    3.20    2.49
  -8   4   1    8.62    4.51
  -9   1   4   -1.46    4.04
  -9   4   1   10.39    4.29
 -11   0  -5   11.16    4.67
  11   5   0    0.99    5.62
 -10   0  -5    4.07    2.97
  10   5   0   10.85    5.22
  -9   0  -5    5.41    3.12
   9   5   0   20.27    5.29
  -8   0  -5    4.98    4.19
   8   5   0   74.95    9.04
  -7   0  -5   27.76    4.25
   7   5   0   50.54    7.84
  -6   0  -5  148.49    8.76
   6   5   0   32.64    4.59
  -5   0  -5  250.84   10.82
   5   5   0  167.06    7.93
  -4   0  -5   96.21    4.68
   4   5   0  291.33   10.42
  -3   0  -5   28.55    2.63
   3   5   0  386.31   12.70
  -2   0  -5    2.19    0.66
   2   5   0   68.44    5.87
  -1   0  -5   79.60    2.20
   1   5   0   14.18    2.67
   0   0  -5   49.58    2.35
   0   5   0   11.81    2.69
   1   0  -5    1.64    1.63
  -1   5   0   55.30    4.01
   2   0  -5   13.90    1.37
  -2   5   0    2.09    2.46
   3   0  -5   26.99    2.55
  -3   5   0    4.64    2.32
   4   0  -5    5.33    1.59
  -4   5   0   10.28    2.81
   5   0  -5    0.53    1.34
  -5   5   0   21.05    3.93
   6   0  -5    3.59    2.07
  -6   5   0    7.80    2.55
   7   0  -5   12.89    6.24
  -7   5   0    2.89    2.10
   8   0  -5    7.85    6.74
  -8   5   0    3.43    2.93
   9   0  -5   11.25    8.93
 -11   1  -6    9.95    4.27
  11   6  -1    0.58    5.99
 -10   1  -6    9.02    4.26
  10   6  -1   13.24    4.57
  -9   1  -6    6.45    4.72
   9   6  -1   -0.30    2.27
  -8   1  -6    3.30    2.28
   8   6  -1    4.53    1.81
  -7   1  -6    2.74    3.80
   7   6  -1   34.97    3.64
  -6   1  -6    9.42    2.35
   6   6  -1   51.76    5.08
  -5   1  -6   19.66    3.51
   5   6  -1   -0.38    1.80
  -4   1  -6   76.02    4.87
   4   6  -1   14.40    2.87
  -3   1  -6   52.54    2.98
   3   6  -1   50.42    5.15
  -2   1  -6   62.19    3.64
   2   6  -1  293.56   11.60
  -1   1  -6    3.77    1.02
   1   6  -1   87.92    5.80
   0   1  -6    9.39    1.68
   0   6  -1   43.57    4.40
   1   1  -6    9.92    1.09
  -1   6  -1   31.14    5.87
   2   1  -6   11.12    1.44
  -2   6  -1   43.42    4.39
   3   1  -6    8.30    0.95
  -3   6  -1  108.76    8.83
   4   1  -6   21.69    1.67
  -4   6  -1   12.90    2.94
   5   1  -6   15.09    2.12
  -5   6  -1    0.88    2.07
  -6   6  -1    4.34    2.90
  -7   6  -1    6.02    3.37
  -8   6  -1    7.01    3.91
 -10   2  -7   11.02    6.43
  10   7  -2   -2.05    1.73
  -9   2  -7    6.16    2.89
   9   7  -2    2.85    1.87
  -8   2  -7   39.73    7.30
   8   7  -2    1.28    1.15
  -7   2  -7    7.20    2.55
   7   7  -2    0.38    1.32
  -6   2  -7   28.38    4.75
   6   7  -2   15.28    2.68
  -5   2  -7   35.08    3.87
   5   7  -2   30.83    4.54
   4   7  -2   45.08    4.84
   3   7  -2   57.80    6.90
   2   7  -2    1.52    2.82
   1   7  -2   36.03    4.91
   0   7  -2   26.31    4.32
  -1   7  -2   35.76    6.79
  -2   7  -2   29.47    5.00
  -3   7  -2   60.97    6.30
  -4   7  -2   27.47    4.19
  -6   7  -2   13.09    3.25
  -7   7  -2    2.45    2.98
   9   8  -3    0.77    1.08
   8   8  -3    0.00    0.77
   7   8  -3    1.54    1.07
   6   8  -3   13.99    3.10
   5   8  -3    5.63    2.34
   4   8  -3   12.92    3.78
   3   8  -3   -0.36    3.26
   2   8  -3    1.70    2.31
   1   8  -3   24.70    5.61
   0   8  -3   39.62    5.69
  -1   8  -3   69.90    7.34
  -2   8  -3   41.49    6.04
  -3   8  -3   22.98    3.72
  -4   8  -3    5.50    2.28
  -5   8  -3    3.16    1.87
  -6   8  -3    1.85    2.43
   8   9  -4    5.67    1.61
   7   9  -4    5.80    1.60
   6   9  -4    2.10    1.78
   5   9  -4    1.84    2.66
   4   9  -4    1.48    3.02
   3   9  -4    1.31    2.45
   2   9  -4    3.60    3.30
   1   9  -4   16.06    4.21
   0   9  -4   11.46    3.54
  -1   9  -4   18.36    3.45
  -2   9  -4   10.33    2.89
  -3   9  -4    5.59    2.37
  -4   9  -4    3.00    1.94
  -5   9  -4    2.01    1.73
   5  10  -5    0.00    2.17
   4  10  -5    1.80    2.11
   3  10  -5   14.34    3.74
   2  10  -5   25.88    5.95
   1  10  -5   19.49    4.66
   0  10  -5   18.40    6.34
  -1  10  -5    3.96    2.30
  -2  10  -5    2.77    2.71
  -3  10  -5   -0.30    2.53
  12   3   3   10.03    5.71
  11   3   3   34.45    9.93
  10   3   3    3.22    3.11
   9   3   3    1.58    2.32
   8   3   3    0.91    1.95
   7   3   3    5.87    2.10
   6   3   3    7.27    2.82
   5   3   3   48.41    4.49
   4   3   3   86.97    5.84
   3   3   3  795.14   17.54
   2   3   3   90.87    4.79
   1   3   3    2.00    1.53
   0   3   3    4.27    2.00
  -1   3   3   11.96    1.86
  -2   3   3   49.18    4.05
  -3   3   3   27.21    3.44
  -4   3   3   97.75    6.81
  -5   3   3  105.34    9.92
  -6   3   3    5.60    2.82
  -7   3   3   16.22    5.75
  -8   3   3   11.90    4.38
  -9   3   3    4.34    2.58
  12   2   4    4.64    4.63
  12   4   2    4.23    5.19
  11   4   2   18.30    7.18
 -10  -2  -4   -0.61    2.36
  10   4   2   15.15    5.92
  -9  -2  -4   -0.83    2.64
   9   4   2    4.79    4.08
  -8  -2  -4    4.83    2.84
   8   4   2   29.23    5.94
  -7  -2  -4    3.24    3.00
   7   4   2  181.45   10.81
  -6  -2  -4   52.75    5.69
   6   4   2  460.41   15.19
  -5  -2  -4    8.27    1.95
   5   4   2  568.16   18.07
   4   4   2  429.53   14.83
   3   2   4  135.00    5.70
   3   4   2   53.48    4.70
   2   2   4  187.11    4.82
   2   4   2   25.24    2.87
   1   2   4   23.23    1.84
   1   4   2    2.61    1.21
   0   2   4    1.24    0.52
   0   4   2    2.40    1.54
  -1   2   4  144.44    4.71
  -1   4   2    4.84    2.15
  -2   2   4  239.02    8.26
  -2   4   2  365.38   11.91
  -3   2   4   76.99    5.94
  -3   4   2  191.39   10.05
  -4   2   4    0.18    0.96
  -4   4   2   98.24    8.47
  -5   2   4   19.26    4.19
  -5   4   2   14.92    4.49
  -6   2   4   55.62    6.44
  -6   4   2    4.38    2.44
  -7   2   4   36.36    5.53
  -7   4   2    9.89    5.11
  -8   2   4   16.19    4.70
  -8   4   2    6.87    3.02
  -9   2   4   12.47    5.44
  -9   4   2    6.37    5.44
 -12  -1  -5    6.70    5.40
 -11  -1  -5   -1.90    3.06
  11   5   1    4.96    3.24
 -10  -1  -5    1.62    4.43
  10   5   1   22.25    4.03
  -9  -1  -5    2.83    2.89
   9   5   1   72.27    6.24
  -8  -1  -5    2.01    2.18
   8   5   1   40.06    5.99
  -7  -1  -5   28.10    4.24
   7   5   1  183.69   14.09
  -6  -1  -5  224.23    9.92
   6   5   1    9.55    2.61
  -5  -1  -5  323.08   11.48
   5   5   1   34.23    3.80
  -4  -1  -5  644.03   13.78
   4   5   1  104.10    6.85
  -3  -1  -5  216.39    6.05
   3   5   1   16.95    3.28
   2   5   1   70.25    5.61
   1   5   1  263.28    8.46
   0  -1  -5   72.02    2.06
   0   5   1  835.08   18.87
  -1   1   5   46.43    2.51
  -1   5   1 1205.70   21.96
  -2   1   5   13.50    1.84
  -2   5   1  157.71    8.36
  -3   1   5   52.12    4.20
  -3   5   1   64.25    5.71
  -4   1   5  106.34    7.14
  -4   5   1    1.42    2.04
  -5   1   5   90.13    7.12
  -5   5   1    3.70    2.69
  -6   1   5   20.23    3.41
  -6   5   1    6.60    3.44
  -7   1   5    3.79    2.06
  -7   5   1    3.79    2.70
  -8   5   1   16.24    6.29
 -11   0  -6   21.61    5.82
  11   6   0   11.86    4.69
 -10   0  -6   19.44    4.42
  10   6   0    5.30    2.73
  -9   0  -6    7.81    3.46
   9   6   0   -0.22    2.18
  -8   0  -6   -0.44    3.26
   8   6   0    0.65    2.05
  -7   0  -6    2.33    2.15
   7   6   0    5.21    2.04
  -6   0  -6    7.64    2.74
   6   6   0    0.55    1.86
  -5   0  -6   -2.42    1.74
   5   6   0   33.45    4.43
  -4   0  -6   60.13    3.58
   4   6   0  135.37    6.76
  -3   0  -6  456.94    9.78
   3   6   0  327.60   12.58
  -2   0  -6  509.72    7.15
   2   6   0  545.69   15.05
  -1   0  -6  348.34    4.83
   1   6   0  232.48    9.95
   0   0  -6  235.44    4.80
   0   6   0   14.61    3.23
   1   0  -6    7.23    1.08
  -1   6   0    5.68    1.94
   2   0  -6    0.12    0.49
  -2   6   0   80.25    7.30
   3   0  -6    1.02    0.65
  -3   6   0    5.55    2.71
   4   0  -6    2.51    1.25
  -4   6   0    7.27    2.09
   5   0  -6    6.33    2.07
  -5   6   0    5.49    2.49
  -6   6   0   39.34    5.66
  -7   6   0   26.12    5.74
  -8   6   0   16.09    3.96
 -11   1  -7    0.12    3.51
 -10   1  -7   14.50    4.71
  10   7  -1    1.34    1.86
  -9   1  -7   58.76   10.05
   9   7  -1    1.47    1.47
  -8   1  -7   95.20    7.36
   8   7  -1    0.44    1.41
  -7   1  -7   73.98    9.34
   7   7  -1   -0.54    1.22
  -6   1  -7   71.38    5.49
   6   7  -1    1.41    1.68
  -5   1  -7   16.72    2.61
   5   7  -1   22.91    3.40
   4   7  -1    8.15    2.66
   3   7  -1   17.98    4.26
   2   7  -1   21.37    4.38
   1   7  -1   10.41    3.68
   0   7  -1   10.74    3.48
  -1   7  -1    3.20    2.73
  -2   7  -1   32.90    4.36
  -3   7  -1    7.93    3.36
  -4   7  -1   29.35    3.99
  -5   7  -1    8.78    2.36
  -6   7  -1    0.17    2.29
  -7   7  -1    4.24    2.72
  10   8  -2    3.71    1.76
   9   8  -2    1.01    1.23
   8   8  -2    0.85    1.13
   7   8  -2    0.93    0.88
   6   8  -2    7.38    2.54
   5   8  -2    9.52    2.76
   4   8  -2   -1.50    2.64
   3   8  -2    1.55    3.70
   2   8  -2    8.04    3.17
   1   8  -2   15.78    4.46
   0   8  -2    2.14    3.10
  -1   8  -2    8.35    2.76
  -2   8  -2   -3.26    1.89
  -3   8  -2    0.10    1.91
  -4   8  -2    6.16    2.39
  -5   8  -2    4.22    2.28
  -6   8  -2    5.62    2.83
   8   9  -3    1.10    1.41
   7   9  -3    1.13    1.28
   6   9  -3    2.44    1.71
   5   9  -3   20.96    4.19
   4   9  -3   47.00    6.38
   3   9  -3   31.59    5.12
   2   9  -3   16.46    4.38
   1   9  -3   10.85    4.26
   0   9  -3    3.04    2.89
  -1   9  -3   -2.31    1.51
  -2   9  -3   -0.07    1.81
  -3   9  -3    5.51    2.46
  -4   9  -3    3.10    2.16
  -5   9  -3    5.13    2.38
   7  10  -4    3.04    2.03
   6  10  -4    9.24    3.86
   5  10  -4    4.48    3.13
   4  10  -4    3.79    2.31
   3  10  -4    2.86    2.80
   2  10  -4    8.06    4.09
   1  10  -4    0.92    3.18
   0  10  -4   10.64    4.94
  -1  10  -4   17.32    3.75
  -2  10  -4   24.42    4.57
  -3  10  -4   15.21    4.59
  -4  10  -4    6.17    2.76
   3  11  -5    8.50    4.49
   2  11  -5   12.55    4.25
   1  11  -5   20.19    4.86
   0  11  -5   10.64    3.21
  12   3   4   28.38    9.79
  12   4   3   41.48   10.31
  11   3   4   18.64    6.86
  11   4   3   22.06    7.26
  10   3   4    9.25    3.32
  10   4   3   17.67    5.33
   9   3   4   21.99    4.31
   9   4   3   16.10    4.95
   8   3   4   20.49    4.15
   8   4   3   95.46    9.88
   7   3   4    2.29    1.66
   7   4   3  121.11    9.30
   6   3   4   32.37    4.56
   6   4   3  124.62    8.28
   5   3   4  123.92    7.16
   5   4   3   49.56    5.59
   4   3   4  256.12    9.54
   4   4   3   67.60    5.85
   3   3   4  465.56   10.75
   3   4   3  203.82    8.30
   2   3   4   55.96    3.21
   2   4   3  318.84    9.91
   1   3   4   25.96    2.30
   1   4   3   98.65    5.59
   0   3   4   30.32    2.99
   0   4   3  119.92    5.96
  -1   3   4    5.18    1.47
  -1   4   3    7.67    2.63
  -2   3   4    5.51    1.41
  -2   4   3   71.15    5.45
  -3   3   4   16.24    2.59
  -3   4   3   15.08    3.20
  -4   3   4   36.06    5.39
  -4   4   3    5.72    2.55
  -5   3   4    9.91    3.59
  -5   4   3    1.99    2.14
  -6   3   4    5.68    3.87
  -6   4   3   15.86    5.18
  -7   3   4    8.60    3.57
  -7   4   3    1.27    2.68
  -8   3   4    4.14    2.55
  -8   4   3   20.90    7.57
  12   2   5   11.22    4.36
  12   5   2    2.88    3.03
 -11  -2  -5   15.51    7.31
  11   5   2   11.67    4.30
 -10  -2  -5   44.47    7.51
  10   5   2   11.10    3.68
  -9  -2  -5   27.93    4.56
   9   5   2    0.70    1.51
  -8  -2  -5   36.36    7.16
   8   5   2    8.28    2.13
  -7  -2  -5   45.36    7.34
   7   5   2   52.72    6.57
  -6  -2  -5   35.33    5.06
   6   5   2  116.87    7.45
  -5  -2  -5  219.77   10.05
   5   5   2  362.50   12.42
   4   5   2  169.53    8.09
   3   2   5   92.86    4.39
   3   5   2   86.17    6.41
   2   2   5  213.05    3.87
   2   5   2   20.07    3.63
   1   2   5   35.14    0.94
   1   5   2  105.06    6.61
   0   2   5    0.69    0.52
   0   5   2  120.93    7.11
  -1   2   5    0.36    0.38
  -1   5   2    1.35    1.91
  -2   2   5    2.25    0.75
  -2   5   2   31.56    4.55
  -3   2   5   63.42    5.65
  -3   5   2   97.15    6.62
  -4   2   5   20.07    3.01
  -4   5   2  111.05    8.36
  -5   2   5   65.07    5.46
  -5   5   2   85.22    7.43
  -6   2   5   42.74    5.35
  -6   5   2   46.77    7.00
  -7   2   5   25.59    5.98
  -7   5   2    2.10    2.75
  -8   2   5    3.67    2.45
  -8   5   2   10.85    5.33
 -11  -1  -6    6.71    4.03
  11   6   1    9.23    9.03
 -10  -1  -6   18.35    6.23
  10   6   1   15.36    7.73
  -9  -1  -6   28.78    5.05
   9   6   1    1.22    2.17
  -8  -1  -6   18.51    3.63
   8   6   1   18.00    3.82
  -7  -1  -6   24.86    4.05
   7   6   1   51.35    5.94
  -6  -1  -6    1.94    1.71
   6   6   1   23.31    3.65
  -5  -1  -6   12.10    2.40
   5   6   1   36.38    4.59
  -4  -1  -6  112.59    5.37
  -3  -1  -6  316.23    7.02
   3   6   1    0.58    1.66
   2   6   1    7.75    2.78
   1   6   1  169.50    9.40
   0  -1  -6  257.49    4.51
   0   6   1  301.86   11.99
   1  -1  -6  120.41    3.36
  -1   6   1  423.65   13.80
   2  -1  -6    0.10    0.52
  -2   6   1  214.79   12.41
  -4   1   6   22.08    2.93
  -4   6   1   16.78    3.25
  -5   6   1    4.67    2.34
   6  -1  -6    3.76    2.66
  -6   6   1    9.00    2.73
  -7   6   1    1.93    2.41
  -8   6   1    3.13    3.36
 -11   0  -7    2.47    3.51
  11   7   0    1.93    3.03
 -10   0  -7    5.69    3.38
  10   7   0    1.82    2.03
  -9   0  -7   22.30    4.78
   9   7   0   19.02    3.30
  -8   0  -7   91.50    8.73
   8   7   0   26.36    3.77
  -7   0  -7   82.89    7.43
   7   7   0   12.39    2.83
  -6   0  -7  156.37    7.36
   6   7   0   35.11    4.49
  -5   0  -7   60.11    6.33
   5   7   0    1.73    1.58
   4   7   0    5.39    2.48
   3   7   0   51.34    6.88
   2   7   0   73.59    6.83
   1   7   0  171.59   11.33
   0   7   0   39.07    5.38
  -1   7   0   11.46    2.75
  -2   7   0   40.70    5.62
  -3   7   0    4.98    2.87
  -4   7   0    0.25    1.43
  -5   7   0    4.84    2.54
  -6   7   0   26.34    4.91
  -7   7   0   10.30    3.73
  10   8  -1    2.32    2.04
   9   8  -1    1.66    1.41
   8   8  -1    0.19    1.20
   7   8  -1   10.70    2.53
   6   8  -1    7.95    3.04
   5   8  -1    2.18    2.13
   4   8  -1   14.39    4.47
   3   8  -1   84.96    9.32
   2   8  -1   43.83    5.53
   1   8  -1  100.46    9.37
   0   8  -1   53.67    6.41
  -1   8  -1   -0.10    1.80
  -2   8  -1    2.36    2.11
  -3   8  -1    4.49    3.03
  -4   8  -1    6.25    2.30
  -5   8  -1    1.72    1.52
  -6   8  -1    1.10    2.66
   9   9  -2    1.45    0.99
   8   9  -2    1.00    1.34
   7   9  -2    1.63    2.07
   6   9  -2    6.87    2.33
   5   9  -2   43.76    6.19
   4   9  -2   38.30    5.72
   3   9  -2    5.45    3.39
   2   9  -2    1.13    2.78
   1   9  -2   36.59    6.42
   0   9  -2   19.24    4.51
  -1   9  -2    4.18    2.31
  -2   9  -2    0.64    1.92
  -3   9  -2    3.99    2.64
  -4   9  -2    1.28    1.95
  -5   9  -2    1.67    2.17
   8  10  -3    0.11    1.17
   7  10  -3    0.79    1.35
   6  10  -3   -0.74    1.95
   5  10  -3    7.67    2.73
   4  10  -3   14.92    3.97
   3  10  -3   25.64    4.73
   2  10  -3   17.43    4.82
   1  10  -3    5.45    3.43
   0  10  -3    7.14    5.44
  -1  10  -3    7.48    2.91
  -2  10  -3   -0.42    2.37
  -3  10  -3    1.72    2.83
  -4  10  -3    0.20    2.19
   5  11  -4    2.43    2.60
   4  11  -4    2.80    2.35
   3  11  -4    6.71    4.32
   2  11  -4    4.71    3.11
   1  11  -4    6.34    4.00
   0  11  -4    9.78    4.63
  -1  11  -4    3.53    3.00
  -2  11  -4    5.94    4.30
  12   4   4   43.00   10.61
  11   4   4   29.11    7.36
  10   4   4    5.53    3.51
   9   4   4    1.21    2.65
   8   4   4   67.56    8.15
   7   4   4   15.58    4.17
   6   4   4    5.66    2.27
   5   4   4  310.97   14.94
   4   4   4 1019.75   19.13
   3   4   4  745.72   14.69
   2   4   4  920.62   17.52
   1   4   4  301.01    9.65
   0   4   4    4.58    2.23
  -1   4   4   62.49    4.73
  -2   4   4   46.50    4.77
  -3   4   4   15.84    2.78
  -4   4   4   18.44    3.42
  -5   4   4   13.33    4.14
  -6   4   4   58.36    8.24
  -7   4   4   35.83    8.89
  -8   4   4    3.89    3.65
  12   3   5   10.93    7.04
  12   5   3    4.66    4.32
  11   3   5   38.04    7.30
  11   5   3    2.64    3.63
  10   3   5  100.30   10.55
  10   5   3    9.39    3.77
   9   3   5  145.84   11.55
   9   5   3    4.96    2.73
   8   3   5  124.20    9.29
   8   5   3    3.01    1.35
   7   3   5   53.85    5.07
   7   5   3  127.88   10.38
   6   3   5    4.03    2.24
   6   5   3  149.29    9.38
   5   3   5   26.13    3.84
   5   5   3  149.31    8.10
   4   3   5   54.95    4.55
   4   5   3   30.23    4.05
   3   3   5  181.53    6.18
   3   5   3   44.84    3.82
   2   3   5  221.44    4.87
   2   5   3  187.52    9.16
   1   3   5  512.46   10.74
   1   5   3  252.34   11.00
   0   3   5  505.15   10.36
   0   5   3   59.53    4.66
  -1   3   5  205.26    6.71
  -1   5   3    7.32    2.66
  -2   3   5   57.92    4.20
  -2   5   3   84.99    6.41
  -3   3   5   24.01    4.07
  -3   5   3  136.44    9.27
  -4   3   5    1.10    1.13
  -4   5   3  122.97   10.20
  -5   3   5    3.46    3.25
  -5   5   3   39.38    6.95
  -6   3   5   17.30    4.15
  -6   5   3    5.20    2.75
  -7   3   5    7.53    2.94
  -7   5   3   13.72    6.28
  -8   3   5   13.31    3.95
  -8   5   3    6.64    3.18
 -11  -2  -6    2.30    6.24
  11   6   2   16.19    7.13
 -10  -2  -6   11.12    4.73
  10   6   2   22.71    6.98
  -9  -2  -6    6.27    3.56
   9   6   2   21.70    6.71
  -8  -2  -6   31.79    4.87
   8   6   2    9.08    2.86
  -7  -2  -6  242.77   14.48
   7   6   2    4.05    2.64
  -6  -2  -6  245.87   11.83
   6   6   2    9.93    2.67
  -5  -2  -6  281.53   10.82
   5   6   2   13.01    3.07
   4   2   6   78.70    5.08
   4   6   2   46.61    4.39
   3   2   6   55.27    2.78
   3   6   2   17.11    2.93
   2   6   2   -0.07    1.86
   1   6   2   28.93    4.17
   0   2   6  111.85    3.27
   0   6   2  129.36    8.28
  -1   2   6   46.82    2.02
  -1   6   2    4.25    3.06
  -2   2   6   34.20    2.18
  -2   6   2    7.62    3.21
  -3   2   6    8.43    1.34
  -3   6   2    3.24    2.03
  -4   2   6    0.86    1.03
  -4   6   2   34.01    5.65
  -5   2   6    2.43    2.12
  -5   6   2   57.70    7.53
  -6   2   6    9.83    3.63
  -6   6   2   39.31    6.85
  -7   6   2    9.64    3.28
 -11  -1  -7    1.82    3.37
  11   7   1   -1.67    4.08
 -10  -1  -7    4.06    4.60
  10   7   1    9.19    3.39
  -9  -1  -7    1.51    2.68
   9   7   1    8.98    2.72
  -8  -1  -7    3.53    2.45
   8   7   1    1.29    1.74
  -7  -1  -7   10.61    2.50
   7   7   1    7.18    2.68
  -6  -1  -7   43.16    4.34
   6   7   1   11.33    3.29
  -5  -1  -7   20.25    2.78
   5   7   1   45.71    4.20
   4   7   1   94.73    6.91
   3   7   1  190.18   12.77
   2   7   1   35.21    4.40
   1   7   1   18.03    3.92
   0   7   1    5.85    2.56
  -1   7   1    1.54    2.01
  -2   7   1   25.98    4.96
  -4   7   1   17.98    3.53
  -5   7   1    4.11    2.29
  -6   7   1    3.80    2.42
  -7   7   1    5.61    3.29
  10   8   0    1.92    2.11
   9   8   0    7.25    2.33
   8   8   0   24.96    3.53
   7   8   0   49.68    5.22
   6   8   0   52.49    5.22
   5   8   0   32.77    4.55
   4   8   0   -2.42    2.10
   3   8   0   15.04    5.11
   2   8   0   13.60    3.45
   1   8   0   12.17    4.95
   0   8   0   77.69    7.29
  -1   8   0   91.34    7.33
  -2   8   0   82.50    8.15
  -3   8   0   71.18    8.16
  -4   8   0   18.45    3.72
  -5   8   0    6.63    2.41
  -6   8   0    5.23    2.79
  10   9  -1    0.67    1.42
   9   9  -1    2.19    1.77
   8   9  -1    1.62    1.02
   7   9  -1    0.56    1.77
   6   9  -1    6.68    2.34
   5   9  -1    6.14    3.29
   4   9  -1   -4.20    2.94
   3   9  -1   27.52    5.07
   2   9  -1  124.82    9.77
   1   9  -1  224.34   14.68
   0   9  -1   69.29    7.65
  -1   9  -1   38.85    5.22
  -2   9  -1    5.96    3.10
  -3   9  -1    1.66    2.80
  -4   9  -1    2.04    1.86
  -5   9  -1    0.21    1.76
   8  10  -2    0.74    1.40
   7  10  -2    1.36    1.64
   6  10  -2    1.16    2.34
   5  10  -2    9.32    3.60
   4  10  -2   20.52    4.91
   3  10  -2   20.54    4.53
   2  10  -2    3.57    3.83
   1  10  -2    4.69    3.62
   0  10  -2    4.11    3.69
  -1  10  -2    2.47    2.54
  -2  10  -2    2.97    2.86
  -3  10  -2    0.39    2.75
  -4  10  -2    3.81    2.30
   7  11  -3    2.46    2.72
   6  11  -3    0.65    2.14
   5  11  -3    1.57    2.95
   4  11  -3   -1.58    2.02
   3  11  -3    0.77    3.59
   2  11  -3    8.58    4.25
   1  11  -3    2.66    3.30
   0  11  -3    1.93    2.98
  -1  11  -3    2.47    2.98
  -2  11  -3    1.26    3.74
  12   4   5   14.61    6.43
  12   5   4   11.28    5.41
  11   4   5   12.16    4.81
  11   5   4   10.25    4.82
  10   4   5   40.12    7.39
  10   5   4   23.45    5.85
   9   4   5   64.06    8.59
   9   5   4   36.53    6.17
   8   4   5  164.76   12.59
   8   5   4   30.68    4.37
   7   4   5  213.59   12.55
   7   5   4   33.70    5.82
   6   4   5   13.00    2.96
   6   5   4   16.22    2.77
   5   4   5   46.23    6.99
   5   5   4    3.90    1.77
   4   4   5   38.26    4.09
   4   5   4  272.27   10.84
   3   4   5   44.18    2.99
   3   5   4  234.49    8.33
   2   4   5   35.19    2.77
   2   5   4  421.73   11.03
   1   4   5   89.81    4.80
   1   5   4  183.21    8.41
   0   4   5  681.66   14.80
   0   5   4  382.37   15.13
  -1   4   5  424.24   13.18
  -1   5   4    6.54    2.19
  -2   4   5  308.04   10.93
  -2   5   4    2.53    1.67
  -3   4   5   75.12    6.63
  -3   5   4   32.90    4.77
  -4   4   5    3.93    2.54
  -4   5   4    2.29    2.18
  -5   4   5   10.87    4.56
  -5   5   4    0.48    2.31
  -6   4   5   10.89    4.34
  -6   5   4   45.37    8.22
  -7   4   5   11.26    4.37
  -7   5   4   25.00    5.45
  -8   4   5    5.89    3.26
  -8   5   4   28.45    8.57
  12   3   6   29.05    8.59
  12   6   3   21.62    7.09
  11   3   6   12.94    4.51
  11   6   3   70.31   11.37
  10   3   6   15.92    4.07
  10   6   3   30.71    7.43
   9   3   6    1.12    2.20
   9   6   3   11.11    6.09
   8   3   6    2.95    1.91
   8   6   3    9.13    2.67
   7   3   6   85.67    6.05
   7   6   3   22.37    4.67
   6   3   6  326.49   13.65
   6   6   3    2.63    1.98
   5   3   6  853.82   19.06
   5   6   3   27.07    4.28
   4   3   6  214.99    7.01
   4   6   3   71.36    6.49
   3   3   6   74.01    3.36
   3   6   3  108.45    7.53
   2   3   6    6.63    0.79
   2   6   3  137.59    7.36
   1   3   6   39.99    1.84
   1   6   3   76.16    5.89
   0   3   6   24.34    1.61
   0   6   3   -0.06    1.30
  -1   3   6    8.77    1.55
  -1   6   3   28.46    5.01
  -2   3   6   18.09    2.47
  -2   6   3   23.74    4.15
  -3   3   6   44.72    3.80
  -3   6   3   11.50    3.07
  -4   3   6   76.07    6.89
  -4   6   3   37.26    5.44
  -5   3   6   16.83    3.54
  -5   6   3   12.76    3.20
  -6   3   6    6.35    2.81
  -6   6   3    8.61    3.15
  -7   6   3    6.59    4.36
  12   2   7   19.35    5.05
 -11  -2  -7   19.27    8.07
  11   7   2   16.94    5.07
 -10  -2  -7    4.15    3.89
  10   7   2   41.51    6.79
  -9  -2  -7    0.10    3.81
   9   7   2   24.21    4.67
  -8  -2  -7   28.37    4.34
   8   7   2    1.15    1.53
  -7  -2  -7   58.74    5.30
   7   7   2   10.79    3.13
  -6  -2  -7   66.69    6.85
   6   7   2  106.01    8.18
   5   7   2   69.58    5.53
   4   7   2  173.07    9.68
   3   7   2   10.19    4.13
   2   7   2    6.45    2.32
   1   7   2   31.92    5.55
   0   7   2    7.70    3.28
  -1   7   2   51.05    6.65
  -2   7   2    3.42    2.34
  -3   7   2    0.77    1.54
  -4   7   2    4.49    1.69
  -5   7   2    4.00    2.72
  -6   7   2    3.80    2.26
  -7   7   2    3.43    2.50
  11   8   1    4.50    2.80
  10   8   1    1.45    2.18
   9   8   1    9.85    2.93
   8   8   1    4.78    1.95
   7   8   1   15.95    3.32
   6   8   1    1.21    1.65
   5   8   1   52.91    5.62
   4   8   1  183.54   12.20
   3   8   1  178.91   13.22
   2   8   1   74.25    6.28
   1   8   1   17.47    4.82
   0   8   1    1.10    2.20
  -1   8   1   11.04    2.89
  -2   8   1   21.00    4.81
  -3   8   1    3.93    2.18
  -4   8   1    2.79    1.45
  -5   8   1    5.01    2.44
  -6   8   1   10.35    3.30
  10   9   0   -1.31    1.89
   9   9   0    0.81    1.39
   8   9   0    4.22    1.60
   7   9   0   23.76    4.46
   6   9   0   39.45    4.96
   5   9   0   15.04    4.10
   4   9   0   23.60    5.57
   3   9   0    8.83    3.86
   2   9   0    8.54    4.10
   1   9   0    3.89    3.15
   0   9   0   -0.52    3.04
  -1   9   0   14.68    3.85
  -2   9   0   56.25    7.62
  -3   9   0   57.91    7.77
  -4   9   0   22.81    4.15
  -5   9   0    6.81    2.60
   9  10  -1    0.36    1.65
   8  10  -1    0.60    1.97
   7  10  -1    4.94    2.10
   6  10  -1    6.04    3.10
   5  10  -1    9.97    5.34
   4  10  -1   14.09    4.90
   3  10  -1   14.83    3.99
   2  10  -1   12.26    4.92
   1  10  -1   42.51    6.79
   0  10  -1   51.23    8.82
  -1  10  -1   24.60    4.43
  -2  10  -1   10.46    3.94
  -3  10  -1    1.28    2.86
  -4  10  -1    2.40    2.16
   8  11  -2    0.84    1.51
   7  11  -2    0.76    2.41
   6  11  -2    2.74    2.72
   5  11  -2    2.05    2.91
   4  11  -2    0.43    2.42
   3  11  -2    7.32    4.32
   2  11  -2   12.26    5.45
   1  11  -2   11.65    4.28
   0  11  -2   14.78    5.91
  -1  11  -2    5.36    3.25
  -2  11  -2    1.23    3.70
  -3  11  -2    3.24    3.76
   5  12  -3    3.08    2.87
   4  12  -3   12.80    4.74
   3  12  -3   16.97    6.46
   2  12  -3   11.66    5.14
   1  12  -3    4.27    4.37
   0  12  -3   -0.23    2.64
  12   5   5   19.36    6.85
  11   5   5    5.03    4.02
  10   5   5    7.71    4.09
   9   5   5    5.28    3.37
   8   5   5    2.35    1.34
   7   5   5    7.89    3.33
   6   5   5  158.91    9.75
   5   5   5   88.21    6.95
   4   5   5   60.70    4.20
   3   5   5   43.28    4.61
   2   5   5   25.00    3.43
   1   5   5   26.85    3.58
   0   5   5  127.97    7.25
  -1   5   5   93.57    5.68
  -2   5   5  149.08    8.72
  -3   5   5   45.75    5.04
  -4   5   5   13.40    3.16
  -5   5   5    3.81    3.74
  -6   5   5   10.39    4.31
  -7   5   5   31.10    8.02
  12   4   6   13.12    5.96
  12   6   4   12.15    5.52
  11   4   6    9.75    4.06
  11   6   4   12.83    4.99
  10   4   6    9.09    4.00
  10   6   4    7.64    4.27
   9   4   6    3.67    2.66
   9   6   4  109.85   13.60
   8   4   6    7.13    3.31
   8   6   4  162.33   11.54
   7   4   6    8.33    2.71
   7   6   4  307.56   15.81
   6   4   6   10.83    1.94
   6   6   4  192.82   10.54
   5   4   6   85.26    7.18
   5   6   4   79.03    6.62
   4   4   6  138.95    5.87
   4   6   4   57.51    5.91
   3   4   6   42.03    3.66
   3   6   4   59.15    6.68
   2   4   6    9.91    1.56
   2   6   4   13.08    2.53
   1   4   6  116.87    6.08
   1   6   4   96.43    6.76
   0   4   6   91.41    4.69
   0   6   4  138.21    7.92
  -1   4   6   45.16    3.46
  -1   6   4   96.35    8.32
  -2   4   6    2.86    1.22
  -2   6   4   46.00    5.28
  -3   4   6   22.51    4.28
  -3   6   4   28.47    4.96
  -4   4   6   32.59    4.64
  -4   6   4    8.29    3.38
  -5   4   6   84.43   10.90
  -5   6   4    3.48    3.13
  -6   4   6   34.03    6.02
  -6   6   4   14.17    3.73
  -7   6   4   17.57    6.99
  12   3   7   12.28    7.57
  12   7   3    9.65    4.00
  11   3   7   10.47    3.62
  11   7   3   29.12    6.32
  10   3   7    5.38    2.77
  10   7   3   67.44    9.15
   9   3   7    7.67    2.80
   9   7   3   36.68    6.07
   8   3   7   33.76    4.30
   8   7   3    4.46    2.09
   7   3   7   97.77    9.36
   7   7   3    2.87    2.34
   6   3   7  250.11   11.58
   6   7   3   78.38    7.54
   5   3   7   34.16    2.74
   5   7   3   54.56    5.20
   4   3   7   20.51    2.25
   4   7   3    3.78    2.28
   3   7   3  221.03   10.07
   2   7   3  368.04   13.54
   1   7   3  317.47   13.13
   0   7   3  121.19    7.44
  -1   7   3  106.71    8.42
  -2   7   3    0.17    2.10
  -3   7   3    2.90    1.60
  -4   7   3    2.39    2.18
  -5   7   3    2.06    2.26
  -6   7   3    4.13    3.12
  -7   7   3    2.73    2.33
  11   8   2    2.36    1.73
  10   8   2    0.89    1.57
   9   8   2    7.24    2.75
   8   8   2    1.65    1.77
   7   8   2    5.63    2.33
   6   8   2   34.50    4.03
   5   8   2  176.88   10.14
   4   8   2  191.96   12.27
   3   8   2  144.37   11.28
   2   8   2    2.81    2.49
   1   8   2    7.55    2.91
   0   8   2   47.99    7.75
  -1   8   2   86.85    9.22
  -2   8   2    1.85    1.84
  -3   8   2    4.48    2.19
  -4   8   2   14.98    3.18
  -5   8   2    8.45    2.96
  -6   8   2   12.25    3.22
  10   9   1    1.69    1.83
   9   9   1   -0.73    1.53
   8   9   1    2.58    1.94
   7   9   1    7.26    3.08
   6   9   1    2.23    2.24
   5   9   1    2.19    2.71
   4   9   1   35.99    7.05
   3   9   1    5.20    3.18
   2   9   1   32.41    6.35
   1   9   1    5.81    3.17
   0   9   1    0.87    3.53
  -1   9   1   30.57    5.10
  -2   9   1   29.02    5.44
  -3   9   1    8.11    2.77
  -4   9   1    2.52    1.27
  -5   9   1    0.96    2.02
  10  10   0    0.87    1.42
   9  10   0   -0.61    1.38
   8  10   0    0.27    2.03
   7  10   0    3.44    2.17
   6  10   0    1.13    1.92
   5  10   0    1.98    4.56
   4  10   0    0.54    3.86
   3  10   0   24.41    4.83
   2  10   0    2.42    4.14
   1  10   0   -1.64    3.17
   0  10   0    2.37    3.76
  -1  10   0    3.75    2.60
  -2  10   0    7.65    3.68
  -3  10   0   12.22    4.07
  -4  10   0    8.65    3.21
   8  11  -1    0.99    1.73
   7  11  -1    3.96    2.85
   6  11  -1   28.31    7.08
   5  11  -1   65.34    9.61
   4  11  -1   14.48    4.48
   3  11  -1    6.00    4.54
   2  11  -1   -1.48    4.62
   1  11  -1    6.77    4.04
   0  11  -1    0.01    3.08
  -1  11  -1    7.14    3.99
  -2  11  -1    1.68    3.89
  -3  11  -1    7.62    3.82
   6  12  -2    1.39    3.43
   5  12  -2    5.31    3.61
   4  12  -2    8.22    4.13
   3  12  -2    2.47    5.14
   2  12  -2    2.85    4.21
   1  12  -2    4.48    4.26
   0  12  -2   14.61    4.21
  -1  12  -2   27.48    7.17
  12   5   6   11.07    5.66
  12   6   5   12.70    5.81
  11   5   6    8.91    4.53
  11   6   5    4.89    3.79
  10   5   6   41.92    7.43
  10   6   5    5.88    3.98
   9   5   6   23.98    5.03
   9   6   5   93.27   12.84
   8   5   6    2.65    1.33
   8   6   5   20.81    3.80
   7   5   6   45.37    7.60
   7   6   5   17.73    4.16
   6   5   6   62.46    6.54
   6   6   5    1.32    1.89
   5   5   6   52.62    4.36
   5   6   5   87.52    6.32
   4   5   6   57.52    4.69
   4   6   5  225.00    9.88
   3   5   6   10.33    1.91
   3   6   5  476.00   14.79
   2   5   6   22.47    2.82
   2   6   5  136.50    8.10
   1   5   6   17.28    2.72
   1   6   5   38.22    5.91
   0   5   6   13.31    2.30
   0   6   5   23.23    4.24
  -1   5   6    1.34    1.38
  -1   6   5   34.30    4.42
  -2   5   6   20.68    3.00
  -2   6   5    9.64    2.17
  -3   5   6    2.70    1.75
  -3   6   5    0.00    1.92
  -4   5   6    6.73    3.88
  -4   6   5   12.54    3.82
  -5   5   6    8.17    3.45
  -5   6   5   14.79    3.92
  -6   5   6   18.48    6.50
  -6   6   5   12.34    5.32
  -7   6   5    8.69    3.31
  12   4   7   21.78    7.33
  12   7   4    4.52    2.80
  11   4   7   32.75    7.78
  11   7   4    7.86    3.36
  10   4   7   56.19    9.19
  10   7   4    4.49    3.02
   9   4   7   19.38    5.09
   9   7   4   12.94    4.17
   8   4   7   21.17    4.84
   8   7   4   41.03    5.23
   7   4   7    3.12    2.17
   7   7   4  121.87    9.12
   6   4   7  113.68   10.15
   6   7   4  190.69    9.95
   5   4   7   95.85    5.48
   5   7   4  221.94   12.32
   4   4   7   66.38    3.87
   4   7   4    6.55    2.80
   3   7   4    6.45    2.64
   2   7   4   87.78    7.83
   1   7   4   25.18    3.92
   0   7   4    8.17    2.38
  -1   7   4   87.74    7.18
  -2   7   4  110.75    7.79
  -3   7   4   93.61    7.05
  -4   7   4   51.77    6.86
  -5   7   4   17.42    4.22
  -6   7   4    3.93    2.66
  11   8   3    6.64    2.84
  10   8   3    5.44    2.23
   9   8   3   17.22    4.06
   8   8   3   11.17    3.13
   7   8   3   19.65    3.71
   6   8   3    2.06    2.06
   5   8   3    3.05    2.35
   4   8   3    1.76    3.30
   3   8   3   24.85    4.60
   2   8   3   64.99    7.84
   1   8   3  358.18   15.88
   0   8   3  147.84    8.44
  -1   8   3  234.79   13.12
  -2   8   3   15.37    4.14
  -3   8   3    1.58    1.39
  -4   8   3    7.64    2.60
  -5   8   3    4.07    2.87
  -6   8   3   -1.15    2.57
  11   9   2    6.65    2.51
  10   9   2    7.25    2.27
   9   9   2   19.51    3.79
   8   9   2    4.44    2.22
   7   9   2    6.26    2.75
   6   9   2    3.77    2.43
   5   9   2    1.79    2.83
   4   9   2    4.59    3.00
   3   9   2   53.15    6.53
   2   9   2   62.84    8.39
   1   9   2   58.79    7.36
   0   9   2    2.12    2.68
  -1   9   2    4.25    2.90
  -2   9   2    3.99    1.92
  -3   9   2    1.05    1.62
  -4   9   2    5.45    2.33
  -5   9   2   12.25    3.34
  10  10   1    2.30    2.02
   9  10   1    2.18    1.45
   8  10   1   15.42    3.84
   7  10   1    1.82    2.01
   6  10   1    5.37    2.74
   5  10   1   23.26    6.47
   4  10   1   52.14    8.08
   3  10   1   45.24    6.02
   2  10   1    7.32    4.39
   1  10   1   11.45    3.74
   0  10   1    2.45    2.38
  -1  10   1    7.46    3.35
  -2  10   1    6.64    2.95
  -3  10   1    2.86    1.98
  -4  10   1    1.59    1.22
   9  11   0    0.81    2.15
   8  11   0    1.68    2.09
   7  11   0   11.27    3.30
   6  11   0   34.68    7.96
   5  11   0    9.34    5.29
   4  11   0    2.47    3.33
   3  11   0    3.71    4.14
   2  11   0   26.09    6.41
   1  11   0   38.57    6.96
   0  11   0   13.22    3.94
  -1  11   0    7.59    4.69
  -2  11   0    4.12    3.41
  -3  11   0    3.39    2.71
   7  12  -1   -0.04    3.35
   6  12  -1    8.53    4.85
   5  12  -1   13.63    4.31
   4  12  -1   21.86    5.29
   3  12  -1   10.12    5.54
   2  12  -1   11.82    5.02
   1  12  -1    2.16    4.07
   0  12  -1    1.28    2.78
  -1  12  -1    3.06    3.50
   3  13  -2    4.60    4.95
  12   6   6    5.37    3.96
  11   6   6    3.62    3.84
  10   6   6   31.46    7.15
   9   6   6   17.05    7.44
   8   6   6    9.59    3.53
   7   6   6    6.03    2.27
   6   6   6  113.30    7.83
   5   6   6  162.32    8.08
   4   6   6  360.80   12.53
   3   6   6   75.51    4.65
   2   6   6   46.54    4.60
   1   6   6    9.20    2.63
   0   6   6   42.15    5.39
  -1   6   6   31.87    4.07
  -2   6   6    7.22    2.43
  -3   6   6    2.78    2.31
  -4   6   6   23.71    4.64
  -5   6   6   20.41    5.69
  -6   6   6   15.50    4.66
  12   5   7   43.16    9.04
  12   7   5    5.83    3.43
  11   5   7   58.40    9.43
  11   7   5    1.47    2.55
  10   5   7  124.71   13.02
  10   7   5    1.40    3.01
   9   5   7   28.34    4.10
   9   7   5    3.42    3.14
   8   5   7    1.60    2.66
   8   7   5   26.94    4.36
   7   5   7    2.58    2.02
   7   7   5   26.17    4.49
   6   5   7    2.23    1.52
   6   7   5    9.46    2.86
   5   5   7    9.69    2.22
   5   7   5    9.56    3.11
   4   5   7   17.66    2.47
   4   7   5   52.71    5.56
   3   5   7   64.27    4.63
   3   7   5   84.24    6.16
   2   5   7  239.46    7.90
   2   7   5   56.09    6.24
   1   5   7  113.95    5.85
   1   7   5   58.57    7.76
   0   7   5    6.71    2.27
  -1   7   5   16.07    3.42
  -2   7   5   55.83    5.70
  -3   7   5   19.64    4.06
  -4   7   5    8.71    2.68
  -5   7   5   10.36    3.73
  -6   7   5   14.50    4.35
  12   4   8   15.42    6.75
  12   8   4   11.24    3.82
  11   4   8   14.25    5.55
  11   8   4    3.33    2.43
  10   4   8   20.05    5.71
  10   8   4    3.08    2.14
   9   4   8   60.16    8.64
   9   8   4    7.08    2.78
   8   8   4    2.04    2.14
   7   8   4   20.03    3.71
   6   8   4   -0.40    2.50
   5   8   4   26.55    4.72
   4   8   4   22.15    5.24
   3   8   4    8.58    2.80
   2   8   4    0.20    2.74
   1   8   4    6.77    2.81
   0   8   4    3.12    2.01
  -1   8   4   19.17    4.07
  -2   8   4   12.43    3.21
  -3   8   4   47.31    5.86
  -4   8   4   21.47    4.30
  -5   8   4   11.95    3.20
  -6   8   4    8.53    3.23
  11   9   3    0.73    2.06
  10   9   3    2.51    2.05
   9   9   3    1.98    1.96
   8   9   3    6.47    2.78
   7   9   3   38.20    5.85
   6   9   3   39.03    5.16
   5   9   3  126.08   10.83
   4   9   3   55.21    8.02
   3   9   3   52.86    6.07
   2   9   3    4.15    3.54
   1   9   3   13.36    3.80
   0   9   3   15.04    3.36
  -1   9   3   24.95    4.60
  -2   9   3   12.63    3.80
  -3   9   3   10.25    2.71
  -4   9   3    6.23    1.99
  -5   9   3    3.62    2.94
  10  10   2    8.67    2.69
   9  10   2   16.60    2.77
   8  10   2   39.84    5.89
   7  10   2   21.70    4.01
   6  10   2   12.60    3.25
   5  10   2    9.83    5.20
   4  10   2   19.04    4.87
   3  10   2    0.69    2.87
   2  10   2    4.50    4.16
   1  10   2   34.40    5.65
   0  10   2   30.66    4.38
  -1  10   2   39.61    5.38
  -2  10   2   24.10    4.45
  -3  10   2    6.65    2.43
  -4  10   2    3.63    2.20
   9  11   1    0.24    2.55
   8  11   1    1.71    1.97
   7  11   1    6.91    2.83
   6  11   1   11.28    5.48
   5  11   1   10.16    5.11
   4  11   1   12.46    4.47
   3  11   1   79.78   10.79
   2  11   1   68.33    8.99
   1  11   1   54.29    7.36
   0  11   1    5.76    2.18
  -1  11   1    7.22    2.84
  -2  11   1    6.50    2.23
  -3  11   1    1.91    1.54
   8  12   0    1.38    3.19
   7  12   0    6.34    5.44
   6  12   0    0.49    4.09
   5  12   0    9.52    3.95
   4  12   0    3.02    3.86
   3  12   0    0.90    4.75
   2  12   0    4.73    4.58
   1  12   0   12.33    5.15
   0  12   0    3.52    3.33
  -1  12   0   -4.66    2.37
   5  13  -1   -0.94    3.35
   4  13  -1    5.21    5.73
   3  13  -1    1.55    4.35
   2  13  -1    0.32    4.41
   1  13  -1   -3.44    7.26
  12   6   7    7.05    4.25
  12   7   6    5.82    3.78
  11   6   7   29.54    7.02
  11   7   6    4.62    2.52
  10   6   7   53.27    9.07
  10   7   6    8.80    4.10
   9   6   7   37.12    4.81
   9   7   6   10.73    4.26
   8   6   7   59.10    7.62
   8   7   6    2.28    2.06
   7   6   7    5.06    1.98
   7   7   6    5.36    2.46
   6   6   7    8.17    2.05
   6   7   6   35.33    3.60
   5   6   7   21.67    2.82
   5   7   6   54.85    5.01
   4   6   7    1.47    1.36
   4   7   6  169.26    8.45
   3   6   7   79.78    5.74
   3   7   6   90.33    6.21
   2   6   7  263.70    8.92
   2   7   6   46.18    4.91
   1   6   7  233.98    9.61
   1   7   6   20.93    3.22
   0   6   7  109.94    5.70
   0   7   6   14.81    3.04
  -1   6   7   85.28    6.41
  -1   7   6   11.99    2.68
  -2   7   6    5.71    2.39
  -3   7   6    3.59    2.67
  -4   7   6   36.61    6.75
  -5   7   6   10.96    3.32
  -6   7   6   39.03    9.61
  12   5   8    7.69    5.00
  12   8   5   12.67    4.41
  11   5   8    6.20    3.76
  11   8   5    5.71    2.65
  10   5   8    2.44    1.91
  10   8   5   -0.47    1.71
   9   5   8   20.27    2.93
   9   8   5    0.96    2.34
   8   8   5    3.95    2.49
   7   8   5    5.99    3.02
   6   8   5    7.18    3.62
   5   8   5   22.13    3.93
   4   8   5   11.73    3.62
   3   8   5    5.79    2.40
   2   8   5    0.79    1.71
   1   8   5   -0.67    2.96
   0   8   5    4.30    2.19
  -1   8   5   12.95    3.92
  -2   8   5   14.15    2.85
  -3   8   5   21.99    4.57
  -4   8   5    6.50    3.25
  -5   8   5    6.05    3.70
  11   9   4   20.77    4.74
  10   9   4    9.12    3.23
   9   9   4    3.41    2.45
   8   9   4   16.06    3.75
   7   9   4   43.57    6.51
   6   9   4   21.53    4.12
   5   9   4    7.39    3.59
   4   9   4   -0.79    2.81
   3   9   4   25.35    4.54
   2   9   4   32.90    5.23
   1   9   4   44.27    6.74
   0   9   4    2.81    1.92
  -1   9   4    9.74    3.24
  -2   9   4    3.24    2.05
  -3   9   4    3.27    2.30
  -4   9   4    7.64    3.01
  -5   9   4    2.79    2.37
  11  10   3   -0.01    1.65
  10  10   3   11.38    3.29
   9  10   3    2.14    1.42
   8  10   3   -0.41    2.08
   7  10   3    5.81    2.52
   6  10   3   49.10    6.62
   5  10   3   93.92   10.03
   4  10   3   87.43    8.73
   3  10   3   21.37    5.19
   2  10   3    2.42    3.02
   1  10   3    2.95    2.59
   0  10   3    5.76    2.35
  -1  10   3   14.91    3.91
  -2  10   3    5.19    2.98
  -3  10   3    7.90    2.74
  -4  10   3    7.80    2.08
  10  11   2    5.13    2.16
   9  11   2    6.88    3.03
   8  11   2    3.68    2.10
   7  11   2    9.90    2.95
   6  11   2   24.93    6.81
   5  11   2    2.34    4.24
   4  11   2    5.17    2.87
   3  11   2    6.41    4.31
   2  11   2    3.48    2.74
   1  11   2    8.18    3.36
   0  11   2   22.29    4.23
  -1  11   2   49.98    6.90
  -2  11   2   36.20    6.02
  -3  11   2    5.65    2.51
   9  12   1    0.37    2.50
   8  12   1    5.97    3.65
   7  12   1   10.95    5.72
   6  12   1   -0.93    3.98
   5  12   1    2.93    3.47
   4  12   1    7.48    4.14
   3  12   1   28.38    7.64
   2  12   1   35.80    7.48
   1  12   1   36.92    8.71
   0  12   1   11.51    3.25
  -1  12   1    4.96    2.55
  -2  12   1    4.44    2.45
   6  13   0    0.28    3.64
   5  13   0    0.80    3.22
   4  13   0    4.54    5.90
   3  13   0    5.08    4.96
   2  13   0    5.22    5.03
   1  13   0    3.94    6.08
  12   7   7    2.35    2.89
  11   7   7    4.21    4.37
  10   7   7    5.86    3.29
   9   7   7    1.67    2.29
   8   7   7   17.24    3.99
   7   7   7   40.81    4.72
   6   7   7   41.51    4.95
   5   7   7   36.51    4.28
   4   7   7   23.33    3.12
   3   7   7   33.47    4.36
   2   7   7    4.19    1.38
   1   7   7   84.68    7.84
  -1   7   7   39.76    4.03
  -2   7   7   45.33    5.90
  12   6   8    1.60    5.18
  12   8   6    4.26    4.11
  11   6   8    8.53    5.68
  11   8   6    3.72    2.39
  10   6   8   10.91    6.60
  10   8   6   27.27    4.82
   9   6   8   12.72    4.18
   9   8   6   91.45    9.31
   8   6   8    6.02    2.23
   8   8   6   76.95    8.14
   7   8   6   38.66    4.55
   6   8   6    6.49    2.70
   5   8   6    5.44    2.45
   4   8   6    3.82    2.27
   3   8   6    7.73    3.21
   2   8   6   38.59    4.81
   1   8   6   51.40    5.21
   0   8   6   56.81    6.88
  -1   8   6   22.44    3.85
  -2   8   6    9.09    2.34
  -3   8   6    9.10    3.38
  -4   8   6    6.06    3.05
  -5   8   6    6.74    3.69
  12   9   5    8.84    3.43
  11   9   5   18.37    4.65
  10   9   5    7.09    2.86
   9   9   5    2.77    2.39
   8   9   5   24.27    4.18
   7   9   5   18.05    4.47
   6   9   5   12.49    3.66
   5   9   5   27.58    6.48
   4   9   5   44.64    5.68
   3   9   5  288.21   16.37
   2   9   5  115.75    9.50
   1   9   5   45.78    5.13
   0   9   5    4.23    2.11
  -1   9   5    9.88    3.49
  -2   9   5    8.01    2.74
  -3   9   5    4.15    1.90
  -4   9   5    4.08    2.76
  -5   9   5    5.04    2.78
  11  10   4    2.32    1.96
  10  10   4    7.62    2.92
   9  10   4    0.43    1.30
   8  10   4    3.36    2.60
   7  10   4   10.13    3.09
   6  10   4   70.14    8.63
   5  10   4   64.18    7.19
   4  10   4   10.25    3.72
   3  10   4    5.73    3.96
   2  10   4   28.64    5.47
   1  10   4   34.44    7.25
   0  10   4   34.96    6.23
  -1  10   4   11.27    3.58
  -2  10   4    6.03    2.59
  -3  10   4    7.90    2.39
  -4  10   4    8.77    3.10
  10  11   3    3.53    1.76
   9  11   3    0.90    2.53
   8  11   3   -0.21    1.82
   7  11   3    1.14    2.42
   6  11   3   13.07    5.62
   5  11   3   14.63    4.61
   4  11   3   30.75    5.08
   3  11   3    7.87    4.09
   2  11   3    9.37    3.67
   1  11   3    7.09    4.36
   0  11   3    5.95    2.38
  -1  11   3   13.01    4.19
  -2  11   3    2.50    2.14
  -3  11   3    2.54    2.04
   9  12   2    2.41    2.01
   8  12   2   -0.95    1.86
   7  12   2    1.26    3.64
   6  12   2   12.60    5.08
   5  12   2   -0.85    2.32
   4  12   2   13.90    4.22
   3  12   2   13.58    5.25
   2  12   2    3.26    3.08
   1  12   2    9.96    4.89
   0  12   2    8.47    2.80
  -1  12   2   12.25    3.96
  -2  12   2    6.47    3.21
   7  13   1    7.10    5.41
   6  13   1   16.89    5.28
   5  13   1   11.90    4.47
   4  13   1    4.81    6.02
   3  13   1    5.18    4.89
   2  13   1    6.78    4.94
   1  13   1    2.65    4.02
   0  13   1    4.43    3.09
  12   7   8   16.17    4.63
  12   8   7    4.12    3.13
  11   7   8   15.94    5.41
  11   8   7    5.25    2.75
  10   7   8   26.69    5.91
  10   8   7   11.84    3.63
   9   7   8    7.30    2.42
   9   8   7   12.74    3.50
   8   7   8    2.03    2.14
   8   8   7    3.73    1.79
   7   7   8   12.17    2.32
   7   8   7   18.65    4.11
   6   8   7   62.02    5.91
   5   8   7  194.77   11.32
   4   8   7   56.43    4.67
   3   8   7   32.81    4.14
   2   8   7   16.60    3.53
   1   8   7    4.15    2.30
   0   8   7    3.42    1.91
  -1   8   7    2.09    1.81
  -2   8   7    6.36    2.54
  12   9   6    3.22    3.02
  11   9   6    3.95    2.65
  10   9   6    8.29    2.76
   9   9   6   45.33    5.60
   8   9   6   34.37    4.36
   7   9   6  109.64   10.12
   6   9   6   16.84    3.35
   5   9   6    0.84    1.91
   4   9   6    0.51    1.63
   3   9   6   29.01    5.34
   2   9   6    2.59    2.17
   1   9   6   24.11    3.82
   0   9   6   42.32    6.60
  -2   9   6   27.05    4.59
  -3   9   6   19.52    4.14
  -4   9   6    1.94    1.81
  11  10   5    6.51    2.75
  10  10   5    4.49    2.71
   9  10   5    5.04    2.02
   8  10   5    3.26    2.96
   7  10   5    0.61    2.25
   6  10   5    1.96    2.91
   5  10   5    5.96    3.71
   4  10   5   20.99    3.82
   3  10   5  131.80   11.70
   2  10   5   61.86    7.19
   1  10   5   68.61    6.45
   0  10   5   14.80    3.49
  -1  10   5    5.49    2.80
  -2  10   5    4.52    2.09
  -3  10   5    3.98    1.45
  -4  10   5    4.67    2.74
  11  11   4    2.99    1.66
  10  11   4    8.90    2.54
   9  11   4    1.55    2.85
   8  11   4    0.64    1.88
   7  11   4    2.70    3.00
   6  11   4   10.79    4.90
   5  11   4   16.56    4.66
   4  11   4    7.35    3.38
   3  11   4   29.06    6.54
   2  11   4   -0.22    2.12
   1  11   4    2.55    1.92
   0  11   4    4.76    2.92
  -1  11   4    4.18    2.36
  -2  11   4    4.94    2.21
  -3  11   4    3.49    1.93
   9  12   3    4.74    2.59
   8  12   3    4.40    2.74
   7  12   3   12.50    5.53
   6  12   3    0.35    3.55
   5  12   3   16.34    4.49
   4  12   3    6.53    3.43
   3  12   3    7.32    4.50
   2  12   3    1.88    2.73
   1  12   3    7.47    2.48
   0  12   3    4.93    2.92
  -1  12   3    3.30    3.04
  -2  12   3    2.71    2.48
   8  13   2   11.08    5.02
   7  13   2    1.32    3.42
   6  13   2    6.56    3.49
   5  13   2    7.24    3.34
   4  13   2   21.19    5.77
   3  13   2   21.19    5.06
   2  13   2   14.96    4.28
   1  13   2    2.85    2.07
   0  13   2    6.94    3.50
  12   8   8    1.94    2.71
  11   8   8    4.04    2.81
  10   8   8   21.92    4.54
   9   8   8    0.70    1.80
   8   8   8    7.80    2.36
   7   8   8   49.27    6.00
  12   9   7    3.62    3.26
  11   9   7    3.31    2.58
  10   9   7    3.11    2.18
   9   9   7    1.98    2.38
   8   9   7    3.23    2.98
   7   9   7    5.33    2.39
   6   9   7   30.23    5.07
   5   9   7   19.37    3.89
   4   9   7   84.45    7.02
   3   9   7   37.63    5.00
   2   9   7    2.73    1.51
   1   9   7    6.24    2.75
   0   9   7   58.12    7.48
  -1   9   7    9.75    2.14
  -2   9   7    4.49    2.50
  12  10   6    3.83    2.32
  11  10   6    5.43    2.81
  10  10   6    1.30    2.35
   9  10   6    1.58    1.47
   8  10   6    3.92    3.17
   7  10   6    3.50    2.42
   6  10   6   31.29    6.83
   5  10   6   11.16    3.67
   4  10   6    3.42    2.32
   3  10   6    1.52    1.87
   2  10   6   10.25    4.12
   1  10   6    5.68    2.11
   0  10   6   15.78    4.31
  -1  10   6   19.48    4.06
  -2  10   6   20.86    3.81
  -3  10   6   15.30    3.60
  11  11   5   -1.44    1.23
  10  11   5    4.47    2.50
   9  11   5    4.86    3.09
   8  11   5   26.52    5.12
   7  11   5   24.87    5.52
   6  11   5   36.33    5.77
   5  11   5   20.56    4.56
   4  11   5    1.65    2.83
   3  11   5   21.16    4.75
   2  11   5    5.50    2.91
   1  11   5   12.95    3.16
   0  11   5   15.92    4.22
  -1  11   5   13.68    3.97
  -2  11   5    3.72    2.16
  -3  11   5    1.33    1.31
  10  12   4   11.62    3.20
   9  12   4    9.36    3.15
   8  12   4    4.88    3.54
   7  12   4    2.79    4.42
   6  12   4    9.96    4.55
   5  12   4    8.73    3.17
   4  12   4    2.60    3.71
   3  12   4    4.15    2.52
   2  12   4   21.37    4.82
   1  12   4   24.35    4.32
   0  12   4   17.11    3.80
  -1  12   4    3.17    2.12
  -2  12   4    4.97    2.20
   8  13   3    8.39    5.09
   7  13   3    1.65    3.90
   6  13   3    3.43    2.85
   5  13   3   20.72    5.19
   4  13   3   38.00    7.56
   3  13   3   26.00    5.90
   2  13   3   11.35    3.93
   1  13   3    6.11    2.44
   0  13   3    6.63    2.57
   5  14   2    4.83    4.21
   4  14   2    4.47    4.10
   3  14   2    9.92    4.16
  12   9   8    3.49    3.09
  11   9   8    3.67    2.71
  10   9   8   -0.61    2.33
   9   9   8    7.96    2.79
   8   9   8    5.68    2.62
   7   9   8   17.23    3.18
   6   9   8    7.44    2.81
  12  10   7    2.08    2.15
  11  10   7    1.40    1.72
  10  10   7    4.32    2.34
   9  10   7    6.35    3.02
   8  10   7    7.12    2.88
   7  10   7    5.49    3.01
   6  10   7   -0.87    1.71
   5  10   7    3.92    2.05
   4  10   7    0.28    2.19
   3  10   7    0.45    1.63
   2  10   7    1.83    1.61
   1  10   7    5.43    2.33
   0  10   7   10.76    3.60
  -1  10   7    2.09    1.97
  -2  10   7    6.16    2.48
  11  11   6   -0.04    1.34
  10  11   6    5.39    2.68
   9  11   6    3.89    3.07
   8  11   6    9.08    2.99
   7  11   6    4.92    4.06
   6  11   6    1.49    3.19
   5  11   6    6.93    2.76
   4  11   6   10.32    3.89
   3  11   6   26.40    5.06
   2  11   6   38.76    7.71
   1  11   6   12.72    3.80
   0  11   6    2.55    2.50
  -1  11   6    0.16    1.96
  -2  11   6    2.45    1.88
  10  12   5    3.83    2.80
   9  12   5   -0.72    1.99
   8  12   5   18.49    5.05
   7  12   5   31.23    6.56
   6  12   5   38.18    6.72
   5  12   5   21.24    4.25
   4  12   5   30.56    6.22
   3  12   5    6.06    3.42
   2  12   5    9.88    4.58
   1  12   5   10.71    2.94
   0  12   5    6.80    3.51
  -1  12   5    3.46    2.86
  -2  12   5    7.33    2.52
   9  13   4    6.29    3.22
   8  13   4   10.18    5.19
   7  13   4   -0.27    3.47
   6  13   4    2.96    2.72
   5  13   4    8.27    3.82
   4  13   4    3.77    4.07
   3  13   4    7.69    3.81
   2  13   4   24.53    6.35
   1  13   4   11.77    3.63
   0  13   4   28.64    5.84
   7  14   3    1.85    3.10
   6  14   3    4.57    2.59
   5  14   3   15.82    5.60
   4  14   3    9.86    4.17
   3  14   3    4.59    2.96
   2  14   3   15.01    6.55
  12  10   8   10.59    3.49
  11  10   8   19.68    4.51
  10  10   8   12.41    2.66
   9  10   8   40.00    6.06
   8  10   8    3.17    2.10
   7  10   8    2.73    2.53
   6  10   8    4.38    2.47
  11  11   7    1.44    2.07
  10  11   7   11.09    3.58
   9  11   7   10.62    3.05
   8  11   7    6.03    3.27
   7  11   7    7.20    4.83
   6  11   7    7.49    3.19
   5  11   7   20.54    4.24
   4  11   7   34.14    6.11
   3  11   7   40.25    5.82
   2  11   7    5.57    2.38
   1  11   7    6.62    3.49
   0  11   7    9.14    3.37
  -1  11   7    2.96    2.14
  11  12   6    4.81    3.06
  10  12   6    3.44    2.62
   9  12   6    0.46    2.26
   8  12   6    7.10    3.69
   7  12   6   11.15    3.94
   6  12   6    4.19    2.68
   5  12   6    4.10    2.87
   4  12   6   22.79    5.96
   3  12   6   27.00    5.18
   2  12   6   16.04    3.59
   1  12   6   12.32    3.99
   0  12   6    1.00    2.03
  -1  12   6    0.81    1.83
   9  13   5    8.36    3.86
   8  13   5   14.35    5.15
   7  13   5   -1.14    3.44
   6  13   5   18.42    4.28
   5  13   5    8.85    4.04
   4  13   5   12.57    4.49
   3  13   5    7.13    3.46
   2  13   5    7.24    3.36
   1  13   5    9.50    3.56
   0  13   5    5.13    2.85
   7  14   4    1.70    2.79
   6  14   4    7.65    3.39
   5  14   4    4.91    4.43
   4  14   4    7.66    3.71
   3  14   4   12.17    3.98
   2  14   4    0.16    1.86
  11  11   8   16.75    4.25
  10  11   8   16.37    4.56
   9  11   8   13.05    3.69
   8  11   8   23.75    5.03
   7  11   8    3.93    3.43
   6  11   8   -0.06    1.95
   5  11   8   18.35    4.22
  11  12   7    0.43    2.55
  10  12   7   -0.19    1.87
   9  12   7    3.71    2.21
   8  12   7    6.20    4.97
   7  12   7    4.55    3.58
   6  12   7    5.54    2.76
   5  12   7   26.64    5.72
   4  12   7   19.67    4.28
   3  12   7   49.95    7.47
   2  12   7    7.15    2.57
   1  12   7   13.11    3.83
   0  12   7    6.55    3.18
  -1  12   7    6.49    2.64
  10  13   6    0.38    2.08
   9  13   6   -1.74    2.94
   8  13   6   -1.01    2.63
   7  13   6    7.15    3.60
   6  13   6    1.91    2.18
   5  13   6    2.90    3.64
   4  13   6    4.68    2.82
   3  13   6    4.32    2.83
   2  13   6    5.44    2.19
   1  13   6    8.15    2.79
   0  13   6    1.83    2.13
   8  14   5   -0.18    3.22
   7  14   5    6.05    3.15
   6  14   5    5.41    3.58
   5  14   5    4.29    4.46
   4  14   5    3.68    3.59
   3  14   5    3.56    3.22
   2  14   5    4.65    2.23
  10  12   8    6.06    2.73
   9  12   8    1.84    3.03
   8  12   8    8.86    3.96
   7  12   8    9.12    3.14
   6  12   8    5.14    2.60
   5  12   8    3.02    3.10
  10  13   7    2.54    2.63
   9  13   7   12.01    5.01
   8  13   7    5.41    3.46
   7  13   7   11.62    3.43
   6  13   7    6.92    3.78
   5  13   7   10.03    4.22
   4  13   7    6.77    2.97
   3  13   7    7.20    3.96
   2  13   7    4.40    2.28
   1  13   7    9.28    3.28
   8  14   6   11.89    3.97
   7  14   6    1.11    2.64
   6  14   6    8.43    4.19
   5  14   6    9.19    4.31
   4  14   6    8.07    3.68
   3  14   6   15.35    5.33
   2  14   6    7.72    2.72
  10  13   8    1.09    2.86
   9  13   8    2.89    3.17
   8  13   8    2.60    2.46
   7  13   8    0.13    1.92
   6  13   8    6.84    3.46
   8  14   7   15.55    4.29
   7  14   7   13.64    3.62
   6  14   7   18.21    5.86
   5  14   7    3.07    3.15
   4  14   7    1.77    2.87
   3  14   7    3.18    2.08
   8  14   8    4.07    2.68
   7  14   8    3.34    2.68
   6  14   8    9.66    4.12
  -1   0   0  535.57    6.65
  -2   0   0  700.07   12.60
  -3   0   0    1.43    1.02
  -4   0   0   44.89    4.27
   0   1  -1   33.55    1.71
  -1   1  -1  206.55    5.39
  -2   1  -1  105.92    4.65
  -3   1  -1    3.33    1.19
  -4   1  -1   37.04    2.83
  -5   1  -1  295.84   10.67
  -6   1  -1  367.43   14.85
  -7   1  -1  157.31    9.99
   0   2  -2   36.61    2.38
  -1   2  -2   71.25    4.45
  -2   2  -2  116.80    4.79
  -3   2  -2   67.64    4.05
  -4   2  -2  409.67   12.48
  -5   2  -2   14.11    2.24
  -6   2  -2    7.86    2.42
  -7   2  -2   16.17    2.96
   0   3  -3   84.72    5.03
   1   3  -3   90.80    4.49
  -1   3  -3    5.82    1.36
  -2   3  -3   92.55    6.11
  -3   3  -3    5.88    1.91
  -4   3  -3   -0.25    1.21
  -5   3  -3   16.36    2.85
  -6   3  -3    8.32    2.10
   0   4  -4   78.55    5.00
   1   4  -4    2.46    1.05
  -1   4  -4   22.44    2.60
   2   4  -4   12.26    2.00
  -2   4  -4    3.64    1.78
  -3   4  -4   43.59    4.21
  -4   4  -4   77.67    7.12
  -5   4  -4  118.17    8.44
   0   5  -5   51.82    4.72
   1   5  -5   11.13    2.67
  -1   5  -5  142.61    7.46
   2   5  -5   11.05    2.49
  -2   5  -5  204.16   10.48
   3   5  -5    6.49    1.72
  -3   5  -5  235.71   12.40
   4   5  -5    1.63    1.46
  -4   5  -5   71.14    5.70
   0   6  -6   31.35    4.30
   1   6  -6   62.85    5.99
  -1   6  -6   71.50    6.71
   2   6  -6   32.99    4.54
  -2   6  -6    9.66    2.94
   3   6  -6    5.80    1.68
  -3   6  -6    2.70    2.01
   4   6  -6    0.66    1.24
   5   6  -6    3.10    1.27
   6   6  -6    2.75    1.17
   7   6  -6    3.68    2.45
   0   7  -7    6.53    2.01
   1   7  -7   11.08    2.68
  -1   7  -7    4.83    1.71
   2   7  -7    5.71    1.83
  -2   7  -7    2.61    1.70
   3   7  -7    6.18    2.43
   4   7  -7    0.64    1.36
   5   7  -7    0.95    1.36
   0   8  -8    3.39    2.54
   1   8  -8   -1.86    2.18
  -1   8  -8    3.90    2.50
   2   8  -8    0.51    1.49
   3   8  -8    2.06    1.80
  -7   0  -1   28.42    5.31
  -6   0  -1  115.65    7.90
  -5   0  -1  102.96    5.56
  -4   0  -1   99.00    5.18
  -3   0  -1  113.02    5.39
  -2   0  -1   22.51    2.02
  -1   0  -1  376.00    6.98
   0   0  -1   62.62    2.03
   0   1   0  215.98    3.27
  -1   1   0  364.82    5.25
  -2   1   0 1430.72   16.33
  -3   1   0  268.82    6.33
  -4   1   0   49.30    3.52
  -5   1   0   51.13    4.23
  -9   1  -2   14.35    3.55
  -8   1  -2   46.52    5.96
  -7   1  -2   65.16    5.72
  -6   1  -2   40.76    5.58
  -5   1  -2   11.48    2.44
  -4   1  -2   53.87    4.19
  -3   1  -2  512.82   13.19
  -2   1  -2  338.56    9.72
  -1   1  -2  230.90    6.10
   0   1  -2  222.52    5.82
   0   2  -1  502.17    7.59
  -1   2  -1 1566.71   17.19
  -2   2  -1   83.51    4.15
  -3   2  -1   40.59    3.06
  -4   2  -1   26.05    2.89
  -5   2  -1   58.63    4.28
  -6   2  -1   82.61    5.86
  -7   2  -1   38.06    3.69
  -8   2  -3    9.59    3.14
  -7   2  -3    2.54    1.62
  -6   2  -3   50.49    5.01
  -5   2  -3  203.44    9.69
  -4   2  -3  442.55   14.91
  -3   2  -3  280.50    9.78
  -2   2  -3  356.82   12.30
  -1   2  -3   28.20    2.50
   1   3  -2  556.69   11.93
   0   2  -3   75.81    4.75
   0   3  -2  185.75    5.17
   1   2  -3    4.11    1.01
  -1   3  -2    2.89    1.40
  -2   3  -2    4.35    1.78
  -3   3  -2   13.21    2.28
  -4   3  -2    8.23    2.00
  -5   3  -2   13.62    2.23
  -6   3  -2   44.47    4.64
  -7   3  -4    5.59    2.21
  -6   3  -4    4.02    2.35
  -5   3  -4    7.21    2.60
  -4   3  -4   39.27    4.99
  -3   3  -4  205.22    8.73
  -2   3  -4   77.00    5.91
  -1   3  -4  110.16    5.34
   1   4  -3  132.18    5.94
   0   3  -4  107.00    5.42
   0   4  -3   59.55    3.97
   1   3  -4   20.59    2.72
  -1   4  -3   46.43    3.60
   2   3  -4   19.72    2.71
  -2   4  -3   12.07    2.62
  -3   4  -3   43.05    4.26
  -4   4  -3   91.13    5.67
  -5   4  -3   75.84    5.77
  -6   4  -5   18.58    3.65
  -5   4  -5   29.50    4.07
  -4   4  -5   31.77    3.82
  -3   4  -5   51.83    5.08
   3   5  -4   56.89    5.36
  -2   4  -5  162.93    9.69
   2   5  -4   28.05    3.37
  -1   4  -5  162.27    7.30
   1   5  -4    2.98    1.45
   0   4  -5  132.20    7.51
   0   5  -4    8.80    2.09
   1   4  -5   23.98    2.76
  -1   5  -4   35.84    3.59
   2   4  -5    7.78    2.08
  -2   5  -4   26.54    3.21
   3   4  -5    2.39    1.24
  -3   5  -4    1.70    1.44
  -4   5  -4   21.59    3.82
  -5   5  -6    8.60    3.16
   5   6  -5   11.02    2.50
  -4   5  -6    5.21    2.63
   4   6  -5   12.82    2.30
  -3   5  -6    3.13    1.64
   3   6  -5   10.72    2.31
  -2   5  -6    1.62    1.64
   2   6  -5    4.73    1.69
  -1   5  -6    5.09    1.80
   1   6  -5    3.25    1.50
   0   5  -6   22.51    3.45
   0   6  -5   10.01    2.33
   1   5  -6  103.14    6.85
  -1   6  -5   34.08    4.52
   2   5  -6   67.71    6.00
  -2   6  -5   48.63    5.18
   3   5  -6   50.75    5.23
  -3   6  -5   63.38    6.27
   4   5  -6    8.81    2.01
   5   5  -6    0.81    1.41
   6   5  -6    5.72    2.65
   7   5  -6    5.92    2.74
   6   7  -6    8.67    1.97
   5   7  -6    5.72    1.88
  -4   6  -7   30.79    4.71
   4   7  -6    4.17    1.80
  -3   6  -7   16.01    2.92
   3   7  -6   -0.96    1.11
  -2   6  -7    2.00    2.07
   2   7  -6    1.20    1.40
  -1   6  -7    2.81    1.92
   1   7  -6    1.28    1.68
   0   6  -7    9.39    2.88
   0   7  -6    7.22    3.00
   1   6  -7    9.03    2.39
  -1   7  -6   12.47    2.57
   2   6  -7    1.96    1.26
  -2   7  -6   17.66    2.97
   3   6  -7    3.98    1.45
   4   6  -7    2.81    1.27
   5   6  -7    6.82    1.86
   6   6  -7    3.94    2.08
   4   8  -7    1.21    1.13
   3   8  -7   -0.23    1.04
  -2   7  -8    4.08    1.93
   2   8  -7    4.68    1.90
  -1   7  -8    3.92    2.26
   1   8  -7   13.48    3.06
   0   7  -8    0.91    1.22
   0   8  -7   30.48    4.55
   1   7  -8    0.69    1.61
  -1   8  -7   27.47    5.04
   2   7  -8    4.06    2.01
   3   7  -8   -0.31    1.09
   4   7  -8    0.08    1.71
  -7  -1  -1    4.95    1.44
  -6  -1  -1   25.00    3.26
  -5  -1  -1    3.17    2.29
  -4  -1  -1    2.03    1.12
  -3  -1  -1   -1.30    1.00
  -2  -1  -1    4.08    1.16
  -1  -1  -1    2.40    0.59
   0  -1  -1    2.14    0.43
  -9   0  -2    1.95    1.99
  -8   0  -2    8.82    3.09
  -7   0  -2    5.24    2.16
  -6   0  -2  148.99    9.11
  -5   0  -2   36.17    4.01
  -4   0  -2   -0.90    1.31
  -3   0  -2    4.77    2.58
  -2   0  -2  412.17   10.98
  -1   0  -2   37.87    2.93
   0   0  -2   63.79    2.59
   0   2   0    2.39    0.45
  -1   2   0   91.96    2.91
  -2   2   0   96.67    3.09
  -3   2   0  168.54    5.24
  -4   2   0  103.08    5.03
  -5   2   0   94.43    5.73
  -9   1  -3    6.78    3.49
  -8   1  -3    5.40    2.62
  -7   1  -3    7.68    2.54
  -6   1  -3   24.24    3.74
  -5   1  -3  230.28   10.57
  -4   1  -3  924.21   21.24
  -3   1  -3 1095.76   21.98
  -2   1  -3  609.56   13.24
  -1   1  -3   13.84    1.85
   0   1  -3   -0.03    0.92
   0   3  -1  375.16    6.93
   1   1  -3   52.77    3.61
  -1   3  -1 1638.58   20.56
  -2   3  -1 1314.65   20.38
  -3   3  -1  492.81   10.68
  -4   3  -1   89.04    4.48
  -5   3  -1   15.22    1.94
  -6   3  -1    5.59    1.19
  -8   2  -4   30.83    4.66
  -7   2  -4    2.79    1.86
  -6   2  -4    5.37    2.73
  -5   2  -4    5.74    2.40
  -4   2  -4    2.42    2.31
  -3   2  -4   41.47    3.60
  -2   2  -4  438.65   13.23
  -1   2  -4  719.84   16.86
   1   4  -2  458.60    9.69
   0   2  -4  674.84   14.86
   0   4  -2  313.10    9.69
   1   2  -4  239.94    8.50
  -1   4  -2  332.78   10.10
   2   2  -4  105.79    6.39
  -2   4  -2    7.17    1.94
  -3   4  -2   29.96    3.60
  -4   4  -2   47.02    4.79
  -5   4  -2    3.11    1.15
  -7   3  -5   56.47    6.16
  -6   3  -5  138.65   10.01
  -5   3  -5   54.23    5.73
  -4   3  -5   45.39    5.07
  -3   3  -5    2.23    1.90
  -2   3  -5   36.43    4.91
   2   5  -3   20.74    2.73
  -1   3  -5    7.81    1.76
   1   5  -3   31.47    3.21
   0   3  -5   42.38    4.08
   0   5  -3   18.82    2.61
   1   3  -5   56.69    4.62
  -1   5  -3    5.60    1.85
   2   3  -5   65.14    5.08
  -2   5  -3    6.02    2.22
   3   3  -5   27.69    3.94
  -3   5  -3   29.75    3.43
  -4   5  -3  100.85    5.90
  -6   4  -6    3.17    2.62
  -5   4  -6    8.54    3.17
  -4   4  -6   17.67    3.60
  -3   4  -6    8.20    2.67
   3   6  -4   14.96    2.47
  -2   4  -6    4.15    2.48
   2   6  -4    2.66    1.40
  -1   4  -6    1.52    1.33
   1   6  -4    1.97    1.76
   0   4  -6    1.26    1.29
   0   6  -4    1.94    1.44
   1   4  -6   34.24    4.50
  -1   6  -4    4.65    2.11
   2   4  -6   28.07    3.47
  -2   6  -4    6.44    1.95
   3   4  -6   22.92    3.45
  -3   6  -4   10.95    2.11
   4   4  -6   14.69    2.75
   5   4  -6    2.59    1.87
   6   4  -6    5.06    2.11
   6   7  -5    7.02    1.93
  -5   5  -7    8.58    3.32
   5   7  -5    1.21    1.01
  -4   5  -7    4.94    1.98
   4   7  -5   13.09    2.29
  -3   5  -7    3.12    1.97
   3   7  -5   25.81    3.83
  -2   5  -7    4.12    2.49
   2   7  -5   30.25    3.63
  -1   5  -7    4.15    2.08
   1   7  -5   34.63    4.40
   0   5  -7    7.18    2.06
   0   7  -5    4.18    2.10
   1   5  -7   34.28    4.58
  -1   7  -5    3.89    1.60
   2   5  -7   18.21    3.75
  -2   7  -5    6.41    2.08
   3   5  -7    2.47    1.63
   4   5  -7    6.11    2.14
   5   5  -7    5.11    2.16
   6   5  -7    5.40    2.12
   6   8  -6    4.66    1.47
   5   8  -6    5.76    1.78
  -4   6  -8   14.85    3.25
   4   8  -6    6.85    1.84
  -3   6  -8    3.37    1.95
   3   8  -6    2.87    1.52
  -2   6  -8    1.14    2.20
   2   8  -6    1.00    1.40
  -1   6  -8    1.48    1.49
   1   8  -6    5.32    2.17
   0   6  -8    1.48    1.67
   0   8  -6    3.46    1.77
   1   6  -8    4.28    1.92
   2   6  -8    2.00    1.66
   3   6  -8    9.29    2.70
   4   6  -8    8.42    2.04
   5   6  -8    3.29    1.63
   3   9  -7    0.41    1.66
  -2   7  -9   16.02    2.95
   2   9  -7    0.80    1.53
  -1   7  -9    7.45    2.84
   1   9  -7    7.99    2.11
   0   7  -9    6.22    2.57
   1   7  -9   -0.48    1.72
   2   7  -9    0.13    1.43
  -9  -1  -2    0.99    1.00
  -8  -1  -2   13.55    3.92
  -7  -1  -2   30.75    5.91
  -6  -2  -1  194.79    9.75
  -6  -1  -2    8.18    2.76
  -5  -2  -1  871.93   25.62
  -5  -1  -2   59.18    6.58
  -4  -1  -2  448.93   12.75
  -3  -2  -1  237.21    9.05
  -3  -1  -2  614.60   12.35
  -2  -2  -1  139.16    4.23
  -2  -1  -2 3333.82   33.66
  -1  -2  -1  420.47    6.20
  -1  -1  -2   21.31    2.37
   0  -1  -2  102.34    3.23
 -10   0  -3   40.75    9.24
  -9   0  -3   71.89   10.45
  -8   0  -3   81.85    7.89
  -7   0  -3   54.45    8.09
  -6   0  -3   22.55    3.89
  -5   0  -3   58.86    5.48
  -4   0  -3  134.84    8.19
  -3   0  -3  185.08    9.14
  -2   0  -3  785.26   14.67
  -1   0  -3  865.11   15.02
   0   0  -3  442.02   10.48
   0   3   0  303.80    5.49
   1   0  -3   68.40    4.14
  -1   3   0  132.61    3.96
  -2   3   0  134.35    3.65
  -3   3   0   20.21    2.04
  -4   3   0    6.02    0.96
  -5   3   0   68.20    3.36
  -9   1  -4   20.64    4.89
  -8   1  -4   43.05    5.77
  -7   1  -4   34.08    4.77
  -6   1  -4   69.37    6.75
  -5   1  -4   12.65    3.30
  -4   1  -4    2.47    2.45
  -3   1  -4   13.77    2.93
  -2   1  -4   35.65    3.58
  -1   1  -4  503.71   12.44
   0   1  -4  681.90   13.77
   0   4  -1   18.89    2.14
   1   1  -4  620.00   13.12
  -1   4  -1  302.38    8.54
  -2   4  -1  228.65    7.23
  -3   4  -1  687.27   14.64
  -4   4  -1  146.66    5.29
  -8   2  -5   15.80    3.65
  -7   2  -5   30.89    4.70
  -6   2  -5  211.52   12.13
  -5   2  -5  107.13    7.74
  -4   2  -5  128.18    7.77
  -3   2  -5    0.74    1.66
  -2   2  -5   34.57    4.75
  -1   2  -5  173.86    8.46
   1   5  -2   57.42    3.84
   0   2  -5   18.63    2.61
   0   5  -2  164.26    6.55
   1   2  -5    1.12    1.08
  -1   5  -2  192.62    7.35
   2   2  -5   92.95    5.54
  -2   5  -2  142.67    7.72
  -3   5  -2   68.41    5.31
  -7   3  -6   37.41    5.92
  -6   3  -6   22.25    4.54
  -5   3  -6    0.55    2.36
  -4   3  -6   48.48    5.20
  -3   3  -6  101.81    8.32
  -2   3  -6  103.59    8.44
   2   6  -3   32.26    3.18
  -1   3  -6    8.42    2.28
   1   6  -3  166.74    7.98
   0   3  -6    2.15    1.47
   0   6  -3  137.08    7.01
   1   3  -6   31.50    4.42
  -1   6  -3  143.23    8.15
   2   3  -6   29.24    3.73
  -2   6  -3  102.12    6.84
   3   3  -6    6.91    2.24
   4   3  -6   -1.08    1.39
   5   3  -6    2.43    2.09
  -6   4  -7    6.13    2.23
  -5   4  -7   35.81    4.91
  -4   4  -7   17.50    2.84
   4   7  -4   42.42    4.73
  -3   4  -7   36.80    5.17
   3   7  -4   50.07    4.59
  -2   4  -7    0.32    2.00
   2   7  -4   31.31    3.50
  -1   4  -7    2.86    1.48
   1   7  -4   29.47    3.58
   0   4  -7    1.97    1.72
   0   7  -4    3.46    1.66
   1   4  -7   14.13    2.92
  -1   7  -4   17.83    2.86
   2   4  -7    1.67    1.40
   3   4  -7    7.69    2.19
   4   4  -7    3.62    1.89
   5   4  -7   -0.20    1.31
   6   4  -7   -0.23    1.44
   7   4  -7    1.79    1.83
   7   8  -5    5.35    1.68
   6   8  -5    5.26    1.32
  -5   5  -8   10.06    2.75
   5   8  -5    3.23    1.37
  -4   5  -8    9.88    2.24
   4   8  -5    0.66    1.07
  -3   5  -8   23.44    4.13
   3   8  -5    3.51    1.53
  -2   5  -8    8.26    2.35
   2   8  -5   12.72    3.09
  -1   5  -8   11.82    3.01
   1   8  -5   25.40    3.72
   0   5  -8    1.59    2.31
   0   8  -5    2.61    1.54
   1   5  -8    0.71    1.32
   2   5  -8    1.04    1.30
   3   5  -8    8.86    2.83
   4   5  -8    5.78    2.19
   5   5  -8    6.69    2.67
   5   9  -6    2.09    1.13
  -4   6  -9    5.78    1.93
   4   9  -6    2.86    1.28
  -3   6  -9   18.32    3.30
   3   9  -6    3.06    1.65
  -2   6  -9   29.57    4.72
   2   9  -6    6.63    2.42
  -1   6  -9   22.96    3.88
   1   9  -6    2.59    2.19
   0   6  -9   10.92    2.46
   1   6  -9    1.24    1.79
   2   6  -9   -0.36    1.22
   3   6  -9    1.06    1.52
  -8  -2  -2    7.31    4.98
  -7  -2  -2   24.02    5.23
  -6  -2  -2   37.47    4.44
  -5  -2  -2  108.59    7.66
  -4  -2  -2  285.89    8.97
  -3  -2  -2  804.92   14.04
  -2  -2  -2 1675.16   19.38
  -1  -2  -2 1402.87   16.48
   0  -2  -2 2161.16   19.73
 -10  -1  -3   18.42    6.10
  -9  -1  -3   58.32    8.59
  -8  -1  -3  180.44   11.54
  -7  -1  -3  410.82   18.71
  -6  -1  -3  169.56   10.06
  -5  -1  -3  100.42    6.84
  -4  -3  -1  258.63    7.49
  -4  -1  -3   99.15    6.50
  -3  -3  -1  150.31    6.66
  -2  -1  -3    2.86    2.16
  -1  -1  -3   36.34    3.50
   0  -1  -3  704.55   11.01
   0   3   1  821.94   11.84
   1  -1  -3  384.84    8.66
 -11   0  -4    2.86    2.92
 -10   0  -4   20.05    5.80
  -9   0  -4   20.06    5.21
  -8   0  -4    3.68    2.69
  -7   0  -4   19.67    4.04
  -6   0  -4   85.50    7.21
  -5   0  -4  467.10   19.02
  -4   0  -4  231.56    9.29
  -3   0  -4  166.94    8.10
  -2   0  -4   41.68    4.41
  -1   0  -4   55.44    3.82
   0   0  -4   31.23    2.75
   0   4   0  106.75    4.08
   1   0  -4   27.27    2.68
  -1   4   0   63.40    2.56
  -2   4   0   47.41    2.30
  -3   4   0    4.96    0.76
  -4   4   0    1.83    0.54
 -10   1  -5    5.09    3.56
  -9   1  -5    3.88    2.04
  -8   1  -5    3.56    2.57
  -7   1  -5    7.78    2.75
  -6   1  -5   11.51    4.45
  -5   1  -5   -1.04    1.58
  -4   1  -5   17.73    3.35
  -3   1  -5   10.17    3.00
  -2   1  -5   19.40    3.17
  -1   1  -5   19.24    2.30
   1   5  -1   73.80    3.75
   0   1  -5   41.11    3.82
   0   5  -1   10.91    1.60
   1   1  -5    6.42    1.67
  -1   5  -1   26.66    2.75
   2   1  -5    0.81    1.12
  -2   5  -1   21.35    2.22
  -3   5  -1   21.48    2.54
  -9   2  -6    8.43    3.05
  -8   2  -6   10.98    3.61
  -7   2  -6   26.57    5.21
  -6   2  -6   69.70    7.70
  -5   2  -6   40.06    5.93
  -4   2  -6    3.17    2.46
  -3   2  -6    3.82    2.17
  -2   2  -6   50.99    5.55
   2   6  -2    2.85    1.38
  -1   2  -6   30.32    3.27
   1   6  -2   10.61    1.70
   0   2  -6    1.81    1.44
   0   6  -2    2.59    1.30
   1   2  -6   17.50    2.59
  -1   6  -2   24.70    3.50
   2   2  -6   90.01    6.67
  -2   6  -2   51.53    3.67
   3   2  -6   63.29    5.05
   4   2  -6   29.72    4.38
  -8   3  -7    6.22    3.08
  -7   3  -7    9.09    2.93
  -6   3  -7    6.39    2.43
  -5   3  -7   75.18    6.77
  -4   3  -7   82.12    5.88
  -3   3  -7  173.72   10.75
   3   7  -3    3.24    1.30
  -2   3  -7   96.98    8.10
   2   7  -3   24.23    3.14
  -1   3  -7   27.75    3.49
   1   7  -3  117.11    7.97
   0   3  -7    0.44    1.37
   0   7  -3  162.49    7.49
   1   3  -7   13.59    2.60
  -1   7  -3  244.93   11.69
   2   3  -7    6.96    2.43
   3   3  -7    2.69    2.06
   4   3  -7    2.71    1.89
   5   3  -7    8.87    2.31
   6   3  -7    3.27    1.80
   7   3  -7    2.87    2.29
  -7   4  -8    7.05    2.87
  -6   4  -8    5.71    2.86
  -5   4  -8    4.91    2.17
   5   8  -4    6.82    1.83
  -4   4  -8    4.00    1.60
   4   8  -4    6.83    1.59
  -3   4  -8   14.49    3.44
   3   8  -4   24.19    3.60
  -2   4  -8   38.97    5.64
   2   8  -4   42.14    4.37
  -1   4  -8   50.10    5.65
   1   8  -4   22.77    3.50
   0   4  -8   15.78    2.99
   0   8  -4    5.89    1.80
   1   4  -8   29.39    4.25
   2   4  -8    7.56    2.02
   3   4  -8    0.22    1.35
   4   4  -8    2.39    1.76
   5   4  -8    1.36    2.16
   6   4  -8    3.21    2.08
   6   9  -5    4.50    1.37
  -5   5  -9    9.36    2.59
   5   9  -5    1.39    1.06
  -4   5  -9    7.38    2.10
   4   9  -5    2.58    1.19
  -3   5  -9   11.06    3.04
   3   9  -5    4.84    1.46
  -2   5  -9    6.27    2.27
   2   9  -5    4.59    2.21
  -1   5  -9   12.76    2.81
   1   9  -5   -0.37    1.63
   0   5  -9    8.21    2.13
   1   5  -9    6.15    1.98
   2   5  -9    3.16    1.86
   3   5  -9    1.94    1.36
   4   5  -9   -1.01    2.42
  -3   6 -10    2.36    1.56
   3  10  -6   -0.53    1.81
  -2   6 -10    3.70    1.81
  -1   6 -10    2.83    2.63
   0   6 -10    3.60    2.26
   1   6 -10    4.54    1.93
 -10  -2  -3    4.99    3.67
  -9  -2  -3   21.32    5.11
  -8  -3  -2   30.71    3.92
  -8  -2  -3   62.83    8.87
  -7  -3  -2  121.64   12.52
  -7  -2  -3  207.04   13.86
  -6  -3  -2   56.61    6.52
  -6  -2  -3  208.38   13.57
  -5  -3  -2  117.74    7.20
  -5  -2  -3  169.19    8.94
  -4  -3  -2   78.97    5.63
  -3  -3  -2    8.70    1.80
  -3  -2  -3  138.47    8.05
  -2  -3  -2  572.19    9.32
  -2  -2  -3   56.94    4.66
  -1  -3  -2  575.96    7.38
  -1  -2  -3   10.60    2.02
   0  -3  -2 2707.01   28.94
   0  -2  -3   69.33    3.28
   1  -2  -3  484.22    8.19
 -11  -1  -4    3.17    4.62
 -10  -1  -4   18.82    6.74
  -9  -1  -4   13.04    4.25
  -8  -1  -4   86.94   11.50
  -7  -1  -4    3.61    3.72
  -6  -1  -4   49.24    6.21
  -5  -1  -4  269.69   12.06
  -4  -1  -4  756.30   20.58
  -3  -1  -4  698.69   17.48
  -2  -1  -4   67.40    5.21
  -1  -1  -4   10.28    2.35
   0  -1  -4  301.30    8.67
   0   4   1   24.82    1.24
   1  -1  -4  126.26    5.60
  -2   4   1    2.45    0.53
 -11   0  -5   25.11    6.89
 -10   0  -5   13.18    4.54
  -9   0  -5   10.52    3.81
  -8   0  -5    3.99    2.61
  -7   0  -5   31.35    5.43
  -6   0  -5  164.37   11.42
  -5   0  -5  228.19   11.89
  -4   0  -5  154.49    9.79
  -3   0  -5   17.29    2.69
  -2   0  -5    2.62    2.06
  -1   0  -5   71.95    4.66
   0   0  -5   45.62    4.01
   0   5   0    9.57    1.33
   1   0  -5    1.79    1.18
  -1   5   0   97.75    3.76
   2   0  -5   17.60    2.39
  -2   5   0    4.95    1.01
 -10   1  -6   26.94    7.00
  -9   1  -6    6.46    3.17
  -8   1  -6    3.95    2.93
  -7   1  -6    6.19    2.91
  -6   1  -6   21.61    4.84
  -5   1  -6   22.41    4.80
  -4   1  -6   89.47    7.51
  -3   1  -6   57.69    4.80
  -2   1  -6   63.25    6.39
  -1   1  -6    6.13    1.86
   1   6  -1   96.21    4.76
   0   1  -6    7.69    2.23
   0   6  -1   52.37    3.61
   1   1  -6   11.77    2.30
  -1   6  -1   23.84    2.71
   2   1  -6   11.71    2.81
   3   1  -6   19.17    2.91
  -9   2  -7   14.23    4.24
  -8   2  -7   29.60    5.58
  -7   2  -7   10.27    3.31
  -6   2  -7   26.23    4.26
  -5   2  -7   38.42    4.98
  -4   2  -7   87.53    6.05
  -3   2  -7  180.01   10.74
  -2   2  -7  196.50   11.41
   2   7  -2    1.41    0.94
  -1   2  -7   41.40    3.92
   1   7  -2   25.28    2.74
   0   2  -7   13.52    2.69
   0   7  -2   27.05    3.06
   1   2  -7    0.78    1.60
   2   2  -7    2.47    2.09
   3   2  -7    1.10    2.01
   4   2  -7    2.10    1.53
   5   2  -7    3.40    1.65
   6   2  -7   12.16    2.74
   7   2  -7   12.82    3.17
  -8   3  -8   14.72    4.99
  -7   3  -8   20.32    4.60
  -6   3  -8    9.18    3.40
  -5   3  -8    5.31    2.34
  -4   3  -8    2.27    2.21
   4   8  -3   16.00    2.74
  -3   3  -8    3.23    2.24
   3   8  -3    3.37    1.18
  -2   3  -8   23.40    4.64
   2   8  -3    2.78    1.36
  -1   3  -8   67.57    5.65
   1   8  -3   19.11    2.97
   0   3  -8   81.16    6.08
   1   3  -8   70.44    6.50
   2   3  -8   24.33    4.50
   3   3  -8    5.25    2.25
   4   3  -8    0.93    1.56
   5   3  -8    2.47    2.05
   6   3  -8    3.72    2.28
  -7   4  -9   15.29    3.43
  -6   4  -9   26.03    5.17
   6   9  -4    9.80    2.09
  -5   4  -9   12.06    2.86
   5   9  -4    2.96    0.99
  -4   4  -9    7.96    2.64
   4   9  -4    0.08    1.06
  -3   4  -9    5.37    2.41
   3   9  -4    0.08    1.14
  -2   4  -9    2.34    1.77
   2   9  -4    3.12    2.08
  -1   4  -9    4.15    2.20
   0   4  -9    3.19    2.14
   1   4  -9    0.06    1.58
   2   4  -9    8.81    2.56
   3   4  -9    9.25    2.97
   4   4  -9    4.65    2.68
   5   4  -9    3.90    2.82
  -5   5 -10    6.55    2.58
   5  10  -5    1.87    1.11
  -4   5 -10    5.78    2.39
   4  10  -5    1.69    1.34
  -3   5 -10    8.31    2.75
   3  10  -5    7.24    1.95
  -2   5 -10    2.97    2.44
  -1   5 -10    4.92    1.98
   0   5 -10    1.19    1.67
   1   5 -10    0.04    2.35
   2   5 -10    0.86    1.66
 -10  -3  -3    1.78    2.39
  -9  -3  -3    8.89    5.79
  -8  -3  -3   14.98    5.51
  -7  -3  -3   12.49    3.55
  -6  -3  -3    5.14    2.36
  -5  -3  -3   46.85    4.64
  -4  -3  -3   56.15    4.52
  -3  -3  -3  494.92   12.00
  -2  -3  -3   78.91    4.55
  -1  -3  -3    3.09    1.55
   0  -3  -3    2.09    0.97
   1  -3  -3   11.65    1.36
 -11  -2  -4   10.52    7.83
 -10  -2  -4    3.29    5.20
  -9  -2  -4    3.57    3.24
  -8  -2  -4    5.32    3.44
  -7  -4  -2  104.71    6.56
  -7  -2  -4    6.70    3.24
  -6  -4  -2  789.22   28.88
  -6  -2  -4   42.23    5.26
  -5  -4  -2  317.36   10.83
  -5  -2  -4    7.71    2.71
  -4  -4  -2  341.61   12.09
  -4  -2  -4   27.89    4.36
  -3  -4  -2   54.35    4.93
  -3  -2  -4   89.16    5.83
  -2  -4  -2   43.49    3.81
  -2  -2  -4  160.95    6.63
  -1  -4  -2   16.10    2.54
  -1  -2  -4   12.90    2.48
   0  -2  -4   -0.43    1.02
   1  -2  -4  174.82    6.13
   2  -2  -4  248.87    8.86
 -11  -1  -5   10.75    6.05
 -10  -1  -5    6.52    4.10
  -9  -1  -5   12.99    5.72
  -8  -1  -5   10.28    4.42
  -7  -1  -5   47.81    7.04
  -6  -1  -5  194.40   11.89
  -5  -1  -5  321.91   14.48
  -4  -1  -5  677.99   20.58
  -3  -1  -5  210.15    9.70
  -2  -1  -5   47.65    4.37
  -1  -1  -5   95.19    5.90
   0  -1  -5   92.06    5.24
   0   5   1 1038.93   12.41
   1  -1  -5   42.73    3.55
   2  -1  -5   10.64    1.90
 -11   0  -6   46.70    8.54
 -10   0  -6   61.79   10.37
  -9   0  -6   10.45    3.77
  -8   0  -6    5.07    3.56
  -7   0  -6    3.92    2.94
  -6   0  -6    9.66    3.62
  -5   0  -6    4.57    3.36
  -4   0  -6   72.24    6.26
  -3   0  -6  363.39   12.49
  -2   0  -6  688.23   19.17
  -1   0  -6  336.92   10.66
   1   6   0  195.05    5.93
   0   0  -6  267.26   10.10
   0   6   0   18.54    1.92
   1   0  -6    5.76    1.72
  -1   6   0    9.26    1.22
   2   0  -6    0.17    1.44
   3   0  -6   -0.51    1.21
   4   0  -6    4.36    2.30
 -10   1  -7   36.47    7.19
  -9   1  -7   40.95    6.73
  -8   1  -7  125.77   11.17
  -7   1  -7   41.70    6.16
  -6   1  -7   59.83    5.99
  -5   1  -7   24.79    4.38
  -4   1  -7   10.14    2.32
  -3   1  -7    0.39    2.23
  -2   1  -7   14.02    3.52
   2   7  -1   23.80    2.86
  -1   1  -7   42.14    4.21
   1   7  -1    7.75    1.54
   0   1  -7  125.04    7.57
   0   7  -1   11.29    1.99
   1   1  -7   32.13    4.30
   2   1  -7   58.21    5.56
   3   1  -7    0.65    1.93
   4   1  -7    0.77    1.51
   5   1  -7    0.63    1.27
   6   1  -7    2.61    2.10
   7   1  -7    4.45    2.32
  -9   2  -8    2.87    2.39
  -8   2  -8    0.92    3.10
  -7   2  -8   18.34    4.46
  -6   2  -8   39.57    6.19
  -5   2  -8   19.95    3.78
  -4   2  -8   14.65    3.61
  -3   2  -8    7.54    2.28
   3   8  -2    5.63    1.76
  -2   2  -8   22.89    4.38
   2   8  -2    9.33    2.13
  -1   2  -8    6.77    2.05
   1   8  -2   10.86    2.06
   0   2  -8    7.49    2.56
   1   2  -8   61.12    6.28
   2   2  -8   41.55    5.96
   3   2  -8   11.36    3.01
   4   2  -8    2.52    1.87
   5   2  -8    2.60    1.88
   6   2  -8    4.58    2.18
  -8   3  -9    4.23    2.51
  -7   3  -9    3.82    1.94
  -6   3  -9   10.57    3.45
  -5   3  -9    9.23    2.62
   5   9  -3   17.75    2.79
  -4   3  -9   19.74    4.03
   4   9  -3   29.93    3.40
  -3   3  -9    2.93    2.12
   3   9  -3   31.51    3.97
  -2   3  -9    5.60    2.75
   2   9  -3   12.40    2.41
  -1   3  -9   15.92    3.47
   0   3  -9    4.66    2.42
   1   3  -9    3.25    2.15
   2   3  -9    1.67    2.23
   3   3  -9    9.89    3.64
   4   3  -9    6.21    2.26
   5   3  -9    5.40    2.65
  -6   4 -10   12.09    3.35
   6  10  -4    8.54    1.59
  -5   4 -10    4.51    2.16
   5  10  -4    2.75    1.34
  -4   4 -10    3.07    2.07
   4  10  -4    3.63    1.36
  -3   4 -10    8.05    2.72
   3  10  -4    1.87    1.48
  -2   4 -10   10.50    2.94
  -1   4 -10    2.89    1.56
   0   4 -10    2.97    1.58
   1   4 -10    6.62    2.26
   2   4 -10    6.90    3.11
   3   4 -10    3.44    2.93
  -3   5 -11   10.86    2.78
  -2   5 -11    3.92    1.73
  -1   5 -11   -0.73    2.22
 -11  -3  -4    8.62    5.06
 -10  -3  -4   10.84    4.50
  -9  -4  -3   19.37    5.79
  -9  -3  -4   31.11    6.41
  -8  -4  -3   75.77    8.10
  -8  -3  -4   25.30    6.47
  -7  -4  -3  206.10   16.39
  -7  -3  -4    9.06    5.31
  -6  -4  -3  119.00    8.37
  -6  -3  -4   37.71    6.19
  -5  -4  -3   32.73    4.82
  -5  -3  -4  112.10    7.90
  -4  -4  -3   59.21    6.17
  -4  -3  -4  213.61   10.03
  -3  -4  -3  213.52    8.35
  -3  -3  -4  428.58   12.75
  -2  -4  -3  242.21    6.05
  -2  -3  -4   73.60    5.26
  -1  -4  -3   83.78    2.99
  -1  -3  -4   21.05    2.51
   0  -4  -3  149.24    3.54
   0  -3  -4   20.17    2.19
   1  -4  -3    7.21    1.07
   1  -3  -4    7.50    1.32
   2  -3  -4    3.44    1.23
 -12  -2  -5   29.20   11.81
 -11  -2  -5   35.68    9.97
 -10  -2  -5   45.84    7.67
  -9  -2  -5   64.53   10.33
  -8  -2  -5   34.55    7.32
  -7  -2  -5   30.66    5.31
  -6  -2  -5   23.22    4.67
  -5  -2  -5  224.87   13.65
  -4  -2  -5  124.11    7.15
  -3  -2  -5   46.93    4.30
  -2  -2  -5  208.21    7.95
  -1  -2  -5   50.71    3.68
   0  -2  -5    2.15    1.37
   1  -2  -5   -0.42    0.76
   2  -2  -5    1.21    1.34
   3  -2  -5   43.05    4.34
 -11  -1  -6   15.81    5.35
 -10  -1  -6   26.84    7.56
  -9  -1  -6   46.22    8.63
  -8  -1  -6   25.16    5.47
  -7  -1  -6   24.48    5.30
  -6  -1  -6    3.42    3.14
  -5  -1  -6    8.25    2.93
  -4  -1  -6   83.25    6.54
  -3  -1  -6  329.25   14.02
  -2  -1  -6  429.59   14.11
  -1  -1  -6  447.63   13.10
   0  -1  -6  295.55   10.34
   0   6   1  399.87    7.64
   1  -1  -6  255.08   11.16
   2  -1  -6    2.61    1.87
   3  -1  -6    1.09    1.39
   4  -1  -6   18.72    3.43
 -11   0  -7    6.26    6.45
 -10   0  -7   11.56    5.59
  -9   0  -7   23.58    5.20
  -8   0  -7   97.99   10.35
  -7   0  -7   91.73    9.50
  -6   0  -7  160.90   10.11
  -5   0  -7   35.09    5.67
  -4   0  -7    3.08    2.14
  -3   0  -7   17.15    2.96
  -2   0  -7   -0.11    2.58
  -1   0  -7    1.66    1.60
   1   7   0  145.48    5.63
   0   0  -7   42.10    4.59
   1   0  -7   59.80    4.99
   2   0  -7  140.56    8.32
   3   0  -7   71.43    6.32
   4   0  -7   15.08    3.12
   5   0  -7    0.76    1.31
   6   0  -7    1.01    1.31
 -10   1  -8   10.64    3.53
  -9   1  -8    8.49    2.99
  -8   1  -8   11.26    4.72
  -7   1  -8    5.45    3.06
  -6   1  -8    9.09    3.66
  -5   1  -8   15.69    3.41
  -4   1  -8   82.25    6.50
  -3   1  -8  108.26    8.24
  -2   1  -8   12.04    3.34
   2   8  -1   50.99    4.06
  -1   1  -8    0.56    1.39
   1   8  -1  119.46    7.16
   0   1  -8    0.82    1.83
   1   1  -8    3.50    2.40
   2   1  -8    4.34    2.78
   3   1  -8    1.68    2.04
   4   1  -8    5.05    2.33
   5   1  -8    1.89    1.80
   6   1  -8    2.52    2.00
  -9   2  -9    9.72    3.83
  -8   2  -9    2.60    2.16
  -7   2  -9    9.08    2.66
  -6   2  -9   10.01    3.54
  -5   2  -9   12.03    3.07
  -4   2  -9    5.18    2.43
   4   9  -2   24.24    3.16
  -3   2  -9    7.69    2.38
   3   9  -2    5.90    1.67
  -2   2  -9    3.71    2.66
   2   9  -2    2.28    1.53
  -1   2  -9    7.73    2.69
   0   2  -9    1.36    2.87
   1   2  -9    6.17    2.61
   2   2  -9    1.30    1.87
   3   2  -9   -1.39    2.48
   4   2  -9    1.00    1.73
   5   2  -9    1.54    2.17
  -7   3 -10    7.53    2.38
  -6   3 -10    5.70    2.54
   6  10  -3    5.72    1.54
  -5   3 -10    7.92    2.77
   5  10  -3    5.54    1.31
  -4   3 -10    7.83    2.67
   4  10  -3    8.54    1.90
  -3   3 -10    3.55    2.29
  -2   3 -10   -0.03    1.67
  -1   3 -10    0.15    1.71
   0   3 -10    1.35    1.38
   1   3 -10    3.91    2.28
   2   3 -10    7.62    3.07
   3   3 -10   10.50    3.60
   4   3 -10    1.84    2.24
  -5   4 -11    7.75    2.56
   5  11  -4    4.49    1.65
  -4   4 -11   14.10    3.34
  -3   4 -11   21.52    4.23
  -2   4 -11   10.07    2.87
  -1   4 -11    7.95    2.95
   0   4 -11    2.17    1.94
   1   4 -11    0.63    1.48
 -11  -4  -4   10.24    3.20
 -10  -4  -4    0.13    5.21
  -9  -4  -4    1.81    4.77
  -8  -4  -4   55.15    7.51
  -7  -4  -4   12.38    5.04
  -6  -4  -4    5.82    2.98
  -5  -4  -4  200.91   10.99
  -4  -4  -4 1044.65   21.39
  -3  -4  -4  713.19   14.79
  -2  -4  -4 1028.47   17.53
  -1  -4  -4  275.21    7.06
   0  -4  -4    1.69    1.23
   1  -4  -4   72.51    3.64
   2  -4  -4   48.07    3.19
 -12  -3  -5    4.59    6.86
 -11  -3  -5   41.35    9.71
 -10  -3  -5   94.06   11.17
  -9  -3  -5  170.55   16.08
  -8  -5  -3    5.25    3.87
  -8  -3  -5  127.72   10.86
  -7  -5  -3  149.36   12.27
  -7  -5  -3  149.54   12.27
  -7  -3  -5   68.39    7.75
  -6  -5  -3  154.74   10.98
  -6  -3  -5    4.93    3.77
  -5  -5  -3  226.46   12.65
  -5  -3  -5   19.37    4.04
  -4  -5  -3   18.86    2.60
  -4  -3  -5   49.28    5.72
  -3  -5  -3   56.95    3.89
  -3  -3  -5  188.59    9.82
  -2  -5  -3  165.69    5.46
  -2  -3  -5  259.93    8.27
  -1  -5  -3  181.32    4.02
  -1  -3  -5  367.30   10.69
   0  -3  -5  760.43   16.85
   1  -3  -5  239.04    7.61
   2  -3  -5   71.52    4.82
   3  -3  -5   13.02    2.26
 -12  -2  -6   10.18    7.53
 -11  -2  -6    7.33    4.07
 -10  -2  -6   14.49    6.06
  -9  -2  -6   14.07    5.60
  -8  -2  -6   36.62    6.16
  -7  -2  -6  156.09   11.60
  -6  -2  -6  261.37   17.22
  -5  -2  -6  238.86   13.44
  -4  -2  -6   63.13    7.15
  -3  -2  -6   27.48    3.39
  -2  -2  -6    3.71    2.26
  -1  -2  -6  212.89    8.64
   0  -2  -6  121.98    6.31
   1  -2  -6  110.61    6.50
   2  -2  -6   55.08    4.38
   3  -2  -6   14.81    2.61
   4  -2  -6   -1.49    1.22
 -11  -1  -7   16.51    5.65
 -10  -1  -7    9.22    5.10
  -9  -1  -7    5.55    3.16
  -8  -1  -7    8.16    3.43
  -7  -1  -7   21.62    6.29
  -6  -1  -7   49.48    6.70
  -5  -1  -7   18.67    4.88
  -4  -1  -7   22.78    4.67
  -3  -1  -7    1.96    1.95
  -2  -1  -7    2.15    2.30
  -1  -1  -7   11.08    2.56
   1   7   1   21.37    1.83
   0  -1  -7    5.05    2.03
   1  -1  -7   26.07    3.41
   2  -1  -7   67.89    5.37
   3  -1  -7   66.27    6.19
   5  -1  -7    6.85    2.13
 -10   0  -8    3.74    2.46
  -9   0  -8   11.23    3.65
  -8   0  -8   15.60    4.62
  -7   0  -8    8.89    3.48
  -6   0  -8    8.08    3.61
  -5   0  -8   37.72    4.83
  -4   0  -8   47.04    4.86
  -3   0  -8   47.38    6.09
  -2   0  -8   36.99    5.58
   2   8   0   13.52    2.04
  -1   0  -8    0.54    1.79
   0   0  -8    7.75    2.11
   1   0  -8   58.97    6.11
   2   0  -8   69.33    7.47
   3   0  -8    4.77    2.51
   4   0  -8    0.56    1.67
   5   0  -8    6.22    2.30
   6   0  -8    6.70    2.46
 -10   1  -9    0.02    3.04
  -9   1  -9    3.95    3.24
  -8   1  -9    7.08    2.88
  -7   1  -9    8.35    2.58
  -6   1  -9   38.75    6.17
  -5   1  -9   61.28    6.36
  -4   1  -9   95.97    8.30
  -3   1  -9    4.19    2.11
   3   9  -1   23.60    3.08
  -2   1  -9   -0.35    3.13
  -1   1  -9    6.97    3.19
   0   1  -9    6.19    3.07
   1   1  -9    2.25    2.19
   2   1  -9    2.34    2.04
   3   1  -9    8.23    3.38
   4   1  -9    6.60    2.36
   5   1  -9    3.32    2.33
  -8   2 -10    6.43    2.86
  -7   2 -10    3.59    1.95
  -6   2 -10    2.50    1.98
  -5   2 -10    8.04    2.69
  -4   2 -10   12.68    3.22
   4  10  -2   15.62    2.43
  -3   2 -10   24.55    3.68
  -2   2 -10   48.34    5.74
  -1   2 -10   15.22    3.60
   0   2 -10    5.02    2.60
   1   2 -10    4.51    2.47
   2   2 -10    2.46    2.61
   3   2 -10    1.63    2.42
   4   2 -10    2.15    2.69
  -6   3 -11   11.90    3.01
   6  11  -3    3.84    0.97
  -5   3 -11    7.58    2.78
   5  11  -3    2.80    1.50
  -4   3 -11    9.61    2.93
  -3   3 -11   14.46    3.48
  -2   3 -11    7.57    2.49
  -1   3 -11    5.63    1.83
   0   3 -11    6.12    2.69
   1   3 -11   -1.43    2.65
   2   3 -11    0.14    2.35
 -12  -4  -5    6.36    4.52
 -11  -4  -5    6.67    4.13
 -10  -5  -4   21.22    7.30
 -10  -4  -5   45.94    9.34
  -9  -5  -4   47.79    7.20
  -9  -4  -5   80.02   11.29
  -8  -5  -4   57.72   11.34
  -8  -4  -5  188.22   16.20
  -7  -5  -4   22.00    4.73
  -7  -4  -5  173.69   12.72
  -6  -5  -4   23.69    5.10
  -6  -4  -5    8.96    3.38
  -5  -5  -4    3.67    3.48
  -5  -4  -5   15.75    3.57
  -4  -5  -4  288.23   11.79
  -4  -4  -5   31.16    4.54
  -3  -5  -4  258.03    8.00
  -3  -4  -5   58.26    5.04
  -2  -5  -4  472.87    9.37
  -2  -4  -5   47.82    4.25
  -1  -5  -4  220.62    6.32
  -1  -4  -5  110.27    5.95
   0  -5  -4  313.19    6.54
   0  -4  -5  651.53   12.52
   1  -4  -5  406.52   10.51
   2  -4  -5  301.30    8.82
 -12  -3  -6    4.14    7.09
 -11  -3  -6    6.02    3.90
 -10  -3  -6   18.35    6.17
  -9  -3  -6    4.01    3.39
  -8  -3  -6    1.17    3.44
  -7  -6  -3   18.19    4.24
  -7  -3  -6  132.26   11.78
  -6  -6  -3    5.66    3.43
  -6  -3  -6  257.42   13.97
  -5  -6  -3   39.03    7.50
  -5  -3  -6  773.51   23.43
  -4  -6  -3  122.45    9.99
  -4  -3  -6  257.74   12.78
  -3  -6  -3  117.55    6.60
  -3  -3  -6   67.62    5.62
  -2  -3  -6    2.21    2.04
  -1  -3  -6   79.76    6.85
   0  -3  -6   52.05    5.12
   1  -3  -6    8.70    2.38
   2  -3  -6   20.96    2.80
   3  -3  -6   54.33    4.83
 -11  -2  -7   24.66    6.60
 -10  -2  -7    5.21    4.36
  -9  -2  -7    4.52    2.91
  -8  -2  -7   32.00    6.10
  -7  -2  -7   56.23    7.57
  -6  -2  -7   39.81    6.25
  -5  -2  -7   24.12    5.71
  -4  -2  -7    4.49    2.62
  -3  -2  -7  209.90   11.50
  -2  -2  -7   48.35    4.71
  -1  -2  -7   30.78    4.22
   0  -2  -7    5.68    2.06
   1  -2  -7    1.64    2.06
   2  -2  -7    2.41    1.54
   3  -2  -7    1.72    1.54
   4  -2  -7    2.92    1.93
 -11  -1  -8    7.93    3.71
 -10  -1  -8    3.85    2.78
  -9  -1  -8    0.69    2.98
  -8  -1  -8    5.38    2.84
  -7  -1  -8    1.20    2.75
  -6  -1  -8    5.47    3.20
  -5  -1  -8   37.01    5.31
  -4  -1  -8   17.48    3.36
  -3  -1  -8   16.70    3.85
  -2  -1  -8    2.55    2.68
  -1  -1  -8    3.93    2.77
   0  -1  -8    2.79    2.17
   1  -1  -8   26.08    4.44
   2  -1  -8   22.37    4.43
   3  -1  -8    9.78    2.68
   4  -1  -8    2.13    1.71
   5  -1  -8    3.63    2.30
 -10   0  -9    4.84    3.52
  -9   0  -9    6.77    3.47
  -8   0  -9   15.56    4.01
  -7   0  -9   13.89    3.57
  -6   0  -9   50.26    7.03
  -5   0  -9   43.19    5.41
  -4   0  -9   40.62    5.46
  -3   0  -9   76.25    7.11
  -2   0  -9   32.60    5.88
  -1   0  -9    2.07    2.83
   0   0  -9    3.16    3.49
   1   0  -9   13.35    3.39
   2   0  -9    3.68    2.28
   3   0  -9    8.04    3.37
   4   0  -9    8.07    2.33
   5   0  -9    8.25    2.93
  -9   1 -10   18.46    4.54
  -8   1 -10    8.06    3.15
  -7   1 -10    3.38    2.18
  -6   1 -10    2.87    2.30
  -5   1 -10    2.53    2.08
  -4   1 -10   15.79    3.82
   4  10  -1   14.18    2.38
  -3   1 -10   31.88    4.93
  -2   1 -10   50.54    6.17
  -1   1 -10   66.59    7.00
   0   1 -10   35.26    4.85
   1   1 -10   16.29    3.61
   2   1 -10    1.66    2.38
   3   1 -10    2.02    2.38
   4   1 -10    3.85    2.73
  -7   2 -11   20.81    4.28
  -6   2 -11   12.43    2.99
   6  11  -2    4.29    1.48
  -5   2 -11    3.80    2.17
  -4   2 -11    5.59    2.35
  -3   2 -11    3.25    1.95
  -2   2 -11    0.65    1.69
  -1   2 -11    1.51    1.85
   0   2 -11    5.61    2.63
   1   2 -11   10.47    4.51
   2   2 -11    3.21    2.94
   3   2 -11    2.28    2.83
  -4   3 -12    5.80    2.48
  -3   3 -12    3.23    2.02
  -2   3 -12    2.30    1.56
  -1   3 -12    0.40    2.40
 -11  -5  -5    3.89    6.40
 -10  -5  -5    5.23    6.54
  -9  -5  -5    5.10    3.92
  -8  -5  -5    4.00    5.26
  -7  -5  -5    3.88    5.35
  -6  -5  -5  212.78   13.90
  -5  -5  -5   60.68    5.53
  -4  -5  -5   84.72    6.21
  -3  -5  -5   52.09    5.03
  -2  -5  -5   22.72    2.97
  -1  -5  -5   24.25    2.72
   0  -5  -5  117.22    4.87
 -12  -4  -6    9.73    6.11
 -11  -4  -6    6.37    4.58
 -10  -4  -6   12.36    5.51
  -9  -6  -4   79.22   12.38
  -9  -4  -6   -3.59    5.28
  -8  -6  -4  162.36   12.15
  -8  -4  -6    1.46    5.23
  -7  -6  -4  367.61   20.61
  -7  -4  -6    6.82    4.02
  -6  -6  -4  182.66   10.33
  -6  -4  -6    9.52    3.37
  -5  -6  -4   68.42    5.57
  -5  -4  -6   66.54    7.97
  -4  -6  -4   44.88    4.46
  -4  -4  -6  200.20   11.17
  -3  -6  -4   36.54    3.14
  -3  -4  -6   39.41    5.09
  -2  -6  -4   12.75    1.50
  -2  -4  -6    6.78    2.04
  -1  -6  -4   85.01    2.97
  -1  -4  -6   83.05    5.72
   0  -4  -6  134.38    7.36
   1  -4  -6   55.82    4.48
 -12  -3  -7    6.54    4.25
 -11  -3  -7   14.09    5.72
 -10  -3  -7   -1.03    2.78
  -9  -3  -7   13.59    4.56
  -8  -3  -7   42.97    7.77
  -7  -3  -7   65.73    8.57
  -6  -3  -7  202.52   12.95
  -5  -3  -7   30.09    4.64
  -4  -3  -7   17.72    4.56
  -3  -3  -7   17.82    3.00
  -2  -3  -7  105.67    8.00
  -1  -3  -7  124.72    8.63
   0  -3  -7   39.72    3.91
   1  -3  -7    8.60    2.29
   2  -3  -7   58.15    6.13
   3  -3  -7   74.76    6.25
 -11  -2  -8   21.42    5.51
 -10  -2  -8    5.55    3.50
  -9  -2  -8    4.03    3.73
  -8  -2  -8   31.81    6.29
  -7  -2  -8    2.39    3.14
  -6  -2  -8    7.78    3.08
  -5  -2  -8   61.00    8.00
  -4  -2  -8  212.48   12.06
  -3  -2  -8  162.99    9.84
  -2  -2  -8  147.55    9.28
  -1  -2  -8   33.22    4.25
   0  -2  -8    2.84    2.99
   1  -2  -8   -0.52    1.85
   2  -2  -8   14.51    3.13
   3  -2  -8    0.21    1.57
 -11  -1  -9   13.20    4.55
 -10  -1  -9   28.72    6.56
  -9  -1  -9   44.74    7.35
  -8  -1  -9  115.41   12.45
  -7  -1  -9   27.14    5.42
  -6  -1  -9    4.78    3.37
  -5  -1  -9    8.21    2.86
  -4  -1  -9    9.53    2.94
  -3  -1  -9   14.50    4.41
  -2  -1  -9   35.89    5.22
  -1  -1  -9   43.99    5.90
   0  -1  -9   40.85    5.67
   1  -1  -9    2.28    2.47
   2  -1  -9    9.32    3.18
   3  -1  -9    3.62    3.07
   4  -1  -9    1.48    1.65
 -10   0 -10    2.97    2.46
  -9   0 -10    9.44    3.64
  -8   0 -10   11.00    3.60
  -7   0 -10   10.06    3.01
  -6   0 -10   22.70    4.62
  -5   0 -10   24.28    4.50
  -4   0 -10    5.02    2.75
  -3   0 -10   30.50    4.97
  -2   0 -10   20.94    4.73
  -1   0 -10   35.90    5.48
   0   0 -10   27.51    4.22
   1   0 -10   18.19    3.58
   2   0 -10    7.85    3.06
   3   0 -10    4.02    2.90
   4   0 -10    2.73    3.05
  -8   1 -11    5.84    2.96
  -7   1 -11    7.39    3.15
  -6   1 -11    7.29    2.43
  -5   1 -11    3.27    2.05
  -4   1 -11    4.27    2.31
  -3   1 -11    1.91    1.98
  -2   1 -11    8.84    3.47
  -1   1 -11    3.23    2.19
   0   1 -11    0.58    2.04
   1   1 -11    4.93    3.99
   2   1 -11   12.41    3.70
   3   1 -11    8.98    3.42
  -6   2 -12    0.08    1.53
  -5   2 -12    2.11    1.71
  -4   2 -12    5.28    2.37
  -3   2 -12    6.87    2.84
  -2   2 -12    3.23    2.05
  -1   2 -12    2.47    3.86
   0   2 -12    3.00    3.68
   1   2 -12   -0.87    2.52
 -12  -5  -6   -0.70    5.51
 -11  -6  -5    9.99    4.86
 -11  -5  -6   11.16    8.15
 -10  -6  -5    1.94    4.91
 -10  -5  -6   21.62    5.79
  -9  -6  -5   90.34   15.40
  -9  -5  -6   26.91    7.36
  -8  -6  -5   18.41    5.35
  -8  -5  -6    5.91    4.17
  -7  -6  -5   33.63    6.86
  -7  -5  -6   21.26    6.01
  -6  -6  -5    1.18    3.38
  -6  -5  -6   43.14    6.32
  -5  -6  -5   87.26    6.39
  -5  -5  -6   44.91    5.58
  -4  -6  -5  259.13   10.82
  -4  -5  -6   76.41    7.69
  -3  -6  -5  385.82    9.76
  -3  -5  -6    7.62    2.36
  -2  -6  -5   89.77    3.86
  -2  -5  -6   24.50    3.94
  -1  -6  -5   18.47    2.01
  -1  -5  -6    6.90    1.58
   0  -5  -6   13.50    2.21
 -12  -4  -7   12.79    6.15
 -11  -4  -7   20.39    7.07
 -10  -4  -7   53.16   12.00
  -9  -4  -7   15.12    6.34
  -8  -7  -4   32.51    4.18
  -8  -4  -7   15.37    5.36
  -7  -7  -4  294.50   20.67
  -7  -4  -7   -0.17    3.21
  -6  -7  -4  219.91   11.70
  -6  -4  -7   49.35    7.35
  -5  -7  -4  185.79    9.36
  -5  -4  -7   72.93    7.40
  -4  -7  -4    4.06    1.86
  -4  -4  -7   83.00    8.01
  -3  -7  -4   12.11    3.04
  -3  -4  -7   23.20    3.44
  -2  -4  -7   21.19    3.90
  -1  -4  -7    6.60    2.12
   0  -4  -7    9.70    2.68
   1  -4  -7   -0.37    1.48
 -11  -3  -8   19.18    6.33
 -10  -3  -8   10.43    4.88
  -9  -3  -8    6.89    4.03
  -8  -3  -8    5.93    3.92
  -7  -3  -8    4.77    5.96
  -6  -3  -8   -2.05    3.86
  -5  -3  -8   40.51    6.83
  -4  -3  -8  101.00    7.12
  -3  -3  -8  230.21   10.41
  -2  -3  -8  298.17   13.44
  -1  -3  -8  246.22   13.03
   0  -3  -8   32.62    3.87
   1  -3  -8    1.01    2.30
   2  -3  -8   32.19    4.72
 -11  -2  -9   10.93    5.44
 -10  -2  -9   34.71    6.96
  -9  -2  -9   81.28    9.93
  -8  -2  -9  107.54   12.94
  -7  -2  -9   17.11    4.95
  -6  -2  -9   47.70    7.00
  -5  -2  -9   -0.76    2.63
  -4  -2  -9    3.86    2.38
  -3  -2  -9    5.71    2.79
  -2  -2  -9   22.04    4.44
  -1  -2  -9   38.04    4.52
   0  -2  -9   99.70    6.91
   1  -2  -9   63.18    6.07
   2  -2  -9   69.15    7.07
   3  -2  -9    1.85    2.11
 -10  -1 -10    9.11    3.79
  -9  -1 -10    3.96    3.08
  -8  -1 -10    7.25    3.44
  -7  -1 -10   36.68    5.07
  -6  -1 -10   58.08    7.70
  -5  -1 -10   44.54    5.97
  -4  -1 -10   35.98    5.63
  -3  -1 -10   10.94    4.18
  -2  -1 -10    1.41    2.81
  -1  -1 -10    4.07    2.25
   0  -1 -10    0.49    2.10
   1  -1 -10    2.65    2.58
   2  -1 -10    7.20    2.96
   3  -1 -10    8.95    3.34
   4  -1 -10    3.04    2.40
  -9   0 -11    5.25    3.00
  -8   0 -11    6.28    3.21
  -7   0 -11    4.35    2.67
  -6   0 -11    5.12    2.47
  -5   0 -11    6.25    2.70
  -4   0 -11    6.03    3.36
  -3   0 -11    4.86    3.38
  -2   0 -11    5.26    3.22
  -1   0 -11    1.69    2.05
   0   0 -11    2.61    2.48
   1   0 -11    2.02    3.24
   2   0 -11    1.71    2.41
   3   0 -11    3.61    3.10
  -7   1 -12    2.24    2.46
  -6   1 -12    1.19    1.88
  -5   1 -12    4.56    2.13
  -4   1 -12    2.60    2.18
  -3   1 -12    2.40    3.16
  -2   1 -12    1.31    2.93
  -1   1 -12    3.53    3.75
   0   1 -12    2.24    3.83
   1   1 -12    3.27    2.87
 -12  -6  -6   -4.81    6.94
 -11  -6  -6   16.36    6.99
 -10  -6  -6   53.22   11.93
  -9  -6  -6    8.32    5.08
  -8  -6  -6    8.75    5.36
  -7  -6  -6    4.31    3.26
  -6  -6  -6  118.16   10.35
  -5  -6  -6  185.39    9.77
  -4  -6  -6  355.83   12.13
  -3  -6  -6  124.20    6.97
  -2  -6  -6   41.82    3.91
 -12  -5  -7   33.17   11.16
 -11  -5  -7   44.71    8.64
 -10  -7  -5   -1.29    3.67
 -10  -5  -7  101.60   13.32
  -9  -7  -5    4.62    5.03
  -9  -5  -7   49.59    8.39
  -8  -7  -5   31.47    7.50
  -8  -5  -7   -3.47    3.48
  -7  -7  -5   25.66    6.20
  -7  -5  -7   -1.60    3.49
  -6  -7  -5    6.92    2.61
  -6  -5  -7   -0.86    3.31
  -5  -7  -5    6.33    2.67
  -5  -5  -7   11.37    4.96
  -4  -7  -5   50.34    4.19
  -4  -5  -7   14.87    3.86
  -3  -7  -5   71.89    3.97
  -3  -5  -7   50.97    5.73
  -2  -5  -7  260.97   10.83
  -1  -5  -7   96.67    5.95
   0  -5  -7  225.62    9.99
 -12  -4  -8   11.00    6.44
 -11  -4  -8    3.72    5.93
 -10  -4  -8   18.90    6.29
  -9  -4  -8   39.40    7.07
  -8  -4  -8   86.39   10.08
  -7  -4  -8  134.95   11.67
  -6  -4  -8   36.98    6.40
  -5  -4  -8   71.69    6.50
  -4  -4  -8   42.00    6.29
  -3  -4  -8   36.17    4.88
  -2  -4  -8   27.62    3.72
  -1  -4  -8   47.96    5.64
   0  -4  -8   53.46    5.70
   1  -4  -8   29.94    5.20
 -11  -3  -9   13.44    6.92
 -10  -3  -9   12.57    4.42
  -9  -3  -9    2.05    3.04
  -8  -3  -9   18.89    5.06
  -7  -3  -9   14.57    5.21
  -6  -3  -9   37.73    5.25
  -5  -3  -9    1.75    3.61
  -4  -3  -9    4.95    3.57
  -3  -3  -9    2.11    3.50
  -2  -3  -9    5.60    2.49
  -1  -3  -9   25.30    5.35
   0  -3  -9   29.85    4.43
   1  -3  -9   48.14    6.30
 -10  -2 -10   10.71    4.47
  -9  -2 -10    3.57    3.16
  -8  -2 -10    6.14    3.42
  -7  -2 -10    5.02    2.53
  -6  -2 -10   17.75    5.00
  -5  -2 -10   23.19    4.00
  -4  -2 -10   39.44    4.55
  -3  -2 -10    3.03    2.49
  -2  -2 -10   -0.78    2.21
  -1  -2 -10   11.76    3.26
   0  -2 -10   11.41    3.51
   1  -2 -10   19.17    5.12
   2  -2 -10    2.68    2.66
   3  -2 -10    4.25    2.89
  -9  -1 -11    3.77    3.96
  -8  -1 -11   11.23    3.62
  -7  -1 -11   18.06    3.94
  -6  -1 -11   22.97    4.48
  -5  -1 -11   11.11    3.82
  -4  -1 -11   -0.63    2.66
  -3  -1 -11   -2.06    2.79
  -2  -1 -11   15.44    4.11
  -1  -1 -11    8.04    3.01
   0  -1 -11    4.33    3.15
   1  -1 -11    0.82    2.39
   2  -1 -11    2.25    2.37
   3  -1 -11    2.40    2.73
  -8   0 -12    2.61    2.03
  -7   0 -12    2.69    2.65
  -6   0 -12    3.75    1.92
  -5   0 -12    9.73    2.90
  -4   0 -12   14.49    4.29
  -3   0 -12   14.54    4.52
  -2   0 -12   13.14    4.05
  -1   0 -12    6.26    4.35
   0   0 -12    0.41    3.39
   1   0 -12    3.02    2.92
   2   0 -12    0.74    3.94
  -4   1 -13    2.20    2.33
  -3   1 -13   -1.42    2.58
  -2   1 -13    2.87    2.74
 -12  -7  -6   -0.71    2.97
 -12  -6  -7   20.86    8.77
 -11  -7  -6   26.68   13.80
 -11  -6  -7   33.16    8.83
 -10  -7  -6   12.99    7.86
 -10  -6  -7   48.69   11.17
  -9  -7  -6   20.31    7.30
  -9  -6  -7   99.78   15.58
  -8  -7  -6    1.67    4.21
  -8  -6  -7   54.18    8.92
  -7  -7  -6    1.54    3.50
  -7  -6  -7    2.34    3.54
  -6  -7  -6   75.43    8.66
  -6  -6  -7    2.80    3.66
  -5  -7  -6   74.62    6.35
  -5  -6  -7   30.25    4.94
  -4  -7  -6  193.95    7.98
  -4  -6  -7    8.15    4.28
  -3  -7  -6   84.66    4.53
  -3  -6  -7   76.95    6.25
  -2  -6  -7  364.57   12.32
 -12  -5  -8    2.76    4.52
 -11  -5  -8    9.80    5.03
 -10  -5  -8    0.65    4.31
  -9  -8  -5    3.40    2.35
  -9  -5  -8   31.17    7.08
  -8  -8  -5   14.64    7.72
  -8  -5  -8   87.26   10.94
  -7  -8  -5    4.57    3.31
  -7  -8  -5    4.48    3.29
  -7  -5  -8  209.80   14.77
  -6  -8  -5    3.53    2.35
  -6  -5  -8  184.97   15.22
  -5  -8  -5   27.62    4.28
  -5  -5  -8  178.65   12.33
  -4  -8  -5    4.43    2.04
  -4  -5  -8    4.05    2.89
  -3  -5  -8   16.91    3.29
  -2  -5  -8    7.92    2.31
  -1  -5  -8    1.84    2.69
 -11  -4  -9    7.61    4.90
 -10  -4  -9    1.31    3.17
  -9  -4  -9    8.54    4.53
  -8  -4  -9   13.26    5.09
  -7  -4  -9   -1.99    3.64
  -6  -4  -9   11.77    4.84
  -5  -4  -9   20.89    5.50
  -4  -4  -9   35.70    4.84
  -3  -4  -9   49.19    4.96
  -2  -4  -9   12.87    3.62
  -1  -4  -9    5.21    3.52
   0  -4  -9    3.19    2.15
 -11  -3 -10    1.23    3.53
 -10  -3 -10   11.51    4.93
  -9  -3 -10    1.92    3.56
  -8  -3 -10    2.32    3.90
  -7  -3 -10    1.45    3.77
  -6  -3 -10    2.48    3.84
  -5  -3 -10   -0.43    2.45
  -4  -3 -10   -0.57    2.68
  -3  -3 -10   -0.17    2.58
  -2  -3 -10    1.62    2.19
  -1  -3 -10    5.76    4.03
   0  -3 -10    1.01    3.48
   1  -3 -10   10.48    3.15
 -10  -2 -11    6.22    3.27
  -9  -2 -11   11.82    4.79
  -8  -2 -11   10.63    3.73
  -7  -2 -11   10.51    3.48
  -6  -2 -11   30.67    6.14
  -5  -2 -11   20.75    4.35
  -4  -2 -11    3.74    2.43
  -3  -2 -11    0.34    2.12
  -2  -2 -11    6.15    2.81
  -1  -2 -11    4.24    3.95
   0  -2 -11    6.97    3.78
   1  -2 -11    1.53    2.16
   2  -2 -11    6.05    3.76
  -8  -1 -12    4.65    2.72
  -7  -1 -12    1.41    2.43
  -6  -1 -12    2.64    2.24
  -5  -1 -12   11.13    3.94
  -4  -1 -12   15.42    4.24
  -3  -1 -12   40.84    6.53
  -2  -1 -12   14.33    3.42
  -1  -1 -12   24.46    6.37
   0  -1 -12    3.15    2.92
   1  -1 -12   -0.86    2.29
   2  -1 -12    0.34    3.68
  -6   0 -13    1.60    1.88
  -5   0 -13    2.82    2.52
  -4   0 -13    1.92    2.89
  -3   0 -13    0.26    3.02
  -2   0 -13   -0.20    2.41
  -1   0 -13    7.45    4.00
   0   0 -13    0.51    2.75
 -12  -7  -7    3.23    6.38
 -11  -7  -7    8.84    9.84
 -10  -7  -7    7.03    5.10
  -9  -7  -7    7.82    5.74
  -8  -7  -7   28.43    8.73
  -7  -7  -7   55.77    8.63
  -6  -7  -7   32.49    5.14
  -5  -7  -7   38.31    4.90
  -4  -7  -7   29.44    3.67
  -3  -7  -7   28.07    3.33
 -12  -6  -8    1.47    4.41
 -11  -8  -6    3.98    3.43
 -11  -6  -8    8.62    7.96
 -10  -8  -6   91.68   17.26
 -10  -6  -8   11.92    9.19
  -9  -8  -6  137.82   14.49
  -9  -6  -8    9.80    6.78
  -8  -8  -6  134.29   15.44
  -8  -6  -8   12.11    4.83
  -7  -8  -6   67.53    7.18
  -7  -6  -8   59.41    8.61
  -6  -8  -6    4.59    2.78
  -6  -6  -8   89.68    9.08
  -5  -8  -6   -0.48    1.77
  -5  -6  -8  106.38    9.56
  -4  -8  -6    2.04    1.35
  -4  -6  -8   10.38    3.94
  -3  -6  -8    2.26    2.62
  -2  -6  -8    7.63    2.26
 -11  -5  -9    9.04    4.17
 -10  -5  -9    8.07    5.07
  -9  -5  -9   12.62    5.57
  -8  -5  -9   49.51    7.73
  -7  -5  -9   15.62    5.85
  -6  -5  -9   32.74    6.38
  -5  -5  -9    4.25    2.88
  -4  -5  -9   65.10    7.76
  -3  -5  -9   98.44    7.67
  -2  -5  -9   51.20    5.61
  -1  -5  -9    9.24    3.08
 -11  -4 -10    1.57    3.05
 -10  -4 -10    4.18    4.12
  -9  -4 -10    7.15    4.78
  -8  -4 -10    9.15    5.84
  -7  -4 -10    0.77    3.18
  -6  -4 -10   38.32    5.89
  -5  -4 -10   58.53    7.98
  -4  -4 -10  102.11    8.66
  -3  -4 -10   30.98    4.78
  -2  -4 -10    4.65    3.43
  -1  -4 -10    2.67    2.95
   0  -4 -10    9.07    2.93
 -10  -3 -11   14.16    4.20
  -9  -3 -11   16.11    4.50
  -8  -3 -11    8.52    4.11
  -7  -3 -11    2.33    2.58
  -6  -3 -11    1.39    3.15
  -5  -3 -11    0.70    1.83
  -4  -3 -11   11.02    3.06
  -3  -3 -11    6.77    3.53
  -2  -3 -11   40.18    5.52
  -1  -3 -11    9.23    3.68
   0  -3 -11    6.88    2.95
   1  -3 -11    3.62    2.66
  -9  -2 -12    3.71    2.68
  -8  -2 -12   11.93    3.99
  -7  -2 -12   12.96    4.40
  -6  -2 -12    5.54    3.13
  -5  -2 -12    4.78    2.82
  -4  -2 -12    5.18    2.69
  -3  -2 -12   13.15    3.55
  -2  -2 -12   10.65    3.20
  -1  -2 -12   14.43    4.49
   0  -2 -12   10.04    2.96
   1  -2 -12    3.81    3.48
  -7  -1 -13    6.24    2.96
  -6  -1 -13    1.78    2.55
  -5  -1 -13    0.46    2.97
  -4  -1 -13    1.58    2.54
  -3  -1 -13    0.90    2.67
  -2  -1 -13    1.13    2.63
  -1  -1 -13    3.96    3.76
   0  -1 -13    8.48    4.59
 -12  -8  -7   20.34   15.34
 -12  -7  -8   23.12   12.52
 -11  -8  -7    2.36    6.36
 -11  -7  -8   23.22    8.06
 -10  -8  -7   38.47   12.38
 -10  -7  -8   15.87    7.39
  -9  -8  -7   11.12    5.18
  -9  -7  -8    9.25    6.92
  -8  -8  -7    4.08    4.85
  -8  -7  -8   -1.32    5.02
  -7  -8  -7   24.55    5.31
  -7  -7  -8   14.42    4.37
  -6  -8  -7   72.99    6.69
  -6  -7  -8    8.10    4.10
  -5  -8  -7  249.16   12.22
  -5  -7  -8    3.06    3.18
  -4  -7  -8    5.66    3.66
 -12  -6  -9    5.27    6.36
 -11  -6  -9   15.67   10.47
 -10  -9  -6   15.97    5.40
 -10  -6  -9    3.15    6.54
  -9  -9  -6  104.16   13.51
  -9  -6  -9    2.84    4.02
  -8  -9  -6  121.67   14.96
  -8  -6  -9    8.37    5.17
  -7  -9  -6  108.29    9.06
  -7  -6  -9    3.61    4.18
  -6  -9  -6   13.92    3.36
  -6  -6  -9   23.26    6.69
  -5  -6  -9   -0.19    3.00
  -4  -6  -9   -2.51    2.25
  -3  -6  -9    3.09    2.66
 -11  -5 -10   12.50    6.64
 -10  -5 -10    4.65    3.91
  -9  -5 -10   -0.13    3.72
  -8  -5 -10    7.27    4.33
  -7  -5 -10   12.07    4.51
  -6  -5 -10   29.10    5.89
  -5  -5 -10   61.25    8.03
  -4  -5 -10   91.37    7.76
  -3  -5 -10   46.62    5.78
  -2  -5 -10   29.02    5.54
  -1  -5 -10    4.60    3.15
 -10  -4 -11   28.39    6.39
  -9  -4 -11   32.21    6.76
  -8  -4 -11   11.33    4.87
  -7  -4 -11   -1.55    3.09
  -6  -4 -11    2.52    3.13
  -5  -4 -11   -1.53    2.67
  -4  -4 -11    7.52    3.79
  -3  -4 -11    6.09    3.62
  -2  -4 -11   45.16    7.14
  -1  -4 -11   32.96    5.67
  -9  -3 -12   14.61    5.01
  -8  -3 -12   22.85    5.90
  -7  -3 -12   17.28    4.35
  -6  -3 -12   33.81    6.41
  -5  -3 -12   14.60    3.71
  -4  -3 -12    9.13    2.97
  -3  -3 -12    0.56    2.53
  -2  -3 -12    3.47    3.16
  -1  -3 -12    7.91    3.88
   0  -3 -12   10.06    4.85
  -8  -2 -13    4.48    2.49
  -7  -2 -13    1.14    3.23
  -6  -2 -13    2.41    2.70
  -5  -2 -13   -0.64    2.88
  -4  -2 -13    2.09    2.38
  -3  -2 -13   -0.93    2.35
  -2  -2 -13    3.65    3.58
  -1  -2 -13    3.63    3.80
   0  -2 -13    0.71    4.86
 -12  -8  -8    3.89    7.94
 -11  -8  -8   18.08    9.41
 -10  -8  -8   19.96    7.43
  -9  -8  -8    5.18    4.88
  -8  -8  -8    5.51    5.69
  -7  -8  -8   46.14    6.72
  -6  -8  -8   72.81    6.82
  -5  -8  -8   29.65    4.15
 -12  -7  -9   28.48    9.36
 -11  -9  -7    4.48    6.61
 -11  -7  -9   18.78    8.19
 -10  -9  -7    5.44    4.87
 -10  -7  -9   25.66    7.81
  -9  -9  -7    9.72    6.04
  -9  -7  -9    0.18    4.98
  -8  -9  -7    2.91    4.17
  -8  -7  -9    8.95    4.59
  -7  -9  -7    6.69    2.82
  -7  -7  -9   10.91    4.94
  -6  -9  -7   24.73    3.91
  -6  -7  -9    3.65    3.44
  -5  -7  -9   -3.64    3.54
  -4  -7  -9   71.34    6.99
 -11  -6 -10    8.48    6.12
 -10  -6 -10   14.69    6.16
  -9  -6 -10   30.84    7.73
  -8  -6 -10   37.02    7.17
  -7  -6 -10   59.68    8.71
  -6  -6 -10    3.48    3.34
  -5  -6 -10   16.75    3.82
  -4  -6 -10   20.16    4.78
  -3  -6 -10   16.46    3.44
 -11  -5 -11    0.49    5.17
 -10  -5 -11   14.46    6.44
  -9  -5 -11   10.62    4.95
  -8  -5 -11   13.89    6.80
  -7  -5 -11    1.06    3.10
  -6  -5 -11    8.59    3.30
  -5  -5 -11    1.09    3.53
  -4  -5 -11   -0.48    2.35
  -3  -5 -11    1.43    2.44
  -2  -5 -11   29.08    5.63
 -10  -4 -12    0.15    4.20
  -9  -4 -12    6.87    4.66
  -8  -4 -12   20.12    5.65
  -7  -4 -12   15.60    3.98
  -6  -4 -12   39.58    6.78
  -5  -4 -12    7.13    2.82
  -4  -4 -12    6.62    3.76
  -3  -4 -12    1.36    3.14
  -2  -4 -12    0.91    3.91
  -1  -4 -12    7.45    3.01
  -8  -3 -13    8.07    4.51
  -7  -3 -13   -0.24    2.77
  -6  -3 -13    0.49    2.79
  -5  -3 -13    2.01    2.11
  -4  -3 -13    4.67    2.60
  -3  -3 -13    5.90    3.89
  -2  -3 -13    6.44    4.34
  -1  -3 -13   -1.12    2.67
   0  -3 -13    2.07    4.06
  -5  -2 -14    0.62    2.75
  -4  -2 -14    1.71    2.21
  -3  -2 -14   -0.57    3.94
 -12  -9  -8   10.07   12.90
 -12  -8  -9   12.92    9.09
 -11  -9  -8   12.01   10.45
 -11  -8  -9   41.28   11.11
 -10  -9  -8    2.10    5.44
 -10  -8  -9   10.38    6.46
  -9  -9  -8   15.49    4.94
  -9  -8  -9    3.67    5.24
  -8  -9  -8   10.13    5.23
  -8  -8  -9    2.99    5.91
  -7  -9  -8   21.33    4.65
  -7  -8  -9    4.39    3.32
  -6  -9  -8    3.33    3.28
  -6  -8  -9    0.42    2.83
  -5  -8  -9    1.80    2.75
 -11  -7 -10    5.55    8.98
 -10 -10  -7    2.56    2.45
 -10  -7 -10   27.81    9.29
  -9 -10  -7    9.33    6.04
  -9  -7 -10   88.65   10.64
  -8 -10  -7    9.25    3.79
  -8  -7 -10   87.86   10.93
  -7 -10  -7    3.04    2.16
  -7  -7 -10   45.33    7.22
  -6  -7 -10   10.22    5.01
  -5  -7 -10   13.00    3.97
  -4  -7 -10    0.76    1.98
 -11  -6 -11   -2.44    4.80
 -10  -6 -11   -0.87    4.54
  -9  -6 -11    5.38    3.92
  -8  -6 -11    1.20    3.53
  -7  -6 -11   26.70    6.12
  -6  -6 -11   35.33    6.51
  -5  -6 -11   35.73    5.93
  -4  -6 -11   32.56    6.18
  -3  -6 -11   11.17    3.86
 -10  -5 -12    1.97    4.10
  -9  -5 -12    7.36    4.16
  -8  -5 -12   -2.35    2.75
  -7  -5 -12    3.51    3.85
  -6  -5 -12    3.76    2.94
  -5  -5 -12    2.71    3.34
  -4  -5 -12    2.76    2.35
  -3  -5 -12    5.44    2.52
  -2  -5 -12    3.54    4.27
  -9  -4 -13    6.01    5.03
  -8  -4 -13    4.11    3.77
  -7  -4 -13    3.32    2.39
  -6  -4 -13    0.53    2.77
  -5  -4 -13    0.74    2.02
  -4  -4 -13    3.60    3.51
  -3  -4 -13    1.99    2.65
  -2  -4 -13   -1.97    2.37
  -6  -3 -14    6.63    3.62
  -5  -3 -14    4.99    2.71
  -4  -3 -14    7.60    3.21
  -3  -3 -14    4.50    4.41
  -2  -3 -14   -1.86    4.47
 -11  -9  -9    3.54    5.44
 -10  -9  -9   11.56    5.55
  -9  -9  -9    8.99    4.61
  -8  -9  -9   30.67    7.69
  -7  -9  -9   48.62    7.31
 -11 -10  -8   65.54   19.40
 -11  -8 -10    3.69    7.13
 -10 -10  -8   39.62    8.55
 -10  -8 -10    8.47    4.69
  -9 -10  -8   45.73    9.49
  -9  -8 -10   33.14    8.98
  -8 -10  -8    3.61    3.52
  -8  -8 -10   19.44    5.32
  -7  -8 -10   23.77    5.89
  -6  -8 -10   10.02    4.16
 -11  -7 -11   -2.02    7.38
 -10  -7 -11    3.50    4.05
  -9  -7 -11    7.11    4.50
  -8  -7 -11    4.93    3.67
  -7  -7 -11    8.94    4.26
  -6  -7 -11    7.59    3.92
  -5  -7 -11   41.18    6.65
 -10  -6 -12    9.20    5.83
  -9  -6 -12    7.21    4.72
  -8  -6 -12    4.70    4.55
  -7  -6 -12    9.04    4.41
  -6  -6 -12   10.17    3.45
  -5  -6 -12    6.84    4.00
  -4  -6 -12    3.81    2.84
  -9  -5 -13    9.84    6.16
  -8  -5 -13    0.68    3.63
  -7  -5 -13   -0.54    2.76
  -6  -5 -13    2.33    3.64
  -5  -5 -13    1.92    2.89
  -4  -5 -13    1.25    2.42
  -3  -5 -13    3.16    2.40
  -7  -4 -14    4.68    3.27
  -6  -4 -14    5.20    3.78
  -5  -4 -14    7.83    3.00
  -4  -4 -14    5.41    4.29
  -3  -4 -14    0.75    2.75
  -2  -4 -14    0.55    3.51
 -11 -10  -9    5.30    7.52
 -11  -9 -10   17.94    9.92
 -10 -10  -9    6.77    6.22
 -10  -9 -10    5.95    5.41
  -9 -10  -9    8.77    3.88
  -9  -9 -10    7.38    5.70
  -8 -10  -9   30.94    6.39
  -8  -9 -10    8.86    5.62
  -7  -9 -10   -1.99    2.89
 -11  -8 -11    6.11    5.88
 -10 -11  -8    8.99    3.49
 -10  -8 -11    2.69    7.34
  -9 -11  -8   28.65    7.35
  -9  -8 -11   -2.54    2.91
  -8  -8 -11    0.29    3.20
  -7  -8 -11    1.69    3.11
  -6  -8 -11    1.83    3.29
 -10  -7 -12    2.30    4.38
  -9  -7 -12    3.05    3.86
  -8  -7 -12    7.27    3.85
  -7  -7 -12   14.40    5.63
  -6  -7 -12   28.15    6.00
  -5  -7 -12   19.22    3.83
  -9  -6 -13    3.06    4.02
  -8  -6 -13    1.75    3.56
  -7  -6 -13    0.52    3.66
  -6  -6 -13    0.76    2.12
  -5  -6 -13    2.03    3.50
  -4  -6 -13   10.88    3.48
  -8  -5 -14    8.78    4.39
  -7  -5 -14    8.17    3.26
  -6  -5 -14    9.21    4.57
  -5  -5 -14   -1.49    2.48
  -4  -5 -14   -1.67    2.16
 -11 -10 -10    8.96    6.25
 -10 -10 -10    5.31    5.16
  -9 -10 -10   11.41    5.16
 -11 -11  -9    5.05   11.35
 -11  -9 -11    8.50    6.59
 -10 -11  -9    4.75    3.86
 -10  -9 -11    7.14    4.64
  -9  -9 -11   11.23    6.85
  -8  -9 -11    3.56    3.05
 -10  -8 -12    5.43    4.86
  -9  -8 -12   10.73    5.44
  -8  -8 -12    5.44    3.39
  -7  -8 -12    8.77    3.73
  -9  -7 -13    2.57    4.70
  -8  -7 -13    6.78    4.83
  -7  -7 -13    8.17    4.13
  -6  -7 -13    6.82    4.30
  -8  -6 -14   12.29    4.87
  -7  -6 -14   11.75    5.07
  -6  -6 -14    4.93    3.53
  -5  -6 -14    1.18    3.85
 -10 -11 -10   -0.82    5.26
 -10 -10 -11    4.42    5.53
  -9 -10 -11    7.37    7.03
 -10  -9 -12   19.98    8.70
  -9  -9 -12   30.98    6.78
  -8  -9 -12   23.44    6.01
  -9  -8 -13    3.17    4.70
  -8  -8 -13    5.03    4.02
  -7  -8 -13   23.14    6.87
  -8  -7 -14   -0.38    5.11
  -7  -7 -14    2.21    3.86
  -6  -7 -14    2.35    3.16
  -9  -9 -13    3.34    4.00
   5   0   0   52.65    3.36
   3  -1   1    5.59    1.26
   4  -1   1   54.94    2.76
   5  -1   1  285.09    6.23
   5   0   1  103.90    2.57
   4   0   1   74.77    1.83
   3   0   1   53.66    1.22
   0  -1   0  164.38    3.14
   1  -1   0  319.54    4.86
   2  -1   0 1134.48   11.91
   3  -1   0  616.94   11.11
   4  -1   0   82.59    4.15
   5  -1   0   45.35    2.61
   3  -2   1   34.82    2.56
   4  -2   1   24.92    2.43
  -1  -1  -1    3.48    0.60
   0  -1  -1    0.44    0.38
   1  -1  -1   11.07    1.26
   2  -1  -1   19.70    1.66
   3  -1  -1   16.76    1.71
   4  -1  -1   45.34    3.45
   5  -1  -1  108.05    4.92
   0  -2   0    1.49    0.57
   1  -2   0   63.79    2.82
   2  -2   0  105.22    3.71
   3  -2   0  144.53    4.26
   4  -2   0   71.73    3.16
   5  -2   0   78.70    3.70
  -3  -1  -2  585.12    7.70
  -2  -2  -1  155.54    4.67
  -2  -1  -2 4026.98   35.30
  -1  -2  -1  341.86    6.20
   0  -2  -1   78.67    3.48
   1  -2  -1  110.79    6.03
   2  -2  -1   19.16    2.10
   3  -2  -1   59.12    3.48
   4  -2  -1   59.29    3.56
   5  -2  -1  118.73    6.58
   5  -1  -2   15.01    2.55
   0  -3   0  299.57    8.98
   1  -3   0   77.70    3.93
   2  -3   0  136.53    4.81
   3  -3   0   17.70    2.27
   4  -3   0    7.07    1.80
  -3  -2  -2  674.67    9.13
  -2  -2  -2 1956.12   20.65
  -1  -2  -2 1367.77   18.27
   0  -2  -2 2023.36   26.41
   1  -2  -2    9.40    1.80
   2  -2  -2    1.99    1.12
   3  -2  -2   39.30    3.50
   4  -2  -2    7.68    1.42
   5  -2  -2    0.44    1.02
  -4  -1  -3  216.14    5.73
  -2  -3  -1  102.27    5.03
  -1  -3  -1    5.84    1.44
   0  -3  -1  696.24   12.13
   1  -3  -1    1.78    1.03
   2  -3  -1    6.19    1.32
   3  -3  -1   79.13    4.14
   4  -3  -1  220.62    7.11
   1  -4   0   55.45    4.20
   2  -4   0   71.95    5.23
   3  -4   0   11.05    2.69
   4  -4   0    2.49    2.45
  -3  -3  -2   24.26    2.91
  -3  -2  -3  175.13    7.48
  -2  -3  -2  663.71   11.99
  -2  -2  -3   84.67    5.68
  -1  -3  -2  573.81   11.72
  -1  -2  -3    2.76    1.16
   0  -3  -2 3086.29   36.56
   1  -3  -2  259.86    8.06
   2  -3  -2   23.30    2.56
   2  -2  -3  436.20   12.25
   3  -3  -2    6.24    1.70
   3  -2  -3  432.68   11.36
   4  -3  -2   20.81    3.54
   4  -2  -3  133.13    7.69
   5  -3  -2   24.47    3.27
   5  -2  -3    7.77    2.26
  -5  -1  -4  488.56    8.69
  -1  -4  -1  406.51   10.52
   0  -4  -1   16.31    2.22
   1  -4  -1   45.17    3.02
   2  -4  -1    2.08    1.27
   3  -4  -1    7.57    1.80
   4  -4  -1   34.87    3.31
   1  -5   0   63.74    5.10
   2  -5   0   -1.06    1.24
   3  -5   0    7.49    2.45
   4  -5   0   14.40    3.24
  -4  -3  -3   77.41    4.41
  -3  -3  -3  600.02   13.02
  -2  -3  -3  119.70    6.86
  -1  -3  -3    1.26    0.95
   0  -3  -3    0.31    1.06
   1  -3  -3    6.09    1.31
   2  -3  -3   22.74    2.24
   3  -3  -3    6.80    1.58
   4  -3  -3   35.89    2.87
   5  -3  -3   67.41    6.06
  -5  -2  -4   11.91    1.28
  -4  -2  -4   36.50    3.24
  -3  -4  -2   64.88    6.29
  -3  -2  -4  135.56    6.49
  -2  -4  -2   30.21    3.52
  -1  -4  -2    7.42    1.74
   0  -4  -2    1.62    1.24
   1  -4  -2    3.63    1.40
   2  -4  -2  274.06    8.37
   3  -4  -2  145.94    6.13
   4  -4  -2   59.47    4.23
   4  -2  -4   -0.42    1.34
   5  -2  -4   17.03    4.03
  -1  -5  -1  286.34   11.03
   0  -5  -1 1064.68   24.28
   1  -5  -1 1019.90   18.29
   2  -5  -1  138.64    7.01
   3  -5  -1   67.52    5.25
   4  -5  -1   -0.25    1.63
   3  -6   0    6.12    2.53
  -5  -3  -4  107.02    4.46
  -4  -4  -3   47.09    4.32
  -4  -3  -4  256.97    8.70
  -3  -4  -3  176.27    7.34
  -3  -3  -4  403.05   11.04
  -2  -4  -3  344.45   10.98
  -2  -3  -4  100.47    7.56
  -1  -4  -3   44.14    3.98
  -1  -3  -4   22.22    3.56
   0  -4  -3  233.29   11.67
   0  -3  -4   12.44    2.40
   1  -4  -3    6.64    2.26
   1  -3  -4    8.40    2.05
   2  -4  -3   45.18    3.76
   2  -3  -4    2.26    1.50
   3  -4  -3    6.34    1.95
   3  -3  -4    5.87    2.19
   4  -4  -3   11.33    3.19
   4  -3  -4   23.11    4.24
   5  -3  -4   11.80    3.24
  -5  -2  -5  306.93   11.15
  -3  -5  -2   55.31    4.84
  -2  -5  -2   24.72    4.32
  -1  -5  -2  116.51    6.96
   0  -5  -2  103.30    6.12
   1  -5  -2    2.02    1.33
   2  -5  -2   18.55    2.49
   3  -5  -2   87.70    5.10
   4  -5  -2   78.44    4.98
  -1  -6  -1  223.21   13.56
   0  -6  -1  443.65   18.51
   1  -6  -1  672.84   21.32
   2  -6  -1  220.81   12.29
   3  -6  -1  146.94   10.62
   4  -6  -1   35.68    5.56
  -5  -4  -4  195.81    8.63
  -4  -4  -4 1108.66   20.26
  -3  -4  -4  765.22   16.34
  -2  -4  -4  980.90   20.19
  -1  -4  -4  213.55    9.92
   0  -4  -4    0.71    0.70
   1  -4  -4   12.62    1.99
   2  -4  -4   10.53    1.62
   3  -4  -4    4.13    1.29
   4  -4  -4   12.44    2.90
   5  -4  -4   11.01    3.30
  -5  -3  -5   59.18    6.45
  -4  -5  -3   20.51    3.27
  -4  -3  -5   60.82    5.53
  -3  -5  -3   59.09    5.33
  -3  -3  -5  204.26   11.15
  -2  -5  -3  164.70    7.76
  -2  -3  -5  164.14    7.94
  -1  -5  -3  182.78    7.98
  -1  -3  -5  345.32   13.09
   0  -5  -3   57.06    4.68
   0  -3  -5  448.17   15.10
   1  -5  -3    3.62    1.53
   1  -3  -5  213.88   10.75
   2  -5  -3   47.92    3.59
   2  -3  -5   26.96    3.78
   3  -5  -3   80.15    4.97
   3  -3  -5    7.22    2.45
   4  -5  -3   55.53    4.52
   4  -3  -5   -0.43    2.26
   5  -3  -5    1.28    3.09
  -3  -6  -2   28.94    5.70
  -2  -6  -2    7.70    3.82
  -1  -6  -2   29.18    4.83
   0  -6  -2  136.36    8.45
   1  -6  -2    0.56    1.71
   2  -6  -2    3.08    1.43
   3  -6  -2    1.33    1.24
   4  -6  -2   18.55    3.18
   5  -2  -6   -4.91    3.36
   0  -7  -1    6.83    3.78
   1  -7  -1   -0.13    2.61
   2  -7  -1   20.15    4.48
   3  -7  -1  122.04   12.17
   4  -7  -1   25.71    5.73
  -6  -4  -5   13.46    2.41
  -5  -5  -4    5.78    2.34
  -5  -4  -5   25.74    3.34
  -4  -5  -4  300.46   11.79
  -4  -4  -5   72.00    8.17
  -3  -5  -4  294.84   10.99
  -3  -4  -5   63.59    5.55
  -2  -5  -4  547.40   14.87
  -2  -4  -5   56.19    5.27
  -1  -5  -4  163.56    7.85
  -1  -4  -5   14.72    2.55
   0  -5  -4  242.72   12.91
   0  -4  -5  554.89   16.80
   1  -5  -4    6.51    3.12
   1  -4  -5  232.68   10.77
   2  -5  -4    0.44    2.38
   2  -4  -5   82.78    7.23
   3  -5  -4   27.24    4.41
   3  -4  -5   12.66    2.35
   4  -5  -4    1.62    1.49
   4  -4  -5    0.68    1.48
   5  -4  -5    6.53    3.33
  -5  -3  -6  920.67   20.95
  -4  -6  -3   86.01    8.94
  -4  -3  -6  358.75   14.94
  -3  -6  -3  125.33    8.56
  -3  -3  -6   68.25    6.64
  -2  -6  -3  143.79    8.26
  -1  -6  -3   68.67    5.69
   0  -6  -3    1.03    1.42
   1  -6  -3   12.40    2.24
   2  -6  -3   14.86    2.27
   3  -6  -3    8.04    1.90
   3  -3  -6   17.51    4.40
   4  -6  -3   20.59    2.98
   5  -3  -6   24.97    7.60
  -2  -7  -2    5.71    2.52
  -1  -7  -2   27.94    5.33
   0  -7  -2   15.32    4.56
   1  -7  -2   34.85    4.66
   2  -7  -2    1.32    2.06
   3  -7  -2    1.14    1.83
   4  -7  -2    9.53    4.16
   2  -8  -1   16.11    6.17
   3  -8  -1    4.69    4.93
  -6  -5  -5  171.71    9.05
  -5  -5  -5   74.30    5.78
  -4  -5  -5  109.62    7.62
  -3  -5  -5   45.36    5.98
  -2  -5  -5   12.86    2.76
  -1  -5  -5   14.01    3.05
   0  -5  -5   85.23    6.63
   1  -5  -5   27.89    3.64
   2  -5  -5  106.94    7.29
   3  -5  -5   33.76    4.47
   4  -5  -5   19.34    3.98
  -6  -4  -6   27.16    3.58
  -5  -6  -4   84.25    7.43
  -5  -4  -6   90.23    7.15
  -4  -6  -4   71.13    7.19
  -4  -4  -6  185.55    9.26
  -3  -6  -4   40.53    4.78
  -3  -4  -6   58.24    6.88
  -2  -6  -4   14.22    2.80
  -2  -4  -6    2.83    1.70
  -1  -6  -4   75.98    5.75
  -1  -4  -6   47.63    5.27
   0  -6  -4   82.65    5.82
   0  -4  -6   32.18    4.43
   1  -6  -4   40.36    3.93
   1  -4  -6   16.77    3.60
   2  -6  -4   33.75    3.58
   2  -4  -6   -0.09    2.03
   3  -6  -4   14.01    2.53
   3  -4  -6   13.10    3.79
   4  -6  -4    3.61    1.75
   4  -4  -6   34.60    5.69
   5  -4  -6   43.52    7.09
  -5  -3  -7   79.16    7.63
  -4  -7  -3    6.05    2.63
  -4  -3  -7   18.48    3.66
  -3  -7  -3  341.31   15.96
  -2  -7  -3  397.48   15.20
  -1  -7  -3  256.02   13.12
   0  -7  -3  110.57    6.83
   1  -7  -3   54.69    4.83
   2  -7  -3    1.39    1.55
   3  -7  -3    0.06    1.58
   4  -7  -3    0.36    1.84
   4  -3  -7   24.84    6.61
   5  -3  -7    6.98    5.38
  -2  -8  -2    0.64    3.35
  -1  -8  -2    3.10    2.90
   0  -8  -2   57.37   10.20
   1  -8  -2   72.85    8.02
   2  -8  -2    0.41    2.38
   3  -8  -2   -0.03    3.83
  -6  -6  -5    5.48    3.95
  -6  -5  -6   47.32    4.70
  -5  -6  -5   88.47    6.46
  -5  -5  -6   71.16    6.51
  -4  -6  -5  250.11   11.20
  -4  -5  -6  126.91   11.39
  -3  -6  -5  548.73   17.74
  -3  -5  -6   18.91    3.94
  -2  -6  -5  126.31    8.15
  -2  -5  -6    2.43    1.08
  -1  -6  -5    7.10    2.16
  -1  -5  -6    2.32    1.14
   0  -6  -5    6.74    2.86
   0  -5  -6    1.71    1.56
   1  -6  -5   15.17    3.68
   1  -5  -6   -0.15    1.43
   2  -6  -5    4.47    2.35
   2  -5  -6   14.13    2.63
   3  -6  -5    0.21    1.27
   3  -5  -6   -0.53    0.88
   4  -6  -5    6.30    2.73
   4  -5  -6    0.30    2.15
  -6  -4  -7   91.60    7.48
  -5  -7  -4  312.57   18.62
  -5  -4  -7  151.08   10.67
  -4  -7  -4   15.62    4.65
  -4  -4  -7  106.41    8.71
  -3  -7  -4    7.67    3.02
  -3  -4  -7   33.40    4.98
  -2  -7  -4   73.82    6.68
  -2  -4  -7   17.65    3.41
  -1  -7  -4   11.54    2.75
  -1  -4  -7    2.49    1.73
   0  -7  -4    3.37    1.73
   0  -4  -7    0.60    1.74
   1  -7  -4   54.85    4.50
   1  -4  -7   -0.99    1.89
   2  -7  -4   70.94    4.96
   2  -4  -7    2.85    2.90
   3  -7  -4   52.59    4.38
   3  -4  -7   14.00    5.49
   4  -7  -4   29.94    3.85
   4  -4  -7   33.41    7.06
   5  -4  -7   35.18    7.27
  -5  -3  -8   53.61    6.54
  -3  -8  -3   41.16    7.12
  -2  -8  -3   81.53    9.42
  -1  -8  -3  353.09   17.23
   0  -8  -3  158.25    9.46
   1  -8  -3  158.72    9.76
   2  -8  -3    9.54    3.04
   3  -8  -3   -0.61    1.73
   4  -3  -8    0.27    3.43
   5  -3  -8    3.06    5.98
  -1  -9  -2   73.78    9.24
   0  -9  -2   -0.73    2.93
   1  -9  -2    1.51    2.89
   1  -9  -2    1.59    3.10
   2  -9  -2   -0.12    2.93
   3  -9  -2    1.47    2.91
   3  -9  -2    1.57    3.08
  -6  -6  -6  146.23    9.58
  -5  -6  -6  258.13   12.31
  -4  -6  -6  410.38   15.24
  -3  -6  -6  126.93    8.92
  -2  -6  -6   55.40    7.02
  -1  -6  -6    1.50    2.24
   0  -6  -6    6.04    2.29
   1  -6  -6    8.70    2.43
   2  -6  -6    3.15    2.15
   3  -6  -6    2.19    2.61
   4  -6  -6   27.59    6.05
  -6  -7  -5   24.92    6.52
  -6  -5  -7    4.32    2.57
  -5  -7  -5   11.22    3.45
  -5  -5  -7   18.72    3.80
  -4  -7  -5   64.10    6.71
  -4  -5  -7   20.15    3.37
  -3  -7  -5   77.96    6.54
  -3  -5  -7   47.66    5.68
  -2  -7  -5   39.62    4.66
  -2  -5  -7  108.86    9.39
  -1  -7  -5   28.75    4.20
  -1  -5  -7  132.50   10.53
   0  -7  -5    0.04    1.68
   0  -5  -7   60.82    6.87
   1  -7  -5    8.83    2.35
   1  -5  -7    3.88    2.73
   2  -7  -5   34.80    3.92
   2  -5  -7    1.82    2.02
   3  -7  -5    6.26    2.09
   3  -5  -7    5.46    3.10
   4  -7  -5    4.26    2.02
   4  -5  -7    1.12    1.81
  -6  -4  -8   69.06    6.99
  -5  -8  -4   48.97    7.28
  -5  -4  -8  160.04   11.62
  -4  -8  -4   14.96    4.72
  -4  -4  -8   70.85    7.82
  -3  -8  -4   10.63    3.48
  -3  -4  -8   43.62    5.61
  -2  -8  -4    1.97    2.98
  -2  -4  -8   17.03    4.41
  -1  -8  -4    6.31    2.54
  -1  -4  -8    6.02    2.62
   0  -8  -4    5.79    2.39
   0  -4  -8   21.80    5.46
   1  -8  -4   15.36    3.09
   1  -4  -8    9.80    3.93
   2  -8  -4    5.68    2.27
   2  -4  -8   20.26    5.33
   3  -8  -4   32.57    3.97
   3  -4  -8    0.10    3.12
   4  -4  -8    6.29    5.76
   5  -4  -8   -1.85    4.93
  -3  -9  -3  103.93   13.20
  -2  -9  -3    7.62    5.12
  -1  -9  -3   24.94    8.32
   0  -9  -3   24.16    5.75
   1  -9  -3   28.00    6.53
   2  -9  -3   14.68    5.22
   3  -9  -3   16.39    5.27
   4  -3  -9    8.73    5.45
   5  -3  -9    4.44    7.30
  -7  -7  -6   21.38    5.58
  -6  -7  -6   91.92    9.50
  -6  -6  -7    7.25    2.43
  -5  -7  -6   91.53    8.09
  -5  -6  -7   36.25    5.47
  -4  -7  -6  212.83   11.57
  -4  -6  -7   10.01    4.34
  -3  -7  -6  119.81    8.96
  -3  -6  -7   89.74    8.49
  -2  -7  -6   35.60    4.82
  -2  -6  -7  291.05   14.73
  -1  -7  -6    8.51    2.52
  -1  -6  -7  128.59    8.22
   0  -7  -6    5.26    1.96
   0  -6  -7   25.00    3.22
   1  -7  -6    6.27    1.95
   1  -6  -7   30.51    4.08
   2  -7  -6    1.14    1.63
   2  -6  -7   12.08    3.42
   3  -7  -6    0.66    1.78
   3  -6  -7    1.34    2.20
   4  -7  -6   16.31    3.54
   4  -6  -7    3.09    3.74
  -6  -8  -5    7.48    4.01
  -6  -5  -8  240.12   13.46
  -5  -8  -5   53.91    9.28
  -5  -5  -8  177.78    9.84
  -4  -8  -5    4.71    3.64
  -4  -5  -8    5.71    1.92
  -3  -8  -5    8.67    2.97
  -3  -5  -8    6.51    2.77
  -2  -8  -5   -0.29    1.59
  -2  -5  -8   15.14    4.14
  -1  -8  -5   -0.18    1.88
  -1  -5  -8    0.24    2.54
   0  -8  -5    1.90    1.72
   0  -5  -8   28.62    6.14
   1  -8  -5    1.91    1.46
   1  -5  -8   15.14    4.51
   2  -8  -5   10.57    2.26
   2  -5  -8   26.33    6.20
   3  -8  -5    6.68    2.23
   3  -5  -8   28.42    5.96
   4  -5  -8    9.20    4.35
  -6  -4  -9   31.70    6.03
  -5  -4  -9   35.95    6.10
  -4  -9  -4    4.75    4.83
  -3  -9  -4   34.75    7.30
  -3  -4  -9   66.14    8.67
  -2  -9  -4   49.25    7.99
  -2  -4  -9   24.65    5.37
  -1  -9  -4   22.46    4.54
   0  -9  -4   -0.49    2.26
   0  -4  -9   -2.29    2.92
   1  -9  -4    6.78    3.18
   1  -4  -9   -0.48    3.21
   2  -9  -4    3.39    2.43
   2  -4  -9    3.08    3.52
   3  -9  -4    0.11    1.99
   3  -4  -9    2.44    4.56
   4  -4  -9    6.98    7.00
   5  -4  -9    8.52    8.87
  -2 -10  -3    4.52    5.92
  -1 -10  -3    2.86    3.97
  -1 -10  -3    3.04    4.19
   0 -10  -3    2.52    4.07
   1 -10  -3   16.59    6.47
   2 -10  -3    2.51    4.90
   3 -10  -3   12.23    4.90
   4  -3 -10    6.38    6.93
  -7  -7  -7   78.47    8.93
  -6  -7  -7   53.82    6.27
  -5  -7  -7   36.74    5.37
  -4  -7  -7   21.17    4.32
  -3  -7  -7   30.61    4.53
  -2  -7  -7    2.29    2.24
  -1  -7  -7   24.26    5.29
   0  -7  -7  111.05    9.34
   1  -7  -7   26.91    4.91
   2  -7  -7   28.57    5.80
   3  -7  -7    0.10    2.46
   4  -7  -7    0.48    2.52
  -7  -8  -6  151.95   15.87
  -6  -8  -6    7.07    3.82
  -6  -6  -8  103.85    9.10
  -5  -8  -6    1.81    2.52
  -5  -6  -8  179.17   14.19
  -4  -8  -6    3.91    2.44
  -4  -6  -8   20.56    4.82
  -3  -8  -6    1.43    1.65
  -3  -6  -8   -0.26    0.96
  -2  -8  -6   22.43    3.63
  -2  -6  -8    3.89    1.88
  -1  -8  -6   38.78    4.68
  -1  -6  -8    0.24    1.55
   0  -8  -6   14.88    2.98
   0  -6  -8    9.95    3.02
   1  -8  -6    9.92    2.44
   1  -6  -8    3.13    1.95
   2  -8  -6    3.63    1.69
   2  -6  -8   16.60    3.13
   3  -8  -6    3.67    1.93
   3  -6  -8   52.34    7.92
   4  -6  -8   27.07    6.77
  -6  -9  -5   16.87    5.26
  -6  -5  -9   44.73    5.84
  -5  -9  -5   39.64    8.03
  -5  -5  -9    9.89    2.96
  -4  -9  -5   87.80   11.14
  -4  -5  -9   67.56    8.01
  -3  -9  -5  277.83   16.95
  -3  -5  -9  203.78   15.75
  -2  -9  -5  100.03    8.85
  -2  -5  -9   68.93    8.42
  -1  -9  -5   42.23    4.97
  -1  -5  -9    1.74    2.23
   0  -9  -5    3.56    2.28
   0  -5  -9    3.26    3.55
   1  -9  -5    3.29    2.05
   1  -5  -9    2.26    4.31
   2  -9  -5    4.48    2.03
   2  -5  -9   20.70    6.15
   3  -9  -5    2.37    1.61
   3  -5  -9   21.34    7.96
   4  -5  -9    3.26    4.08
  -6  -4 -10   83.70   10.60
  -5  -4 -10   76.22    8.80
  -4 -10  -4   20.57    6.67
  -3 -10  -4    9.58    4.55
  -2 -10  -4   51.89    9.00
  -1 -10  -4   23.60    7.05
   0 -10  -4   30.98    7.18
   0  -4 -10   16.12    6.28
   1 -10  -4    6.85    4.08
   1  -4 -10    1.40    4.86
   2 -10  -4    1.68    3.72
   2  -4 -10    4.19    4.56
   3 -10  -4   11.47    5.18
   3  -4 -10    1.50    4.32
   4  -4 -10   17.75   10.82
   0 -11  -3    6.61    5.46
   1 -11  -3   23.67    8.75
   2 -11  -3   -0.65    5.31
   3  -3 -11    4.18    8.98
  -7  -8  -7   19.31    4.55
  -7  -7  -8   18.14    3.86
  -6  -8  -7   89.26    8.14
  -6  -7  -8   24.05    4.82
  -5  -8  -7  236.41   13.65
  -5  -7  -8   11.73    3.73
  -4  -8  -7   79.58    7.53
  -4  -7  -8    9.40    4.67
  -3  -8  -7   31.05    4.82
  -3  -7  -8   20.58    4.09
  -2  -8  -7    7.18    2.23
  -2  -7  -8    6.01    2.30
  -1  -8  -7    1.18    1.97
  -1  -7  -8    0.56    2.01
   0  -8  -7    0.83    1.69
   0  -7  -8    0.86    1.88
   1  -8  -7   -0.43    1.43
   1  -7  -8    0.72    1.82
   2  -8  -7    0.68    1.43
   2  -7  -8    4.49    2.84
   3  -8  -7    6.27    2.72
   3  -7  -8    7.62    5.11
   4  -7  -8   12.18    7.31
  -7  -9  -6  167.51   15.67
  -6  -9  -6   37.20    9.31
  -6  -6  -9   27.15    5.24
  -5  -9  -6    0.48    2.65
  -5  -6  -9    4.04    2.82
  -4  -9  -6    3.85    2.38
  -4  -6  -9    0.39    1.44
  -3  -9  -6   30.55    5.29
  -3  -6  -9    6.34    2.84
  -2  -9  -6    1.57    1.84
  -2  -6  -9    1.92    1.64
  -1  -9  -6   13.69    3.14
  -1  -6  -9    7.22    2.65
   0  -9  -6   14.63    2.89
   0  -6  -9    1.29    1.75
   1  -9  -6   42.82    4.34
   1  -6  -9    4.69    2.74
   1  -6  -9    4.68    2.73
   2  -9  -6   13.34    2.69
   2  -6  -9   23.83    5.51
   3  -9  -6    9.57    2.59
   3  -6  -9    3.50    2.58
   4  -6  -9    9.44    5.93
  -6  -5 -10   36.80    5.76
  -5 -10  -5    3.01    4.61
  -5  -5 -10   88.63   10.31
  -4 -10  -5   38.47    7.45
  -4  -5 -10  102.18   11.73
  -3 -10  -5  161.63   16.12
  -3  -5 -10   70.57    9.22
  -2 -10  -5   41.67    6.16
  -2  -5 -10   10.43    3.59
  -1 -10  -5   82.87    8.42
  -1  -5 -10    0.69    2.12
   0 -10  -5   14.06    3.97
   0  -5 -10    0.94    3.44
   1 -10  -5   -1.56    2.09
   1  -5 -10    5.40    4.77
   2 -10  -5    3.57    2.69
   2  -5 -10    7.99    6.33
   3 -10  -5    1.74    2.29
   3  -5 -10    3.70    6.71
   4  -5 -10    5.03    4.86
  -5  -4 -11    8.46    3.43
  -4  -4 -11    8.44    3.96
  -3 -11  -4   39.80    9.58
  -2 -11  -4   -1.50    2.39
  -1 -11  -4    5.28    5.94
   0 -11  -4    2.07    6.58
   0  -4 -11   57.87   11.29
   1 -11  -4    2.98    5.56
   1  -4 -11   11.04    7.41
   2 -11  -4   13.08    7.47
   2  -4 -11   13.98    6.81
   3  -4 -11    2.43    5.19
  -7  -8  -8   55.84    6.89
  -6  -8  -8   98.86    8.86
  -5  -8  -8   46.14    6.44
  -4  -8  -8    6.62    2.55
  -3  -8  -8    2.54    1.87
  -2  -8  -8   33.64    4.44
  -1  -8  -8    9.96    3.33
   0  -8  -8   13.02    3.61
   1  -8  -8    2.29    1.98
   2  -8  -8    2.64    2.05
   3  -8  -8    4.97    3.12
  -7  -9  -7   17.68    7.18
  -6  -9  -7   41.69    7.47
  -6  -7  -9    4.48    2.65
  -5  -9  -7   28.25    5.22
  -5  -7  -9    5.39    4.99
  -4  -9  -7  100.04    9.03
  -4  -7  -9   97.98    9.47
  -3  -9  -7   28.03    4.42
  -3  -7  -9   22.23    4.99
  -2  -9  -7    3.31    1.91
  -2  -7  -9   11.74    3.43
  -1  -9  -7    1.76    1.55
  -1  -7  -9   18.44    4.32
   0  -9  -7   19.41    3.16
   0  -7  -9    2.61    2.40
   1  -9  -7    7.30    2.08
   1  -7  -9    1.99    2.46
   2  -9  -7    3.15    1.80
   2  -7  -9    2.44    2.70
   3  -9  -7    4.34    2.14
   3  -7  -9    2.79    6.02
   4  -7  -9   15.74    9.00
  -7 -10  -6   16.40    6.12
  -6 -10  -6   70.91   15.11
  -6  -6 -10    3.90    2.76
  -5 -10  -6   19.94    7.36
  -5  -6 -10   26.36    4.72
  -4 -10  -6    0.42    2.25
  -4  -6 -10   19.69    4.38
  -3 -10  -6    3.30    3.39
  -3  -6 -10   22.75    5.64
  -2 -10  -6    3.78    2.42
  -2  -6 -10   60.61    9.33
  -1 -10  -6    1.10    1.36
  -1  -6 -10    9.74    3.81
   0 -10  -6    5.70    2.12
   0  -6 -10    5.65    4.16
   1 -10  -6   12.88    2.81
   1  -6 -10    0.86    2.81
   2 -10  -6   11.93    2.65
   2  -6 -10    3.13    4.46
   3 -10  -6    9.81    3.01
   3  -6 -10    3.30    4.22
  -6  -5 -11   12.66    4.70
  -5 -11  -5   43.19   12.22
  -5  -5 -11    4.32    3.33
  -4 -11  -5   10.16    5.33
  -4  -5 -11    3.70    3.06
  -3 -11  -5   23.81    8.60
  -3  -5 -11    6.77    3.18
  -2 -11  -5    6.62    5.52
  -2  -5 -11   27.10    5.78
  -1 -11  -5   13.99    5.67
  -1  -5 -11   18.02    5.00
   0 -11  -5   19.99    5.88
   0  -5 -11   72.80   11.94
   1 -11  -5    4.98    4.06
   1  -5 -11   33.17    9.73
   2 -11  -5    6.48    4.94
   2  -5 -11   11.11    7.72
   3  -5 -11   -1.19    6.02
  -5  -4 -12   17.34    4.62
  -4  -4 -12    5.72    4.16
  -2 -12  -4   32.24    7.87
  -1 -12  -4   33.45    8.52
   0 -12  -4   13.83    4.87
   0  -4 -12    2.34    6.06
   1 -12  -4    0.91    3.05
   1  -4 -12    5.35    6.92
   2 -12  -4    5.79    4.17
   2  -4 -12   12.40    8.63
  -7  -9  -8   38.83    7.69
  -7  -8  -9    7.30    2.97
  -6  -9  -8    7.18    3.51
  -6  -8  -9    4.37    2.70
  -5  -9  -8   78.94    8.26
  -5  -8  -9    2.33    2.52
  -4  -9  -8   23.90    4.43
  -4  -8  -9    9.38    2.90
  -3  -9  -8    8.10    2.78
  -3  -8  -9   87.16   10.91
  -2  -9  -8    2.47    1.67
  -2  -8  -9   76.77    8.93
  -1  -9  -8    0.98    1.73
  -1  -8  -9   25.17    4.69
   0  -9  -8    5.46    2.13
   0  -8  -9   25.48    5.49
   1  -9  -8    1.19    1.75
   1  -8  -9    7.48    4.64
   2  -9  -8    0.18    1.68
   2  -8  -9    4.86    4.94
   3  -9  -8    1.24    2.32
   3  -8  -9    5.10    3.54
  -7 -10  -7   11.94    7.71
  -6 -10  -7    1.30    4.54
  -6  -7 -10   17.81    6.59
  -5 -10  -7    0.77    3.53
  -5  -7 -10    9.85    3.87
  -4 -10  -7   -0.85    1.65
  -4  -7 -10    3.38    2.78
  -3 -10  -7   -0.53    1.90
  -3  -7 -10    1.58    1.62
  -2 -10  -7   -0.62    1.99
  -2  -7 -10    0.78    1.09
  -1 -10  -7    1.95    1.76
  -1  -7 -10    4.01    1.88
   0 -10  -7    1.26    1.65
   0  -7 -10    9.24    2.78
   1 -10  -7    0.48    1.49
   1  -7 -10    9.00    3.13
   2 -10  -7    2.17    2.14
   2  -7 -10   13.45    5.46
   3 -10  -7    0.85    2.52
   3  -7 -10   10.39    5.92
  -6 -11  -6    5.44    5.07
  -6  -6 -11   33.85    5.10
  -5 -11  -6   22.96    9.17
  -5  -6 -11   30.30    5.57
  -4 -11  -6   20.87    7.66
  -4  -6 -11   19.25    5.65
  -3 -11  -6   28.70    6.21
  -3  -6 -11    9.21    3.61
  -2 -11  -6   19.69    4.73
  -2  -6 -11    3.29    2.40
  -1 -11  -6    3.31    2.93
  -1  -6 -11    3.33    3.00
   0 -11  -6    1.79    2.60
   0  -6 -11   -1.11    4.36
   1 -11  -6   -0.96    2.09
   1  -6 -11   21.61    7.66
   2 -11  -6   -1.04    2.02
   2  -6 -11    0.30    3.25
  -6  -5 -12    3.42    3.20
  -5  -5 -12    5.04    3.50
  -4 -12  -5   56.50   13.46
  -4  -5 -12    4.65    3.90
  -3 -12  -5    2.24    4.14
  -3  -5 -12    3.17    2.72
  -2 -12  -5    3.53    6.74
  -2  -5 -12    2.94    3.02
  -1 -12  -5    4.55    6.81
  -1  -5 -12    4.93    3.11
   0 -12  -5   -3.35    4.47
   0  -5 -12    4.76    6.32
   1 -12  -5    2.72    6.95
   1  -5 -12    2.88    7.35
  -5  -4 -13    2.04    2.77
  -4  -4 -13    4.45    3.69
  -1  -4 -13    8.63    5.36
   0  -4 -13    4.15    7.16
  -7  -9  -9   55.04    8.03
  -6  -9  -9    3.88    2.46
  -5  -9  -9    1.49    2.03
  -4  -9  -9   29.16    5.11
  -3  -9  -9   18.46    3.94
  -2  -9  -9   17.34    3.65
  -1  -9  -9   15.26    3.54
   0  -9  -9    8.71    2.84
   1  -9  -9    0.43    2.14
   2  -9  -9    0.76    2.20
  -7 -10  -8    5.57    5.12
  -7  -8 -10   36.79    6.25
  -6 -10  -8    2.49    3.52
  -6  -8 -10   15.07    4.42
  -5 -10  -8    2.50    2.99
  -5  -8 -10   23.06    5.79
  -4 -10  -8    1.53    2.10
  -4  -8 -10   18.12    5.15
  -3 -10  -8    3.16    1.84
  -3  -8 -10    3.73    2.18
  -2 -10  -8    2.91    2.03
  -2  -8 -10    1.56    1.78
  -1 -10  -8    5.27    2.29
  -1  -8 -10    3.27    2.44
   0 -10  -8    1.52    1.71
   0  -8 -10    7.18    3.09
   1 -10  -8    2.41    1.63
   1  -8 -10   19.39    5.43
   2 -10  -8    0.93    1.71
   2  -8 -10   39.68    9.41
  -7 -11  -7    6.79    4.68
  -6 -11  -7   16.79    7.31
  -6  -7 -11   14.55    4.73
  -5 -11  -7   44.00    9.94
  -5  -7 -11   33.68    6.64
  -4 -11  -7   34.21    6.70
  -4  -7 -11   24.84    4.16
  -3 -11  -7   35.50    6.29
  -3  -7 -11   19.57    4.14
  -2 -11  -7    1.96    2.29
  -2  -7 -11    2.07    2.07
  -1 -11  -7   -0.15    1.38
  -1  -7 -11    2.03    2.66
   0 -11  -7    1.72    1.69
   0  -7 -11    7.37    3.49
   1 -11  -7   -0.24    1.28
   1  -7 -11   -0.31    2.01
   2 -11  -7    2.21    1.95
   2  -7 -11    0.73    4.15
  -6  -6 -12   29.54    6.14
  -5 -12  -6    3.86    4.88
  -5  -6 -12    6.95    3.65
  -4 -12  -6   19.17    8.56
  -4  -6 -12    4.04    2.63
  -3 -12  -6   22.83    5.88
  -3  -6 -12    4.24    3.25
  -2 -12  -6   23.74    7.89
  -2  -6 -12    1.66    3.44
  -1 -12  -6    8.45    5.51
  -1  -6 -12    5.57    3.66
   0 -12  -6    4.08    4.39
   0  -6 -12    2.23    4.94
   1 -12  -6    4.29    4.20
   1  -6 -12    3.24    6.90
  -5  -5 -13    6.40    4.63
  -4  -5 -13    3.24    3.04
  -3  -5 -13    4.85    3.14
  -2 -13  -5   -0.30    5.85
  -2  -5 -13    2.68    2.88
  -1 -13  -5    0.18    3.67
  -1  -5 -13    1.84    2.96
   0 -13  -5    1.56    3.40
   0  -5 -13    4.15    7.21
  -5  -4 -14   14.23    4.46
  -4  -4 -14   21.56    6.25
  -2  -4 -14    9.45    5.28
  -7 -10  -9   36.25    7.12
  -7  -9 -10    0.62    2.31
  -6 -10  -9   69.10    9.11
  -6  -9 -10   12.31    3.67
  -5 -10  -9   38.41    5.87
  -5  -9 -10    3.31    2.31
  -4 -10  -9   17.40    3.95
  -4  -9 -10    6.12    2.96
  -3 -10  -9    1.92    1.65
  -3  -9 -10    4.18    2.03
  -2 -10  -9    1.15    1.40
  -2  -9 -10    5.39    2.31
  -1 -10  -9    1.46    1.66
  -1  -9 -10    0.07    2.15
   0 -10  -9   -0.52    1.59
   0  -9 -10    3.26    2.53
   1 -10  -9    0.62    1.88
   1  -9 -10    2.23    2.33
  -8 -11  -8   63.55   12.50
  -7 -11  -8   11.31    6.55
  -6 -11  -8    2.10    2.68
  -6  -8 -11    5.05    3.72
  -5 -11  -8   14.83    5.03
  -5  -8 -11    6.72    3.40
  -4 -11  -8    2.50    1.96
  -4  -8 -11   14.08    3.79
  -3 -11  -8    0.64    1.98
  -3  -8 -11    6.12    3.24
  -2 -11  -8    8.94    3.10
  -2  -8 -11    4.76    2.91
  -1 -11  -8   14.00    3.21
  -1  -8 -11    0.28    3.17
   0 -11  -8    9.37    2.66
   0  -8 -11    0.39    2.94
   1 -11  -8    6.83    2.67
   1  -8 -11    3.66    3.64
  -7 -12  -7   11.24    8.63
  -6 -12  -7   15.60    8.19
  -6  -7 -12   42.53    7.99
  -5 -12  -7   23.14    7.07
  -5  -7 -12   21.69    4.14
  -4 -12  -7   27.92    7.72
  -4  -7 -12   16.10    4.57
  -3 -12  -7   34.88    6.19
  -3  -7 -12    2.22    2.58
  -2 -12  -7    6.37    3.34
  -2  -7 -12    3.51    3.25
  -1 -12  -7    1.94    2.49
  -1  -7 -12   10.14    4.18
   0 -12  -7    1.39    2.42
   0  -7 -12    5.55    4.65
   1 -12  -7   -2.91    1.60
   1  -7 -12    3.17    3.98
  -6  -6 -13    0.77    1.79
  -5 -13  -6    1.61    4.17
  -5  -6 -13    6.11    3.79
  -4 -13  -6    1.73    3.41
  -4  -6 -13   16.84    4.83
  -3 -13  -6    1.86    4.49
  -3  -6 -13   26.80    7.30
  -2 -13  -6   -2.61    6.64
  -2  -6 -13   29.21    7.90
  -1 -13  -6    5.24    7.41
  -1  -6 -13    5.40    4.53
   0 -13  -6    2.22    5.01
  -5  -5 -14    5.79    4.04
  -4  -5 -14    1.97    3.17
  -3  -5 -14    7.40    4.12
  -2  -5 -14    5.13    4.60
  -7 -10 -10   32.79    6.47
  -6 -10 -10    4.53    2.61
  -5 -10 -10    4.49    2.46
  -4 -10 -10   11.00    3.29
  -3 -10 -10    6.69    2.52
  -2 -10 -10    5.43    1.84
  -1 -10 -10    0.84    1.63
   0 -10 -10    1.11    2.17
   1 -10 -10    2.38    2.53
  -7 -11  -9   19.78    5.60
  -7  -9 -11    8.47    3.52
  -6 -11  -9   36.35    7.09
  -6  -9 -11    6.59    2.82
  -5 -11  -9   22.64    5.07
  -5  -9 -11    5.37    2.74
  -4 -11  -9   13.37    3.63
  -4  -9 -11   12.06    3.93
  -3 -11  -9    0.23    1.52
  -3  -9 -11   13.05    4.46
  -2 -11  -9    0.84    1.39
  -2  -9 -11    4.34    3.44
  -1 -11  -9    1.56    1.67
  -1  -9 -11    3.00    4.03
   0 -11  -9    2.32    1.76
   0  -9 -11   -2.55    4.05
   1 -11  -9   -0.26    1.63
  -8 -12  -8   19.12    9.10
  -7 -12  -8   21.23   10.46
  -6 -12  -8    3.10    5.74
  -6  -8 -12    4.18    3.12
  -5 -12  -8    2.53    2.58
  -5  -8 -12    1.93    2.49
  -4 -12  -8    2.76    2.60
  -4  -8 -12    8.24    4.01
  -3 -12  -8    3.83    2.91
  -3  -8 -12    8.55    3.68
  -2 -12  -8    5.28    3.00
  -2  -8 -12    1.64    2.29
  -1 -12  -8    2.59    2.07
  -1  -8 -12    4.00    4.44
   0 -12  -8    3.44    1.98
   0  -8 -12   -2.02    4.19
  -6 -13  -7   16.36    7.37
  -6  -7 -13    5.30    2.53
  -5 -13  -7   14.94    6.50
  -5  -7 -13    7.04    2.87
  -4 -13  -7   10.41    6.75
  -4  -7 -13    7.17    3.74
  -3 -13  -7    6.34    4.39
  -3  -7 -13    8.82    3.56
  -2 -13  -7    0.89    5.20
  -2  -7 -13   16.86    4.92
  -1 -13  -7    3.08    4.62
  -1  -7 -13    7.27    3.77
  -6  -6 -14   12.54    3.92
  -5  -6 -14    3.58    3.98
  -4  -6 -14    3.32    3.71
  -3 -14  -6    6.19    6.82
  -3  -6 -14    2.24    4.32
  -7 -11 -10   15.37    4.54
  -7 -10 -11    0.78    2.55
  -6 -11 -10    2.26    2.91
  -6 -10 -11    9.40    3.25
  -5 -11 -10    4.60    2.89
  -5 -10 -11   11.56    3.42
  -4 -11 -10    3.28    1.92
  -4 -10 -11   20.45    4.18
  -3 -11 -10    1.73    1.58
  -3 -10 -11   18.30    3.86
  -2 -11 -10    3.14    2.19
  -2 -10 -11    2.50    2.00
  -1 -11 -10    2.49    1.65
  -1 -10 -11   -0.35    2.17
  -8 -12  -9   -2.49    8.23
  -7 -12  -9   12.68    7.80
  -7  -9 -12    4.56    2.68
  -6 -12  -9    2.69    2.87
  -6  -9 -12    1.67    2.25
  -5 -12  -9    1.95    2.93
  -5  -9 -12    3.70    4.54
  -4 -12  -9    1.50    1.83
  -4  -9 -12    6.19    4.58
  -3 -12  -9    1.05    1.82
  -3  -9 -12    7.00    2.91
  -2 -12  -9   -0.87    1.85
  -2  -9 -12    7.52    3.47
  -1 -12  -9    0.08    2.01
  -1  -9 -12    7.14    4.35
  -7 -13  -8    7.93    6.04
  -6 -13  -8    9.65    9.41
  -6  -8 -13   13.81    4.50
  -5 -13  -8   15.58    5.53
  -5  -8 -13   12.66    4.71
  -4 -13  -8   12.56    6.08
  -4  -8 -13    4.93    3.00
  -3 -13  -8    7.45    3.64
  -3  -8 -13    5.77    2.71
  -2 -13  -8   -0.56    2.21
  -2  -8 -13    0.97    2.37
  -6  -7 -14    4.10    2.56
  -5 -14  -7   -3.26    4.20
  -5  -7 -14    5.03    3.24
  -4 -14  -7    2.36    4.46
  -4  -7 -14   -0.32    2.04
  -3  -7 -14    2.11    2.03
  -7 -11 -11   13.79    4.60
  -6 -11 -11    3.13    2.40
  -5 -11 -11    4.50    2.24
  -4 -11 -11    4.63    2.09
  -3 -11 -11    2.22    1.65
  -2 -11 -11    4.61    2.62
  -7 -12 -10   -1.59    2.97
  -7 -10 -12    4.49    2.58
  -6 -12 -10    1.49    3.06
  -6 -10 -12   -0.17    2.02
  -5 -12 -10    1.34    2.58
  -5 -10 -12    1.67    2.22
  -4 -12 -10    1.57    2.26
  -4 -10 -12    3.22    2.57
  -3 -12 -10    1.14    1.73
  -3 -10 -12    0.13    1.29
  -2 -12 -10    0.33    1.53
  -2 -10 -12    1.23    1.58
  -8 -13  -9   -1.49    5.24
  -7 -13  -9   11.10    9.19
  -6 -13  -9   20.75    7.93
  -6  -9 -13   31.80    6.80
  -5 -13  -9    6.90    3.53
  -5  -9 -13   26.25    7.51
  -4 -13  -9    1.72    2.49
  -4  -9 -13    8.27    3.13
  -3 -13  -9    0.36    2.42
  -3  -9 -13    2.28    2.30
  -6 -14  -8    2.57    5.41
  -6  -8 -14    3.43    3.19
  -5 -14  -8   18.58    9.02
  -5  -8 -14    9.62    4.45
  -4  -8 -14    2.89    2.70
  -7 -12 -11   21.62    5.21
  -7 -11 -12    1.57    2.16
  -6 -12 -11    6.67    3.10
  -6 -11 -12    2.81    2.17
  -5 -12 -11   -0.04    1.86
  -5 -11 -12    1.57    1.71
  -4 -12 -11    0.79    1.68
  -4 -11 -12    2.29    2.28
  -3 -12 -11    1.48    1.54
  -3 -11 -12    2.15    1.88
  -8 -13 -10    4.90    5.50
  -7 -13 -10    8.70    6.43
  -7 -10 -13    3.63    2.63
  -6 -13 -10   -0.61    2.49
  -6 -10 -13    3.24    2.42
  -5 -13 -10    2.30    2.75
  -5 -10 -13    4.89    2.49
  -4 -13 -10    3.42    2.57
  -4 -10 -13    0.50    1.89
  -7 -14  -9   -2.58    4.83
  -6 -14  -9   23.83    9.20
  -6  -9 -14    6.60    5.11
  -5  -9 -14    2.69    2.49
  -7 -12 -12   -0.16    2.28
  -6 -12 -12    2.30    2.72
  -5 -12 -12    4.70    2.24
  -7 -13 -11   10.04    4.28
  -7 -11 -13    1.30    2.52
  -6 -13 -11    8.12    3.69
  -6 -11 -13    4.99    2.97
  -5 -11 -13    1.72    2.40
   0   0   0    0.00    0.00
;
_shelx_hkl_checksum              43232
_shelx_res_file
;
TITL 131202a1 in P-1
    4.res
    created by SHELXL-2018/1 at 15:44:18 on 19-Jan-2019
CELL 0.71073   9.8038  11.3496  11.3496  69.430  65.912  65.912
ZERR    2.00   0.0126   0.0143   0.0143   0.014   0.018   0.018
LATT 1
SFAC C  H  N  Cl Zn I
UNIT 26 22 12 6 2 4
OMIT  -1.00  50.10
L.S. 8
ACTA
BOND
FMAP 2
PLAN 20
size 0.18 0.15 0.11
dfix 2.84 0.02 cl1' cl2' cl2' cl3' cl3' cl1'
dfix 1.72 0.01 c13' cl1' c13' cl2' c13' cl3'
simu 0.01 0.02 2.9 c13 cl1 cl2 cl3
dfix 2.84 0.02 cl1 cl2 cl2 cl3 cl3 cl1
dfix 1.72 0.01 c13 cl1 c13 cl2 c13 cl3
eadp cl1 cl1'
eadp cl2 cl2'
eadp cl3 cl3'
eadp c13 c13'
FREE N1   N3
TEMP 25
WGHT    0.172000
FVAR       0.18660   0.76412
MOLE 1
ZN1   5    0.584057    1.360957    0.326981    11.00000    0.04108    0.04289 =
         0.06292   -0.01784   -0.02771   -0.01052
PART 1
CL1   4    0.362165    0.138635    0.268811    21.00000    0.09930    0.10851 =
         0.24907   -0.05392   -0.05494   -0.03372
CL2   4    0.110101    0.046028    0.346707    21.00000    0.09156    0.09936 =
         0.23018   -0.03305   -0.04234   -0.03526
CL3   4    0.399617   -0.083481    0.180403    21.00000    0.14618    0.08806 =
         0.18173   -0.05518   -0.07099    0.01420
PART 2
CL1'  4    0.339608    0.093156    0.374565   -21.00000    0.09930    0.10851 =
         0.24907   -0.05392   -0.05494   -0.03372
CL2'  4    0.181160   -0.008415    0.289452   -21.00000    0.09156    0.09936 =
         0.23018   -0.03305   -0.04234   -0.03526
CL3'  4    0.365751    0.157789    0.103551   -21.00000    0.14618    0.08806 =
         0.18173   -0.05518   -0.07099    0.01420
PART 0
I1    6    0.502729    1.565250    0.155596    11.00000    0.07198    0.05351 =
         0.06818   -0.00954   -0.04495   -0.00972
I2    6    0.386466    1.292403    0.539990    11.00000    0.04684    0.06243 =
         0.07346   -0.01881   -0.01604   -0.01537
N1    3    0.992927    0.720233    0.193560    11.00000    0.03416    0.04193 =
         0.06312   -0.01730   -0.02129   -0.00538
N2    3    1.032185    0.628702    0.128105    11.00000    0.04106    0.06347 =
         0.06066   -0.03297   -0.00438   -0.02316
N3    3    0.972665    0.680602    0.028314    11.00000    0.10428    0.07555 =
         0.05922   -0.01257   -0.02890   -0.05243
N4    3    0.896283    0.807225    0.024622    11.00000    0.11776    0.03778 =
         0.10117   -0.00867   -0.06411   -0.03320
N5    3    0.764029    0.370469    0.365029    11.00000    0.02869    0.05612 =
         0.05783   -0.01292   -0.01895   -0.02155
N6    3    0.698417    1.197019    0.245276    11.00000    0.04617    0.05012 =
         0.06165   -0.01990   -0.02931   -0.01051
C1    1    0.903686    0.828089    0.132968    11.00000    0.04723    0.04592 =
         0.04970   -0.02263   -0.01580   -0.01414
C2    1    1.107784    0.493474    0.170930    11.00000    0.02815    0.03734 =
         0.08257   -0.03658    0.00333   -0.00972
AFIX  23
H2A   2    1.195411    0.484101    0.196510    11.00000   -1.20000
H2B   2    1.149015    0.449294    0.098640    11.00000   -1.20000
AFIX   0
C3    1    0.869634    0.416294    0.267997    11.00000    0.07015    0.03164 =
         0.07071   -0.01768   -0.04118   -0.01237
AFIX  43
H3    2    0.862289    0.441904    0.182900    11.00000   -1.20000
AFIX   0
C4    1    0.995266    0.428580    0.287255    11.00000    0.01759    0.05955 =
         0.05704   -0.03272   -0.01096   -0.00063
C5    1    1.008327    0.388728    0.410427    11.00000    0.02923    0.05638 =
         0.09387   -0.04798   -0.02106    0.01079
AFIX  43
H5    2    1.092389    0.394268    0.424452    11.00000   -1.20000
AFIX   0
C6    1    0.901953    0.342470    0.509313    11.00000    0.07498    0.06140 =
         0.04658   -0.03525   -0.01553   -0.00580
AFIX  43
H6    2    0.911978    0.314510    0.593672    11.00000   -1.20000
AFIX   0
C7    1    0.774963    0.333779    0.492492    11.00000    0.06781    0.03337 =
         0.08323   -0.01390   -0.04316   -0.01101
AFIX  43
H7    2    0.698048    0.303990    0.564855    11.00000   -1.20000
AFIX   0
C8    1    0.708424    1.189551    0.127779    11.00000    0.08357    0.06356 =
         0.05451    0.01033   -0.02541   -0.05079
AFIX  43
H8    2    0.667647    1.265823    0.070595    11.00000   -1.20000
AFIX   0
C9    1    0.777953    1.071135    0.089227    11.00000    0.06232    0.04045 =
         0.06526   -0.01339   -0.03051   -0.01813
AFIX  43
H9    2    0.781346    1.070513    0.006349    11.00000   -1.20000
AFIX   0
C10   1    0.841518    0.955850    0.164411    11.00000    0.03520    0.02139 =
         0.07243   -0.01914   -0.02714    0.01078
C11   1    0.836812    0.962065    0.286960    11.00000    0.08526    0.03827 =
         0.06522   -0.01027   -0.05451   -0.00011
AFIX  43
H11   2    0.884030    0.887863    0.342255    11.00000   -1.20000
AFIX   0
C12   1    0.759868    1.081827    0.322303    11.00000    0.06632    0.05143 =
         0.06234   -0.02166   -0.03427   -0.00941
AFIX  43
H12   2    0.749025    1.083913    0.406926    11.00000   -1.20000
PART 1
AFIX   0
C13   1    0.276955    0.066204    0.218811    21.00000    0.10682    0.08307 =
         0.21800   -0.04341   -0.05298   -0.02349
AFIX  13
H13   2    0.246658    0.126195    0.140874    21.00000   -1.20000
PART 2
AFIX   0
C13'  1    0.247442    0.120057    0.262965   -21.00000    0.10682    0.08307 =
         0.21800   -0.04341   -0.05298   -0.02349
AFIX  13
H13'  2    0.154749    0.198219    0.276621   -21.00000   -1.20000
PART 0
AFIX   0
HKLF 4
REM  131202a1 in P-1
REM R1 =  0.1308 for    2424 Fo > 4sig(Fo)  and  0.1638 for all    3598 data
REM    239 parameters refined using     48 restraints
END
WGHT      0.2000      0.0000
REM Highest difference peak  2.403,  deepest hole -1.890,  1-sigma level  0.381
Q1    1   0.2846  1.3187  0.5960  11.00000  0.05    2.40
Q2    1   0.3487  0.1806  0.1457  11.00000  0.05    1.96
Q3    1   0.4752  1.3810  0.3602  11.00000  0.05    1.88
Q4    1   0.3269 -0.0979  0.2043  11.00000  0.05    1.83
Q5    1   0.5870  1.4417  0.2824  11.00000  0.05    1.77
Q6    1   0.1537  0.0820  0.3641  11.00000  0.05    1.76
Q7    1   0.4737  1.3127  0.4386  11.00000  0.05    1.74
Q8    1   0.4951  1.6547  0.1001  11.00000  0.05    1.73
Q9    1   0.4952  1.2581  0.5013  11.00000  0.05    1.65
Q10   1   0.3934  1.5964  0.1958  11.00000  0.05    1.60
Q11   1   0.5925  1.5638  0.0670  11.00000  0.05    1.58
Q12   1   0.3751  1.3758  0.4982  11.00000  0.05    1.57
Q13   1   0.6141  1.5416  0.1199  11.00000  0.05    1.57
Q14   1   0.5021  1.4932  0.2010  11.00000  0.05    1.56
Q15   1   0.6916  1.3350  0.2613  11.00000  0.05    1.56
Q16   1   0.5903  1.2781  0.3600  11.00000  0.05    1.52
Q17   1   0.3968  1.2055  0.5947  11.00000  0.05    1.47
Q18   1   0.3796  1.4955  0.2790  11.00000  0.05    1.30
Q19   1   0.9417  0.4396  0.3771  11.00000  0.05    1.25
Q20   1   1.2868  0.3637 -0.0793  11.00000  0.05    1.23
;
_shelx_res_checksum              50701
loop_
_symmetry_equiv_pos_as_xyz
'x, y, z'
'-x, -y, -z'
loop_
_atom_site_type_symbol
_atom_site_label
_atom_site_fract_x
_atom_site_fract_y
_atom_site_fract_z
_atom_site_U_iso_or_equiv
_atom_site_adp_type
_atom_site_calc_flag
_atom_site_occupancy
_atom_site_disorder_assembly
_atom_site_disorder_group
Zn Zn1 0.5841(2) 1.3610(2) 0.3270(2) 0.0439(7) Uani d 1 . .
Cl Cl1 0.3622(15) 0.1386(14) 0.269(2) 0.147(5) Uani d 0.764(11) A 1
Cl Cl2 0.1101(13) 0.0460(13) 0.3467(18) 0.142(5) Uani d 0.764(11) A 1
Cl Cl3 0.3996(17) -0.0835(12) 0.1804(15) 0.142(5) Uani d 0.764(11) A 1
Cl Cl1' 0.340(6) 0.093(5) 0.375(4) 0.147(5) Uani d 0.236(11) A 2
Cl Cl2' 0.181(5) -0.008(4) 0.289(5) 0.142(5) Uani d 0.236(11) A 2
Cl Cl3' 0.366(5) 0.158(3) 0.104(4) 0.142(5) Uani d 0.236(11) A 2
I I1 0.50273(18) 1.56525(14) 0.15560(15) 0.0610(6) Uani d 1 . .
I I2 0.38647(17) 1.29240(15) 0.53999(15) 0.0613(6) Uani d 1 . .
N N1 0.9929(17) 0.7202(15) 0.1936(16) 0.045(4) Uani d 1 . .
N N2 1.0322(19) 0.6287(18) 0.1281(18) 0.051(4) Uani d 1 . .
N N3 0.973(3) 0.681(2) 0.0283(19) 0.070(6) Uani d 1 . .
N N4 0.896(3) 0.8072(18) 0.025(2) 0.074(6) Uani d 1 . .
N N5 0.7640(17) 0.3705(16) 0.3650(15) 0.043(4) Uani d 1 . .
N N6 0.6984(18) 1.1970(16) 0.2453(17) 0.048(4) Uani d 1 . .
C C1 0.904(2) 0.8281(19) 0.1330(19) 0.044(4) Uani d 1 . .
C C2 1.108(2) 0.4935(18) 0.171(2) 0.050(5) Uani d 1 . .
H H2A 1.195411 0.484101 0.196510 0.060 Uiso calc 1 . .
H H2B 1.149015 0.449294 0.098640 0.060 Uiso calc 1 . .
C C3 0.870(3) 0.4163(18) 0.268(2) 0.050(5) Uani d 1 . .
H H3 0.862289 0.441904 0.182900 0.060 Uiso calc 1 . .
C C4 0.9953(19) 0.4286(19) 0.287(2) 0.043(4) Uani d 1 . .
C C5 1.008(2) 0.389(2) 0.410(3) 0.058(6) Uani d 1 . .
H H5 1.092389 0.394268 0.424452 0.070 Uiso calc 1 . .
C C6 0.902(3) 0.342(2) 0.509(2) 0.061(6) Uani d 1 . .
H H6 0.911978 0.314510 0.593672 0.073 Uiso calc 1 . .
C C7 0.775(3) 0.3338(18) 0.492(2) 0.056(5) Uani d 1 . .
H H7 0.698048 0.303990 0.564855 0.067 Uiso calc 1 . .
C C8 0.708(3) 1.190(2) 0.128(2) 0.063(6) Uani d 1 . .
H H8 0.667647 1.265823 0.070595 0.075 Uiso calc 1 . .
C C9 0.778(2) 1.0711(19) 0.089(2) 0.051(5) Uani d 1 . .
H H9 0.781346 1.070513 0.006349 0.061 Uiso calc 1 . .
C C10 0.842(2) 0.9558(16) 0.164(2) 0.044(4) Uani d 1 . .
C C11 0.837(3) 0.962(2) 0.287(2) 0.059(6) Uani d 1 . .
H H11 0.884030 0.887863 0.342255 0.071 Uiso calc 1 . .
C C12 0.760(3) 1.082(2) 0.322(2) 0.055(5) Uani d 1 . .
H H12 0.749025 1.083913 0.406926 0.066 Uiso calc 1 . .
C C13 0.2770(18) 0.0662(17) 0.219(2) 0.134(9) Uani d 0.764(11) A 1
H H13 0.246658 0.126195 0.140874 0.161 Uiso calc 0.764(11) A 1
C C13' 0.247(4) 0.120(4) 0.263(4) 0.134(9) Uani d 0.236(11) A 2
H H13' 0.154749 0.198219 0.276621 0.161 Uiso calc 0.236(11) A 2
loop_
_atom_site_aniso_label
_atom_site_aniso_U_11
_atom_site_aniso_U_22
_atom_site_aniso_U_33
_atom_site_aniso_U_12
_atom_site_aniso_U_13
_atom_site_aniso_U_23
Zn1 0.0411(13) 0.0429(13) 0.0629(15) -0.0105(9) -0.0277(11) -0.0178(10)
Cl1 0.099(7) 0.109(8) 0.249(13) -0.034(6) -0.055(9) -0.054(9)
Cl2 0.092(8) 0.099(8) 0.230(12) -0.035(6) -0.042(8) -0.033(8)
Cl3 0.146(9) 0.088(7) 0.182(11) 0.014(6) -0.071(8) -0.055(7)
Cl1' 0.099(7) 0.109(8) 0.249(13) -0.034(6) -0.055(9) -0.054(9)
Cl2' 0.092(8) 0.099(8) 0.230(12) -0.035(6) -0.042(8) -0.033(8)
Cl3' 0.146(9) 0.088(7) 0.182(11) 0.014(6) -0.071(8) -0.055(7)
I1 0.0720(11) 0.0535(9) 0.0682(10) -0.0097(7) -0.0450(8) -0.0095(7)
I2 0.0468(9) 0.0624(10) 0.0735(11) -0.0154(6) -0.0160(7) -0.0188(7)
N1 0.034(9) 0.042(9) 0.063(10) -0.005(6) -0.021(8) -0.017(7)
N2 0.041(10) 0.063(11) 0.061(11) -0.023(8) -0.004(8) -0.033(9)
N3 0.104(17) 0.076(15) 0.059(12) -0.052(13) -0.029(11) -0.013(10)
N4 0.118(18) 0.038(11) 0.101(16) -0.033(11) -0.064(14) -0.009(10)
N5 0.029(8) 0.056(10) 0.058(10) -0.022(7) -0.019(7) -0.013(8)
N6 0.046(10) 0.050(10) 0.062(10) -0.011(7) -0.029(8) -0.020(8)
C1 0.047(12) 0.046(11) 0.050(11) -0.014(8) -0.016(9) -0.023(9)
C2 0.028(10) 0.037(10) 0.083(15) -0.010(7) 0.003(9) -0.037(10)
C3 0.070(14) 0.032(10) 0.071(13) -0.012(9) -0.041(11) -0.018(9)
C4 0.018(9) 0.060(12) 0.057(12) -0.001(7) -0.011(8) -0.033(9)
C5 0.029(11) 0.056(13) 0.094(18) 0.011(9) -0.021(11) -0.048(12)
C6 0.075(17) 0.061(14) 0.047(12) -0.006(11) -0.016(11) -0.035(10)
C7 0.068(15) 0.033(11) 0.083(16) -0.011(9) -0.043(12) -0.014(10)
C8 0.084(17) 0.064(14) 0.055(13) -0.051(13) -0.025(12) 0.010(11)
C9 0.062(13) 0.040(11) 0.065(13) -0.018(9) -0.031(11) -0.013(9)
C10 0.035(10) 0.021(9) 0.072(13) 0.011(7) -0.027(9) -0.019(8)
C11 0.085(16) 0.038(11) 0.065(14) 0.000(10) -0.055(12) -0.010(9)
C12 0.066(14) 0.051(13) 0.062(13) -0.009(10) -0.034(11) -0.022(10)
C13 0.107(12) 0.083(12) 0.218(15) -0.023(11) -0.053(12) -0.043(12)
C13' 0.107(12) 0.083(12) 0.218(15) -0.023(11) -0.053(12) -0.043(12)
loop_
_atom_type_symbol
_atom_type_description
_atom_type_scat_dispersion_real
_atom_type_scat_dispersion_imag
_atom_type_scat_source
C C 0.0033 0.0016 'International Tables Vol C Tables 4.2.6.8 and 6.1.1.4'
H H 0.0000 0.0000 'International Tables Vol C Tables 4.2.6.8 and 6.1.1.4'
N N 0.0061 0.0033 'International Tables Vol C Tables 4.2.6.8 and 6.1.1.4'
Cl Cl 0.1484 0.1585 'International Tables Vol C Tables 4.2.6.8 and 6.1.1.4'
Zn Zn 0.2839 1.4301 'International Tables Vol C Tables 4.2.6.8 and 6.1.1.4'
I I -0.4742 1.8119 'International Tables Vol C Tables 4.2.6.8 and 6.1.1.4'
loop_
_geom_angle_atom_site_label_1
_geom_angle_atom_site_label_2
_geom_angle_atom_site_label_3
_geom_angle_site_symmetry_1
_geom_angle_site_symmetry_3
_geom_angle
_geom_angle_publ_flag
N5 Zn1 N6 1_565 . 99.7(6) ?
N5 Zn1 I2 1_565 . 109.9(5) ?
N6 Zn1 I2 . . 105.0(5) ?
N5 Zn1 I1 1_565 . 108.5(4) ?
N6 Zn1 I1 . . 110.4(5) ?
I2 Zn1 I1 . . 121.28(12) ?
N2 N1 C1 . . 104.6(17) ?
N3 N2 N1 . . 110.0(18) ?
N3 N2 C2 . . 125.7(18) ?
N1 N2 C2 . . 123.7(19) ?
N4 N3 N2 . . 109.5(18) ?
N3 N4 C1 . . 104.3(19) ?
C3 N5 C7 . . 118.7(16) ?
C3 N5 Zn1 . 1_545 118.6(13) ?
C7 N5 Zn1 . 1_545 122.6(12) ?
C8 N6 C12 . . 115.7(18) ?
C8 N6 Zn1 . . 127.0(15) ?
C12 N6 Zn1 . . 117.2(14) ?
N1 C1 N4 . . 111.2(17) ?
N1 C1 C10 . . 124.7(18) ?
N4 C1 C10 . . 123.5(19) ?
N2 C2 C4 . . 111.0(15) ?
N5 C3 C4 . . 121.8(19) ?
C5 C4 C3 . . 119.3(19) ?
C5 C4 C2 . . 121.5(19) ?
C3 C4 C2 . . 119.1(19) ?
C6 C5 C4 . . 119(2) ?
C5 C6 C7 . . 122(2) ?
C6 C7 N5 . . 119(2) ?
N6 C8 C9 . . 121(2) ?
C10 C9 C8 . . 124(2) ?
C9 C10 C11 . . 116.1(17) ?
C9 C10 C1 . . 126(2) ?
C11 C10 C1 . . 118.1(17) ?
C12 C11 C10 . . 117.3(18) ?
N6 C12 C11 . . 126(2) ?
Cl3 C13 Cl2 . . 110.1(11) ?
Cl3 C13 Cl1 . . 112.9(11) ?
Cl2 C13 Cl1 . . 107.0(10) ?
Cl2' C13' Cl3' . . 112.6(14) ?
Cl2' C13' Cl1' . . 112.4(14) ?
Cl3' C13' Cl1' . . 110.7(14) ?
loop_
_geom_bond_atom_site_label_1
_geom_bond_atom_site_label_2
_geom_bond_site_symmetry_2
_geom_bond_distance
_geom_bond_publ_flag
Zn1 N5 1_565 2.030(14) ?
Zn1 N6 . 2.059(16) ?
Zn1 I2 . 2.508(3) ?
Zn1 I1 . 2.526(3) ?
Cl1 C13 . 1.724(10) ?
Cl2 C13 . 1.723(10) ?
Cl3 C13 . 1.717(10) ?
Cl1' C13' . 1.718(10) ?
Cl2' C13' . 1.716(10) ?
Cl3' C13' . 1.718(10) ?
N1 N2 . 1.33(2) ?
N1 C1 . 1.33(2) ?
N2 N3 . 1.33(3) ?
N2 C2 . 1.41(3) ?
N3 N4 . 1.32(3) ?
N4 C1 . 1.37(3) ?
N5 C3 . 1.29(3) ?
N5 C7 . 1.39(3) ?
N6 C8 . 1.33(3) ?
N6 C12 . 1.35(3) ?
C1 C10 . 1.44(2) ?
C2 C4 . 1.51(3) ?
C3 C4 . 1.40(3) ?
C4 C5 . 1.35(3) ?
C5 C6 . 1.30(3) ?
C6 C7 . 1.38(3) ?
C8 C9 . 1.37(3) ?
C9 C10 . 1.35(3) ?
C10 C11 . 1.40(3) ?
C11 C12 . 1.37(3) ?
loop_
_geom_hbond_atom_site_label_D
_geom_hbond_atom_site_label_H
_geom_hbond_atom_site_label_A
_geom_hbond_site_symmetry_A
_geom_hbond_distance_DH
_geom_hbond_distance_HA
_geom_hbond_distance_DA
_geom_hbond_angle_DHA
_geom_hbond_publ_flag
C6 H6 N1^iii^ 2_766 0.93 2.75 3.64(2) 160 yes
C13 H13 N4^iv^ 2_665 0.98 2.57 3.45(3) 150 yes
C13 Cl1 Cg1 . 1.714(9) 3.559(16) 4.799(16) 127 yes

_cod_database_fobs_code 2022306
