#------------------------------------------------------------------------------
#$Date: 2020-04-10 08:39:05 +0300 (Fri, 10 Apr 2020) $
#$Revision: 250656 $
#$URL: file:///home/coder/svn-repositories/cod/cif/2/02/20/2022077.cif $
#------------------------------------------------------------------------------
#
# This file is available in the Crystallography Open Database (COD),
# http://www.crystallography.net/. The original data for this entry
# were provided by IUCr Journals, http://journals.iucr.org/.
#
# The file may be used within the scientific community so long as
# proper attribution is given to the journal article from which the
# data were obtained.
#
data_2022077
loop_
_publ_author_name
'Jha, Kunal Kumar'
'Gruza, Barbara'
'Kumar, Prashant'
'Chodkiewicz, Michal Leszek'
'Dominiak, Paulina Maria'
_publ_section_title
;
 TAAM: a reliable and user friendly tool for hydrogen-atom location using
 routine X-ray diffraction data
;
_journal_issue                   3
_journal_name_full
'Acta Crystallographica Section B Structural Science, Crystal Engineering and Materials'
_journal_paper_doi               10.1107/S2052520620002917
_journal_volume                  76
_journal_year                    2020
_chemical_formula_moiety         'C H O2, H2 O'
_chemical_formula_sum            'C H3 O3'
_chemical_formula_weight         63.03
_space_group_crystal_system      monoclinic
_space_group_IT_number           14
_space_group_name_Hall           '-P 2ybc'
_space_group_name_H-M_alt        'P 1 21/c 1'
_symmetry_Int_Tables_number      14
_audit_creation_date             2019-09-27
_audit_creation_method
;
Olex2 1.2
(compiled 2018.05.29 svn.r3508 for OlexSys, GUI svn.r5506)
;
_cell_angle_alpha                90.00
_cell_angle_beta                 103.883(2)
_cell_angle_gamma                90.00
_cell_formula_units_Z            4
_cell_length_a                   6.0893(2)
_cell_length_b                   3.4965(1)
_cell_length_c                   11.8311(4)
_cell_measurement_temperature    100(1)
_cell_volume                     244.540(14)
_computing_molecular_graphics    'Olex2 (Dolomanov et al., 2009)'
_computing_publication_material  'Olex2 (Dolomanov et al., 2009)'
_computing_structure_refinement  'olex2.refine (Bourhis et al., 2015)'
_diffrn_ambient_temperature      100(1)
_diffrn_measured_fraction_theta_full 0.6170
_diffrn_measured_fraction_theta_max 0.6170
_diffrn_measurement_device_type  'APEX II CCD detector'
_diffrn_radiation_type           'Mo K\a'
_diffrn_radiation_wavelength     0.71073
_diffrn_reflns_av_R_equivalents  0.0000
_diffrn_reflns_av_unetI/netI     0.0323
_diffrn_reflns_limit_h_max       13
_diffrn_reflns_limit_h_min       -14
_diffrn_reflns_limit_k_max       7
_diffrn_reflns_limit_k_min       0
_diffrn_reflns_limit_l_max       27
_diffrn_reflns_limit_l_min       0
_diffrn_reflns_number            1998
_diffrn_reflns_theta_full        55.8335
_diffrn_reflns_theta_max         55.83
_diffrn_reflns_theta_min         3.45
_exptl_absorpt_coefficient_mu    0.181
_exptl_crystal_density_diffrn    1.7119
_exptl_crystal_F_000             132.1419
_refine_diff_density_max         0.2689
_refine_diff_density_min         -0.2887
_refine_diff_density_rms         0.0474
_refine_ls_d_res_high            0.4295
_refine_ls_d_res_low             5.9114
_refine_ls_goodness_of_fit_ref   1.0558
_refine_ls_hydrogen_treatment    mixed
_refine_ls_matrix_type           full
_refine_ls_number_constraints    2
_refine_ls_number_parameters     48
_refine_ls_number_reflns         1998
_refine_ls_number_restraints     0
_refine_ls_restrained_S_all      1.0558
_refine_ls_R_factor_all          0.0237
_refine_ls_R_factor_gt           0.0237
_refine_ls_shift/su_max          0.0000
_refine_ls_shift/su_mean         0.0000
_refine_ls_structure_factor_coef Fsqd
_refine_ls_weighting_details
'w=1/[\s^2^(Fo^2^)+(0.0169P)^2^+0.0053P] where P=(Fo^2^+2Fc^2^)/3'
_refine_ls_weighting_scheme      calc
_refine_ls_wR_factor_gt          0.0545
_refine_ls_wR_factor_ref         0.0545
_reflns_Friedel_coverage         0.0
_reflns_limit_h_max              13
_reflns_limit_h_min              -14
_reflns_limit_k_max              7
_reflns_limit_k_min              0
_reflns_limit_l_max              27
_reflns_limit_l_min              0
_reflns_number_gt                1998
_reflns_number_total             1998
_reflns_threshold_expression     I>=2u(I)
_iucr_refine_instructions_details
;
TITL oxa02
CELL 0.71073 6.0893 3.4965 11.8311 90 103.883 90
ZERR 4 0 0 0 0 0 0
LATT 1
SYMM -X,0.5+Y,0.5-Z
SFAC C H O
UNIT 4 12 12

ACTA 
BOND $H
WGHT 0.016913 0.005328
FVAR 0.982652
REM <olex2.extras>
REM <HklSrc "%.\\da5f211d8ac5d69a05b0c75a292ee76a.hkl">
REM </olex2.extras>

O1    3     0.43479  0.44394  0.34986  11.00000  0.01339  0.01934  0.00845 =
 -0.00070  0.00208  0.00428 
O2    3     0.24249  0.74214  0.46363  11.00000  0.01157  0.01908  0.00949 =
 -0.00064  0.00115  0.00534 
C1    1     0.40310  0.55857  0.44797  11.00000  0.00976  0.01230  0.00810 =
 0.00005  0.00131  0.00171 
AFIX 6
O3    3     0.12999  0.63057  0.17844  11.00000  0.01102  0.01887  0.00944 =
 0.00112  0.00050 -0.00157 
H3a   2     0.02117  0.47659  0.15341  11.00000 -1.50000 
AFIX 0
H3b   2     0.19108  0.69190  0.11528  11.00000  0.02331 
H1    2     0.30778  0.52069  0.28506  11.00000  0.02862 
HKLF 4

END
Q1 1 0.444444 0.5 0.402778 11 0.05 0.27
Q2 1 0.305556 0.708333 0.472222 11 0.05 0.19
Q3 1 0.25 0.583333 0.222222 11 0.05 0.18
Q4 1 0.138889 0.75 0.402778 11 0.05 0.16
Q5 1 0.083333 0.291667 0.125 11 0.05 0.15
Q6 1 0.138889 0.875 0.208333 11 0.05 0.14
Q7 1 0.25 0.458333 0.097222 11 0.05 0.13
Q8 1 -0.055556 0.5 0.152778 11 0.05 0.13
Q9 1 0.277778 0.708333 0.319444 11 0.05 0.13
Q10 1 0.277778 1.083333 0.513889 11 0.05 0.12
Q11 1 0.555556 0.166667 0.361111 11 0.05 0.12
Q12 1 0.138889 0.666667 0.125 11 0.05 0.12
Q13 1 0.111111 0.291667 0.041667 11 0.05 0.12
Q14 1 0.416667 0.083333 0.263889 11 0.05 0.11
Q15 1 -0.111111 0.875 0.111111 11 0.05 0.11
Q16 1 0.555556 0.083333 0.472222 11 0.05 0.11
Q17 1 0.361111 0.916667 0.097222 11 0.05 0.11
Q18 1 0.083333 0.958333 0.055556 11 0.05 0.1
Q19 1 0.444444 0.833333 0.222222 11 0.05 0.1
Q20 1 0.388889 0.416667 0.291667 11 0.05 0.1

  REM The information below was added by Olex2.
  REM
  REM R1 = 0.0237 for 1998 Fo > 4sig(Fo) and 0.0237 for all 1998 data
  REM 48 parameters refined using 0 restraints
  REM Highest difference peak 0.2689, deepest hole -0.2887
  REM Mean Shift 0.0000, Max Shift 0.0000.

  REM +++ Tabular Listing of Refinement Information +++
  REM R1_all = 0.0237
  REM R1_gt = 0.0237
  REM wR_ref = 0.0545
  REM GOOF = 1.0558
  REM Shift_max = 0.0000
  REM Shift_mean = 0.0000
  REM Reflections_all = 1998
  REM Reflections_gt = 1998
  REM Parameters = 48
  REM Hole = -0.2887
  REM Peak = 0.2689
  REM Flack = n/a

  
;
_cod_data_source_file            56_TAAM_iso_max.cif
_cod_data_source_block           56_TAAM_iso_max
_cod_original_cell_volume        244.54(1)
_cod_database_code               2022077
_olex2_refinement_description
;
1. Fixed Uiso
 At 1.5 times of:
  All O(H) groups
2.a Free rotating group:
 O3(H3a)
;
_iucr_refine_fcf_details
;
data_oxa02
_computing_structure_refinement   'olex2.refine (Bourhis et al., 2015)'
_shelx_refln_list_code            4
loop_
  _space_group_symop_id
  _space_group_symop_operation_xyz
  1  x,y,z
  2  -x,y+1/2,-z+1/2
  3  -x,-y,-z
  4  x,-y-1/2,z-1/2

_space_group_crystal_system       monoclinic
_space_group_IT_number            14
_space_group_name_H-M_alt         'P 1 21/c 1'
_space_group_name_Hall            '-P 2ybc'
_symmetry_space_group_name_H-M    'P 1 21/c 1'
_symmetry_space_group_name_Hall   '-P 2ybc'
_symmetry_Int_Tables_number       14
_cell_length_a                    6.0893
_cell_length_b                    3.4965
_cell_length_c                    11.8311
_cell_angle_alpha                 90
_cell_angle_beta                  103.883
_cell_angle_gamma                 90
_cell_volume                      244.540221
loop_
  _refln_index_h
  _refln_index_k
  _refln_index_l
  _refln_F_squared_calc
  _refln_F_squared_meas
  _refln_F_squared_sigma
  _refln_F_squared_weight
  _refln_observed_status
-14 1 7 6.344 5.551 1.781 7.596 o
-13 0 6 31.361 30.002 3.335 2.113 o
-13 0 8 3.042 3.179 0.663 53.277 o
-13 0 12 10.562 10.335 1.823 7.164 o
-13 0 16 8.564 7.705 1.833 7.134 o
-13 1 1 2.465 2.548 0.570 71.950 o
-13 1 2 13.050 12.780 0.777 33.907 o
-13 1 5 8.781 6.100 0.673 47.619 o
-13 1 8 3.332 2.941 0.549 76.033 o
-13 1 10 3.071 2.724 0.435 117.753 o
-13 1 12 3.019 3.273 0.445 112.252 o
-13 2 1 3.628 4.681 0.507 86.238 o
-13 2 10 3.631 3.045 0.621 59.900 o
-13 3 4 4.018 3.780 0.777 38.851 o
-12 0 2 8.313 8.772 0.684 45.845 o
-12 0 4 38.170 41.870 1.574 7.799 o
-12 0 6 3.820 4.671 0.725 44.233 o
-12 0 12 7.627 6.224 1.005 23.002 o
-12 0 14 4.980 4.505 0.497 87.409 o
-12 0 16 16.246 12.200 3.003 2.666 o
-12 1 1 1.808 1.036 0.352 183.753 o
-12 1 5 17.643 17.119 1.150 16.265 o
-12 1 6 4.107 3.739 0.383 141.523 o
-12 1 7 1.425 1.170 0.373 166.561 o
-12 1 8 10.829 10.553 0.663 46.132 o
-12 1 9 10.433 9.932 0.860 29.654 o
-12 1 10 2.590 1.719 0.352 177.322 o
-12 1 12 6.058 5.831 0.435 105.603 o
-12 1 15 12.301 12.479 0.901 26.511 o
-12 2 1 12.041 11.961 0.787 33.701 o
-12 2 2 4.673 4.888 0.435 110.571 o
-12 2 5 7.172 6.835 0.570 64.911 o
-12 2 7 3.132 2.807 0.497 91.886 o
-12 2 8 3.800 3.749 0.425 119.421 o
-12 2 9 3.774 4.018 0.456 105.090 o
-12 2 11 7.804 8.171 0.632 53.183 o
-12 2 13 4.480 4.174 0.518 82.261 o
-12 3 3 2.778 2.599 0.518 85.788 o
-12 4 5 1.978 2.465 0.632 59.316 o
-12 4 6 4.756 4.246 0.601 62.432 o
-11 0 2 3.685 3.500 0.425 120.117 o
-11 0 4 8.653 8.585 0.559 64.273 o
-11 0 8 79.889 83.937 3.045 2.107 o
-11 0 10 7.278 7.001 0.860 30.845 o
-11 0 12 2.201 1.408 0.476 102.486 o
-11 0 14 30.637 31.172 1.512 8.974 o
-11 0 18 11.331 9.517 0.880 28.240 o
-11 0 22 6.345 5.416 1.750 7.865 o
-11 1 2 5.425 5.416 0.404 121.869 o
-11 1 3 12.580 12.852 0.694 41.060 o
-11 1 4 32.887 34.973 1.015 15.948 o
-11 1 5 1.869 2.061 0.321 213.444 o
-11 1 8 1.161 1.440 0.342 197.101 o
-11 1 9 5.705 5.064 0.362 144.302 o
-11 1 10 3.336 3.128 0.362 160.866 o
-11 1 11 3.756 3.210 0.342 175.103 o
-11 1 12 12.280 12.251 0.549 59.617 o
-11 1 14 5.884 5.137 0.487 88.493 o
-11 1 15 5.493 4.577 0.394 128.417 o
-11 1 16 2.195 2.351 0.456 110.498 o
-11 1 18 8.259 7.581 0.839 31.932 o
-11 1 19 9.988 8.792 0.963 24.304 o
-11 2 1 2.626 2.092 0.487 97.054 o
-11 2 4 10.140 10.253 0.507 71.554 o
-11 2 5 1.904 1.978 0.342 190.627 o
-11 2 6 5.778 5.841 0.383 130.379 o
-11 2 7 7.330 8.285 0.476 85.877 o
-11 2 11 1.959 1.688 0.362 171.605 o
-11 2 12 2.346 2.227 0.383 152.061 o
-11 2 14 1.297 1.367 0.394 150.403 o
-11 2 15 8.969 9.207 0.559 63.547 o
-11 3 2 2.853 2.434 0.383 149.498 o
-11 3 4 4.170 4.526 0.373 146.170 o
-11 3 5 5.722 5.385 0.445 102.978 o
-11 3 6 2.769 2.630 0.445 113.643 o
-11 3 7 3.058 2.703 0.425 123.100 o
-11 3 10 11.129 11.640 0.580 56.403 o
-11 3 11 3.580 3.096 0.507 87.528 o
-11 3 13 2.113 2.289 0.404 138.747 o
-11 3 16 3.407 2.454 0.507 88.276 o
-11 3 17 3.935 4.805 0.601 62.888 o
-11 4 2 2.515 2.185 0.394 144.245 o
-11 4 3 4.664 4.194 0.425 116.251 o
-11 4 6 5.891 6.266 0.456 97.687 o
-11 4 9 2.066 2.268 0.466 106.269 o
-11 4 10 3.286 3.645 0.497 90.949 o
-11 4 12 2.766 3.469 0.559 73.727 o
-11 5 2 5.469 4.546 0.756 40.263 o
-10 0 4 8.040 8.285 0.487 81.676 o
-10 0 6 11.058 11.568 0.621 50.677 o
-10 0 8 16.085 16.145 1.232 14.550 o
-10 0 10 10.605 10.988 0.694 42.734 o
-10 0 12 11.063 11.889 0.725 39.225 o
-10 0 18 56.167 57.373 1.988 4.724 o
-10 0 20 1.545 2.144 0.580 70.493 o
-10 1 1 3.362 3.273 0.290 232.590 o
-10 1 3 2.079 2.040 0.311 224.599 o
-10 1 5 8.971 8.844 0.487 79.487 o
-10 1 7 43.729 43.931 1.315 9.724 o
-10 1 8 18.295 18.082 0.652 39.538 o
-10 1 9 9.178 8.544 0.425 97.290 o
-10 1 10 5.754 6.379 0.394 124.109 o
-10 1 11 1.845 1.481 0.373 163.900 o
-10 1 12 3.583 3.138 0.362 159.589 o
-10 1 13 10.345 10.626 0.466 80.357 o
-10 1 14 15.958 15.752 0.849 27.819 o
-10 1 17 13.678 13.339 0.735 36.700 o
-10 1 18 2.200 1.916 0.404 139.089 o
-10 1 19 1.699 2.589 0.425 127.180 o
-10 1 22 10.184 8.150 0.984 23.387 o
-10 2 2 10.358 10.387 0.735 38.979 o
-10 2 3 45.115 45.878 1.274 9.957 o
-10 2 4 25.657 25.673 0.901 21.485 o
-10 2 8 8.408 8.689 0.456 89.272 o
-10 2 9 12.278 12.396 0.601 51.990 o
-10 2 11 10.721 10.729 0.487 74.708 o
-10 2 12 4.425 4.370 0.394 132.818 o
-10 2 13 10.448 9.838 0.652 47.868 o
-10 2 14 12.538 12.500 0.621 49.076 o
-10 2 17 3.203 4.153 0.456 106.232 o
-10 3 1 2.411 2.444 0.331 196.336 o
-10 3 2 7.314 7.860 0.414 107.312 o
-10 3 3 3.269 3.625 0.342 176.833 o
-10 3 4 9.409 8.865 0.414 99.648 o
-10 3 6 9.961 10.077 0.456 84.368 o
-10 3 8 5.274 5.613 0.383 132.873 o
-10 3 9 0.871 1.087 0.331 212.208 o
-10 3 10 7.152 7.674 0.601 58.833 o
-10 3 14 7.376 7.270 0.507 78.279 o
-10 3 15 2.316 2.206 0.404 138.189 o
-10 4 2 9.320 9.093 0.518 71.458 o
-10 4 3 5.918 5.510 0.580 64.841 o
-10 4 6 2.994 3.366 0.621 60.237 o
-10 4 8 2.765 2.765 0.425 123.859 o
-10 4 9 2.993 3.190 0.435 117.342 o
-10 4 10 6.330 6.462 0.694 46.346 o
-10 4 13 6.663 6.359 0.673 48.812 o
-10 4 16 9.193 9.807 0.766 36.862 o
-10 5 2 5.887 5.137 0.694 46.922 o
-10 5 5 2.583 2.682 0.518 86.000 o
-10 5 6 5.191 5.302 0.663 51.426 o
-10 5 12 12.332 10.025 2.092 5.457 o
-9 0 2 3.621 3.863 0.373 150.187 o
-9 0 4 54.228 54.981 1.471 7.398 o
-9 0 6 22.644 23.219 0.828 25.517 o
-9 0 8 3.961 3.231 0.394 136.739 o
-9 0 10 48.941 48.985 2.413 3.609 o
-9 0 14 1.632 1.812 0.456 112.319 o
-9 0 16 19.215 20.485 1.098 17.201 o
-9 0 22 6.319 5.116 0.725 43.074 o
-9 0 24 3.513 3.014 0.611 61.937 o
-9 1 2 1.302 1.315 0.228 411.496 o
-9 1 4 9.936 10.191 0.466 81.610 o
-9 1 5 2.804 3.148 0.269 269.923 o
-9 1 6 20.695 20.640 0.704 33.535 o
-9 1 7 15.887 16.529 0.570 50.428 o
-9 1 8 4.609 4.443 0.311 192.759 o
-9 1 9 16.159 16.394 0.621 44.570 o
-9 1 10 0.925 0.984 0.269 313.994 o
-9 1 11 6.288 6.131 0.362 138.996 o
-9 1 14 12.843 13.877 0.549 57.980 o
-9 1 16 2.547 2.247 0.321 207.320 o
-9 1 17 32.831 35.377 1.232 12.076 o
-9 1 18 5.945 6.628 0.559 68.510 o
-9 1 19 2.448 2.713 0.373 158.249 o
-9 1 20 3.844 2.962 0.476 97.916 o
-9 1 21 6.452 4.753 0.684 48.040 o
-9 1 23 1.961 2.196 0.487 98.109 o
-9 2 1 4.350 4.981 0.414 121.010 o
-9 2 5 5.555 5.510 0.331 164.905 o
-9 2 6 32.118 31.607 0.984 17.080 o
-9 2 7 9.204 9.403 0.394 106.735 o
-9 2 8 51.700 52.288 1.346 8.542 o
-9 2 10 4.910 4.847 0.487 90.533 o
-9 2 12 2.901 3.003 0.331 190.939 o
-9 2 13 28.510 29.474 0.891 20.619 o
-9 2 14 4.211 3.977 0.352 161.881 o
-9 2 16 8.856 8.585 0.673 46.809 o
-9 2 17 7.525 6.959 0.435 100.238 o
-9 2 18 13.472 13.370 0.611 49.188 o
-9 2 19 3.587 3.521 0.445 110.557 o
-9 2 21 6.367 5.986 0.735 41.751 o
-9 2 23 6.837 5.613 0.559 68.073 o
-9 3 1 2.487 2.289 0.290 247.577 o
-9 3 2 78.464 83.719 2.133 3.582 o
-9 3 3 11.434 12.645 0.497 69.735 o
-9 3 4 19.213 20.246 0.673 36.634 o
-9 3 7 18.472 18.714 0.621 41.867 o
-9 3 8 6.199 6.369 0.435 104.511 o
-9 3 9 1.149 1.305 0.290 268.731 o
-9 3 10 4.695 4.339 0.362 151.004 o
-9 3 11 0.983 1.274 0.362 177.684 o
-9 3 12 37.865 38.546 1.191 11.995 o
-9 3 13 6.055 5.675 0.487 87.687 o
-9 3 14 5.442 5.893 0.601 61.136 o
-9 3 15 2.166 1.895 0.445 115.983 o
-9 3 16 2.694 2.599 0.445 113.865 o
-9 4 1 10.595 10.284 0.590 56.044 o
-9 4 2 3.338 3.770 0.425 120.738 o
-9 4 3 19.003 19.604 0.891 24.401 o
-9 4 6 7.264 6.783 0.497 81.586 o
-9 4 8 3.731 3.531 0.487 93.845 o
-9 4 11 5.086 5.033 0.456 100.938 o
-9 4 12 5.401 6.638 0.497 84.887 o
-9 4 13 6.927 7.311 0.507 78.962 o
-9 5 1 1.404 1.698 0.394 149.378 o
-9 5 9 3.252 2.900 0.445 112.139 o
-9 5 12 2.702 2.682 0.632 58.785 o
-9 6 5 3.007 2.309 0.621 60.598 o
-8 0 2 3.604 3.884 0.362 157.597 o
-8 0 4 4.270 4.557 0.362 152.574 o
-8 0 8 47.439 48.736 1.533 7.493 o
-8 0 10 6.066 6.110 0.362 140.093 o
-8 0 12 2.748 2.765 0.394 142.252 o
-8 0 14 41.702 42.357 1.274 10.400 o
-8 0 16 10.781 12.345 0.777 34.892 o
-8 0 18 2.238 2.061 0.487 97.750 o
-8 0 20 38.301 38.380 1.460 8.861 o
-8 1 1 27.505 28.127 0.808 23.951 o
-8 1 3 18.295 18.134 0.539 50.636 o
-8 1 4 28.481 27.900 0.725 26.986 o
-8 1 5 21.427 21.634 0.621 38.599 o
-8 1 6 1.664 1.843 0.238 365.819 o
-8 1 7 52.602 53.003 1.357 8.374 o
-8 1 8 5.874 5.499 0.373 136.395 o
-8 1 9 12.781 13.132 0.466 73.243 o
-8 1 10 34.231 33.740 1.087 14.403 o
-8 1 11 1.565 1.160 0.238 376.126 o
-8 1 12 1.698 1.833 0.269 295.509 o
-8 1 15 14.572 15.441 0.756 34.215 o
-8 1 16 7.822 7.829 0.383 118.555 o
-8 1 17 6.483 6.773 0.414 111.513 o
-8 1 18 9.868 9.983 0.621 52.309 o
-8 1 20 1.150 1.377 0.362 176.560 o
-8 1 21 3.880 3.853 0.414 124.299 o
-8 1 24 8.178 6.732 0.839 32.071 o
-8 2 1 37.797 37.344 0.973 15.722 o
-8 2 2 15.056 15.607 0.580 50.470 o
-8 2 3 6.549 6.493 0.425 107.469 o
-8 2 4 15.526 15.451 0.518 58.233 o
-8 2 5 31.531 31.887 0.860 20.457 o
-8 2 6 53.394 52.931 1.357 8.322 o
-8 2 7 6.204 6.535 0.321 164.909 o
-8 2 8 6.192 6.121 0.331 159.053 o
-8 2 9 1.161 1.564 0.259 328.243 o
-8 2 10 10.743 10.242 0.414 93.963 o
-8 2 11 18.758 18.838 0.621 41.603 o
-8 2 12 7.828 7.964 0.394 113.844 o
-8 2 13 1.896 2.051 0.290 255.650 o
-8 2 14 10.546 10.667 0.559 60.882 o
-8 2 16 34.554 36.008 1.005 15.789 o
-8 2 17 1.714 2.113 0.321 214.479 o
-8 2 18 12.645 12.914 0.632 47.584 o
-8 2 19 3.186 2.920 0.456 107.658 o
-8 2 23 2.473 2.092 0.539 80.328 o
-8 3 2 7.630 8.326 0.425 101.833 o
-8 3 3 6.650 6.897 0.476 88.570 o
-8 3 6 31.172 31.400 0.901 19.423 o
-8 3 7 9.788 10.408 0.404 99.716 o
-8 3 8 20.186 19.770 0.663 36.949 o
-8 3 9 4.946 4.702 0.331 171.393 o
-8 3 10 8.652 8.306 0.507 75.427 o
-8 3 11 5.618 5.033 0.435 107.841 o
-8 3 12 46.932 47.877 1.357 8.945 o
-8 3 16 16.204 17.026 0.818 29.259 o
-8 3 17 14.894 15.234 0.922 24.576 o
-8 3 20 7.200 6.504 0.466 91.075 o
-8 3 22 21.483 21.551 1.419 10.809 o
-8 3 23 2.484 2.465 0.725 45.193 o
-8 4 1 20.033 20.578 0.808 27.848 o
-8 4 2 17.976 18.113 0.673 38.043 o
-8 4 3 14.263 14.354 0.756 34.591 o
-8 4 4 9.923 9.932 0.528 67.845 o
-8 4 5 3.030 2.962 0.362 162.850 o
-8 4 6 4.411 3.708 0.414 122.839 o
-8 4 7 2.618 2.693 0.331 194.007 o
-8 4 8 3.807 3.583 0.352 165.202 o
-8 4 11 20.528 21.789 1.315 12.418 o
-8 4 12 15.309 14.519 0.766 33.359 o
-8 4 13 9.700 10.191 0.870 29.178 o
-8 4 15 2.613 3.086 0.497 92.500 o
-8 4 16 2.389 2.807 0.549 77.159 o
-8 4 18 4.360 4.702 0.891 29.687 o
-8 5 1 4.336 4.360 0.373 145.794 o
-8 5 2 24.147 24.803 1.295 12.365 o
-8 5 5 1.373 1.616 0.414 135.736 o
-8 5 7 4.146 4.008 0.611 61.067 o
-8 5 8 6.972 6.379 0.601 59.574 o
-8 5 10 2.014 2.682 0.445 115.404 o
-8 5 12 0.947 1.688 0.518 88.856 o
-7 0 2 13.969 13.649 0.611 48.641 o
-7 0 4 40.385 37.044 1.067 13.659 o
-7 0 6 245.275 243.733 5.706 0.479 o
-7 0 10 1.448 1.440 0.259 324.252 o
-7 0 12 5.168 5.665 0.331 166.868 o
-7 0 14 9.958 12.676 0.528 65.909 o
-7 0 16 6.985 7.135 0.497 81.761 o
-7 0 18 7.171 6.970 1.326 13.499 o
-7 0 24 7.321 6.690 0.818 33.845 o
-7 0 26 1.673 1.957 0.621 61.617 o
-7 1 1 16.501 17.171 0.570 49.490 o
-7 1 2 83.211 81.897 1.968 3.894 o
-7 1 3 3.615 3.821 0.238 304.391 o
-7 1 4 0.294 0.808 0.207 537.519 o
-7 1 5 2.254 2.144 0.259 304.366 o
-7 1 6 18.532 18.268 0.601 43.902 o
-7 1 7 50.110 49.710 1.263 9.478 o
-7 1 9 9.867 9.942 0.352 119.337 o
-7 1 10 28.403 27.454 0.777 24.960 o
-7 1 11 44.150 43.848 1.118 11.969 o
-7 1 12 2.923 2.703 0.217 376.908 o
-7 1 13 8.911 8.730 0.373 117.116 o
-7 1 14 14.411 14.530 0.487 65.373 o
-7 1 15 12.500 12.966 0.518 64.049 o
-7 1 16 5.632 5.789 0.321 171.295 o
-7 1 17 21.295 21.127 0.673 35.129 o
-7 1 19 24.860 26.098 1.067 16.786 o
-7 1 20 3.945 4.329 0.362 154.764 o
-7 1 21 2.753 2.807 0.425 123.833 o
-7 1 22 1.257 1.398 0.352 185.867 o
-7 1 25 6.808 5.996 0.559 67.888 o
-7 2 3 21.967 22.100 0.621 38.048 o
-7 2 4 3.394 3.241 0.228 334.968 o
-7 2 5 9.522 9.787 0.362 116.866 o
-7 2 6 2.038 2.227 0.217 408.767 o
-7 2 7 17.944 18.061 0.684 37.263 o
-7 2 8 16.131 15.969 0.539 54.328 o
-7 2 9 16.263 16.632 0.539 53.788 o
-7 2 10 73.853 71.882 1.750 4.899 o
-7 2 11 21.528 20.174 0.663 35.991 o
-7 2 12 7.640 7.436 0.466 89.169 o
-7 2 13 4.925 5.168 0.300 196.926 o
-7 2 14 3.147 3.055 0.269 265.837 o
-7 2 15 38.645 39.675 1.170 12.140 o
-7 2 16 11.050 10.936 0.590 55.285 o
-7 2 17 2.013 2.071 0.290 254.186 o
-7 2 18 4.420 4.298 0.456 103.300 o
-7 2 20 21.948 21.862 0.725 31.326 o
-7 2 21 11.424 11.506 0.694 42.116 o
-7 2 22 4.298 3.386 0.404 129.257 o
-7 2 23 3.413 3.034 0.394 139.202 o
-7 2 24 4.221 3.749 0.476 96.424 o
-7 2 25 2.325 2.030 0.445 115.442 o
-7 3 1 1.756 2.082 0.238 360.983 o
-7 3 2 1.926 1.854 0.228 387.230 o
-7 3 3 1.866 1.854 0.228 388.809 o
-7 3 4 72.067 73.156 1.771 4.863 o
-7 3 5 32.056 32.177 0.839 20.888 o
-7 3 6 14.793 14.944 0.539 56.526 o
-7 3 9 9.249 8.979 0.425 96.512 o
-7 3 10 10.438 10.895 0.601 54.365 o
-7 3 12 0.988 1.160 0.352 188.088 o
-7 3 13 6.936 7.208 0.456 94.235 o
-7 3 14 21.242 20.899 0.787 28.411 o
-7 3 15 4.441 4.401 0.476 95.361 o
-7 3 16 20.467 21.147 0.870 24.685 o
-7 3 18 8.887 9.486 0.725 40.876 o
-7 3 20 2.349 2.040 0.404 138.361 o
-7 3 21 2.481 3.190 0.425 124.067 o
-7 4 1 19.184 18.341 0.849 26.433 o
-7 4 2 6.501 6.462 0.383 126.275 o
-7 4 4 1.985 1.792 0.352 180.573 o
-7 4 5 21.506 22.266 0.704 32.686 o
-7 4 6 3.828 3.946 0.331 181.328 o
-7 4 7 4.162 4.360 0.362 153.601 o
-7 4 8 24.141 24.710 0.870 23.137 o
-7 4 9 4.701 5.385 0.383 135.670 o
-7 4 11 13.213 12.210 0.725 38.071 o
-7 4 12 2.909 3.065 0.352 171.692 o
-7 4 14 2.992 2.713 0.518 85.413 o
-7 4 15 11.788 11.382 0.715 39.941 o
-7 4 16 8.547 9.455 1.181 16.692 o
-7 4 17 3.067 2.931 0.735 43.668 o
-7 5 1 3.529 3.159 0.373 152.227 o
-7 5 2 17.366 19.045 0.746 32.857 o
-7 5 3 3.099 2.858 0.394 140.734 o
-7 5 6 7.023 8.088 0.507 78.190 o
-7 5 10 4.829 4.567 0.445 106.200 o
-7 5 11 8.290 9.414 0.549 66.211 o
-7 5 12 21.915 22.701 1.015 18.951 o
-7 5 17 2.143 3.055 0.797 37.542 o
-7 6 1 14.517 13.152 0.818 30.500 o
-7 6 2 2.439 2.247 0.383 151.625 o
-7 6 6 5.343 5.157 0.456 100.207 o
-7 6 7 2.052 1.243 0.394 147.789 o
-7 6 8 3.489 2.962 0.445 111.483 o
-7 6 9 1.835 1.937 0.456 111.743 o
-7 6 11 1.655 1.957 0.507 91.230 o
-6 0 2 174.902 175.807 4.267 0.875 o
-6 0 4 3.149 2.579 0.352 171.709 o
-6 0 6 161.184 159.092 3.790 1.081 o
-6 0 8 1.142 1.367 0.311 236.155 o
-6 0 10 281.495 275.102 6.286 0.386 o
-6 0 12 0.001 2.527 0.290 275.131 o
-6 0 14 24.255 26.533 0.901 21.730 o
-6 0 16 124.261 126.542 3.200 1.588 o
-6 0 18 14.547 15.710 0.797 31.345 o
-6 0 20 9.428 9.300 0.621 52.950 o
-6 0 22 2.552 3.045 0.507 89.116 o
-6 0 24 11.741 11.930 1.067 19.689 o
-6 0 26 4.539 4.660 0.673 50.516 o
-6 1 1 1.168 1.253 0.228 416.173 o
-6 1 2 6.912 6.576 0.300 174.899 o
-6 1 3 0.891 1.170 0.207 504.453 o
-6 1 4 32.508 31.006 0.828 21.240 o
-6 1 5 93.245 91.476 2.175 3.181 o
-6 1 6 147.545 145.763 3.656 1.202 o
-6 1 7 2.878 2.734 0.228 352.575 o
-6 1 8 2.783 3.200 0.238 326.784 o
-6 1 9 41.696 42.460 1.067 13.099 o
-6 1 10 49.203 48.094 1.201 10.239 o
-6 1 11 4.090 4.101 0.238 293.089 o
-6 1 12 40.677 39.954 0.994 14.612 o
-6 1 13 4.802 5.282 0.269 230.468 o
-6 1 14 21.523 20.847 0.642 37.263 o
-6 1 15 3.269 3.594 0.290 231.877 o
-6 1 17 0.995 1.015 0.321 224.727 o
-6 1 19 11.088 11.630 0.466 77.903 o
-6 1 20 26.486 27.392 0.870 22.110 o
-6 1 21 11.955 12.510 0.570 56.637 o
-6 1 22 1.461 1.491 0.331 206.507 o
-6 1 23 1.980 1.667 0.435 122.013 o
-6 1 25 1.135 1.450 0.383 158.742 o
-6 2 1 68.649 67.439 1.688 5.374 o
-6 2 2 37.116 37.013 1.046 14.496 o
-6 2 3 57.924 57.674 1.429 7.385 o
-6 2 4 4.932 5.385 0.259 240.638 o
-6 2 5 4.143 4.432 0.238 289.188 o
-6 2 6 0.902 0.870 0.197 559.041 o
-6 2 8 12.689 13.039 0.518 63.731 o
-6 2 9 30.385 30.292 0.994 17.278 o
-6 2 10 9.120 9.155 0.383 111.363 o
-6 2 12 8.681 8.855 0.373 117.770 o
-6 2 14 6.249 5.976 0.300 182.478 o
-6 2 15 2.576 2.641 0.259 294.994 o
-6 2 17 8.779 9.020 0.559 63.876 o
-6 2 18 18.358 18.683 0.663 38.452 o
-6 2 19 2.281 2.289 0.321 209.257 o
-6 2 20 19.053 20.661 0.797 28.736 o
-6 2 21 1.517 1.139 0.352 185.121 o
-6 2 25 10.836 8.585 0.787 34.779 o
-6 3 1 12.116 12.925 0.507 66.486 o
-6 3 2 11.045 11.029 0.383 101.558 o
-6 3 3 1.315 1.916 0.207 473.073 o
-6 3 4 4.025 4.401 0.238 291.562 o
-6 3 5 0.644 0.797 0.197 573.924 o
-6 3 6 5.666 6.079 0.280 205.699 o
-6 3 7 6.879 7.042 0.425 105.749 o
-6 3 8 38.202 38.069 1.056 14.073 o
-6 3 9 29.526 29.836 0.839 21.953 o
-6 3 11 4.241 3.500 0.311 199.608 o
-6 3 12 0.395 1.243 0.290 278.119 o
-6 3 13 6.249 5.965 0.394 123.055 o
-6 3 14 51.959 52.257 1.460 7.669 o
-6 3 15 11.013 11.889 0.518 66.935 o
-6 3 18 8.206 7.166 0.621 54.810 o
-6 3 19 14.199 12.635 0.942 24.076 o
-6 3 20 0.915 1.657 0.404 143.932 o
-6 3 22 4.485 4.308 0.570 69.074 o
-6 3 24 16.569 15.327 0.942 23.288 o
-6 4 1 7.629 7.933 0.394 114.595 o
-6 4 3 6.947 6.566 0.435 102.271 o
-6 4 4 39.529 41.197 1.077 13.324 o
-6 4 5 35.590 37.407 0.994 15.698 o
-6 4 6 1.699 1.688 0.259 317.690 o
-6 4 8 6.551 6.783 0.445 99.216 o
-6 4 10 1.636 1.874 0.300 243.817 o
-6 4 11 5.937 6.100 0.394 123.952 o
-6 4 12 10.727 11.164 0.539 63.984 o
-6 4 13 12.464 11.537 1.118 17.987 o
-6 4 14 12.518 12.873 0.621 48.939 o
-6 4 15 20.530 19.729 0.963 21.184 o
-6 4 18 5.799 6.245 0.518 78.810 o
-6 5 4 33.738 34.714 1.036 15.402 o
-6 5 6 6.176 5.944 0.518 78.475 o
-6 5 7 2.536 2.527 0.383 150.632 o
-6 5 8 13.932 15.306 0.632 45.657 o
-6 5 9 1.191 1.481 0.342 196.778 o
-6 5 10 13.604 13.007 0.725 37.674 o
-6 5 16 6.771 7.456 0.880 29.565 o
-6 6 2 3.647 3.407 0.404 131.482 o
-6 6 4 2.490 2.900 0.487 96.590 o
-6 6 5 8.555 7.757 0.549 66.905 o
-6 6 6 0.944 1.916 0.435 124.365 o
-6 6 10 4.581 4.464 0.652 53.592 o
-6 6 11 8.850 8.389 0.818 33.128 o
-6 6 12 3.478 3.117 0.797 37.178 o
-6 7 1 4.875 4.474 0.642 55.018 o
-5 0 2 83.731 87.499 2.154 3.412 o
-5 0 4 18.385 17.181 0.663 38.918 o
-5 0 6 118.982 115.130 2.983 1.811 o
-5 0 8 273.293 268.588 6.214 0.399 o
-5 0 10 98.238 99.316 2.475 2.590 o
-5 0 12 43.935 42.875 1.305 9.856 o
-5 0 18 25.582 26.056 0.922 20.767 o
-5 0 20 94.722 98.912 2.548 2.532 o
-5 0 26 12.714 12.334 0.973 23.042 o
-5 1 1 55.446 54.577 1.502 7.144 o
-5 1 2 246.759 241.206 5.623 0.488 o
-5 1 3 48.349 49.358 1.274 9.541 o
-5 1 4 88.301 88.400 2.227 3.189 o
-5 1 5 30.429 29.888 0.828 22.019 o
-5 1 6 4.300 4.029 0.280 231.125 o
-5 1 7 0.824 1.098 0.207 508.701 o
-5 1 8 16.727 16.580 0.559 50.764 o
-5 1 9 259.462 260.075 5.976 0.433 o
-5 1 10 26.020 25.580 0.735 28.076 o
-5 1 12 24.061 23.716 0.725 29.892 o
-5 1 13 9.261 8.710 0.331 134.388 o
-5 1 14 25.034 24.782 0.694 30.823 o
-5 1 15 38.533 38.380 1.036 14.359 o
-5 1 16 52.577 53.676 1.346 8.433 o
-5 1 17 15.913 16.249 0.621 44.823 o
-5 1 19 39.175 41.974 1.243 11.011 o
-5 1 21 0.957 1.419 0.383 159.543 o
-5 1 24 14.845 13.401 0.797 31.663 o
-5 1 26 2.832 2.682 0.673 51.951 o
-5 1 27 2.150 1.729 0.497 94.321 o
-5 2 1 9.272 8.306 0.425 97.357 o
-5 2 3 4.738 4.422 0.280 224.069 o
-5 2 4 29.217 26.926 0.849 22.118 o
-5 2 5 170.438 168.122 3.915 0.999 o
-5 2 6 76.247 74.906 1.812 4.581 o
-5 2 7 21.134 21.448 0.704 33.092 o
-5 2 8 1.867 2.206 0.228 384.175 o
-5 2 11 38.899 38.618 0.984 15.214 o
-5 2 12 22.828 22.804 0.704 31.868 o
-5 2 13 70.865 70.049 1.678 5.291 o
-5 2 14 0.575 0.860 0.207 524.198 o
-5 2 15 11.805 11.775 0.476 74.111 o
-5 2 16 3.194 2.889 0.342 179.594 o
-5 2 17 7.639 7.498 0.383 119.874 o
-5 2 18 4.426 4.971 0.404 126.068 o
-5 2 19 10.747 11.050 0.621 51.147 o
-5 2 22 9.428 8.710 0.518 71.580 o
-5 2 23 7.184 6.193 0.456 94.824 o
-5 2 24 1.649 1.243 0.404 142.139 o
-5 3 1 18.948 18.248 0.601 43.564 o
-5 3 3 6.003 6.245 0.280 201.558 o
-5 3 4 11.099 11.412 0.373 104.119 o
-5 3 5 3.426 3.386 0.217 354.967 o
-5 3 6 4.559 4.401 0.238 282.192 o
-5 3 7 15.094 14.809 0.487 64.078 o
-5 3 8 2.236 2.247 0.238 348.430 o
-5 3 10 6.207 5.768 0.311 175.316 o
-5 3 12 0.661 0.787 0.238 402.911 o
-5 3 14 0.743 1.036 0.311 241.346 o
-5 3 15 2.204 2.247 0.321 210.035 o
-5 3 18 11.870 11.278 0.777 34.674 o
-5 3 19 5.294 5.696 0.580 65.365 o
-5 3 23 3.500 3.096 0.539 78.495 o
-5 3 24 7.881 6.721 0.590 60.392 o
-5 4 1 3.192 3.148 0.259 281.239 o
-5 4 3 21.662 22.970 0.694 33.058 o
-5 4 4 22.781 22.421 0.704 31.990 o
-5 4 5 13.013 13.121 0.456 74.956 o
-5 4 7 1.141 0.756 0.238 391.300 o
-5 4 8 22.822 24.161 0.735 29.806 o
-5 4 10 22.272 21.820 0.694 33.040 o
-5 4 12 1.807 1.833 0.342 191.708 o
-5 4 13 13.934 12.925 0.860 28.265 o
-5 4 14 6.176 7.384 0.621 56.342 o
-5 4 15 11.872 11.319 0.580 55.807 o
-5 4 17 2.367 1.957 0.611 63.174 o
-5 4 18 15.128 14.996 0.725 36.404 o
-5 4 22 2.306 1.864 0.518 86.938 o
-5 4 23 8.152 7.995 0.694 44.953 o
-5 5 1 2.634 2.827 0.300 229.014 o
-5 5 2 3.857 3.904 0.331 181.270 o
-5 5 3 2.975 2.734 0.311 213.612 o
-5 5 4 58.769 62.510 1.719 5.673 o
-5 5 6 7.931 7.539 0.414 105.937 o
-5 5 7 2.579 2.527 0.331 194.863 o
-5 5 8 5.549 5.789 0.466 95.325 o
-5 5 9 2.564 3.345 0.352 172.854 o
-5 5 10 3.063 3.314 0.445 112.096 o
-5 5 12 10.250 10.667 0.580 57.804 o
-5 5 13 3.776 4.339 0.466 100.602 o
-5 5 14 43.970 44.552 1.502 8.013 o
-5 6 3 17.706 18.786 0.973 21.477 o
-5 6 4 2.267 2.320 0.539 80.436 o
-5 6 5 1.310 1.678 0.404 142.553 o
-5 6 7 1.466 2.485 0.528 84.370 o
-5 6 8 9.984 9.952 1.201 16.020 o
-5 6 9 2.073 2.517 0.518 86.812 o
-5 6 10 8.094 7.933 0.704 43.833 o
-4 0 2 968.791 931.374 20.764 0.035 o
-4 0 4 114.874 121.634 2.889 1.894 o
-4 0 6 43.658 43.351 1.139 11.786 o
-4 0 8 570.817 554.761 12.262 0.100 o
-4 0 10 1.380 1.605 0.311 232.885 o
-4 0 12 240.431 232.031 5.478 0.515 o
-4 0 14 1.930 1.585 0.269 293.881 o
-4 0 16 55.779 57.363 1.522 6.930 o
-4 0 18 128.166 131.203 3.252 1.523 o
-4 0 22 1.329 2.144 0.559 75.857 o
-4 0 24 1.802 1.978 0.497 94.672 o
-4 0 26 11.257 9.176 0.756 37.024 o
-4 1 1 89.619 86.878 2.040 3.547 o
-4 1 2 53.618 54.184 1.367 8.187 o
-4 1 3 2.188 1.616 0.186 524.946 o
-4 1 4 33.597 32.156 0.828 20.760 o
-4 1 6 179.413 173.808 3.977 0.948 o
-4 1 7 86.405 84.279 1.978 3.775 o
-4 1 8 170.716 167.574 3.842 1.022 o
-4 1 9 44.728 44.024 1.129 11.757 o
-4 1 11 1.912 1.440 0.228 393.078 o
-4 1 12 80.661 79.981 1.937 4.051 o
-4 1 13 15.675 14.261 0.663 41.652 o
-4 1 14 16.375 16.176 0.518 56.659 o
-4 1 16 21.713 21.137 0.621 38.572 o
-4 1 17 4.299 4.381 0.280 229.152 o
-4 1 19 50.395 52.578 1.367 8.456 o
-4 1 20 11.447 11.185 0.497 70.893 o
-4 1 21 1.404 1.947 0.425 128.931 o
-4 1 22 21.553 22.162 0.891 23.384 o
-4 1 23 8.984 9.548 0.497 76.321 o
-4 1 24 2.611 2.475 0.383 150.423 o
-4 1 25 3.992 4.174 0.425 118.239 o
-4 1 26 2.191 1.626 0.373 161.960 o
-4 1 27 5.419 3.894 0.549 73.059 o
-4 2 1 53.058 50.839 1.263 9.189 o
-4 2 2 13.192 12.241 0.497 67.266 o
-4 2 3 75.150 75.041 1.792 4.676 o
-4 2 4 59.049 58.751 1.429 7.290 o
-4 2 5 5.426 6.141 0.300 188.530 o
-4 2 6 5.301 5.427 0.311 183.432 o
-4 2 7 6.652 6.908 0.300 175.623 o
-4 2 8 78.937 78.759 1.885 4.246 o
-4 2 9 14.171 12.935 0.466 70.873 o
-4 2 10 30.375 29.795 0.797 23.103 o
-4 2 11 7.595 7.291 0.311 160.151 o
-4 2 13 3.043 3.469 0.280 249.090 o
-4 2 14 21.665 21.603 0.766 29.196 o
-4 2 15 33.513 34.113 0.932 17.784 o
-4 2 16 9.482 9.942 0.466 82.778 o
-4 2 17 7.081 7.612 0.373 126.733 o
-4 2 18 7.410 7.798 0.445 95.886 o
-4 2 19 5.876 6.027 0.476 90.949 o
-4 2 21 4.121 4.671 0.559 71.636 o
-4 2 22 3.523 3.355 0.487 94.371 o
-4 2 23 17.201 17.460 0.808 29.425 o
-4 2 24 2.284 2.309 0.414 131.805 o
-4 2 25 2.977 3.169 0.611 62.282 o
-4 3 1 5.000 5.230 0.311 186.531 o
-4 3 2 12.989 12.914 0.476 70.986 o
-4 3 3 19.978 20.888 0.611 40.773 o
-4 3 4 231.932 232.051 5.292 0.547 o
-4 3 5 26.383 26.957 0.725 28.104 o
-4 3 6 8.040 8.036 0.311 154.747 o
-4 3 7 5.111 4.764 0.290 207.279 o
-4 3 9 34.768 35.014 1.005 15.838 o
-4 3 10 61.062 61.505 1.667 5.846 o
-4 3 11 19.150 19.791 0.611 41.842 o
-4 3 12 11.880 12.075 0.456 78.264 o
-4 3 14 30.684 30.230 0.984 17.481 o
-4 3 15 5.429 6.110 0.414 115.825 o
-4 3 16 3.899 3.884 0.383 142.087 o
-4 3 17 13.412 14.105 0.652 44.281 o
-4 3 18 2.517 2.465 0.414 130.826 o
-4 3 20 5.977 5.416 0.466 94.814 o
-4 4 2 4.810 4.153 0.280 224.764 o
-4 4 3 56.904 57.498 1.388 7.723 o
-4 4 4 0.704 0.973 0.197 566.388 o
-4 4 5 10.524 10.688 0.404 97.120 o
-4 4 6 27.201 26.999 0.880 21.615 o
-4 4 7 8.319 8.906 0.373 119.092 o
-4 4 8 4.015 4.495 0.290 219.433 o
-4 4 9 2.097 2.506 0.259 303.968 o
-4 4 10 2.821 2.444 0.373 157.146 o
-4 4 13 26.192 26.025 0.860 22.753 o
-4 4 14 21.166 22.680 0.849 25.157 o
-4 4 17 4.361 4.826 0.487 91.547 o
-4 4 18 1.860 2.299 0.456 111.291 o
-4 4 20 4.133 3.252 0.632 57.642 o
-4 4 23 4.837 3.863 0.621 58.721 o
-4 5 2 20.458 20.795 0.715 32.952 o
-4 5 3 2.463 1.854 0.311 222.003 o
-4 5 6 5.068 5.696 0.362 145.856 o
-4 5 8 7.345 7.715 0.445 96.145 o
-4 5 10 10.915 11.268 0.642 48.285 o
-4 5 12 7.092 7.187 0.590 60.923 o
-4 5 14 11.895 12.707 0.663 44.699 o
-4 5 17 1.569 1.874 0.445 117.429 o
-4 5 18 10.692 10.739 0.642 48.645 o
-4 6 2 4.354 4.381 0.383 139.165 o
-4 6 3 11.677 11.071 0.704 41.071 o
-4 6 4 2.942 3.024 0.404 134.601 o
-4 6 5 5.040 4.505 0.673 50.280 o
-4 6 7 8.764 7.488 0.932 26.179 o
-4 6 12 3.828 3.521 0.539 77.833 o
-4 6 13 17.625 15.959 0.932 23.418 o
-4 6 14 4.000 2.879 0.725 44.523 o
-4 7 2 4.077 3.376 0.766 39.911 o
-4 7 3 4.253 3.884 0.487 92.593 o
-4 7 4 2.255 1.781 0.487 97.960 o
-4 7 9 6.391 4.743 0.911 28.030 o
-3 0 2 15.888 13.463 0.756 34.070 o
-3 0 4 83.548 86.920 2.092 3.551 o
-3 0 6 11.315 14.923 0.539 60.834 o
-3 0 8 21.488 22.773 0.735 30.731 o
-3 0 10 3.420 4.598 0.394 136.198 o
-3 0 12 146.556 141.217 3.438 1.314 o
-3 0 14 18.687 17.119 0.818 28.385 o
-3 0 16 13.458 14.064 0.787 32.758 o
-3 0 18 31.617 33.513 1.129 14.009 o
-3 0 20 9.345 9.579 0.839 31.344 o
-3 0 22 92.808 98.860 2.869 2.160 o
-3 0 26 4.011 3.490 0.559 72.394 o
-3 1 1 328.334 321.373 7.146 0.294 o
-3 1 2 34.955 33.160 0.901 18.331 o
-3 1 3 156.620 159.050 3.594 1.172 o
-3 1 4 225.356 227.080 5.106 0.583 o
-3 1 5 204.565 210.013 4.702 0.690 o
-3 1 7 341.348 342.883 7.705 0.258 o
-3 1 8 9.831 8.254 0.321 137.674 o
-3 1 9 61.890 57.477 1.522 6.631 o
-3 1 10 3.072 3.935 0.290 232.154 o
-3 1 11 161.021 154.991 3.614 1.155 o
-3 1 12 53.161 51.626 1.326 8.629 o
-3 1 13 0.776 0.777 0.207 517.420 o
-3 1 16 30.798 31.410 0.860 20.718 o
-3 1 17 58.006 57.819 1.460 7.181 o
-3 1 18 37.148 36.568 1.025 14.906 o
-3 1 20 1.998 2.030 0.352 179.818 o
-3 1 21 7.803 7.601 0.456 91.836 o
-3 1 22 1.930 1.553 0.394 147.664 o
-3 1 26 16.349 15.659 0.901 25.130 o
-3 2 1 82.007 80.747 1.906 4.092 o
-3 2 2 166.470 169.759 3.832 1.035 o
-3 2 3 293.039 291.289 6.680 0.346 o
-3 2 4 27.169 26.719 0.766 25.983 o
-3 2 5 3.122 2.568 0.228 348.798 o
-3 2 6 138.880 135.366 3.138 1.526 o
-3 2 7 164.199 162.364 3.863 1.042 o
-3 2 8 278.175 272.047 6.276 0.390 o
-3 2 9 50.106 50.642 1.502 7.525 o
-3 2 10 10.522 11.268 0.383 102.892 o
-3 2 11 22.692 22.763 0.684 33.196 o
-3 2 12 2.111 2.164 0.228 378.419 o
-3 2 13 52.157 50.424 1.232 9.562 o
-3 2 14 0.653 0.932 0.228 435.844 o
-3 2 15 28.036 27.133 0.756 26.003 o
-3 2 16 14.094 14.457 0.487 65.935 o
-3 2 17 1.021 0.818 0.249 363.944 o
-3 2 18 41.679 43.196 1.232 10.844 o
-3 2 20 3.469 3.780 0.394 137.569 o
-3 2 21 10.626 10.263 0.559 61.022 o
-3 3 1 3.477 3.635 0.259 273.213 o
-3 3 2 243.009 240.895 5.499 0.505 o
-3 3 3 3.418 8.285 1.036 22.073 o
-3 3 4 42.823 42.626 1.160 11.653 o
-3 3 5 20.806 21.272 0.611 39.996 o
-3 3 7 4.119 4.039 0.228 311.132 o
-3 3 8 16.933 16.829 0.528 54.198 o
-3 3 9 4.927 5.292 0.280 217.354 o
-3 3 10 19.987 19.397 0.611 41.342 o
-3 3 11 1.233 1.336 0.238 381.974 o
-3 3 12 39.955 40.120 1.098 13.019 o
-3 3 13 8.962 9.569 0.394 107.261 o
-3 3 14 66.564 68.051 1.688 5.436 o
-3 3 15 1.358 1.636 0.311 232.943 o
-3 3 18 3.424 3.500 0.414 126.308 o
-3 3 19 9.717 10.180 0.549 63.987 o
-3 3 20 3.996 3.107 0.570 70.177 o
-3 3 21 5.748 4.412 0.963 25.341 o
-3 3 22 9.725 9.621 1.108 18.697 o
-3 3 24 10.521 9.600 0.911 26.701 o
-3 4 1 20.026 19.915 0.601 41.999 o
-3 4 2 9.807 10.253 0.362 114.797 o
-3 4 3 56.873 55.809 1.315 8.295 o
-3 4 4 26.467 27.330 0.735 27.508 o
-3 4 6 23.807 22.307 0.735 29.780 o
-3 4 7 16.083 16.663 0.518 56.721 o
-3 4 8 0.471 0.777 0.249 376.236 o
-3 4 10 35.237 37.117 0.994 15.785 o
-3 4 11 3.756 3.573 0.394 136.871 o
-3 4 12 2.834 2.765 0.404 135.425 o
-3 4 13 30.722 30.975 0.953 18.183 o
-3 4 14 5.306 5.282 0.497 86.200 o
-3 4 16 3.697 3.863 0.425 119.555 o
-3 4 17 9.760 10.594 0.580 58.345 o
-3 4 18 3.949 4.629 0.507 85.782 o
-3 4 20 8.609 8.016 0.549 66.680 o
-3 4 23 6.731 6.618 0.684 47.368 o
-3 5 2 2.315 2.133 0.269 284.128 o
-3 5 3 4.269 4.018 0.300 207.863 o
-3 5 4 8.779 8.502 0.414 102.000 o
-3 5 6 33.079 32.746 0.953 17.518 o
-3 5 7 3.913 3.697 0.373 149.226 o
-3 5 9 4.247 3.469 0.373 148.221 o
-3 5 10 4.031 4.174 0.404 128.818 o
-3 5 11 1.266 1.792 0.580 70.880 o
-3 5 12 11.497 10.491 0.570 58.221 o
-3 5 14 1.395 1.440 0.383 157.681 o
-3 5 16 16.129 15.783 0.839 28.325 o
-3 6 1 7.551 7.788 0.456 92.193 o
-3 6 2 1.564 1.543 0.352 183.695 o
-3 6 9 3.601 3.790 0.549 75.243 o
-3 6 10 2.595 2.019 0.518 86.438 o
-3 6 12 3.279 3.045 0.621 60.150 o
-3 7 2 4.795 4.091 0.487 91.428 o
-3 7 4 4.079 4.008 0.539 77.220 o
-2 0 2 639.989 625.048 14.084 0.077 o
-2 0 4 2039.400 2126.200 45.008 0.007 o
-2 0 6 175.829 169.220 4.867 0.735 o
-2 0 8 456.713 445.731 10.398 0.144 o
-2 0 10 195.804 186.277 4.474 0.772 o
-2 0 12 15.504 16.901 0.849 27.782 o
-2 0 14 53.561 55.892 1.937 5.001 o
-2 0 16 11.783 11.889 0.559 58.764 o
-2 0 18 4.965 4.919 0.766 39.353 o
-2 0 20 16.252 16.570 0.828 28.733 o
-2 0 22 3.921 3.594 0.590 65.499 o
-2 0 26 3.696 2.133 0.663 53.204 o
-2 1 1 177.100 186.173 4.142 0.891 o
-2 1 2 555.876 564.257 12.407 0.099 o
-2 1 3 20.740 20.671 0.559 44.745 o
-2 1 4 348.455 355.507 7.922 0.245 o
-2 1 5 21.627 21.033 0.570 42.855 o
-2 1 6 6.730 5.447 0.249 228.883 o
-2 1 7 35.159 32.384 0.818 20.578 o
-2 1 8 284.813 282.797 6.390 0.373 o
-2 1 9 22.762 22.411 0.746 29.668 o
-2 1 10 30.934 30.996 0.891 19.822 o
-2 1 11 84.094 79.950 1.906 4.052 o
-2 1 12 9.058 9.300 0.456 87.168 o
-2 1 13 33.173 31.203 0.994 16.683 o
-2 1 14 18.560 18.123 0.580 45.961 o
-2 1 15 11.187 11.371 0.394 97.316 o
-2 1 16 0.991 0.828 0.217 464.893 o
-2 1 17 29.101 30.282 0.860 21.336 o
-2 1 18 8.491 8.150 0.425 99.698 o
-2 1 19 1.748 1.160 0.352 183.737 o
-2 1 21 55.350 55.354 1.574 6.694 o
-2 1 22 10.710 9.559 0.570 59.582 o
-2 2 1 145.583 149.720 3.366 1.336 o
-2 2 2 472.182 479.689 10.615 0.136 o
-2 2 3 9.913 9.745 0.362 115.383 o
-2 2 4 22.721 22.297 0.601 38.961 o
-2 2 5 3.439 3.159 0.207 382.079 o
-2 2 6 69.471 70.225 1.667 5.378 o
-2 2 7 33.762 33.243 0.860 19.690 o
-2 2 8 29.939 27.144 0.818 22.944 o
-2 2 9 16.931 16.125 0.539 53.309 o
-2 2 10 88.787 88.514 2.216 3.199 o
-2 2 11 13.921 13.297 0.487 67.147 o
-2 2 12 106.888 103.272 2.496 2.446 o
-2 2 13 30.023 30.209 0.839 21.753 o
-2 2 14 13.153 13.111 0.456 74.691 o
-2 2 15 2.161 1.802 0.238 354.998 o
-2 2 16 36.255 36.982 1.046 14.630 o
-2 2 17 53.294 54.733 1.429 7.739 o
-2 2 18 26.200 27.454 0.922 20.457 o
-2 2 19 7.882 8.792 0.621 54.415 o
-2 2 20 6.734 7.001 0.497 82.304 o
-2 2 22 9.187 9.414 0.663 47.596 o
-2 2 23 9.978 10.408 0.766 36.428 o
-2 2 25 13.827 13.049 1.108 18.055 o
-2 2 26 7.390 6.390 0.777 37.284 o
-2 3 1 134.174 138.214 3.241 1.482 o
-2 3 2 66.049 66.425 1.574 5.982 o
-2 3 3 1.685 1.698 0.197 503.270 o
-2 3 4 8.768 8.875 0.362 121.849 o
-2 3 5 5.313 6.027 0.362 143.871 o
-2 3 6 355.379 351.458 7.891 0.244 o
-2 3 7 76.916 77.330 1.906 4.255 o
-2 3 8 25.136 24.006 0.673 32.122 o
-2 3 9 7.783 7.705 0.342 139.307 o
-2 3 10 20.913 21.127 0.663 36.076 o
-2 3 11 19.196 19.211 0.632 40.251 o
-2 3 12 81.969 81.244 1.978 3.903 o
-2 3 13 3.204 3.739 0.280 245.537 o
-2 3 14 4.839 5.116 0.352 155.369 o
-2 3 15 10.938 11.071 0.445 83.844 o
-2 3 16 31.677 31.742 0.922 18.705 o
-2 3 17 4.142 4.184 0.497 89.085 o
-2 3 18 8.614 9.838 0.487 79.235 o
-2 3 19 1.354 1.512 0.321 219.796 o
-2 3 20 14.916 15.607 0.860 27.595 o
-2 3 22 10.423 10.594 0.756 37.077 o
-2 4 1 16.220 15.369 0.476 63.526 o
-2 4 2 57.535 56.265 1.336 8.083 o
-2 4 3 29.881 30.323 0.766 24.299 o
-2 4 4 0.414 0.756 0.176 720.759 o
-2 4 5 32.346 32.715 0.828 21.039 o
-2 4 6 3.404 3.666 0.249 291.251 o
-2 4 7 35.534 35.263 0.953 16.777 o
-2 4 10 22.252 23.840 0.787 27.466 o
-2 4 11 16.652 17.823 0.704 36.467 o
-2 4 13 10.156 10.719 0.466 80.640 o
-2 4 14 7.854 8.896 0.425 100.424 o
-2 4 15 9.836 9.859 0.466 82.145 o
-2 4 16 13.899 13.970 0.663 42.934 o
-2 4 17 10.524 11.816 0.632 49.669 o
-2 4 18 1.012 1.574 0.404 143.742 o
-2 4 20 2.383 2.040 0.497 93.706 o
-2 4 21 2.171 2.351 0.497 93.797 o
-2 5 2 15.098 15.244 0.528 57.434 o
-2 5 3 3.088 2.620 0.290 239.084 o
-2 5 4 3.169 3.262 0.342 178.585 o
-2 5 5 4.024 3.594 0.300 212.063 o
-2 5 8 1.081 0.953 0.290 271.622 o
-2 5 9 0.846 1.067 0.331 212.463 o
-2 5 10 2.896 3.024 0.414 128.742 o
-2 5 13 5.321 5.157 0.445 104.251 o
-2 5 14 2.241 1.906 0.497 94.038 o
-2 5 16 12.125 12.117 0.766 35.200 o
-2 5 20 4.526 4.722 0.694 47.713 o
-2 6 3 14.629 12.987 0.549 56.409 o
-2 6 5 8.107 6.825 0.601 58.355 o
-2 6 7 3.251 2.796 0.487 95.348 o
-2 6 8 1.837 1.512 0.383 155.689 o
-2 6 9 2.855 2.889 0.383 148.534 o
-2 6 11 5.532 4.992 0.663 51.315 o
-2 6 15 5.265 4.308 0.487 90.378 o
-2 7 1 5.239 5.654 0.487 89.198 o
-2 7 4 1.231 1.502 0.435 124.160 o
-2 7 6 2.775 2.972 0.539 79.447 o
-2 7 7 4.102 3.293 0.590 65.472 o
-2 7 8 3.279 2.920 0.828 34.593 o
-1 0 2 771.256 798.929 18.631 0.046 o
-1 0 4 869.208 857.286 18.020 0.045 o
-1 0 6 205.772 194.531 4.381 0.765 o
-1 0 8 500.455 482.329 10.605 0.132 o
-1 0 10 4.132 2.672 0.362 157.987 o
-1 0 12 113.478 108.315 3.335 1.598 o
-1 0 14 48.982 48.436 1.812 5.780 o
-1 0 16 21.705 21.334 0.746 30.373 o
-1 0 18 59.184 56.141 1.595 6.392 o
-1 0 20 41.147 43.796 1.740 6.503 o
-1 0 24 20.692 21.002 1.460 10.320 o
-1 0 26 5.781 4.888 1.274 14.711 o
-1 1 1 2931.260 2920.970 64.809 0.004 o
-1 1 2 137.963 155.861 3.511 1.284 o
-1 1 3 336.405 345.162 7.736 0.258 o
-1 1 4 240.608 248.000 5.551 0.498 o
-1 1 5 1.652 0.880 0.155 760.451 o
-1 1 6 0.473 0.611 0.166 806.221 o
-1 1 7 424.159 413.761 9.176 0.178 o
-1 1 8 93.537 89.954 2.092 3.343 o
-1 1 9 175.145 167.356 3.832 1.013 o
-1 1 11 73.469 68.786 1.657 5.301 o
-1 1 12 84.949 84.372 2.092 3.549 o
-1 1 13 5.257 5.510 0.342 159.214 o
-1 1 14 43.448 42.667 1.087 12.551 o
-1 1 15 10.177 10.770 0.394 101.377 o
-1 1 16 6.350 6.162 0.311 172.825 o
-1 1 17 1.645 1.450 0.259 320.704 o
-1 1 18 14.483 13.981 0.528 59.020 o
-1 1 19 9.596 9.383 0.487 77.885 o
-1 1 20 2.614 3.117 0.373 156.543 o
-1 1 21 12.798 13.463 0.632 47.251 o
-1 1 22 12.046 12.676 0.880 27.658 o
-1 1 23 1.611 1.450 0.425 129.048 o
-1 2 1 144.653 141.548 3.179 1.456 o
-1 2 2 8.162 7.954 0.300 160.645 o
-1 2 3 172.504 171.644 3.853 1.008 o
-1 2 4 219.221 218.847 4.919 0.625 o
-1 2 5 487.261 481.325 10.688 0.133 o
-1 2 6 17.403 18.817 0.549 50.064 o
-1 2 7 1.311 1.118 0.176 641.350 o
-1 2 8 45.706 44.262 1.212 10.647 o
-1 2 9 7.931 7.736 0.331 144.159 o
-1 2 10 180.501 178.841 4.464 0.810 o
-1 2 11 70.147 70.681 1.719 5.148 o
-1 2 12 34.172 32.291 0.880 19.150 o
-1 2 13 12.536 12.345 0.425 83.870 o
-1 2 14 1.114 0.849 0.217 460.329 o
-1 2 15 12.210 11.495 0.487 71.484 o
-1 2 18 5.406 4.743 0.518 80.496 o
-1 2 19 4.038 3.956 0.507 86.165 o
-1 2 20 46.830 46.334 1.440 8.298 o
-1 2 22 18.334 18.434 1.222 14.473 o
-1 3 2 31.951 32.156 0.818 21.555 o
-1 3 3 12.998 12.707 0.425 82.343 o
-1 3 4 53.897 53.738 1.284 8.833 o
-1 3 5 0.698 0.984 0.186 623.836 o
-1 3 6 101.100 102.578 2.372 2.679 o
-1 3 7 1.451 1.647 0.249 346.411 o
-1 3 8 6.777 6.918 0.300 174.623 o
-1 3 9 0.823 0.828 0.217 470.768 o
-1 3 10 30.886 31.825 0.911 19.154 o
-1 3 11 40.972 40.224 1.025 14.018 o
-1 3 13 1.123 1.357 0.238 384.383 o
-1 3 14 25.489 26.170 0.766 26.739 o
-1 3 15 5.789 6.214 0.342 154.151 o
-1 3 16 110.347 112.893 2.796 2.044 o
-1 3 17 10.756 11.765 0.518 67.396 o
-1 3 19 3.860 4.453 0.404 128.926 o
-1 3 21 12.285 12.438 0.704 40.361 o
-1 3 22 4.894 5.168 0.518 80.935 o
-1 3 23 1.926 2.206 0.518 87.219 o
-1 3 24 12.725 12.324 0.787 33.373 o
-1 4 1 5.671 5.924 0.331 162.879 o
-1 4 2 9.309 9.300 0.342 127.784 o
-1 4 5 59.172 60.232 1.605 6.251 o
-1 4 6 76.531 78.904 1.843 4.425 o
-1 4 7 27.296 27.724 0.735 27.074 o
-1 4 8 7.272 6.908 0.290 178.542 o
-1 4 9 1.359 1.750 0.217 437.218 o
-1 4 11 2.798 3.076 0.280 254.498 o
-1 4 12 19.006 20.671 0.787 29.318 o
-1 4 14 3.299 3.190 0.300 220.798 o
-1 4 15 36.174 37.489 1.056 14.416 o
-1 4 16 3.831 4.060 0.373 148.774 o
-1 4 17 9.670 9.300 0.487 77.826 o
-1 4 20 9.277 9.238 0.570 61.319 o
-1 4 21 2.148 2.682 0.539 80.363 o
-1 5 1 9.208 9.414 0.394 106.704 o
-1 5 2 65.149 63.514 1.750 5.309 o
-1 5 3 1.216 1.388 0.311 235.383 o
-1 5 4 4.459 4.443 0.290 215.233 o
-1 5 6 30.037 30.447 0.839 21.714 o
-1 5 7 0.903 0.880 0.249 365.797 o
-1 5 8 0.668 0.994 0.280 296.082 o
-1 5 9 6.584 6.483 0.487 85.979 o
-1 5 10 13.129 14.726 0.621 47.681 o
-1 5 12 12.949 12.883 0.549 58.443 o
-1 5 14 1.737 1.626 0.383 155.867 o
-1 6 1 2.149 2.372 0.352 177.980 o
-1 6 2 5.962 6.234 0.414 113.964 o
-1 6 4 1.542 1.792 0.559 75.820 o
-1 6 6 7.907 7.260 0.601 58.339 o
-1 6 7 8.367 8.295 0.476 83.850 o
-1 6 8 2.401 2.361 0.373 159.284 o
-1 6 13 3.076 2.599 0.435 117.906 o
-1 6 15 4.649 4.060 0.487 91.719 o
-1 7 3 2.881 2.320 0.435 118.794 o
-1 7 4 3.039 3.065 0.580 68.760 o
-1 7 6 3.570 3.407 0.549 75.498 o
0 0 4 62.452 67.988 1.553 6.202 o
0 0 6 1040.610 1008.000 20.163 0.034 o
0 0 8 298.116 287.043 6.058 0.387 o
0 0 10 391.455 391.433 8.668 0.202 o
0 0 12 13.908 13.981 0.860 28.121 o
0 0 14 49.571 51.439 1.854 5.521 o
0 0 16 10.350 11.319 0.559 60.732 o
0 0 18 0.606 1.678 0.539 82.688 o
0 0 20 9.965 11.299 0.797 33.815 o
0 0 22 15.770 16.663 1.284 13.506 o
0 1 1 458.869 463.823 10.408 0.142 o
0 1 2 95.186 90.389 2.030 3.429 o
0 1 3 19.960 18.786 0.528 49.569 o
0 1 4 1543.400 1542.800 34.248 0.013 o
0 1 5 65.339 68.413 1.636 5.693 o
0 1 6 300.660 304.130 6.887 0.325 o
0 1 7 37.771 33.792 0.901 17.625 o
0 1 8 25.934 25.994 0.735 28.023 o
0 1 9 37.752 37.003 0.953 16.177 o
0 1 10 141.557 142.574 3.345 1.380 o
0 1 11 204.863 199.657 4.847 0.672 o
0 1 13 25.791 24.492 0.766 26.950 o
0 1 14 8.710 8.585 0.342 132.405 o
0 1 15 3.729 3.500 0.238 305.269 o
0 1 16 3.618 3.770 0.321 193.143 o
0 1 17 19.267 19.149 0.704 34.690 o
0 1 18 24.963 23.892 0.777 26.913 o
0 1 19 48.694 50.072 1.315 9.104 o
0 1 20 3.164 2.838 0.383 147.345 o
0 1 21 15.450 15.006 0.735 35.443 o
0 1 22 3.983 3.666 0.570 69.910 o
0 1 23 9.997 10.367 0.849 30.366 o
0 1 24 4.029 3.397 0.611 61.394 o
0 2 0 13.386 14.074 0.528 60.381 o
0 2 1 76.509 74.461 1.709 4.916 o
0 2 2 126.685 129.515 2.931 1.754 o
0 2 4 178.563 178.872 4.091 0.911 o
0 2 5 46.180 48.457 1.191 10.626 o
0 2 6 6.101 5.499 0.362 141.372 o
0 2 7 135.109 134.993 3.148 1.541 o
0 2 8 0.233 0.704 0.217 494.251 o
0 2 9 56.016 53.200 1.346 8.214 o
0 2 10 26.916 25.383 0.828 23.795 o
0 2 11 1.473 1.212 0.259 325.839 o
0 2 12 15.875 16.404 0.632 43.750 o
0 2 13 9.453 9.683 0.404 101.824 o
0 2 14 56.265 55.499 1.357 8.045 o
0 2 15 94.331 94.552 2.268 2.980 o
0 2 16 2.667 2.527 0.300 230.164 o
0 2 18 11.508 11.423 0.580 56.126 o
0 2 19 11.713 12.303 0.704 40.713 o
0 2 20 24.050 24.969 1.232 13.434 o
0 2 21 12.751 14.002 0.787 33.042 o
0 2 24 6.835 7.353 0.870 30.225 o
0 2 25 7.670 5.727 0.870 30.220 o
0 3 1 47.674 47.307 1.170 10.762 o
0 3 2 111.298 113.576 2.620 2.210 o
0 3 3 79.505 84.714 1.988 3.893 o
0 3 4 55.600 56.379 1.367 7.985 o
0 3 5 14.658 15.255 0.632 45.118 o
0 3 7 0.764 0.818 0.186 624.865 o
0 3 8 95.496 96.333 2.537 2.552 o
0 3 9 38.998 39.561 1.036 14.197 o
0 3 10 1.242 1.471 0.228 410.994 o
0 3 11 1.198 1.398 0.207 487.573 o
0 3 12 6.456 9.041 0.352 137.003 o
0 3 14 27.039 27.496 1.015 17.618 o
0 3 17 5.066 5.002 0.394 129.220 o
0 3 18 4.387 4.029 0.383 139.758 o
0 3 20 11.651 11.837 0.777 34.650 o
0 3 21 2.349 2.123 0.476 101.548 o
0 3 22 4.504 3.666 0.715 45.382 o
0 3 24 6.422 6.669 0.818 34.109 o
0 4 0 2.852 2.568 0.362 164.762 o
0 4 1 10.946 11.019 0.425 89.417 o
0 4 2 54.248 54.173 1.295 8.706 o
0 4 3 3.629 3.604 0.207 370.412 o
0 4 4 11.459 11.848 0.394 95.777 o
0 4 5 71.319 71.334 1.678 5.253 o
0 4 6 5.989 6.328 0.290 191.952 o
0 4 8 5.031 5.365 0.290 205.177 o
0 4 9 6.346 6.348 0.280 197.738 o
0 4 10 15.722 16.425 0.549 53.202 o
0 4 12 23.047 23.270 0.766 28.290 o
0 4 13 5.674 6.079 0.342 155.181 o
0 4 15 24.807 25.103 0.777 26.741 o
0 4 16 15.322 16.798 0.601 47.284 o
0 4 18 2.222 2.341 0.414 131.951 o
0 4 19 3.354 3.003 0.549 75.973 o
0 4 20 3.844 3.832 0.518 83.421 o
0 5 2 6.801 6.638 0.311 167.885 o
0 5 3 0.986 0.891 0.259 337.484 o
0 5 4 22.852 23.446 0.725 30.520 o
0 5 5 3.021 3.045 0.249 303.281 o
0 5 6 68.238 69.977 1.792 4.953 o
0 5 8 5.817 5.478 0.300 188.040 o
0 5 11 3.503 3.449 0.321 195.237 o
0 5 12 7.259 7.425 0.466 89.980 o
0 5 14 12.989 14.333 0.590 51.783 o
0 5 15 1.573 1.937 0.342 192.874 o
0 5 16 21.863 22.256 1.098 16.723 o
0 6 0 15.715 15.731 0.777 32.236 o
0 6 1 5.314 5.043 0.414 117.862 o
0 6 2 8.411 8.223 0.849 31.093 o
0 6 3 3.670 3.469 0.373 150.864 o
0 6 5 26.274 25.766 1.056 16.847 o
0 6 10 10.491 10.418 0.797 33.785 o
0 6 12 4.105 3.407 0.425 119.029 o
0 6 13 4.294 3.853 0.445 108.406 o
0 6 16 1.689 1.854 0.559 75.645 o
0 7 1 7.609 6.400 0.694 45.682 o
0 7 9 6.092 5.582 0.694 46.701 o
1 0 0 378.604 400.132 7.933 0.227 o
1 0 2 11.954 10.729 0.601 53.049 o
1 0 4 1808.700 1742.470 150.714 0.001 o
1 0 6 206.929 214.321 4.743 0.676 o
1 0 8 67.391 67.502 2.102 4.018 o
1 0 10 672.736 653.279 17.947 0.054 o
1 0 12 6.803 6.297 0.466 92.132 o
1 0 14 84.822 81.203 2.019 3.744 o
1 0 16 11.924 12.365 0.715 39.613 o
1 0 18 85.318 83.865 2.413 2.931 o
1 0 20 86.972 86.795 2.558 2.665 o
1 0 22 3.947 3.117 0.580 67.898 o
1 1 0 1569.630 1625.540 36.920 0.012 o
1 1 1 36.280 37.272 0.932 16.878 o
1 1 2 427.370 428.602 10.253 0.153 o
1 1 3 796.535 807.369 17.844 0.048 o
1 1 4 61.842 66.642 1.574 6.157 o
1 1 5 127.126 112.261 2.755 1.953 o
1 1 6 205.320 204.027 4.660 0.702 o
1 1 7 19.021 18.714 0.870 25.445 o
1 1 8 94.987 93.858 2.330 2.876 o
1 1 9 183.939 183.346 4.267 0.847 o
1 1 10 68.345 69.128 1.719 5.233 o
1 1 12 1.807 1.616 0.280 276.485 o
1 1 13 7.286 6.483 0.300 172.395 o
1 1 14 122.915 122.089 2.869 1.853 o
1 1 15 4.141 4.142 0.269 245.543 o
1 1 16 22.297 22.421 0.694 32.866 o
1 1 17 3.698 3.728 0.290 226.642 o
1 1 18 4.060 3.832 0.352 163.115 o
1 1 19 11.167 12.479 0.528 64.396 o
1 1 20 4.945 4.350 0.518 81.457 o
1 1 21 9.206 10.242 0.777 35.906 o
1 1 22 3.052 2.869 0.476 99.522 o
1 1 23 7.415 7.353 0.528 73.132 o
1 1 24 13.920 12.935 1.108 18.051 o
1 2 0 313.391 318.215 7.084 0.304 o
1 2 1 272.807 264.363 5.955 0.423 o
1 2 3 352.321 355.663 7.964 0.242 o
1 2 4 19.142 19.470 0.549 47.907 o
1 2 5 87.213 89.011 2.071 3.508 o
1 2 6 154.620 150.299 3.552 1.212 o
1 2 7 80.004 78.013 2.206 3.446 o
1 2 8 5.721 6.400 0.362 141.039 o
1 2 9 6.699 7.353 0.383 123.758 o
1 2 10 5.197 4.464 0.394 129.736 o
1 2 11 8.161 7.912 0.352 131.543 o
1 2 12 13.550 14.209 0.539 58.490 o
1 2 13 26.189 26.553 0.756 26.849 o
1 2 14 6.744 6.959 0.290 182.711 o
1 2 15 0.880 1.056 0.217 464.804 o
1 2 16 5.352 5.717 0.311 181.933 o
1 2 17 3.953 4.142 0.321 189.231 o
1 2 19 5.540 6.110 0.435 106.612 o
1 2 21 2.445 1.802 0.456 110.553 o
1 2 22 10.966 11.091 0.746 37.619 o
1 2 24 9.301 5.986 0.766 37.568 o
1 3 0 17.632 17.450 0.652 40.200 o
1 3 1 30.356 29.619 0.787 23.503 o
1 3 2 44.114 44.780 1.160 11.393 o
1 3 4 7.503 7.612 0.290 173.829 o
1 3 5 20.495 20.940 0.590 42.088 o
1 3 6 43.568 43.827 1.170 11.376 o
1 3 7 17.237 17.740 0.601 45.218 o
1 3 8 25.028 24.637 0.756 27.709 o
1 3 9 9.950 9.579 0.383 107.696 o
1 3 11 14.843 14.892 0.476 66.145 o
1 3 12 32.890 32.881 0.922 18.308 o
1 3 13 27.576 27.941 0.808 23.958 o
1 3 14 14.418 15.244 0.570 52.588 o
1 3 18 34.787 35.480 1.129 13.483 o
1 3 19 13.923 12.531 0.870 27.748 o
1 3 23 2.175 1.937 0.466 106.385 o
1 4 0 16.135 16.694 0.507 58.064 o
1 4 1 0.570 0.797 0.186 637.595 o
1 4 2 51.722 52.092 1.398 8.143 o
1 4 3 14.019 14.312 0.445 73.900 o
1 4 4 2.684 2.651 0.207 412.695 o
1 4 5 48.870 49.492 1.191 10.311 o
1 4 6 8.139 8.337 0.352 130.652 o
1 4 7 1.233 0.994 0.186 591.793 o
1 4 8 55.553 55.861 1.346 8.155 o
1 4 9 11.127 11.506 0.435 85.593 o
1 4 11 1.277 1.201 0.259 329.425 o
1 4 12 1.471 1.553 0.259 322.844 o
1 4 13 7.652 7.995 0.383 118.884 o
1 4 14 1.599 1.636 0.290 261.480 o
1 4 15 16.822 17.481 0.684 38.102 o
1 4 16 12.420 12.997 0.642 46.528 o
1 4 17 3.802 3.138 0.539 78.101 o
1 4 19 3.959 4.091 0.549 74.656 o
1 4 22 6.985 6.027 0.828 33.249 o
1 5 0 4.147 3.780 0.259 262.341 o
1 5 2 11.399 11.630 0.425 87.515 o
1 5 4 83.565 85.242 2.216 3.308 o
1 5 5 4.159 3.925 0.269 246.701 o
1 5 7 0.855 0.756 0.238 398.415 o
1 5 8 7.513 7.425 0.414 107.370 o
1 5 9 0.666 0.756 0.238 403.199 o
1 5 10 2.107 2.330 0.269 285.726 o
1 5 11 0.938 0.953 0.300 255.835 o
1 5 12 20.354 20.495 0.684 35.148 o
1 5 14 18.014 18.320 0.808 28.978 o
1 5 16 6.263 6.224 0.425 108.673 o
1 6 0 5.676 5.913 0.404 120.166 o
1 6 1 5.487 5.313 0.425 112.228 o
1 6 2 2.411 2.299 0.362 167.713 o
1 6 4 4.775 4.308 0.425 115.760 o
1 6 5 10.672 9.890 0.476 77.933 o
1 6 6 3.336 3.552 0.311 206.985 o
1 6 8 10.828 10.460 0.621 51.323 o
1 6 9 10.816 10.263 0.518 68.400 o
1 6 10 5.930 5.996 0.476 90.873 o
1 6 13 2.039 2.030 0.414 133.014 o
1 6 15 10.840 10.895 0.766 35.980 o
1 7 4 1.551 1.585 0.487 99.318 o
1 7 5 3.297 2.496 0.497 91.870 o
2 0 0 21.189 25.186 0.994 19.486 o
2 0 2 3671.610 3708.030 75.227 0.003 o
2 0 4 3.175 7.467 0.911 28.364 o
2 0 6 3.705 4.029 0.331 181.876 o
2 0 8 95.743 99.254 2.537 2.534 o
2 0 10 30.164 32.539 1.160 13.689 o
2 0 12 75.908 73.477 1.854 4.482 o
2 0 14 96.305 94.397 2.299 2.903 o
2 0 16 34.117 34.465 1.150 13.282 o
2 0 18 4.948 5.209 0.528 78.029 o
2 0 20 17.425 18.248 0.922 23.635 o
2 0 22 14.188 15.420 0.891 26.209 o
2 0 24 33.751 30.913 1.636 7.730 o
2 1 0 369.734 366.071 8.078 0.230 o
2 1 1 68.957 68.672 1.553 5.905 o
2 1 2 2.836 2.144 0.197 447.866 o
2 1 3 452.551 463.585 10.449 0.143 o
2 1 4 8.918 9.248 0.414 100.511 o
2 1 5 18.265 20.050 0.642 39.749 o
2 1 6 415.008 409.878 9.155 0.181 o
2 1 7 31.577 29.028 1.129 14.301 o
2 1 8 45.654 46.551 1.232 10.316 o
2 1 9 179.483 171.913 4.101 0.914 o
2 1 10 40.100 40.224 1.191 11.669 o
2 1 11 1.682 1.698 0.290 260.155 o
2 1 12 22.516 23.188 0.715 31.327 o
2 1 13 116.942 114.084 2.651 2.125 o
2 1 14 2.985 3.107 0.290 237.555 o
2 1 15 5.123 5.344 0.300 194.460 o
2 1 17 4.386 4.681 0.342 166.795 o
2 1 18 20.680 20.744 0.725 32.207 o
2 1 19 32.115 33.482 1.015 16.208 o
2 1 20 25.064 25.083 0.880 22.445 o
2 1 21 9.274 9.269 0.570 61.306 o
2 1 23 6.397 6.545 0.539 72.645 o
2 1 24 7.933 6.328 0.911 27.581 o
2 2 0 506.839 508.417 11.495 0.117 o
2 2 1 1.975 1.854 0.197 487.593 o
2 2 2 2.582 3.604 0.300 225.724 o
2 2 3 17.652 17.595 0.715 35.221 o
2 2 4 0.857 1.036 0.228 428.290 o
2 2 5 149.993 146.354 3.449 1.284 o
2 2 6 8.907 9.538 0.373 115.570 o
2 2 7 56.949 56.379 1.398 7.685 o
2 2 8 54.161 54.049 1.440 7.637 o
2 2 9 73.088 76.563 1.843 4.548 o
2 2 10 74.391 71.510 1.740 4.924 o
2 2 11 31.104 30.820 0.818 22.013 o
2 2 13 34.908 34.994 0.911 17.883 o
2 2 14 1.460 1.367 0.197 520.646 o
2 2 15 12.124 12.645 0.435 81.973 o
2 2 16 12.084 12.686 0.456 77.232 o
2 2 17 44.884 44.697 1.222 10.588 o
2 2 18 2.124 2.216 0.300 237.129 o
2 2 20 1.729 1.367 0.456 112.590 o
2 2 22 2.599 3.003 0.942 26.995 o
2 2 23 10.781 9.476 1.284 14.080 o
2 3 0 12.297 12.376 0.435 81.885 o
2 3 1 27.080 25.321 0.715 28.650 o
2 3 2 87.357 87.344 2.164 3.331 o
2 3 3 4.270 4.381 0.249 271.303 o
2 3 4 207.183 208.729 4.857 0.660 o
2 3 5 6.608 7.239 0.362 134.941 o
2 3 6 2.195 2.237 0.259 304.573 o
2 3 7 28.186 28.997 0.839 22.473 o
2 3 8 1.546 1.553 0.280 280.361 o
2 3 9 1.388 1.471 0.186 569.842 o
2 3 10 2.263 2.454 0.217 398.841 o
2 3 12 3.788 3.790 0.280 238.350 o
2 3 14 8.005 8.917 0.414 103.666 o
2 3 15 5.010 5.654 0.383 133.859 o
2 3 16 3.638 3.946 0.414 124.919 o
2 3 22 4.500 4.774 0.652 53.546 o
2 4 0 11.886 11.992 0.425 85.866 o
2 4 2 1.931 1.781 0.186 533.477 o
2 4 3 51.759 52.330 1.253 9.326 o
2 4 4 51.573 51.626 1.263 9.278 o
2 4 5 18.550 18.331 0.570 46.924 o
2 4 6 3.268 2.807 0.207 392.278 o
2 4 7 17.627 17.895 0.549 50.316 o
2 4 8 4.961 5.282 0.269 228.598 o
2 4 9 6.592 7.011 0.321 160.803 o
2 4 10 1.676 1.895 0.249 339.384 o
2 4 12 33.128 33.627 1.036 15.588 o
2 4 13 11.058 11.009 0.518 67.507 o
2 4 14 7.639 7.612 0.414 106.708 o
2 4 15 5.372 5.437 0.507 82.921 o
2 4 17 5.796 5.468 0.715 44.398 o
2 4 18 10.168 9.186 0.973 23.765 o
2 4 19 3.381 2.403 0.704 47.441 o
2 5 0 10.592 11.288 0.394 99.271 o
2 5 1 3.801 3.645 0.249 284.775 o
2 5 2 1.620 1.150 0.207 476.074 o
2 5 3 1.290 1.336 0.207 485.194 o
2 5 4 2.737 2.454 0.228 359.273 o
2 5 5 1.095 1.046 0.280 289.869 o
2 5 6 1.690 1.916 0.238 364.385 o
2 5 8 65.736 67.471 1.698 5.433 o
2 5 9 5.567 5.831 0.342 156.504 o
2 5 10 3.414 3.521 0.300 218.119 o
2 5 14 16.637 16.756 0.704 36.767 o
2 5 16 6.265 6.089 0.539 73.111 o
2 5 18 14.176 13.018 1.005 21.483 o
2 6 2 6.392 5.934 0.383 127.748 o
2 6 3 11.497 11.495 0.466 77.238 o
2 6 4 5.997 5.551 0.414 114.920 o
2 6 7 5.250 4.981 0.373 140.291 o
2 6 11 3.128 2.330 0.425 123.437 o
2 6 12 6.702 6.504 0.652 51.572 o
2 6 14 3.690 2.962 0.539 78.346 o
2 7 3 1.974 1.647 0.435 122.057 o
2 7 4 3.736 3.418 0.414 125.448 o
2 7 7 2.657 2.351 0.570 71.859 o
3 0 0 394.338 403.995 9.031 0.190 o
3 0 2 176.858 185.521 4.453 0.813 o
3 0 4 19.346 20.132 0.715 33.687 o
3 0 6 580.118 563.253 12.189 0.099 o
3 0 8 12.842 10.491 0.518 65.316 o
3 0 10 0.990 1.212 0.300 253.938 o
3 0 12 269.660 271.819 6.607 0.370 o
3 0 14 3.687 3.604 0.373 150.477 o
3 0 16 10.548 10.739 0.632 50.070 o
3 0 18 9.333 9.973 0.808 33.486 o
3 0 20 36.091 36.495 1.750 6.726 o
3 0 22 32.213 33.720 1.315 11.051 o
3 1 0 105.082 108.471 2.527 2.400 o
3 1 1 441.182 430.880 9.621 0.163 o
3 1 2 429.219 441.443 9.621 0.164 o
3 1 3 36.002 39.654 1.005 15.231 o
3 1 4 12.521 11.236 0.456 77.815 o
3 1 5 4.707 5.199 0.280 220.205 o
3 1 6 4.777 4.277 0.300 202.126 o
3 1 7 27.234 27.931 0.942 19.536 o
3 1 8 35.339 36.298 0.994 15.839 o
3 1 9 2.043 1.616 0.217 417.847 o
3 1 10 82.700 82.218 2.009 3.802 o
3 1 11 13.328 13.246 0.435 78.625 o
3 1 12 10.192 10.770 0.373 108.473 o
3 1 13 35.835 34.704 0.891 18.204 o
3 1 14 0.619 0.942 0.238 402.002 o
3 1 15 2.865 3.262 0.269 268.293 o
3 1 16 56.337 57.508 1.502 7.024 o
3 1 17 1.257 1.750 0.300 248.362 o
3 1 18 2.726 2.227 0.456 109.461 o
3 1 19 6.828 7.705 0.507 78.807 o
3 1 21 3.874 3.614 0.746 42.094 o
3 1 23 21.291 20.153 1.367 11.602 o
3 2 0 1.445 1.968 0.207 467.224 o
3 2 1 7.304 6.328 0.404 114.012 o
3 2 2 266.378 268.495 6.079 0.416 o
3 2 3 102.469 99.119 2.672 2.301 o
3 2 4 91.376 87.872 2.558 2.612 o
3 2 5 59.288 59.579 1.729 5.659 o
3 2 6 41.547 41.849 1.098 12.701 o
3 2 7 3.739 3.428 0.321 193.523 o
3 2 8 99.590 100.238 2.330 2.772 o
3 2 9 2.271 2.341 0.238 346.635 o
3 2 10 10.883 11.371 0.383 101.528 o
3 2 11 8.681 9.600 0.321 140.332 o
3 2 12 21.802 21.479 0.642 36.870 o
3 2 13 2.705 2.827 0.238 332.221 o
3 2 14 7.913 8.389 0.414 104.724 o
3 2 15 1.181 1.419 0.280 286.164 o
3 2 16 1.988 2.144 0.290 254.056 o
3 2 17 6.377 7.943 0.425 105.896 o
3 2 18 19.908 20.785 0.756 30.690 o
3 2 19 14.213 14.499 0.642 44.648 o
3 2 20 6.033 5.489 0.559 69.056 o
3 2 21 4.908 4.350 0.777 38.477 o
3 2 22 1.540 2.030 0.507 91.342 o
3 3 0 68.944 72.514 1.719 5.157 o
3 3 1 1.920 1.771 0.217 419.247 o
3 3 2 19.096 19.376 0.611 42.047 o
3 3 3 94.565 95.184 2.309 2.905 o
3 3 4 104.474 103.500 2.392 2.604 o
3 3 6 20.140 19.884 0.663 36.942 o
3 3 7 2.203 2.206 0.217 404.195 o
3 3 8 110.856 112.385 2.765 2.072 o
3 3 9 33.558 35.304 0.963 16.928 o
3 3 11 15.252 15.565 0.528 57.038 o
3 3 12 31.421 33.347 0.911 18.855 o
3 3 13 11.963 11.920 0.456 78.253 o
3 3 14 46.919 47.514 1.398 8.598 o
3 3 15 4.240 4.464 0.404 127.589 o
3 3 16 7.804 8.855 0.539 69.298 o
3 3 17 6.819 6.359 0.580 63.517 o
3 3 18 1.918 2.454 0.570 72.511 o
3 4 0 6.113 5.903 0.300 183.874 o
3 4 2 2.362 1.957 0.217 403.173 o
3 4 3 17.150 17.098 0.497 57.833 o
3 4 4 35.328 35.346 0.870 18.758 o
3 4 7 51.873 53.293 1.305 8.833 o
3 4 8 19.337 19.087 0.590 43.847 o
3 4 9 9.613 9.559 0.373 112.845 o
3 4 10 10.649 11.288 0.456 81.621 o
3 4 13 12.394 12.759 0.518 64.344 o
3 4 14 2.993 2.724 0.487 95.866 o
3 4 16 2.090 2.133 0.559 75.106 o
3 4 17 14.531 15.327 0.797 31.422 o
3 4 18 9.360 8.803 0.963 24.412 o
3 5 0 15.616 15.275 0.539 55.344 o
3 5 1 8.572 8.968 0.362 122.476 o
3 5 2 2.732 2.610 0.249 312.407 o
3 5 5 1.845 1.688 0.280 275.515 o
3 5 6 14.532 14.457 0.487 65.238 o
3 5 7 4.561 5.147 0.300 200.192 o
3 5 8 1.569 1.833 0.362 173.238 o
3 5 12 1.458 1.346 0.352 184.862 o
3 5 14 1.500 1.388 0.435 123.616 o
3 5 15 1.895 2.009 0.518 87.394 o
3 5 16 3.786 3.552 0.528 80.707 o
3 5 18 12.741 11.723 0.818 31.339 o
3 6 2 1.208 0.901 0.290 270.420 o
3 6 5 2.988 2.496 0.394 141.848 o
3 6 7 13.183 13.007 0.570 55.059 o
3 6 10 1.705 1.553 0.383 156.152 o
3 6 11 2.426 1.792 0.383 152.636 o
3 6 12 2.449 2.361 0.476 101.139 o
3 6 13 3.418 2.599 0.507 88.150 o
3 7 2 3.254 2.941 0.704 47.379 o
3 7 3 4.123 3.863 0.528 80.053 o
4 0 0 45.539 43.154 1.232 10.484 o
4 0 4 34.747 35.118 1.025 15.413 o
4 0 6 11.914 11.775 0.828 30.922 o
4 0 10 4.433 4.267 0.311 194.886 o
4 0 12 3.287 2.807 0.290 235.906 o
4 0 16 46.074 46.396 1.605 7.115 o
4 0 22 26.980 29.059 1.522 9.100 o
4 1 0 1.919 2.278 0.176 567.410 o
4 1 1 144.962 142.802 3.241 1.418 o
4 1 2 184.579 176.418 3.997 0.925 o
4 1 3 207.301 199.771 4.588 0.716 o
4 1 4 3.281 3.065 0.228 339.466 o
4 1 5 89.282 84.859 1.999 3.663 o
4 1 6 37.339 37.230 1.005 15.210 o
4 1 7 8.618 8.492 0.352 128.077 o
4 1 8 26.197 27.206 0.839 23.342 o
4 1 9 20.512 20.091 0.642 38.194 o
4 1 11 124.637 122.058 2.807 1.891 o
4 1 12 10.631 11.091 0.373 106.327 o
4 1 13 5.984 5.510 0.269 215.679 o
4 1 14 2.383 2.485 0.249 320.025 o
4 1 15 8.830 8.948 0.549 65.834 o
4 1 16 3.280 3.128 0.352 169.424 o
4 1 17 8.270 9.062 0.487 80.556 o
4 1 19 1.528 1.937 0.394 148.460 o
4 1 20 16.795 16.591 0.860 26.901 o
4 1 21 12.970 12.800 1.025 20.919 o
4 1 22 4.761 3.386 0.642 55.452 o
4 2 0 116.035 114.809 2.962 1.849 o
4 2 1 71.827 70.215 1.761 4.951 o
4 2 2 279.685 277.940 6.462 0.373 o
4 2 3 55.042 53.894 1.502 7.182 o
4 2 4 15.950 14.613 0.580 50.083 o
4 2 6 7.519 7.270 0.331 147.801 o
4 2 7 149.291 146.892 3.428 1.296 o
4 2 9 14.050 14.716 0.497 64.041 o
4 2 10 38.675 40.524 1.036 14.173 o
4 2 11 1.101 1.315 0.259 331.560 o
4 2 12 98.303 97.949 2.351 2.773 o
4 2 13 26.174 26.543 0.746 27.325 o
4 2 14 10.513 11.288 0.445 84.551 o
4 2 15 25.120 26.874 0.828 24.128 o
4 2 16 2.262 1.864 0.311 223.751 o
4 2 17 4.904 4.805 0.404 124.706 o
4 2 18 4.839 4.753 0.549 73.237 o
4 2 19 2.765 2.309 0.404 136.455 o
4 2 20 2.917 2.351 0.445 113.624 o
4 2 21 2.365 1.729 0.435 120.927 o
4 2 22 11.807 13.080 1.067 19.607 o
4 3 0 5.370 5.675 0.290 200.531 o
4 3 1 34.215 35.822 0.932 17.456 o
4 3 2 0.889 1.191 0.217 462.165 o
4 3 3 1.279 1.243 0.207 487.469 o
4 3 4 47.059 47.411 1.212 10.367 o
4 3 5 3.438 3.438 0.228 331.836 o
4 3 6 100.621 100.766 2.351 2.726 o
4 3 8 52.418 52.133 1.253 9.280 o
4 3 9 6.035 6.514 0.362 139.288 o
4 3 10 9.514 9.155 0.373 113.982 o
4 3 13 12.618 12.065 0.704 40.280 o
4 3 16 21.268 21.945 1.191 14.670 o
4 3 17 2.868 2.517 0.777 39.390 o
4 3 18 31.142 27.019 3.231 2.251 o
4 4 0 62.618 62.841 1.512 6.523 o
4 4 1 0.665 0.777 0.207 522.123 o
4 4 3 2.599 2.372 0.217 390.415 o
4 4 4 1.392 1.357 0.207 480.848 o
4 4 5 19.636 19.698 0.590 43.330 o
4 4 6 13.188 13.235 0.445 76.683 o
4 4 7 38.791 39.820 1.015 14.569 o
4 4 8 19.563 19.501 0.601 42.542 o
4 4 9 0.908 1.098 0.249 363.372 o
4 4 10 1.259 1.450 0.259 327.524 o
4 4 14 20.019 20.516 0.891 24.010 o
4 4 15 4.873 4.847 0.487 90.600 o
4 4 17 17.031 15.296 1.098 17.827 o
4 5 1 1.924 1.895 0.259 312.034 o
4 5 3 3.464 3.200 0.290 231.891 o
4 5 4 20.441 20.599 0.642 38.071 o
4 5 5 2.037 2.496 0.290 251.489 o
4 5 6 8.941 8.948 0.445 90.859 o
4 5 8 2.020 1.533 0.331 202.357 o
4 5 10 13.512 12.769 0.766 34.485 o
4 5 11 7.075 6.493 0.466 91.348 o
4 5 16 7.089 7.249 0.746 40.132 o
4 6 1 3.398 2.952 0.352 169.257 o
4 6 5 2.381 2.216 0.373 159.710 o
4 6 8 1.776 1.678 0.497 94.946 o
4 7 1 3.999 3.231 0.425 119.594 o
4 7 6 5.703 6.410 0.715 44.222 o
4 7 8 3.268 3.262 0.756 41.261 o
5 0 0 58.308 58.782 1.481 7.014 o
5 0 2 656.788 636.264 13.712 0.078 o
5 0 4 11.644 11.640 0.559 59.064 o
5 0 6 6.262 6.649 0.476 89.579 o
5 0 8 140.970 138.783 3.314 1.407 o
5 0 10 70.820 70.287 1.750 5.019 o
5 0 12 16.779 17.668 0.704 36.440 o
5 0 14 14.577 14.281 0.725 36.862 o
5 0 16 15.125 14.250 1.222 14.937 o
5 1 1 103.152 103.800 2.444 2.550 o
5 1 2 55.912 56.120 1.367 7.973 o
5 1 3 2.143 1.906 0.228 380.918 o
5 1 4 36.248 37.417 0.984 15.788 o
5 1 5 1.532 1.212 0.238 376.291 o
5 1 6 80.584 78.541 1.843 4.323 o
5 1 7 4.744 5.002 0.290 209.679 o
5 1 8 1.447 1.295 0.207 479.926 o
5 1 9 1.587 1.471 0.186 559.133 o
5 1 10 0.749 0.663 0.186 630.558 o
5 1 11 28.806 27.993 0.766 25.123 o
5 1 12 53.361 53.852 1.367 8.215 o
5 1 13 16.083 16.114 0.539 54.299 o
5 1 15 16.841 18.041 0.735 34.041 o
5 1 18 5.387 5.323 0.476 92.604 o
5 1 19 0.800 1.201 0.383 160.644 o
5 1 21 21.859 20.205 0.860 24.867 o
5 2 0 22.534 22.753 0.684 33.286 o
5 2 1 24.176 24.213 0.922 21.319 o
5 2 2 3.459 3.490 0.362 159.324 o
5 2 3 23.507 22.028 0.694 32.328 o
5 2 4 59.202 56.918 1.408 7.465 o
5 2 5 14.703 15.120 0.518 59.544 o
5 2 6 46.153 46.375 1.170 10.968 o
5 2 7 4.344 3.977 0.228 307.237 o
5 2 8 13.276 13.235 0.476 70.206 o
5 2 9 10.365 10.750 0.383 104.282 o
5 2 10 38.796 39.685 1.056 13.868 o
5 2 11 10.068 10.056 0.425 92.916 o
5 2 12 20.315 21.261 0.673 35.669 o
5 2 14 5.757 6.089 0.404 119.592 o
5 2 16 11.256 11.661 0.528 64.830 o
5 2 17 23.721 25.766 0.963 19.891 o
5 2 18 3.078 2.102 0.559 74.114 o
5 2 19 2.389 2.775 0.414 130.738 o
5 2 20 16.664 16.301 2.247 4.682 o
5 3 0 118.343 117.087 2.713 2.041 o
5 3 1 24.195 25.373 0.766 27.407 o
5 3 2 4.874 5.095 0.290 207.973 o
5 3 3 4.582 4.225 0.228 300.110 o
5 3 4 3.765 3.987 0.228 318.947 o
5 3 5 39.912 39.043 0.973 15.192 o
5 3 6 87.589 86.888 2.051 3.564 o
5 3 7 4.233 4.422 0.238 287.692 o
5 3 8 3.219 3.045 0.269 264.926 o
5 3 10 35.976 35.998 0.963 16.396 o
5 3 11 20.419 21.033 0.808 27.629 o
5 3 13 4.202 4.287 0.435 112.640 o
5 3 14 28.090 30.282 1.015 17.187 o
5 3 16 30.881 30.851 1.543 8.667 o
5 4 0 8.342 8.451 0.362 124.557 o
5 4 1 4.341 4.142 0.269 243.030 o
5 4 3 1.029 1.150 0.228 421.622 o
5 4 4 24.356 24.068 0.694 31.353 o
5 4 5 17.289 16.632 0.570 48.976 o
5 4 6 7.929 7.684 0.383 118.427 o
5 4 7 17.565 17.771 0.663 39.258 o
5 4 9 6.973 7.777 0.425 104.442 o
5 4 10 14.838 14.333 0.601 48.802 o
5 4 11 2.592 2.247 0.352 175.811 o
5 4 15 10.979 11.319 1.098 18.798 o
5 4 17 4.442 4.008 0.663 52.251 o
5 4 18 6.705 5.188 1.377 12.583 o
5 5 0 4.469 4.277 0.321 184.918 o
5 5 2 4.316 3.853 0.373 147.037 o
5 5 3 1.199 0.984 0.280 288.872 o
5 5 4 3.133 2.827 0.300 224.140 o
5 5 6 5.876 6.048 0.373 135.188 o
5 5 8 6.714 6.442 0.445 99.235 o
5 6 0 5.784 5.831 0.435 106.332 o
5 6 1 3.981 3.666 0.414 124.274 o
5 6 2 3.848 2.931 0.342 175.399 o
5 6 3 1.904 1.729 0.331 202.477 o
5 6 5 6.877 5.924 0.456 95.827 o
5 6 6 2.470 2.537 0.404 137.083 o
5 6 7 10.504 10.833 0.580 57.458 o
5 6 9 1.981 2.092 0.414 133.101 o
5 7 0 1.488 1.460 0.435 123.554 o
5 7 1 7.390 7.405 0.590 60.535 o
5 7 2 1.297 1.864 0.590 68.419 o
6 0 0 223.996 221.250 5.375 0.551 o
6 0 2 29.651 29.235 0.880 20.677 o
6 0 4 1.065 1.605 0.321 221.762 o
6 0 6 42.026 48.943 1.398 8.872 o
6 0 8 14.662 15.379 0.611 47.315 o
6 0 10 32.996 33.326 1.274 11.563 o
6 0 12 89.806 94.355 2.703 2.400 o
6 0 14 3.779 4.287 0.580 67.506 o
6 0 16 2.266 1.709 0.549 77.892 o
6 0 18 10.926 10.232 0.818 32.180 o
6 0 20 21.225 21.717 1.460 10.276 o
6 1 1 177.378 172.700 4.049 0.933 o
6 1 2 57.615 57.622 1.408 7.538 o
6 1 3 21.938 21.934 0.632 37.370 o
6 1 4 53.500 52.755 1.315 8.647 o
6 1 5 57.053 56.949 1.367 7.873 o
6 1 6 20.615 20.288 0.632 38.856 o
6 1 7 11.821 12.231 0.435 83.136 o
6 1 8 40.364 40.752 1.087 13.081 o
6 1 9 34.073 34.155 0.901 18.419 o
6 1 11 30.547 30.592 0.911 19.377 o
6 1 13 13.250 14.033 0.570 54.444 o
6 1 15 1.726 1.698 0.321 216.047 o
6 1 16 25.024 24.772 1.336 11.656 o
6 1 18 3.202 2.672 0.476 99.423 o
6 1 19 5.779 5.779 0.518 79.184 o
6 2 1 9.211 9.621 0.362 118.469 o
6 2 3 12.985 13.256 0.425 81.731 o
6 2 4 45.884 44.853 1.139 11.448 o
6 2 5 94.990 94.531 2.247 3.005 o
6 2 6 2.332 2.361 0.228 370.334 o
6 2 7 1.064 1.129 0.228 420.921 o
6 2 8 5.370 4.992 0.394 128.100 o
6 2 9 33.190 34.476 0.973 16.845 o
6 2 10 1.424 1.533 0.269 301.958 o
6 2 11 5.568 5.841 0.342 156.468 o
6 2 12 3.166 2.744 0.321 200.529 o
6 2 13 6.819 7.394 0.466 90.940 o
6 2 14 31.577 31.680 0.973 17.423 o
6 2 15 14.908 14.789 0.756 34.210 o
6 2 16 7.628 7.270 0.559 66.217 o
6 3 2 0.566 0.652 0.207 529.038 o
6 3 3 0.678 0.704 0.186 633.702 o
6 3 7 4.917 4.691 0.269 232.615 o
6 3 8 5.536 5.737 0.373 137.356 o
6 3 9 2.895 3.604 0.280 250.073 o
6 3 10 30.863 30.975 0.932 18.696 o
6 3 11 1.506 1.647 0.321 218.031 o
6 3 15 11.615 11.982 0.942 24.671 o
6 3 16 5.057 4.743 0.694 47.443 o
6 3 18 7.316 5.903 0.828 33.175 o
6 4 0 15.482 15.783 0.559 52.504 o
6 4 2 24.810 24.689 0.715 29.857 o
6 4 4 6.083 6.214 0.342 152.496 o
6 4 5 13.321 13.919 0.507 63.969 o
6 4 6 0.727 1.170 0.269 315.656 o
6 4 7 1.811 1.616 0.280 276.435 o
6 4 9 7.176 5.841 0.435 102.624 o
6 4 10 17.388 16.715 1.108 17.402 o
6 4 14 2.731 2.620 0.828 34.754 o
6 4 15 4.356 4.060 0.621 59.005 o
6 4 16 3.725 2.858 0.860 32.117 o
6 5 0 24.316 25.166 0.880 22.637 o
6 5 1 3.922 4.267 0.352 162.675 o
6 5 4 13.750 13.794 0.684 41.071 o
6 5 6 41.058 41.528 1.367 9.489 o
6 5 7 2.873 3.304 0.394 140.746 o
6 5 9 1.145 1.522 0.445 118.839 o
6 5 13 1.503 2.320 0.642 57.795 o
6 5 14 7.268 6.587 0.839 32.337 o
6 6 0 10.118 10.553 0.570 59.686 o
6 6 2 4.013 4.443 0.456 104.064 o
6 6 3 4.945 4.526 0.476 94.254 o
6 6 10 5.928 5.302 0.818 34.443 o
7 0 0 101.983 104.577 2.527 2.453 o
7 0 2 33.932 33.378 1.015 15.906 o
7 0 4 259.719 257.890 5.862 0.445 o
7 0 6 1.025 1.232 0.342 198.636 o
7 0 8 42.436 41.611 1.191 11.353 o
7 0 10 57.260 56.928 1.771 5.583 o
7 0 12 17.498 17.968 0.797 29.820 o
7 0 14 10.965 12.614 0.911 26.269 o
7 0 16 8.331 8.699 0.901 27.843 o
7 0 18 16.654 14.447 1.906 6.448 o
7 1 0 79.856 78.717 1.885 4.224 o
7 1 1 1.188 0.932 0.186 596.151 o
7 1 3 7.214 7.405 0.311 162.352 o
7 1 4 33.441 32.684 0.880 19.282 o
7 1 5 39.589 38.939 1.005 14.694 o
7 1 6 0.996 1.491 0.217 453.430 o
7 1 7 1.300 1.605 0.228 407.496 o
7 1 8 45.048 44.563 1.201 10.814 o
7 1 10 3.103 2.765 0.269 268.439 o
7 1 11 15.608 16.363 0.704 37.441 o
7 1 12 14.754 14.074 0.652 43.351 o
7 1 13 14.073 15.017 0.725 36.931 o
7 1 14 22.788 21.903 0.818 26.154 o
7 1 15 21.594 21.914 0.911 22.598 o
7 1 17 2.989 2.537 0.528 82.412 o
7 1 19 3.738 3.521 0.694 48.385 o
7 2 0 34.231 33.347 0.860 19.555 o
7 2 1 10.392 10.605 0.362 111.817 o
7 2 2 5.896 6.535 0.290 191.861 o
7 2 3 4.665 4.619 0.249 263.399 o
7 2 4 0.541 0.942 0.228 439.032 o
7 2 5 0.786 1.129 0.238 395.462 o
7 2 6 5.708 5.976 0.425 110.630 o
7 2 7 3.244 2.889 0.280 250.170 o
7 2 8 6.573 6.110 0.404 116.807 o
7 2 9 19.534 20.640 0.860 25.491 o
7 2 11 10.181 10.139 0.487 76.175 o
7 2 13 3.962 4.370 0.580 67.293 o
7 2 14 5.976 6.607 0.528 75.653 o
7 2 15 10.438 11.091 0.787 34.464 o
7 3 0 0.615 0.880 0.280 297.611 o
7 3 1 26.792 26.802 0.777 25.673 o
7 3 2 21.970 21.158 0.632 37.614 o
7 3 3 14.202 14.561 0.487 65.679 o
7 3 4 13.710 13.577 0.528 60.282 o
7 3 5 1.008 1.512 0.228 417.036 o
7 3 6 6.427 6.328 0.373 132.205 o
7 3 7 3.284 3.138 0.280 248.187 o
7 3 8 11.767 11.568 0.456 79.012 o
7 3 9 9.444 9.559 0.435 92.023 o
7 3 12 3.199 2.931 0.383 147.001 o
7 3 13 1.495 1.471 0.373 165.543 o
7 3 16 2.025 2.154 0.611 63.349 o
7 4 0 9.209 9.341 0.580 59.556 o
7 4 1 1.355 1.108 0.269 306.291 o
7 4 2 1.587 1.595 0.269 298.999 o
7 4 3 1.090 1.419 0.269 308.000 o
7 4 4 2.265 2.289 0.280 266.159 o
7 4 5 18.669 19.501 0.663 37.992 o
7 4 6 28.127 28.076 0.922 19.934 o
7 4 9 9.190 8.223 0.580 60.151 o
7 4 12 4.569 3.480 0.787 37.756 o
7 4 14 6.490 5.613 0.922 27.336 o
7 5 0 12.553 12.686 0.590 52.987 o
7 5 2 11.295 11.578 0.684 43.234 o
7 5 3 1.411 1.367 0.342 195.732 o
7 5 4 2.210 1.895 0.342 188.941 o
7 5 8 3.256 4.867 0.487 93.500 o
7 5 10 18.880 18.009 1.108 17.131 o
7 6 4 3.589 2.496 0.621 60.124 o
7 6 5 3.708 2.807 0.456 106.611 o
7 6 6 2.854 2.579 0.694 49.014 o
7 6 8 2.561 2.589 0.746 42.735 o
8 0 0 25.951 26.160 0.787 25.663 o
8 0 2 14.451 14.913 0.570 52.726 o
8 0 4 62.000 61.599 1.626 6.004 o
8 0 6 4.576 4.505 0.383 137.994 o
8 0 8 27.630 28.935 0.984 18.191 o
8 0 12 22.837 24.669 1.056 17.472 o
8 0 14 78.083 78.334 2.920 2.284 o
8 1 2 1.993 2.061 0.238 355.866 o
8 1 3 81.140 81.659 2.009 3.840 o
8 1 4 31.645 31.845 0.870 20.130 o
8 1 6 4.015 4.153 0.290 221.175 o
8 1 8 18.304 18.869 0.652 39.268 o
8 1 9 9.226 9.062 0.394 107.229 o
8 1 10 18.025 16.756 0.715 35.245 o
8 1 11 6.151 5.706 0.580 64.511 o
8 1 12 4.145 4.163 0.331 178.458 o
8 1 13 10.023 9.890 0.611 53.685 o
8 1 15 1.419 1.191 0.373 166.538 o
8 2 0 39.472 39.395 1.015 14.493 o
8 2 1 20.638 21.189 0.673 35.498 o
8 2 3 4.711 4.619 0.352 157.401 o
8 2 4 13.702 14.250 0.539 58.277 o
8 2 5 7.252 7.084 0.404 112.936 o
8 2 7 33.941 33.368 1.098 14.278 o
8 2 8 4.043 3.345 0.362 156.740 o
8 2 10 14.133 14.002 0.652 43.811 o
8 2 13 3.879 3.925 0.476 96.917 o
8 2 15 2.750 2.227 0.580 69.400 o
8 2 16 1.724 1.553 0.497 95.123 o
8 3 0 16.416 16.301 0.580 48.820 o
8 3 2 9.139 9.279 0.466 84.151 o
8 3 4 9.734 10.605 0.445 87.093 o
8 3 5 16.659 17.098 0.611 44.928 o
8 3 6 13.508 13.701 0.601 50.280 o
8 3 8 3.254 3.366 0.394 139.175 o
8 3 10 2.733 2.372 0.414 130.292 o
8 3 11 5.322 5.002 0.425 113.158 o
8 3 12 3.006 3.179 0.445 112.399 o
8 3 13 5.985 5.489 0.487 87.986 o
8 3 14 4.985 4.743 0.559 70.645 o
8 4 1 2.007 1.626 0.321 214.080 o
8 4 2 13.216 13.318 0.507 64.562 o
8 4 3 2.340 2.548 0.300 233.303 o
8 4 4 2.247 2.496 0.311 221.067 o
8 4 5 2.678 2.423 0.311 217.574 o
8 4 6 3.510 3.552 0.342 175.571 o
8 4 7 3.943 3.666 0.362 156.436 o
8 4 9 11.652 11.174 0.715 40.066 o
8 4 10 5.507 4.930 0.539 74.834 o
8 4 12 5.484 4.080 0.642 54.743 o
8 5 0 0.973 1.305 0.342 198.736 o
8 5 2 5.727 5.603 0.476 91.660 o
8 5 3 3.485 3.490 0.466 102.100 o
8 5 6 6.269 4.691 0.414 115.414 o
8 5 7 1.848 1.543 0.476 103.012 o
8 5 8 18.051 17.605 1.025 19.727 o
8 5 9 2.652 2.838 0.652 55.232 o
8 6 2 4.211 3.977 0.642 55.617 o
9 0 0 16.875 17.823 0.673 38.817 o
9 0 2 44.893 44.770 1.305 9.704 o
9 0 4 4.542 4.443 0.445 107.063 o
9 0 6 25.768 26.854 0.994 18.463 o
9 0 10 13.715 12.769 1.150 16.913 o
9 0 12 7.762 6.110 0.611 57.252 o
9 1 0 31.190 32.332 0.994 16.942 o
9 1 2 4.711 4.484 0.311 191.774 o
9 1 3 24.781 24.223 0.797 25.986 o
9 1 4 2.439 2.082 0.352 177.151 o
9 1 5 5.951 5.924 0.383 129.522 o
9 1 6 7.388 7.467 0.539 70.752 o
9 1 7 12.292 12.883 0.507 66.255 o
9 1 8 1.648 1.460 0.352 183.450 o
9 1 9 1.752 1.916 0.331 202.904 o
9 1 10 8.736 8.896 0.590 58.522 o
9 1 13 25.007 24.130 1.170 14.575 o
9 1 14 8.787 7.508 0.942 25.639 o
9 2 0 1.596 1.864 0.342 192.958 o
9 2 1 3.441 3.573 0.331 185.228 o
9 2 2 34.582 34.238 1.036 15.305 o
9 2 3 4.954 4.795 0.404 124.551 o
9 2 4 33.446 34.507 1.129 13.714 o
9 2 5 3.055 3.542 0.466 102.940 o
9 2 6 2.909 3.148 0.404 134.499 o
9 2 8 2.138 2.071 0.362 169.700 o
9 2 9 14.657 14.913 0.652 43.125 o
9 2 10 1.785 1.512 0.404 141.213 o
9 2 11 8.066 8.140 0.487 81.760 o
9 2 12 5.915 5.064 0.518 79.511 o
9 2 14 6.528 5.675 1.015 22.733 o
9 3 0 1.879 2.102 0.280 272.358 o
9 3 1 6.106 5.510 0.342 154.350 o
9 3 2 2.304 2.496 0.290 248.476 o
9 3 3 13.174 13.877 0.632 46.798 o
9 3 4 6.435 5.955 0.549 70.603 o
9 3 6 14.977 16.083 0.673 40.557 o
9 3 8 14.809 14.602 0.684 40.183 o
9 3 10 2.759 2.423 0.445 113.919 o
9 3 11 3.728 3.594 0.580 67.880 o
9 3 12 4.679 3.821 0.518 82.228 o
9 4 1 1.971 2.413 0.331 199.564 o
9 4 2 11.733 12.655 0.539 61.739 o
9 4 6 4.502 3.407 0.580 67.238 o
9 4 7 15.960 15.918 1.139 16.783 o
9 4 8 11.541 9.807 0.932 25.404 o
9 4 9 4.823 4.495 0.580 66.409 o
9 5 2 3.877 2.889 0.404 131.583 o
9 5 3 1.308 1.398 0.425 129.973 o
10 0 0 6.951 7.601 0.456 93.757 o
10 0 2 2.475 3.076 0.735 43.857 o
10 0 4 13.494 14.354 0.725 37.390 o
10 0 6 16.199 17.512 1.005 20.754 o
10 0 10 11.294 10.729 1.036 20.931 o
10 0 12 10.547 10.128 1.947 6.300 o
10 1 0 9.045 9.310 0.456 87.186 o
10 1 1 30.520 30.437 0.901 19.695 o
10 1 3 7.792 8.026 0.414 105.625 o
10 1 4 8.804 9.735 0.476 81.620 o
10 1 5 3.528 3.055 0.394 138.722 o
10 1 6 7.550 6.680 0.642 52.413 o
10 1 8 1.290 1.823 0.445 118.147 o
10 1 10 4.857 4.256 0.445 106.515 o
10 1 11 3.562 3.014 0.394 138.674 o
10 2 0 8.728 8.937 0.559 63.982 o
10 2 2 26.619 27.289 0.973 18.836 o
10 2 3 7.581 6.970 0.549 68.585 o
10 2 4 1.453 1.812 0.352 183.557 o
10 2 5 9.531 8.202 0.818 32.946 o
10 2 6 6.613 6.483 0.456 95.792 o
10 2 7 3.454 3.190 0.445 111.289 o
10 2 8 3.092 2.599 0.383 148.148 o
10 2 10 6.027 5.188 0.445 102.467 o
10 2 11 1.343 1.802 0.497 95.520 o
10 2 12 13.883 14.292 0.901 25.911 o
10 3 2 17.201 17.906 0.963 22.056 o
10 3 3 3.513 3.293 0.383 144.929 o
10 3 4 3.148 3.345 0.404 133.324 o
10 3 6 12.202 13.246 0.642 46.597 o
10 3 7 10.628 10.615 0.539 64.466 o
10 3 8 22.693 24.637 1.098 16.445 o
10 4 0 2.140 1.833 0.321 212.193 o
10 4 1 4.761 4.060 0.394 132.137 o
10 4 4 3.178 2.651 0.435 117.565 o
10 4 7 6.200 4.515 0.539 74.211 o
10 5 1 2.275 2.434 0.497 93.566 o
11 0 0 30.707 30.913 1.553 8.576 o
11 0 2 23.214 21.727 1.150 15.361 o
11 0 6 2.613 1.854 0.425 125.611 o
11 1 1 3.433 3.904 0.352 166.390 o
11 1 2 7.737 8.430 0.445 94.338 o
11 1 3 10.516 11.620 0.507 69.911 o
11 1 4 1.575 1.502 0.352 183.751 o
11 1 5 11.329 11.123 0.570 58.060 o
11 1 6 3.248 3.480 0.404 132.745 o
11 1 7 4.507 3.614 0.435 112.726 o
11 1 10 5.382 4.370 0.487 90.108 o
11 1 11 8.996 6.928 0.787 35.738 o
11 2 1 10.989 10.833 1.015 21.760 o
11 2 4 6.604 6.732 0.497 82.756 o
11 2 6 17.332 17.533 0.973 21.674 o
11 2 7 14.957 16.456 0.891 25.877 o
11 2 8 2.573 2.185 0.414 131.092 o
11 3 0 17.730 17.750 0.839 27.502 o
11 3 1 1.881 1.460 0.404 140.973 o
11 3 3 1.431 1.522 0.383 157.361 o
11 3 4 2.857 2.693 0.394 141.972 o
11 3 6 1.991 1.274 0.383 155.543 o
11 4 0 1.342 1.792 0.414 135.560 o
11 4 1 3.027 3.096 0.528 82.002 o
11 4 4 5.549 5.603 0.663 51.120 o
12 0 2 18.444 16.042 3.034 2.601 o
12 0 4 6.743 7.187 0.922 27.145 o
12 0 6 18.252 18.030 1.512 9.859 o
12 1 0 7.718 7.104 0.808 34.466 o
12 1 1 3.116 2.672 0.435 117.701 o
12 1 2 7.699 8.026 0.642 51.825 o
12 1 3 3.293 2.579 0.425 122.599 o
12 1 5 3.107 3.159 0.590 66.394 o
12 1 6 11.145 9.652 0.652 47.444 o
12 1 7 2.221 2.309 0.507 90.151 o
12 2 3 1.969 1.968 0.487 98.288 o
12 2 4 3.502 3.283 0.435 115.860 o
12 2 5 2.429 2.258 0.445 114.918 o
12 3 0 3.935 3.666 0.466 100.975 o
12 3 3 2.181 2.237 0.445 115.538 o
12 3 4 4.293 4.060 0.621 59.051 o
13 0 2 11.137 10.947 1.885 6.698 o
13 0 4 7.915 5.955 1.305 13.906 o
13 1 1 1.890 1.833 0.518 87.518 o
13 1 3 2.198 1.968 0.570 72.476 o
13 2 1 2.776 2.931 0.766 40.397 o
;
_olex2_submission_special_instructions 'No special instructions were received'
loop_
_space_group_symop_id
_space_group_symop_operation_xyz
1 x,y,z
2 -x,y+1/2,-z+1/2
3 -x,-y,-z
4 x,-y-1/2,z-1/2
loop_
_atom_site_label
_atom_site_type_symbol
_atom_site_fract_x
_atom_site_fract_y
_atom_site_fract_z
_atom_site_U_iso_or_equiv
_atom_site_adp_type
_atom_site_occupancy
_atom_site_refinement_flags_posn
O1 O 0.43479(4) 0.44394(8) 0.349858(19) 0.01382(4) Uani 1.000000 .
O2 O 0.24249(4) 0.74214(8) 0.46363(2) 0.01361(4) Uani 1.000000 .
C1 C 0.40310(4) 0.55857(8) 0.44797(2) 0.01020(4) Uani 1.000000 .
O3 O 0.12999(4) 0.63057(8) 0.17844(2) 0.01344(4) Uani 1.000000 .
H3a H 0.0212(9) 0.4766(18) 0.1534(6) 0.02016(6) Uiso 1.000000 G
H3b H 0.1911(14) 0.692(2) 0.1153(8) 0.0233(18) Uiso 1.000000 .
H1 H 0.3078(17) 0.521(3) 0.2851(9) 0.029(2) Uiso 1.000000 .
loop_
_atom_site_aniso_label
_atom_site_aniso_U_11
_atom_site_aniso_U_22
_atom_site_aniso_U_33
_atom_site_aniso_U_12
_atom_site_aniso_U_13
_atom_site_aniso_U_23
O1 0.01339(8) 0.01934(10) 0.00845(7) 0.00428(7) 0.00208(6) -0.00070(7)
O2 0.01157(7) 0.01908(10) 0.00949(7) 0.00534(7) 0.00115(6) -0.00064(7)
C1 0.00976(8) 0.01230(9) 0.00810(8) 0.00171(7) 0.00131(6) 0.00005(7)
O3 0.01102(7) 0.01887(10) 0.00944(7) -0.00157(7) 0.00050(5) 0.00112(7)
loop_
_atom_type_symbol
_atom_type_description
_atom_type_scat_dispersion_real
_atom_type_scat_dispersion_imag
_atom_type_scat_source
_atom_type_scat_dispersion_source
C C 0.00347 0.00161
'Clementi & Roetti, C., At. Data Nucl. Data Tables 1974, 14, (177-478); Clementi & Raimondi, J. Chem. Phys., 1963, 38, (2686-2689)'
'Henke, Gullikson and Davis, At. Data and Nucl. Data Tables, 1993, 54, 2'
H H 0.00000 0.00000
'Clementi & Roetti, C., At. Data Nucl. Data Tables 1974, 14, (177-478); Clementi & Raimondi, J. Chem. Phys., 1963, 38, (2686-2689)'
'Henke, Gullikson and Davis, At. Data and Nucl. Data Tables, 1993, 54, 2'
N N 0.00653 0.00323
'Clementi & Roetti, C., At. Data Nucl. Data Tables 1974, 14, (177-478); Clementi & Raimondi, J. Chem. Phys., 1963, 38, (2686-2689)'
'Henke, Gullikson and Davis, At. Data and Nucl. Data Tables, 1993, 54, 2'
O O 0.01158 0.00611
'Clementi & Roetti, C., At. Data Nucl. Data Tables 1974, 14, (177-478); Clementi & Raimondi, J. Chem. Phys., 1963, 38, (2686-2689)'
'Henke, Gullikson and Davis, At. Data and Nucl. Data Tables, 1993, 54, 2'
loop_
_geom_angle_atom_site_label_1
_geom_angle_atom_site_label_2
_geom_angle_atom_site_label_3
_geom_angle
_geom_angle_site_symmetry_1
_geom_angle_site_symmetry_3
_geom_angle_publ_flag
H1 O1 C1 110.9(5) . . ?
O2 C1 O1 126.89(3) . . ?
C1 C1 O1 112.71(3) 3_666 . ?
C1 C1 O2 120.40(3) 3_666 . ?
H3b O3 H3a 107.0 . . ?
loop_
_geom_bond_atom_site_label_1
_geom_bond_atom_site_label_2
_geom_bond_distance
_geom_bond_site_symmetry_2
_geom_bond_publ_flag
O1 C1 1.2856(3) . ?
O1 H1 0.987(10) . ?
O2 C1 1.2205(4) . ?
C1 C1 1.5423(5) 3_666 ?
O3 H3a 0.8500 . ?
O3 H3b 0.936(9) . ?
loop_
_refln_index_h
_refln_index_k
_refln_index_l
_refln_F_squared_meas
_refln_F_squared_sigma
-14 1 7 5.36 1.72
-13 0 6 28.97 3.22
-13 0 8 3.07 0.64
-13 0 12 9.98 1.76
-13 0 16 7.44 1.77
-13 1 1 2.46 0.55
-13 1 2 12.34 0.75
-13 1 5 5.89 0.65
-13 1 8 2.84 0.53
-13 1 10 2.63 0.42
-13 1 12 3.16 0.43
-13 2 1 4.52 0.49
-13 2 10 2.94 0.6
-13 3 4 3.65 0.75
-12 0 2 8.47 0.66
-12 0 4 40.43 1.52
-12 0 6 4.51 0.7
-12 0 12 6.01 0.97
-12 0 14 4.35 0.48
-12 0 16 11.78 2.9
-12 1 1 1 0.34
-12 1 5 16.53 1.11
-12 1 6 3.61 0.37
-12 1 7 1.13 0.36
-12 1 8 10.19 0.64
-12 1 9 9.59 0.83
-12 1 10 1.66 0.34
-12 1 12 5.63 0.42
-12 1 15 12.05 0.87
-12 2 1 11.55 0.76
-12 2 2 4.72 0.42
-12 2 5 6.6 0.55
-12 2 7 2.71 0.48
-12 2 8 3.62 0.41
-12 2 9 3.88 0.44
-12 2 11 7.89 0.61
-12 2 13 4.03 0.5
-12 3 3 2.51 0.5
-12 4 5 2.38 0.61
-12 4 6 4.1 0.58
-11 0 2 3.38 0.41
-11 0 4 8.29 0.54
-11 0 8 81.05 2.94
-11 0 10 6.76 0.83
-11 0 12 1.36 0.46
-11 0 14 30.1 1.46
-11 0 18 9.19 0.85
-11 0 22 5.23 1.69
-11 1 2 5.23 0.39
-11 1 3 12.41 0.67
-11 1 4 33.77 0.98
-11 1 5 1.99 0.31
-11 1 8 1.39 0.33
-11 1 9 4.89 0.35
-11 1 10 3.02 0.35
-11 1 11 3.1 0.33
-11 1 12 11.83 0.53
-11 1 14 4.96 0.47
-11 1 15 4.42 0.38
-11 1 16 2.27 0.44
-11 1 18 7.32 0.81
-11 1 19 8.49 0.93
-11 2 1 2.02 0.47
-11 2 4 9.9 0.49
-11 2 5 1.91 0.33
-11 2 6 5.64 0.37
-11 2 7 8 0.46
-11 2 11 1.63 0.35
-11 2 12 2.15 0.37
-11 2 14 1.32 0.38
-11 2 15 8.89 0.54
-11 3 2 2.35 0.37
-11 3 4 4.37 0.36
-11 3 5 5.2 0.43
-11 3 6 2.54 0.43
-11 3 7 2.61 0.41
-11 3 10 11.24 0.56
-11 3 11 2.99 0.49
-11 3 13 2.21 0.39
-11 3 16 2.37 0.49
-11 3 17 4.64 0.58
-11 4 2 2.11 0.38
-11 4 3 4.05 0.41
-11 4 6 6.05 0.44
-11 4 9 2.19 0.45
-11 4 10 3.52 0.48
-11 4 12 3.35 0.54
-11 5 2 4.39 0.73
-10 0 4 8 0.47
-10 0 6 11.17 0.6
-10 0 8 15.59 1.19
-10 0 10 10.61 0.67
-10 0 12 11.48 0.7
-10 0 18 55.4 1.92
-10 0 20 2.07 0.56
-10 1 1 3.16 0.28
-10 1 3 1.97 0.3
-10 1 5 8.54 0.47
-10 1 7 42.42 1.27
-10 1 8 17.46 0.63
-10 1 9 8.25 0.41
-10 1 10 6.16 0.38
-10 1 11 1.43 0.36
-10 1 12 3.03 0.35
-10 1 13 10.26 0.45
-10 1 14 15.21 0.82
-10 1 17 12.88 0.71
-10 1 18 1.85 0.39
-10 1 19 2.5 0.41
-10 1 22 7.87 0.95
-10 2 2 10.03 0.71
-10 2 3 44.3 1.23
-10 2 4 24.79 0.87
-10 2 8 8.39 0.44
-10 2 9 11.97 0.58
-10 2 11 10.36 0.47
-10 2 12 4.22 0.38
-10 2 13 9.5 0.63
-10 2 14 12.07 0.6
-10 2 17 4.01 0.44
-10 3 1 2.36 0.32
-10 3 2 7.59 0.4
-10 3 3 3.5 0.33
-10 3 4 8.56 0.4
-10 3 6 9.73 0.44
-10 3 8 5.42 0.37
-10 3 9 1.05 0.32
-10 3 10 7.41 0.58
-10 3 14 7.02 0.49
-10 3 15 2.13 0.39
-10 4 2 8.78 0.5
-10 4 3 5.32 0.56
-10 4 6 3.25 0.6
-10 4 8 2.67 0.41
-10 4 9 3.08 0.42
-10 4 10 6.24 0.67
-10 4 13 6.14 0.65
-10 4 16 9.47 0.74
-10 5 2 4.96 0.67
-10 5 5 2.59 0.5
-10 5 6 5.12 0.64
-10 5 12 9.68 2.02
-9 0 2 3.73 0.36
-9 0 4 53.09 1.42
-9 0 6 22.42 0.8
-9 0 8 3.12 0.38
-9 0 10 47.3 2.33
-9 0 14 1.75 0.44
-9 0 16 19.78 1.06
-9 0 22 4.94 0.7
-9 0 24 2.91 0.59
-9 1 2 1.27 0.22
-9 1 4 9.84 0.45
-9 1 5 3.04 0.26
-9 1 6 19.93 0.68
-9 1 7 15.96 0.55
-9 1 8 4.29 0.3
-9 1 9 15.83 0.6
-9 1 10 0.95 0.26
-9 1 11 5.92 0.35
-9 1 14 13.4 0.53
-9 1 16 2.17 0.31
-9 1 17 34.16 1.19
-9 1 18 6.4 0.54
-9 1 19 2.62 0.36
-9 1 20 2.86 0.46
-9 1 21 4.59 0.66
-9 1 23 2.12 0.47
-9 2 1 4.81 0.4
-9 2 5 5.32 0.32
-9 2 6 30.52 0.95
-9 2 7 9.08 0.38
-9 2 8 50.49 1.3
-9 2 10 4.68 0.47
-9 2 12 2.9 0.32
-9 2 13 28.46 0.86
-9 2 14 3.84 0.34
-9 2 16 8.29 0.65
-9 2 17 6.72 0.42
-9 2 18 12.91 0.59
-9 2 19 3.4 0.43
-9 2 21 5.78 0.71
-9 2 23 5.42 0.54
-9 3 1 2.21 0.28
-9 3 2 80.84 2.06
-9 3 3 12.21 0.48
-9 3 4 19.55 0.65
-9 3 7 18.07 0.6
-9 3 8 6.15 0.42
-9 3 9 1.26 0.28
-9 3 10 4.19 0.35
-9 3 11 1.23 0.35
-9 3 12 37.22 1.15
-9 3 13 5.48 0.47
-9 3 14 5.69 0.58
-9 3 15 1.83 0.43
-9 3 16 2.51 0.43
-9 4 1 9.93 0.57
-9 4 2 3.64 0.41
-9 4 3 18.93 0.86
-9 4 6 6.55 0.48
-9 4 8 3.41 0.47
-9 4 11 4.86 0.44
-9 4 12 6.41 0.48
-9 4 13 7.06 0.49
-9 5 1 1.64 0.38
-9 5 9 2.8 0.43
-9 5 12 2.59 0.61
-9 6 5 2.23 0.6
-8 0 2 3.75 0.35
-8 0 4 4.4 0.35
-8 0 8 47.06 1.48
-8 0 10 5.9 0.35
-8 0 12 2.67 0.38
-8 0 14 40.9 1.23
-8 0 16 11.92 0.75
-8 0 18 1.99 0.47
-8 0 20 37.06 1.41
-8 1 1 27.16 0.78
-8 1 3 17.51 0.52
-8 1 4 26.94 0.7
-8 1 5 20.89 0.6
-8 1 6 1.78 0.23
-8 1 7 51.18 1.31
-8 1 8 5.31 0.36
-8 1 9 12.68 0.45
-8 1 10 32.58 1.05
-8 1 11 1.12 0.23
-8 1 12 1.77 0.26
-8 1 15 14.91 0.73
-8 1 16 7.56 0.37
-8 1 17 6.54 0.4
-8 1 18 9.64 0.6
-8 1 20 1.33 0.35
-8 1 21 3.72 0.4
-8 1 24 6.5 0.81
-8 2 1 36.06 0.94
-8 2 2 15.07 0.56
-8 2 3 6.27 0.41
-8 2 4 14.92 0.5
-8 2 5 30.79 0.83
-8 2 6 51.11 1.31
-8 2 7 6.31 0.31
-8 2 8 5.91 0.32
-8 2 9 1.51 0.25
-8 2 10 9.89 0.4
-8 2 11 18.19 0.6
-8 2 12 7.69 0.38
-8 2 13 1.98 0.28
-8 2 14 10.3 0.54
-8 2 16 34.77 0.97
-8 2 17 2.04 0.31
-8 2 18 12.47 0.61
-8 2 19 2.82 0.44
-8 2 23 2.02 0.52
-8 3 2 8.04 0.41
-8 3 3 6.66 0.46
-8 3 6 30.32 0.87
-8 3 7 10.05 0.39
-8 3 8 19.09 0.64
-8 3 9 4.54 0.32
-8 3 10 8.02 0.49
-8 3 11 4.86 0.42
-8 3 12 46.23 1.31
-8 3 16 16.44 0.79
-8 3 17 14.71 0.89
-8 3 20 6.28 0.45
-8 3 22 20.81 1.37
-8 3 23 2.38 0.7
-8 4 1 19.87 0.78
-8 4 2 17.49 0.65
-8 4 3 13.86 0.73
-8 4 4 9.59 0.51
-8 4 5 2.86 0.35
-8 4 6 3.58 0.4
-8 4 7 2.6 0.32
-8 4 8 3.46 0.34
-8 4 11 21.04 1.27
-8 4 12 14.02 0.74
-8 4 13 9.84 0.84
-8 4 15 2.98 0.48
-8 4 16 2.71 0.53
-8 4 18 4.54 0.86
-8 5 1 4.21 0.36
-8 5 2 23.95 1.25
-8 5 5 1.56 0.4
-8 5 7 3.87 0.59
-8 5 8 6.16 0.58
-8 5 10 2.59 0.43
-8 5 12 1.63 0.5
-7 0 2 13.18 0.59
-7 0 4 35.77 1.03
-7 0 6 235.35 5.51
-7 0 10 1.39 0.25
-7 0 12 5.47 0.32
-7 0 14 12.24 0.51
-7 0 16 6.89 0.48
-7 0 18 6.73 1.28
-7 0 24 6.46 0.79
-7 0 26 1.89 0.6
-7 1 1 16.58 0.55
-7 1 2 79.08 1.9
-7 1 3 3.69 0.23
-7 1 4 0.78 0.2
-7 1 5 2.07 0.25
-7 1 6 17.64 0.58
-7 1 7 48 1.22
-7 1 9 9.6 0.34
-7 1 10 26.51 0.75
-7 1 11 42.34 1.08
-7 1 12 2.61 0.21
-7 1 13 8.43 0.36
-7 1 14 14.03 0.47
-7 1 15 12.52 0.5
-7 1 16 5.59 0.31
-7 1 17 20.4 0.65
-7 1 19 25.2 1.03
-7 1 20 4.18 0.35
-7 1 21 2.71 0.41
-7 1 22 1.35 0.34
-7 1 25 5.79 0.54
-7 2 3 21.34 0.6
-7 2 4 3.13 0.22
-7 2 5 9.45 0.35
-7 2 6 2.15 0.21
-7 2 7 17.44 0.66
-7 2 8 15.42 0.52
-7 2 9 16.06 0.52
-7 2 10 69.41 1.69
-7 2 11 19.48 0.64
-7 2 12 7.18 0.45
-7 2 13 4.99 0.29
-7 2 14 2.95 0.26
-7 2 15 38.31 1.13
-7 2 16 10.56 0.57
-7 2 17 2 0.28
-7 2 18 4.15 0.44
-7 2 20 21.11 0.7
-7 2 21 11.11 0.67
-7 2 22 3.27 0.39
-7 2 23 2.93 0.38
-7 2 24 3.62 0.46
-7 2 25 1.96 0.43
-7 3 1 2.01 0.23
-7 3 2 1.79 0.22
-7 3 3 1.79 0.22
-7 3 4 70.64 1.71
-7 3 5 31.07 0.81
-7 3 6 14.43 0.52
-7 3 9 8.67 0.41
-7 3 10 10.52 0.58
-7 3 12 1.12 0.34
-7 3 13 6.96 0.44
-7 3 14 20.18 0.76
-7 3 15 4.25 0.46
-7 3 16 20.42 0.84
-7 3 18 9.16 0.7
-7 3 20 1.97 0.39
-7 3 21 3.08 0.41
-7 4 1 17.71 0.82
-7 4 2 6.24 0.37
-7 4 4 1.73 0.34
-7 4 5 21.5 0.68
-7 4 6 3.81 0.32
-7 4 7 4.21 0.35
-7 4 8 23.86 0.84
-7 4 9 5.2 0.37
-7 4 11 11.79 0.7
-7 4 12 2.96 0.34
-7 4 14 2.62 0.5
-7 4 15 10.99 0.69
-7 4 16 9.13 1.14
-7 4 17 2.83 0.71
-7 5 1 3.05 0.36
-7 5 2 18.39 0.72
-7 5 3 2.76 0.38
-7 5 6 7.81 0.49
-7 5 10 4.41 0.43
-7 5 11 9.09 0.53
-7 5 12 21.92 0.98
-7 5 17 2.95 0.77
-7 6 1 12.7 0.79
-7 6 2 2.17 0.37
-7 6 6 4.98 0.44
-7 6 7 1.2 0.38
-7 6 8 2.86 0.43
-7 6 9 1.87 0.44
-7 6 11 1.89 0.49
-6 0 2 169.76 4.12
-6 0 4 2.49 0.34
-6 0 6 153.62 3.66
-6 0 8 1.32 0.3
-6 0 10 265.64 6.07
-6 0 12 2.44 0.28
-6 0 14 25.62 0.87
-6 0 16 122.19 3.09
-6 0 18 15.17 0.77
-6 0 20 8.98 0.6
-6 0 22 2.94 0.49
-6 0 24 11.52 1.03
-6 0 26 4.5 0.65
-6 1 1 1.21 0.22
-6 1 2 6.35 0.29
-6 1 3 1.13 0.2
-6 1 4 29.94 0.8
-6 1 5 88.33 2.1
-6 1 6 140.75 3.53
-6 1 7 2.64 0.22
-6 1 8 3.09 0.23
-6 1 9 41 1.03
-6 1 10 46.44 1.16
-6 1 11 3.96 0.23
-6 1 12 38.58 0.96
-6 1 13 5.1 0.26
-6 1 14 20.13 0.62
-6 1 15 3.47 0.28
-6 1 17 0.98 0.31
-6 1 19 11.23 0.45
-6 1 20 26.45 0.84
-6 1 21 12.08 0.55
-6 1 22 1.44 0.32
-6 1 23 1.61 0.42
-6 1 25 1.4 0.37
-6 2 1 65.12 1.63
-6 2 2 35.74 1.01
-6 2 3 55.69 1.38
-6 2 4 5.2 0.25
-6 2 5 4.28 0.23
-6 2 6 0.84 0.19
-6 2 8 12.59 0.5
-6 2 9 29.25 0.96
-6 2 10 8.84 0.37
-6 2 12 8.55 0.36
-6 2 14 5.77 0.29
-6 2 15 2.55 0.25
-6 2 17 8.71 0.54
-6 2 18 18.04 0.64
-6 2 19 2.21 0.31
-6 2 20 19.95 0.77
-6 2 21 1.1 0.34
-6 2 25 8.29 0.76
-6 3 1 12.48 0.49
-6 3 2 10.65 0.37
-6 3 3 1.85 0.2
-6 3 4 4.25 0.23
-6 3 5 0.77 0.19
-6 3 6 5.87 0.27
-6 3 7 6.8 0.41
-6 3 8 36.76 1.02
-6 3 9 28.81 0.81
-6 3 11 3.38 0.3
-6 3 12 1.2 0.28
-6 3 13 5.76 0.38
-6 3 14 50.46 1.41
-6 3 15 11.48 0.5
-6 3 18 6.92 0.6
-6 3 19 12.2 0.91
-6 3 20 1.6 0.39
-6 3 22 4.16 0.55
-6 3 24 14.8 0.91
-6 4 1 7.66 0.38
-6 4 3 6.34 0.42
-6 4 4 39.78 1.04
-6 4 5 36.12 0.96
-6 4 6 1.63 0.25
-6 4 8 6.55 0.43
-6 4 10 1.81 0.29
-6 4 11 5.89 0.38
-6 4 12 10.78 0.52
-6 4 13 11.14 1.08
-6 4 14 12.43 0.6
-6 4 15 19.05 0.93
-6 4 18 6.03 0.5
-6 5 4 33.52 1
-6 5 6 5.74 0.5
-6 5 7 2.44 0.37
-6 5 8 14.78 0.61
-6 5 9 1.43 0.33
-6 5 10 12.56 0.7
-6 5 16 7.2 0.85
-6 6 2 3.29 0.39
-6 6 4 2.8 0.47
-6 6 5 7.49 0.53
-6 6 6 1.85 0.42
-6 6 10 4.31 0.63
-6 6 11 8.1 0.79
-6 6 12 3.01 0.77
-6 7 1 4.32 0.62
-5 0 2 84.49 2.08
-5 0 4 16.59 0.64
-5 0 6 111.17 2.88
-5 0 8 259.35 6
-5 0 10 95.9 2.39
-5 0 12 41.4 1.26
-5 0 18 25.16 0.89
-5 0 20 95.51 2.46
-5 0 26 11.91 0.94
-5 1 1 52.7 1.45
-5 1 2 232.91 5.43
-5 1 3 47.66 1.23
-5 1 4 85.36 2.15
-5 1 5 28.86 0.8
-5 1 6 3.89 0.27
-5 1 7 1.06 0.2
-5 1 8 16.01 0.54
-5 1 9 251.13 5.77
-5 1 10 24.7 0.71
-5 1 12 22.9 0.7
-5 1 13 8.41 0.32
-5 1 14 23.93 0.67
-5 1 15 37.06 1
-5 1 16 51.83 1.3
-5 1 17 15.69 0.6
-5 1 19 40.53 1.2
-5 1 21 1.37 0.37
-5 1 24 12.94 0.77
-5 1 26 2.59 0.65
-5 1 27 1.67 0.48
-5 2 1 8.02 0.41
-5 2 3 4.27 0.27
-5 2 4 26 0.82
-5 2 5 162.34 3.78
-5 2 6 72.33 1.75
-5 2 7 20.71 0.68
-5 2 8 2.13 0.22
-5 2 11 37.29 0.95
-5 2 12 22.02 0.68
-5 2 13 67.64 1.62
-5 2 14 0.83 0.2
-5 2 15 11.37 0.46
-5 2 16 2.79 0.33
-5 2 17 7.24 0.37
-5 2 18 4.8 0.39
-5 2 19 10.67 0.6
-5 2 22 8.41 0.5
-5 2 23 5.98 0.44
-5 2 24 1.2 0.39
-5 3 1 17.62 0.58
-5 3 3 6.03 0.27
-5 3 4 11.02 0.36
-5 3 5 3.27 0.21
-5 3 6 4.25 0.23
-5 3 7 14.3 0.47
-5 3 8 2.17 0.23
-5 3 10 5.57 0.3
-5 3 12 0.76 0.23
-5 3 14 1 0.3
-5 3 15 2.17 0.31
-5 3 18 10.89 0.75
-5 3 19 5.5 0.56
-5 3 23 2.99 0.52
-5 3 24 6.49 0.57
-5 4 1 3.04 0.25
-5 4 3 22.18 0.67
-5 4 4 21.65 0.68
-5 4 5 12.67 0.44
-5 4 7 0.73 0.23
-5 4 8 23.33 0.71
-5 4 10 21.07 0.67
-5 4 12 1.77 0.33
-5 4 13 12.48 0.83
-5 4 14 7.13 0.6
-5 4 15 10.93 0.56
-5 4 17 1.89 0.59
-5 4 18 14.48 0.7
-5 4 22 1.8 0.5
-5 4 23 7.72 0.67
-5 5 1 2.73 0.29
-5 5 2 3.77 0.32
-5 5 3 2.64 0.3
-5 5 4 60.36 1.66
-5 5 6 7.28 0.4
-5 5 7 2.44 0.32
-5 5 8 5.59 0.45
-5 5 9 3.23 0.34
-5 5 10 3.2 0.43
-5 5 12 10.3 0.56
-5 5 13 4.19 0.45
-5 5 14 43.02 1.45
-5 6 3 18.14 0.94
-5 6 4 2.24 0.52
-5 6 5 1.62 0.39
-5 6 7 2.4 0.51
-5 6 8 9.61 1.16
-5 6 9 2.43 0.5
-5 6 10 7.66 0.68
-4 0 2 899.34 20.05
-4 0 4 117.45 2.79
-4 0 6 41.86 1.1
-4 0 8 535.68 11.84
-4 0 10 1.55 0.3
-4 0 12 224.05 5.29
-4 0 14 1.53 0.26
-4 0 16 55.39 1.47
-4 0 18 126.69 3.14
-4 0 22 2.07 0.54
-4 0 24 1.91 0.48
-4 0 26 8.86 0.73
-4 1 1 83.89 1.97
-4 1 2 52.32 1.32
-4 1 3 1.56 0.18
-4 1 4 31.05 0.8
-4 1 6 167.83 3.84
-4 1 7 81.38 1.91
-4 1 8 161.81 3.71
-4 1 9 42.51 1.09
-4 1 11 1.39 0.22
-4 1 12 77.23 1.87
-4 1 13 13.77 0.64
-4 1 14 15.62 0.5
-4 1 16 20.41 0.6
-4 1 17 4.23 0.27
-4 1 19 50.77 1.32
-4 1 20 10.8 0.48
-4 1 21 1.88 0.41
-4 1 22 21.4 0.86
-4 1 23 9.22 0.48
-4 1 24 2.39 0.37
-4 1 25 4.03 0.41
-4 1 26 1.57 0.36
-4 1 27 3.76 0.53
-4 2 1 49.09 1.22
-4 2 2 11.82 0.48
-4 2 3 72.46 1.73
-4 2 4 56.73 1.38
-4 2 5 5.93 0.29
-4 2 6 5.24 0.3
-4 2 7 6.67 0.29
-4 2 8 76.05 1.82
-4 2 9 12.49 0.45
-4 2 10 28.77 0.77
-4 2 11 7.04 0.3
-4 2 13 3.35 0.27
-4 2 14 20.86 0.74
-4 2 15 32.94 0.9
-4 2 16 9.6 0.45
-4 2 17 7.35 0.36
-4 2 18 7.53 0.43
-4 2 19 5.82 0.46
-4 2 21 4.51 0.54
-4 2 22 3.24 0.47
-4 2 23 16.86 0.78
-4 2 24 2.23 0.4
-4 2 25 3.06 0.59
-4 3 1 5.05 0.3
-4 3 2 12.47 0.46
-4 3 3 20.17 0.59
-4 3 4 224.07 5.11
-4 3 5 26.03 0.7
-4 3 6 7.76 0.3
-4 3 7 4.6 0.28
-4 3 9 33.81 0.97
-4 3 10 59.39 1.61
-4 3 11 19.11 0.59
-4 3 12 11.66 0.44
-4 3 14 29.19 0.95
-4 3 15 5.9 0.4
-4 3 16 3.75 0.37
-4 3 17 13.62 0.63
-4 3 18 2.38 0.4
-4 3 20 5.23 0.45
-4 4 2 4.01 0.27
-4 4 3 55.52 1.34
-4 4 4 0.94 0.19
-4 4 5 10.32 0.39
-4 4 6 26.07 0.85
-4 4 7 8.6 0.36
-4 4 8 4.34 0.28
-4 4 9 2.42 0.25
-4 4 10 2.36 0.36
-4 4 13 25.13 0.83
-4 4 14 21.9 0.82
-4 4 17 4.66 0.47
-4 4 18 2.22 0.44
-4 4 20 3.14 0.61
-4 4 23 3.73 0.6
-4 5 2 20.08 0.69
-4 5 3 1.79 0.3
-4 5 6 5.5 0.35
-4 5 8 7.45 0.43
-4 5 10 10.88 0.62
-4 5 12 6.94 0.57
-4 5 14 12.27 0.64
-4 5 17 1.81 0.43
-4 5 18 10.37 0.62
-4 6 2 4.23 0.37
-4 6 3 10.69 0.68
-4 6 4 2.92 0.39
-4 6 5 4.35 0.65
-4 6 7 7.23 0.9
-4 6 12 3.4 0.52
-4 6 13 15.41 0.9
-4 6 14 2.78 0.7
-4 7 2 3.26 0.74
-4 7 3 3.75 0.47
-4 7 4 1.72 0.47
-4 7 9 4.58 0.88
-3 0 2 13 0.73
-3 0 4 83.93 2.02
-3 0 6 14.41 0.52
-3 0 8 21.99 0.71
-3 0 10 4.44 0.38
-3 0 12 136.36 3.32
-3 0 14 16.53 0.79
-3 0 16 13.58 0.76
-3 0 18 32.36 1.09
-3 0 20 9.25 0.81
-3 0 22 95.46 2.77
-3 0 26 3.37 0.54
-3 1 1 310.32 6.9
-3 1 2 32.02 0.87
-3 1 3 153.58 3.47
-3 1 4 219.27 4.93
-3 1 5 202.79 4.54
-3 1 7 331.09 7.44
-3 1 8 7.97 0.31
-3 1 9 55.5 1.47
-3 1 10 3.8 0.28
-3 1 11 149.66 3.49
-3 1 12 49.85 1.28
-3 1 13 0.75 0.2
-3 1 16 30.33 0.83
-3 1 17 55.83 1.41
-3 1 18 35.31 0.99
-3 1 20 1.96 0.34
-3 1 21 7.34 0.44
-3 1 22 1.5 0.38
-3 1 26 15.12 0.87
-3 2 1 77.97 1.84
-3 2 2 163.92 3.7
-3 2 3 281.27 6.45
-3 2 4 25.8 0.74
-3 2 5 2.48 0.22
-3 2 6 130.71 3.03
-3 2 7 156.78 3.73
-3 2 8 262.69 6.06
-3 2 9 48.9 1.45
-3 2 10 10.88 0.37
-3 2 11 21.98 0.66
-3 2 12 2.09 0.22
-3 2 13 48.69 1.19
-3 2 14 0.9 0.22
-3 2 15 26.2 0.73
-3 2 16 13.96 0.47
-3 2 17 0.79 0.24
-3 2 18 41.71 1.19
-3 2 20 3.65 0.38
-3 2 21 9.91 0.54
-3 3 1 3.51 0.25
-3 3 2 232.61 5.31
-3 3 3 8 1
-3 3 4 41.16 1.12
-3 3 5 20.54 0.59
-3 3 7 3.9 0.22
-3 3 8 16.25 0.51
-3 3 9 5.11 0.27
-3 3 10 18.73 0.59
-3 3 11 1.29 0.23
-3 3 12 38.74 1.06
-3 3 13 9.24 0.38
-3 3 14 65.71 1.63
-3 3 15 1.58 0.3
-3 3 18 3.38 0.4
-3 3 19 9.83 0.53
-3 3 20 3 0.55
-3 3 21 4.26 0.93
-3 3 22 9.29 1.07
-3 3 24 9.27 0.88
-3 4 1 19.23 0.58
-3 4 2 9.9 0.35
-3 4 3 53.89 1.27
-3 4 4 26.39 0.71
-3 4 6 21.54 0.71
-3 4 7 16.09 0.5
-3 4 8 0.75 0.24
-3 4 10 35.84 0.96
-3 4 11 3.45 0.38
-3 4 12 2.67 0.39
-3 4 13 29.91 0.92
-3 4 14 5.1 0.48
-3 4 16 3.73 0.41
-3 4 17 10.23 0.56
-3 4 18 4.47 0.49
-3 4 20 7.74 0.53
-3 4 23 6.39 0.66
-3 5 2 2.06 0.26
-3 5 3 3.88 0.29
-3 5 4 8.21 0.4
-3 5 6 31.62 0.92
-3 5 7 3.57 0.36
-3 5 9 3.35 0.36
-3 5 10 4.03 0.39
-3 5 11 1.73 0.56
-3 5 12 10.13 0.55
-3 5 14 1.39 0.37
-3 5 16 15.24 0.81
-3 6 1 7.52 0.44
-3 6 2 1.49 0.34
-3 6 9 3.66 0.53
-3 6 10 1.95 0.5
-3 6 12 2.94 0.6
-3 7 2 3.95 0.47
-3 7 4 3.87 0.52
-2 0 2 603.55 13.6
-2 0 4 2053.07 43.46
-2 0 6 163.4 4.7
-2 0 8 430.4 10.04
-2 0 10 179.87 4.32
-2 0 12 16.32 0.82
-2 0 14 53.97 1.87
-2 0 16 11.48 0.54
-2 0 18 4.75 0.74
-2 0 20 16 0.8
-2 0 22 3.47 0.57
-2 0 26 2.06 0.64
-2 1 1 179.77 4
-2 1 2 544.85 11.98
-2 1 3 19.96 0.54
-2 1 4 343.28 7.65
-2 1 5 20.31 0.55
-2 1 6 5.26 0.24
-2 1 7 31.27 0.79
-2 1 8 273.07 6.17
-2 1 9 21.64 0.72
-2 1 10 29.93 0.86
-2 1 11 77.2 1.84
-2 1 12 8.98 0.44
-2 1 13 30.13 0.96
-2 1 14 17.5 0.56
-2 1 15 10.98 0.38
-2 1 16 0.8 0.21
-2 1 17 29.24 0.83
-2 1 18 7.87 0.41
-2 1 19 1.12 0.34
-2 1 21 53.45 1.52
-2 1 22 9.23 0.55
-2 2 1 144.57 3.25
-2 2 2 463.19 10.25
-2 2 3 9.41 0.35
-2 2 4 21.53 0.58
-2 2 5 3.05 0.2
-2 2 6 67.81 1.61
-2 2 7 32.1 0.83
-2 2 8 26.21 0.79
-2 2 9 15.57 0.52
-2 2 10 85.47 2.14
-2 2 11 12.84 0.47
-2 2 12 99.72 2.41
-2 2 13 29.17 0.81
-2 2 14 12.66 0.44
-2 2 15 1.74 0.23
-2 2 16 35.71 1.01
-2 2 17 52.85 1.38
-2 2 18 26.51 0.89
-2 2 19 8.49 0.6
-2 2 20 6.76 0.48
-2 2 22 9.09 0.64
-2 2 23 10.05 0.74
-2 2 25 12.6 1.07
-2 2 26 6.17 0.75
-2 3 1 133.46 3.13
-2 3 2 64.14 1.52
-2 3 3 1.64 0.19
-2 3 4 8.57 0.35
-2 3 5 5.82 0.35
-2 3 6 339.37 7.62
-2 3 7 74.67 1.84
-2 3 8 23.18 0.65
-2 3 9 7.44 0.33
-2 3 10 20.4 0.64
-2 3 11 18.55 0.61
-2 3 12 78.45 1.91
-2 3 13 3.61 0.27
-2 3 14 4.94 0.34
-2 3 15 10.69 0.43
-2 3 16 30.65 0.89
-2 3 17 4.04 0.48
-2 3 18 9.5 0.47
-2 3 19 1.46 0.31
-2 3 20 15.07 0.83
-2 3 22 10.23 0.73
-2 4 1 14.84 0.46
-2 4 2 54.33 1.29
-2 4 3 29.28 0.74
-2 4 4 0.73 0.17
-2 4 5 31.59 0.8
-2 4 6 3.54 0.24
-2 4 7 34.05 0.92
-2 4 10 23.02 0.76
-2 4 11 17.21 0.68
-2 4 13 10.35 0.45
-2 4 14 8.59 0.41
-2 4 15 9.52 0.45
-2 4 16 13.49 0.64
-2 4 17 11.41 0.61
-2 4 18 1.52 0.39
-2 4 20 1.97 0.48
-2 4 21 2.27 0.48
-2 5 2 14.72 0.51
-2 5 3 2.53 0.28
-2 5 4 3.15 0.33
-2 5 5 3.47 0.29
-2 5 8 0.92 0.28
-2 5 9 1.03 0.32
-2 5 10 2.92 0.4
-2 5 13 4.98 0.43
-2 5 14 1.84 0.48
-2 5 16 11.7 0.74
-2 5 20 4.56 0.67
-2 6 3 12.54 0.53
-2 6 5 6.59 0.58
-2 6 7 2.7 0.47
-2 6 8 1.46 0.37
-2 6 9 2.79 0.37
-2 6 11 4.82 0.64
-2 6 15 4.16 0.47
-2 7 1 5.46 0.47
-2 7 4 1.45 0.42
-2 7 6 2.87 0.52
-2 7 7 3.18 0.57
-2 7 8 2.82 0.8
-1 0 2 771.45 17.99
-1 0 4 827.8 17.4
-1 0 6 187.84 4.23
-1 0 8 465.74 10.24
-1 0 10 2.58 0.35
-1 0 12 104.59 3.22
-1 0 14 46.77 1.75
-1 0 16 20.6 0.72
-1 0 18 54.21 1.54
-1 0 20 42.29 1.68
-1 0 24 20.28 1.41
-1 0 26 4.72 1.23
-1 1 1 2820.5 62.58
-1 1 2 150.5 3.39
-1 1 3 333.29 7.47
-1 1 4 239.47 5.36
-1 1 5 0.85 0.15
-1 1 6 0.59 0.16
-1 1 7 399.53 8.86
-1 1 8 86.86 2.02
-1 1 9 161.6 3.7
-1 1 11 66.42 1.6
-1 1 12 81.47 2.02
-1 1 13 5.32 0.33
-1 1 14 41.2 1.05
-1 1 15 10.4 0.38
-1 1 16 5.95 0.3
-1 1 17 1.4 0.25
-1 1 18 13.5 0.51
-1 1 19 9.06 0.47
-1 1 20 3.01 0.36
-1 1 21 13 0.61
-1 1 22 12.24 0.85
-1 1 23 1.4 0.41
-1 2 1 136.68 3.07
-1 2 2 7.68 0.29
-1 2 3 165.74 3.72
-1 2 4 211.32 4.75
-1 2 5 464.77 10.32
-1 2 6 18.17 0.53
-1 2 7 1.08 0.17
-1 2 8 42.74 1.17
-1 2 9 7.47 0.32
-1 2 10 172.69 4.31
-1 2 11 68.25 1.66
-1 2 12 31.18 0.85
-1 2 13 11.92 0.41
-1 2 14 0.82 0.21
-1 2 15 11.1 0.47
-1 2 18 4.58 0.5
-1 2 19 3.82 0.49
-1 2 20 44.74 1.39
-1 2 22 17.8 1.18
-1 3 2 31.05 0.79
-1 3 3 12.27 0.41
-1 3 4 51.89 1.24
-1 3 5 0.95 0.18
-1 3 6 99.05 2.29
-1 3 7 1.59 0.24
-1 3 8 6.68 0.29
-1 3 9 0.8 0.21
-1 3 10 30.73 0.88
-1 3 11 38.84 0.99
-1 3 13 1.31 0.23
-1 3 14 25.27 0.74
-1 3 15 6 0.33
-1 3 16 109.01 2.7
-1 3 17 11.36 0.5
-1 3 19 4.3 0.39
-1 3 21 12.01 0.68
-1 3 22 4.99 0.5
-1 3 23 2.13 0.5
-1 3 24 11.9 0.76
-1 4 1 5.72 0.32
-1 4 2 8.98 0.33
-1 4 5 58.16 1.55
-1 4 6 76.19 1.78
-1 4 7 26.77 0.71
-1 4 8 6.67 0.28
-1 4 9 1.69 0.21
-1 4 11 2.97 0.27
-1 4 12 19.96 0.76
-1 4 14 3.08 0.29
-1 4 15 36.2 1.02
-1 4 16 3.92 0.36
-1 4 17 8.98 0.47
-1 4 20 8.92 0.55
-1 4 21 2.59 0.52
-1 5 1 9.09 0.38
-1 5 2 61.33 1.69
-1 5 3 1.34 0.3
-1 5 4 4.29 0.28
-1 5 6 29.4 0.81
-1 5 7 0.85 0.24
-1 5 8 0.96 0.27
-1 5 9 6.26 0.47
-1 5 10 14.22 0.6
-1 5 12 12.44 0.53
-1 5 14 1.57 0.37
-1 6 1 2.29 0.34
-1 6 2 6.02 0.4
-1 6 4 1.73 0.54
-1 6 6 7.01 0.58
-1 6 7 8.01 0.46
-1 6 8 2.28 0.36
-1 6 13 2.51 0.42
-1 6 15 3.92 0.47
-1 7 3 2.24 0.42
-1 7 4 2.96 0.56
-1 7 6 3.29 0.53
0 0 4 65.65 1.5
0 0 6 973.33 19.47
0 0 8 277.17 5.85
0 0 10 377.97 8.37
0 0 12 13.5 0.83
0 0 14 49.67 1.79
0 0 16 10.93 0.54
0 0 18 1.62 0.52
0 0 20 10.91 0.77
0 0 22 16.09 1.24
0 1 1 447.87 10.05
0 1 2 87.28 1.96
0 1 3 18.14 0.51
0 1 4 1489.74 33.07
0 1 5 66.06 1.58
0 1 6 293.67 6.65
0 1 7 32.63 0.87
0 1 8 25.1 0.71
0 1 9 35.73 0.92
0 1 10 137.67 3.23
0 1 11 192.79 4.68
0 1 13 23.65 0.74
0 1 14 8.29 0.33
0 1 15 3.38 0.23
0 1 16 3.64 0.31
0 1 17 18.49 0.68
0 1 18 23.07 0.75
0 1 19 48.35 1.27
0 1 20 2.74 0.37
0 1 21 14.49 0.71
0 1 22 3.54 0.55
0 1 23 10.01 0.82
0 1 24 3.28 0.59
0 2 0 13.59 0.51
0 2 1 71.9 1.65
0 2 2 125.06 2.83
0 2 4 172.72 3.95
0 2 5 46.79 1.15
0 2 6 5.31 0.35
0 2 7 130.35 3.04
0 2 8 0.68 0.21
0 2 9 51.37 1.3
0 2 10 24.51 0.8
0 2 11 1.17 0.25
0 2 12 15.84 0.61
0 2 13 9.35 0.39
0 2 14 53.59 1.31
0 2 15 91.3 2.19
0 2 16 2.44 0.29
0 2 18 11.03 0.56
0 2 19 11.88 0.68
0 2 20 24.11 1.19
0 2 21 13.52 0.76
0 2 24 7.1 0.84
0 2 25 5.53 0.84
0 3 1 45.68 1.13
0 3 2 109.67 2.53
0 3 3 81.8 1.92
0 3 4 54.44 1.32
0 3 5 14.73 0.61
0 3 7 0.79 0.18
0 3 8 93.02 2.45
0 3 9 38.2 1
0 3 10 1.42 0.22
0 3 11 1.35 0.2
0 3 12 8.73 0.34
0 3 14 26.55 0.98
0 3 17 4.83 0.38
0 3 18 3.89 0.37
0 3 20 11.43 0.75
0 3 21 2.05 0.46
0 3 22 3.54 0.69
0 3 24 6.44 0.79
0 4 0 2.48 0.35
0 4 1 10.64 0.41
0 4 2 52.31 1.25
0 4 3 3.48 0.2
0 4 4 11.44 0.38
0 4 5 68.88 1.62
0 4 6 6.11 0.28
0 4 8 5.18 0.28
0 4 9 6.13 0.27
0 4 10 15.86 0.53
0 4 12 22.47 0.74
0 4 13 5.87 0.33
0 4 15 24.24 0.75
0 4 16 16.22 0.58
0 4 18 2.26 0.4
0 4 19 2.9 0.53
0 4 20 3.7 0.5
0 5 2 6.41 0.3
0 5 3 0.86 0.25
0 5 4 22.64 0.7
0 5 5 2.94 0.24
0 5 6 67.57 1.73
0 5 8 5.29 0.29
0 5 11 3.33 0.31
0 5 12 7.17 0.45
0 5 14 13.84 0.57
0 5 15 1.87 0.33
0 5 16 21.49 1.06
0 6 0 15.19 0.75
0 6 1 4.87 0.4
0 6 2 7.94 0.82
0 6 3 3.35 0.36
0 6 5 24.88 1.02
0 6 10 10.06 0.77
0 6 12 3.29 0.41
0 6 13 3.72 0.43
0 6 16 1.79 0.54
0 7 1 6.18 0.67
0 7 9 5.39 0.67
1 0 0 386.37 7.66
1 0 2 10.36 0.58
1 0 4 1682.54 145.53
1 0 6 206.95 4.58
1 0 8 65.18 2.03
1 0 10 630.81 17.33
1 0 12 6.08 0.45
1 0 14 78.41 1.95
1 0 16 11.94 0.69
1 0 18 80.98 2.33
1 0 20 83.81 2.47
1 0 22 3.01 0.56
1 1 0 1569.63 35.65
1 1 1 35.99 0.9
1 1 2 413.86 9.9
1 1 3 779.6 17.23
1 1 4 64.35 1.52
1 1 5 108.4 2.66
1 1 6 197.01 4.5
1 1 7 18.07 0.84
1 1 8 90.63 2.25
1 1 9 177.04 4.12
1 1 10 66.75 1.66
1 1 12 1.56 0.27
1 1 13 6.26 0.29
1 1 14 117.89 2.77
1 1 15 4 0.26
1 1 16 21.65 0.67
1 1 17 3.6 0.28
1 1 18 3.7 0.34
1 1 19 12.05 0.51
1 1 20 4.2 0.5
1 1 21 9.89 0.75
1 1 22 2.77 0.46
1 1 23 7.1 0.51
1 1 24 12.49 1.07
1 2 0 307.27 6.84
1 2 1 255.27 5.75
1 2 3 343.43 7.69
1 2 4 18.8 0.53
1 2 5 85.95 2
1 2 6 145.13 3.43
1 2 7 75.33 2.13
1 2 8 6.18 0.35
1 2 9 7.1 0.37
1 2 10 4.31 0.38
1 2 11 7.64 0.34
1 2 12 13.72 0.52
1 2 13 25.64 0.73
1 2 14 6.72 0.28
1 2 15 1.02 0.21
1 2 16 5.52 0.3
1 2 17 4 0.31
1 2 19 5.9 0.42
1 2 21 1.74 0.44
1 2 22 10.71 0.72
1 2 24 5.78 0.74
1 3 0 16.85 0.63
1 3 1 28.6 0.76
1 3 2 43.24 1.12
1 3 4 7.35 0.28
1 3 5 20.22 0.57
1 3 6 42.32 1.13
1 3 7 17.13 0.58
1 3 8 23.79 0.73
1 3 9 9.25 0.37
1 3 11 14.38 0.46
1 3 12 31.75 0.89
1 3 13 26.98 0.78
1 3 14 14.72 0.55
1 3 18 34.26 1.09
1 3 19 12.1 0.84
1 3 23 1.87 0.45
1 4 0 16.12 0.49
1 4 1 0.77 0.18
1 4 2 50.3 1.35
1 4 3 13.82 0.43
1 4 4 2.56 0.2
1 4 5 47.79 1.15
1 4 6 8.05 0.34
1 4 7 0.96 0.18
1 4 8 53.94 1.3
1 4 9 11.11 0.42
1 4 11 1.16 0.25
1 4 12 1.5 0.25
1 4 13 7.72 0.37
1 4 14 1.58 0.28
1 4 15 16.88 0.66
1 4 16 12.55 0.62
1 4 17 3.03 0.52
1 4 19 3.95 0.53
1 4 22 5.82 0.8
1 5 0 3.65 0.25
1 5 2 11.23 0.41
1 5 4 82.31 2.14
1 5 5 3.79 0.26
1 5 7 0.73 0.23
1 5 8 7.17 0.4
1 5 9 0.73 0.23
1 5 10 2.25 0.26
1 5 11 0.92 0.29
1 5 12 19.79 0.66
1 5 14 17.69 0.78
1 5 16 6.01 0.41
1 6 0 5.71 0.39
1 6 1 5.13 0.41
1 6 2 2.22 0.35
1 6 4 4.16 0.41
1 6 5 9.55 0.46
1 6 6 3.43 0.3
1 6 8 10.1 0.6
1 6 9 9.91 0.5
1 6 10 5.79 0.46
1 6 13 1.96 0.4
1 6 15 10.52 0.74
1 7 4 1.53 0.47
1 7 5 2.41 0.48
2 0 0 24.32 0.96
2 0 2 3580.49 72.64
2 0 4 7.21 0.88
2 0 6 3.89 0.32
2 0 8 95.84 2.45
2 0 10 31.42 1.12
2 0 12 70.95 1.79
2 0 14 91.15 2.22
2 0 16 33.28 1.11
2 0 18 5.03 0.51
2 0 20 17.62 0.89
2 0 22 14.89 0.86
2 0 24 29.85 1.58
2 1 0 353.48 7.8
2 1 1 66.31 1.5
2 1 2 2.07 0.19
2 1 3 447.64 10.09
2 1 4 8.93 0.4
2 1 5 19.36 0.62
2 1 6 395.78 8.84
2 1 7 28.03 1.09
2 1 8 44.95 1.19
2 1 9 166 3.96
2 1 10 38.84 1.15
2 1 11 1.64 0.28
2 1 12 22.39 0.69
2 1 13 110.16 2.56
2 1 14 3 0.28
2 1 15 5.16 0.29
2 1 17 4.52 0.33
2 1 18 20.03 0.7
2 1 19 32.33 0.98
2 1 20 24.22 0.85
2 1 21 8.95 0.55
2 1 23 6.32 0.52
2 1 24 6.11 0.88
2 2 0 490.93 11.1
2 2 1 1.79 0.19
2 2 2 3.48 0.29
2 2 3 16.99 0.69
2 2 4 1 0.22
2 2 5 141.32 3.33
2 2 6 9.21 0.36
2 2 7 54.44 1.35
2 2 8 52.19 1.39
2 2 9 73.93 1.78
2 2 10 69.05 1.68
2 2 11 29.76 0.79
2 2 13 33.79 0.88
2 2 14 1.32 0.19
2 2 15 12.21 0.42
2 2 16 12.25 0.44
2 2 17 43.16 1.18
2 2 18 2.14 0.29
2 2 20 1.32 0.44
2 2 22 2.9 0.91
2 2 23 9.15 1.24
2 3 0 11.95 0.42
2 3 1 24.45 0.69
2 3 2 84.34 2.09
2 3 3 4.23 0.24
2 3 4 201.55 4.69
2 3 5 6.99 0.35
2 3 6 2.16 0.25
2 3 7 28 0.81
2 3 8 1.5 0.27
2 3 9 1.42 0.18
2 3 10 2.37 0.21
2 3 12 3.66 0.27
2 3 14 8.61 0.4
2 3 15 5.46 0.37
2 3 16 3.81 0.4
2 3 22 4.61 0.63
2 4 0 11.58 0.41
2 4 2 1.72 0.18
2 4 3 50.53 1.21
2 4 4 49.85 1.22
2 4 5 17.7 0.55
2 4 6 2.71 0.2
2 4 7 17.28 0.53
2 4 8 5.1 0.26
2 4 9 6.77 0.31
2 4 10 1.83 0.24
2 4 12 32.47 1
2 4 13 10.63 0.5
2 4 14 7.35 0.4
2 4 15 5.25 0.49
2 4 17 5.28 0.69
2 4 18 8.87 0.94
2 4 19 2.32 0.68
2 5 0 10.9 0.38
2 5 1 3.52 0.24
2 5 2 1.11 0.2
2 5 3 1.29 0.2
2 5 4 2.37 0.22
2 5 5 1.01 0.27
2 5 6 1.85 0.23
2 5 8 65.15 1.64
2 5 9 5.63 0.33
2 5 10 3.4 0.29
2 5 14 16.18 0.68
2 5 16 5.88 0.52
2 5 18 12.57 0.97
2 6 2 5.73 0.37
2 6 3 11.1 0.45
2 6 4 5.36 0.4
2 6 7 4.81 0.36
2 6 11 2.25 0.41
2 6 12 6.28 0.63
2 6 14 2.86 0.52
2 7 3 1.59 0.42
2 7 4 3.3 0.4
2 7 7 2.27 0.55
3 0 0 390.1 8.72
3 0 2 179.14 4.3
3 0 4 19.44 0.69
3 0 6 543.88 11.77
3 0 8 10.13 0.5
3 0 10 1.17 0.29
3 0 12 262.47 6.38
3 0 14 3.48 0.36
3 0 16 10.37 0.61
3 0 18 9.63 0.78
3 0 20 35.24 1.69
3 0 22 32.56 1.27
3 1 0 104.74 2.44
3 1 1 416.06 9.29
3 1 2 426.26 9.29
3 1 3 38.29 0.97
3 1 4 10.85 0.44
3 1 5 5.02 0.27
3 1 6 4.13 0.29
3 1 7 26.97 0.91
3 1 8 35.05 0.96
3 1 9 1.56 0.21
3 1 10 79.39 1.94
3 1 11 12.79 0.42
3 1 12 10.4 0.36
3 1 13 33.51 0.86
3 1 14 0.91 0.23
3 1 15 3.15 0.26
3 1 16 55.53 1.45
3 1 17 1.69 0.29
3 1 18 2.15 0.44
3 1 19 7.44 0.49
3 1 21 3.49 0.72
3 1 23 19.46 1.32
3 2 0 1.9 0.2
3 2 1 6.11 0.39
3 2 2 259.26 5.87
3 2 3 95.71 2.58
3 2 4 84.85 2.47
3 2 5 57.53 1.67
3 2 6 40.41 1.06
3 2 7 3.31 0.31
3 2 8 96.79 2.25
3 2 9 2.26 0.23
3 2 10 10.98 0.37
3 2 11 9.27 0.31
3 2 12 20.74 0.62
3 2 13 2.73 0.23
3 2 14 8.1 0.4
3 2 15 1.37 0.27
3 2 16 2.07 0.28
3 2 17 7.67 0.41
3 2 18 20.07 0.73
3 2 19 14 0.62
3 2 20 5.3 0.54
3 2 21 4.2 0.75
3 2 22 1.96 0.49
3 3 0 70.02 1.66
3 3 1 1.71 0.21
3 3 2 18.71 0.59
3 3 3 91.91 2.23
3 3 4 99.94 2.31
3 3 6 19.2 0.64
3 3 7 2.13 0.21
3 3 8 108.52 2.67
3 3 9 34.09 0.93
3 3 11 15.03 0.51
3 3 12 32.2 0.88
3 3 13 11.51 0.44
3 3 14 45.88 1.35
3 3 15 4.31 0.39
3 3 16 8.55 0.52
3 3 17 6.14 0.56
3 3 18 2.37 0.55
3 4 0 5.7 0.29
3 4 2 1.89 0.21
3 4 3 16.51 0.48
3 4 4 34.13 0.84
3 4 7 51.46 1.26
3 4 8 18.43 0.57
3 4 9 9.23 0.36
3 4 10 10.9 0.44
3 4 13 12.32 0.5
3 4 14 2.63 0.47
3 4 16 2.06 0.54
3 4 17 14.8 0.77
3 4 18 8.5 0.93
3 5 0 14.75 0.52
3 5 1 8.66 0.35
3 5 2 2.52 0.24
3 5 5 1.63 0.27
3 5 6 13.96 0.47
3 5 7 4.97 0.29
3 5 8 1.77 0.35
3 5 12 1.3 0.34
3 5 14 1.34 0.42
3 5 15 1.94 0.5
3 5 16 3.43 0.51
3 5 18 11.32 0.79
3 6 2 0.87 0.28
3 6 5 2.41 0.38
3 6 7 12.56 0.55
3 6 10 1.5 0.37
3 6 11 1.73 0.37
3 6 12 2.28 0.46
3 6 13 2.51 0.49
3 7 2 2.84 0.68
3 7 3 3.73 0.51
4 0 0 41.67 1.19
4 0 4 33.91 0.99
4 0 6 11.37 0.8
4 0 10 4.12 0.3
4 0 12 2.71 0.28
4 0 16 44.8 1.55
4 0 22 28.06 1.47
4 1 0 2.2 0.17
4 1 1 137.89 3.13
4 1 2 170.35 3.86
4 1 3 192.9 4.43
4 1 4 2.96 0.22
4 1 5 81.94 1.93
4 1 6 35.95 0.97
4 1 7 8.2 0.34
4 1 8 26.27 0.81
4 1 9 19.4 0.62
4 1 11 117.86 2.71
4 1 12 10.71 0.36
4 1 13 5.32 0.26
4 1 14 2.4 0.24
4 1 15 8.64 0.53
4 1 16 3.02 0.34
4 1 17 8.75 0.47
4 1 19 1.87 0.38
4 1 20 16.02 0.83
4 1 21 12.36 0.99
4 1 22 3.27 0.62
4 2 0 110.86 2.86
4 2 1 67.8 1.7
4 2 2 268.38 6.24
4 2 3 52.04 1.45
4 2 4 14.11 0.56
4 2 6 7.02 0.32
4 2 7 141.84 3.31
4 2 9 14.21 0.48
4 2 10 39.13 1
4 2 11 1.27 0.25
4 2 12 94.58 2.27
4 2 13 25.63 0.72
4 2 14 10.9 0.43
4 2 15 25.95 0.8
4 2 16 1.8 0.3
4 2 17 4.64 0.39
4 2 18 4.59 0.53
4 2 19 2.23 0.39
4 2 20 2.27 0.43
4 2 21 1.67 0.42
4 2 22 12.63 1.03
4 3 0 5.48 0.28
4 3 1 34.59 0.9
4 3 2 1.15 0.21
4 3 3 1.2 0.2
4 3 4 45.78 1.17
4 3 5 3.32 0.22
4 3 6 97.3 2.27
4 3 8 50.34 1.21
4 3 9 6.29 0.35
4 3 10 8.84 0.36
4 3 13 11.65 0.68
4 3 16 21.19 1.15
4 3 17 2.43 0.75
4 3 18 26.09 3.12
4 4 0 60.68 1.46
4 4 1 0.75 0.2
4 4 3 2.29 0.21
4 4 4 1.31 0.2
4 4 5 19.02 0.57
4 4 6 12.78 0.43
4 4 7 38.45 0.98
4 4 8 18.83 0.58
4 4 9 1.06 0.24
4 4 10 1.4 0.25
4 4 14 19.81 0.86
4 4 15 4.68 0.47
4 4 17 14.77 1.06
4 5 1 1.83 0.25
4 5 3 3.09 0.28
4 5 4 19.89 0.62
4 5 5 2.41 0.28
4 5 6 8.64 0.43
4 5 8 1.48 0.32
4 5 10 12.33 0.74
4 5 11 6.27 0.45
4 5 16 7 0.72
4 6 1 2.85 0.34
4 6 5 2.14 0.36
4 6 8 1.62 0.48
4 7 1 3.12 0.41
4 7 6 6.19 0.69
4 7 8 3.15 0.73
5 0 0 56.76 1.43
5 0 2 614.38 13.24
5 0 4 11.24 0.54
5 0 6 6.42 0.46
5 0 8 134.01 3.2
5 0 10 67.87 1.69
5 0 12 17.06 0.68
5 0 14 13.79 0.7
5 0 16 13.76 1.18
5 1 1 100.23 2.36
5 1 2 54.19 1.32
5 1 3 1.84 0.22
5 1 4 36.13 0.95
5 1 5 1.17 0.23
5 1 6 75.84 1.78
5 1 7 4.83 0.28
5 1 8 1.25 0.2
5 1 9 1.42 0.18
5 1 10 0.64 0.18
5 1 11 27.03 0.74
5 1 12 52 1.32
5 1 13 15.56 0.52
5 1 15 17.42 0.71
5 1 18 5.14 0.46
5 1 19 1.16 0.37
5 1 21 19.51 0.83
5 2 0 21.97 0.66
5 2 1 23.38 0.89
5 2 2 3.37 0.35
5 2 3 21.27 0.67
5 2 4 54.96 1.36
5 2 5 14.6 0.5
5 2 6 44.78 1.13
5 2 7 3.84 0.22
5 2 8 12.78 0.46
5 2 9 10.38 0.37
5 2 10 38.32 1.02
5 2 11 9.71 0.41
5 2 12 20.53 0.65
5 2 14 5.88 0.39
5 2 16 11.26 0.51
5 2 17 24.88 0.93
5 2 18 2.03 0.54
5 2 19 2.68 0.4
5 2 20 15.74 2.17
5 3 0 113.06 2.62
5 3 1 24.5 0.74
5 3 2 4.92 0.28
5 3 3 4.08 0.22
5 3 4 3.85 0.22
5 3 5 37.7 0.94
5 3 6 83.9 1.98
5 3 7 4.27 0.23
5 3 8 2.94 0.26
5 3 10 34.76 0.93
5 3 11 20.31 0.78
5 3 13 4.14 0.42
5 3 14 29.24 0.98
5 3 16 29.79 1.49
5 4 0 8.16 0.35
5 4 1 4 0.26
5 4 3 1.11 0.22
5 4 4 23.24 0.67
5 4 5 16.06 0.55
5 4 6 7.42 0.37
5 4 7 17.16 0.64
5 4 9 7.51 0.41
5 4 10 13.84 0.58
5 4 11 2.17 0.34
5 4 15 10.93 1.06
5 4 17 3.87 0.64
5 4 18 5.01 1.33
5 5 0 4.13 0.31
5 5 2 3.72 0.36
5 5 3 0.95 0.27
5 5 4 2.73 0.29
5 5 6 5.84 0.36
5 5 8 6.22 0.43
5 6 0 5.63 0.42
5 6 1 3.54 0.4
5 6 2 2.83 0.33
5 6 3 1.67 0.32
5 6 5 5.72 0.44
5 6 6 2.45 0.39
5 6 7 10.46 0.56
5 6 9 2.02 0.4
5 7 0 1.41 0.42
5 7 1 7.15 0.57
5 7 2 1.8 0.57
6 0 0 213.64 5.19
6 0 2 28.23 0.85
6 0 4 1.55 0.31
6 0 6 47.26 1.35
6 0 8 14.85 0.59
6 0 10 32.18 1.23
6 0 12 91.11 2.61
6 0 14 4.14 0.56
6 0 16 1.65 0.53
6 0 18 9.88 0.79
6 0 20 20.97 1.41
6 1 1 166.76 3.91
6 1 2 55.64 1.36
6 1 3 21.18 0.61
6 1 4 50.94 1.27
6 1 5 54.99 1.32
6 1 6 19.59 0.61
6 1 7 11.81 0.42
6 1 8 39.35 1.05
6 1 9 32.98 0.87
6 1 11 29.54 0.88
6 1 13 13.55 0.55
6 1 15 1.64 0.31
6 1 16 23.92 1.29
6 1 18 2.58 0.46
6 1 19 5.58 0.5
6 2 1 9.29 0.35
6 2 3 12.8 0.41
6 2 4 43.31 1.1
6 2 5 91.28 2.17
6 2 6 2.28 0.22
6 2 7 1.09 0.22
6 2 8 4.82 0.38
6 2 9 33.29 0.94
6 2 10 1.48 0.26
6 2 11 5.64 0.33
6 2 12 2.65 0.31
6 2 13 7.14 0.45
6 2 14 30.59 0.94
6 2 15 14.28 0.73
6 2 16 7.02 0.54
6 3 2 0.63 0.2
6 3 3 0.68 0.18
6 3 7 4.53 0.26
6 3 8 5.54 0.36
6 3 9 3.48 0.27
6 3 10 29.91 0.9
6 3 11 1.59 0.31
6 3 15 11.57 0.91
6 3 16 4.58 0.67
6 3 18 5.7 0.8
6 4 0 15.24 0.54
6 4 2 23.84 0.69
6 4 4 6 0.33
6 4 5 13.44 0.49
6 4 6 1.13 0.26
6 4 7 1.56 0.27
6 4 9 5.64 0.42
6 4 10 16.14 1.07
6 4 14 2.53 0.8
6 4 15 3.92 0.6
6 4 16 2.76 0.83
6 5 0 24.3 0.85
6 5 1 4.12 0.34
6 5 4 13.32 0.66
6 5 6 40.1 1.32
6 5 7 3.19 0.38
6 5 9 1.47 0.43
6 5 13 2.24 0.62
6 5 14 6.36 0.81
6 6 0 10.19 0.55
6 6 2 4.29 0.44
6 6 3 4.37 0.46
6 6 10 5.12 0.79
7 0 0 100.98 2.44
7 0 2 32.23 0.98
7 0 4 249.02 5.66
7 0 6 1.19 0.33
7 0 8 40.18 1.15
7 0 10 54.97 1.71
7 0 12 17.35 0.77
7 0 14 12.18 0.88
7 0 16 8.4 0.87
7 0 18 13.95 1.84
7 1 0 76.01 1.82
7 1 1 0.9 0.18
7 1 3 7.15 0.3
7 1 4 31.56 0.85
7 1 5 37.6 0.97
7 1 6 1.44 0.21
7 1 7 1.55 0.22
7 1 8 43.03 1.16
7 1 10 2.67 0.26
7 1 11 15.8 0.68
7 1 12 13.59 0.63
7 1 13 14.5 0.7
7 1 14 21.15 0.79
7 1 15 21.16 0.88
7 1 17 2.45 0.51
7 1 19 3.4 0.67
7 2 0 32.2 0.83
7 2 1 10.24 0.35
7 2 2 6.31 0.28
7 2 3 4.46 0.24
7 2 4 0.91 0.22
7 2 5 1.09 0.23
7 2 6 5.77 0.41
7 2 7 2.79 0.27
7 2 8 5.9 0.39
7 2 9 19.93 0.83
7 2 11 9.79 0.47
7 2 13 4.22 0.56
7 2 14 6.38 0.51
7 2 15 10.71 0.76
7 3 0 0.85 0.27
7 3 1 25.88 0.75
7 3 2 20.43 0.61
7 3 3 14.06 0.47
7 3 4 13.11 0.51
7 3 5 1.46 0.22
7 3 6 6.11 0.36
7 3 7 3.03 0.27
7 3 8 11.17 0.44
7 3 9 9.23 0.42
7 3 12 2.83 0.37
7 3 13 1.42 0.36
7 3 16 2.08 0.59
7 4 0 9.02 0.56
7 4 1 1.07 0.26
7 4 2 1.54 0.26
7 4 3 1.37 0.26
7 4 4 2.21 0.27
7 4 5 18.83 0.64
7 4 6 27.11 0.89
7 4 9 7.94 0.56
7 4 12 3.36 0.76
7 4 14 5.42 0.89
7 5 0 12.25 0.57
7 5 2 11.18 0.66
7 5 3 1.32 0.33
7 5 4 1.83 0.33
7 5 8 4.7 0.47
7 5 10 17.39 1.07
7 6 4 2.41 0.6
7 6 5 2.71 0.44
7 6 6 2.49 0.67
7 6 8 2.5 0.72
8 0 0 25.26 0.76
8 0 2 14.4 0.55
8 0 4 59.48 1.57
8 0 6 4.35 0.37
8 0 8 27.94 0.95
8 0 12 23.82 1.02
8 0 14 75.64 2.82
8 1 2 1.99 0.23
8 1 3 78.85 1.94
8 1 4 30.75 0.84
8 1 6 4.01 0.28
8 1 8 18.22 0.63
8 1 9 8.75 0.38
8 1 10 16.18 0.69
8 1 11 5.51 0.56
8 1 12 4.02 0.32
8 1 13 9.55 0.59
8 1 15 1.15 0.36
8 2 0 38.04 0.98
8 2 1 20.46 0.65
8 2 3 4.46 0.34
8 2 4 13.76 0.52
8 2 5 6.84 0.39
8 2 7 32.22 1.06
8 2 8 3.23 0.35
8 2 10 13.52 0.63
8 2 13 3.79 0.46
8 2 15 2.15 0.56
8 2 16 1.5 0.48
8 3 0 15.74 0.56
8 3 2 8.96 0.45
8 3 4 10.24 0.43
8 3 5 16.51 0.59
8 3 6 13.23 0.58
8 3 8 3.25 0.38
8 3 10 2.29 0.4
8 3 11 4.83 0.41
8 3 12 3.07 0.43
8 3 13 5.3 0.47
8 3 14 4.58 0.54
8 4 1 1.57 0.31
8 4 2 12.86 0.49
8 4 3 2.46 0.29
8 4 4 2.41 0.3
8 4 5 2.34 0.3
8 4 6 3.43 0.33
8 4 7 3.54 0.35
8 4 9 10.79 0.69
8 4 10 4.76 0.52
8 4 12 3.94 0.62
8 5 0 1.26 0.33
8 5 2 5.41 0.46
8 5 3 3.37 0.45
8 5 6 4.53 0.4
8 5 7 1.49 0.46
8 5 8 17 0.99
8 5 9 2.74 0.63
8 6 2 3.84 0.62
9 0 0 17.21 0.65
9 0 2 43.23 1.26
9 0 4 4.29 0.43
9 0 6 25.93 0.96
9 0 10 12.33 1.11
9 0 12 5.9 0.59
9 1 0 31.22 0.96
9 1 2 4.33 0.3
9 1 3 23.39 0.77
9 1 4 2.01 0.34
9 1 5 5.72 0.37
9 1 6 7.21 0.52
9 1 7 12.44 0.49
9 1 8 1.41 0.34
9 1 9 1.85 0.32
9 1 10 8.59 0.57
9 1 13 23.3 1.13
9 1 14 7.25 0.91
9 2 0 1.8 0.33
9 2 1 3.45 0.32
9 2 2 33.06 1
9 2 3 4.63 0.39
9 2 4 33.32 1.09
9 2 5 3.42 0.45
9 2 6 3.04 0.39
9 2 8 2 0.35
9 2 9 14.4 0.63
9 2 10 1.46 0.39
9 2 11 7.86 0.47
9 2 12 4.89 0.5
9 2 14 5.48 0.98
9 3 0 2.03 0.27
9 3 1 5.32 0.33
9 3 2 2.41 0.28
9 3 3 13.4 0.61
9 3 4 5.75 0.53
9 3 6 15.53 0.65
9 3 8 14.1 0.66
9 3 10 2.34 0.43
9 3 11 3.47 0.56
9 3 12 3.69 0.5
9 4 1 2.33 0.32
9 4 2 12.22 0.52
9 4 6 3.29 0.56
9 4 7 15.37 1.1
9 4 8 9.47 0.9
9 4 9 4.34 0.56
9 5 2 2.79 0.39
9 5 3 1.35 0.41
10 0 0 7.34 0.44
10 0 2 2.97 0.71
10 0 4 13.86 0.7
10 0 6 16.91 0.97
10 0 10 10.36 1
10 0 12 9.78 1.88
10 1 0 8.99 0.44
10 1 1 29.39 0.87
10 1 3 7.75 0.4
10 1 4 9.4 0.46
10 1 5 2.95 0.38
10 1 6 6.45 0.62
10 1 8 1.76 0.43
10 1 10 4.11 0.43
10 1 11 2.91 0.38
10 2 0 8.63 0.54
10 2 2 26.35 0.94
10 2 3 6.73 0.53
10 2 4 1.75 0.34
10 2 5 7.92 0.79
10 2 6 6.26 0.44
10 2 7 3.08 0.43
10 2 8 2.51 0.37
10 2 10 5.01 0.43
10 2 11 1.74 0.48
10 2 12 13.8 0.87
10 3 2 17.29 0.93
10 3 3 3.18 0.37
10 3 4 3.23 0.39
10 3 6 12.79 0.62
10 3 7 10.25 0.52
10 3 8 23.79 1.06
10 4 0 1.77 0.31
10 4 1 3.92 0.38
10 4 4 2.56 0.42
10 4 7 4.36 0.52
10 5 1 2.35 0.48
11 0 0 29.85 1.5
11 0 2 20.98 1.11
11 0 6 1.79 0.41
11 1 1 3.77 0.34
11 1 2 8.14 0.43
11 1 3 11.22 0.49
11 1 4 1.45 0.34
11 1 5 10.74 0.55
11 1 6 3.36 0.39
11 1 7 3.49 0.42
11 1 10 4.22 0.47
11 1 11 6.69 0.76
11 2 1 10.46 0.98
11 2 4 6.5 0.48
11 2 6 16.93 0.94
11 2 7 15.89 0.86
11 2 8 2.11 0.4
11 3 0 17.14 0.81
11 3 1 1.41 0.39
11 3 3 1.47 0.37
11 3 4 2.6 0.38
11 3 6 1.23 0.37
11 4 0 1.73 0.4
11 4 1 2.99 0.51
11 4 4 5.41 0.64
12 0 2 15.49 2.93
12 0 4 6.94 0.89
12 0 6 17.41 1.46
12 1 0 6.86 0.78
12 1 1 2.58 0.42
12 1 2 7.75 0.62
12 1 3 2.49 0.41
12 1 5 3.05 0.57
12 1 6 9.32 0.63
12 1 7 2.23 0.49
12 2 3 1.9 0.47
12 2 4 3.17 0.42
12 2 5 2.18 0.43
12 3 0 3.54 0.45
12 3 3 2.16 0.43
12 3 4 3.92 0.6
13 0 2 10.57 1.82
13 0 4 5.75 1.26
13 1 1 1.77 0.5
13 1 3 1.9 0.55
13 2 1 2.83 0.74
