#------------------------------------------------------------------------------
#$Date: 2021-04-06 04:16:15 +0300 (Tue, 06 Apr 2021) $
#$Revision: 263878 $
#$URL: file:///home/coder/svn-repositories/cod/cif/2/02/23/2022327.cif $
#------------------------------------------------------------------------------
#
# This file is available in the Crystallography Open Database (COD),
# http://www.crystallography.net/. The original data for this entry
# were provided by IUCr Journals, http://journals.iucr.org/.
#
# The file may be used within the scientific community so long as
# proper attribution is given to the journal article from which the
# data were obtained.
#
data_2022327
loop_
_publ_author_name
'Medviediev, Volodymyr'
'Daszkiewicz, Marek'
_publ_section_title
;
 Structural and theoretical analysis of 2-chloro-4-nitroaniline and
 2-methyl-6-nitroaniline salts
;
_journal_coeditor_code           DV3005
_journal_issue                   3
_journal_name_full               'Acta Crystallographica Section C'
_journal_page_first              125
_journal_page_last               136
_journal_paper_doi               10.1107/S2053229621001455
_journal_volume                  77
_journal_year                    2021
_chemical_formula_iupac          'C7 H9 N2 O2 +, Br -'
_chemical_formula_moiety         'C7 H9 N2 O2 +, Br -'
_chemical_formula_sum            'C7 H9 Br N2 O2'
_chemical_formula_weight         233.07
_chemical_name_systematic
;
2-Methyl-6-nitroanilinium bromide
;
_space_group_crystal_system      triclinic
_space_group_IT_number           2
_space_group_name_Hall           '-P 1'
_space_group_name_H-M_alt        'P -1'
_atom_sites_solution_hydrogens   mixed
_atom_sites_solution_primary     dual
_audit_creation_method
;
Olex2 1.3
(compiled Nov 21 2019 18:26:39 for OlexSys, GUI svn.r6003)
;
_cell_angle_alpha                76.646(3)
_cell_angle_beta                 73.897(2)
_cell_angle_gamma                76.045(2)
_cell_formula_units_Z            2
_cell_length_a                   6.8920(2)
_cell_length_b                   7.7281(3)
_cell_length_c                   8.9210(2)
_cell_measurement_reflns_used    6602
_cell_measurement_temperature    295.0(10)
_cell_measurement_theta_max      29.1490
_cell_measurement_theta_min      2.8080
_cell_volume                     436.12(2)
_computing_cell_refinement
;
CrysAlis PRO (Rigaku OD, 2015)
;
_computing_data_collection
;
CrysAlis PRO (Rigaku OD, 2015)
;
_computing_data_reduction
;
CrysAlis PRO (Rigaku OD, 2015)
;
_computing_molecular_graphics
;
DIAMOND (Brandenburg & Putz, 2008) and OLEX2 (Dolomanov <i>et al.</i>,
2009)
;
_computing_publication_material
;
OLEX2 (Dolomanov <i>et al.</i>,  2009)
;
_computing_structure_refinement
;
SHELXL2018 (Sheldrick, 2015b)
;
_computing_structure_solution
;
SHELXT (Sheldrick, 2015a)
;
_diffrn_ambient_temperature      295.0(10)
_diffrn_detector                 'CCD plate'
_diffrn_detector_area_resol_mean 10.6249
_diffrn_measured_fraction_theta_full 0.999
_diffrn_measured_fraction_theta_max 0.993
_diffrn_measurement_device       'four-circle diffractometer'
_diffrn_measurement_device_type  'Rigaku Xcalibur Atlas'
_diffrn_measurement_method       '\w scans'
_diffrn_radiation_monochromator  graphite
_diffrn_radiation_probe          x-ray
_diffrn_radiation_type           'Mo K\a'
_diffrn_radiation_wavelength     0.71073
_diffrn_reflns_av_R_equivalents  0.0273
_diffrn_reflns_av_unetI/netI     0.0187
_diffrn_reflns_limit_h_max       9
_diffrn_reflns_limit_h_min       -9
_diffrn_reflns_limit_k_max       10
_diffrn_reflns_limit_k_min       -10
_diffrn_reflns_limit_l_max       12
_diffrn_reflns_limit_l_min       -12
_diffrn_reflns_number            15285
_diffrn_reflns_theta_full        25.242
_diffrn_reflns_theta_max         28.980
_diffrn_reflns_theta_min         3.133
_diffrn_source                   'fine-focus sealed X-ray tube'
_exptl_absorpt_coefficient_mu    4.673
_exptl_absorpt_correction_T_max  0.973
_exptl_absorpt_correction_T_min  0.947
_exptl_absorpt_correction_type   gaussian
_exptl_absorpt_process_details
;
{CrysAlis PRO (Rigaku OD, 2015), based on expressions derived by
Clark & Reid (1995)]
;
_exptl_crystal_colour            'clear yellowish colourless'
_exptl_crystal_density_diffrn    1.775
_exptl_crystal_description       block
_exptl_crystal_F_000             232
_exptl_crystal_size_max          0.461
_exptl_crystal_size_mid          0.334
_exptl_crystal_size_min          0.184
_refine_diff_density_max         0.331
_refine_diff_density_min         -0.387
_refine_ls_extinction_method     none
_refine_ls_goodness_of_fit_ref   1.109
_refine_ls_hydrogen_treatment    mixed
_refine_ls_matrix_type           full
_refine_ls_number_parameters     122
_refine_ls_number_reflns         2299
_refine_ls_number_restraints     0
_refine_ls_restrained_S_all      1.109
_refine_ls_R_factor_all          0.0342
_refine_ls_R_factor_gt           0.0262
_refine_ls_shift/su_max          0.001
_refine_ls_shift/su_mean         0.000
_refine_ls_structure_factor_coef Fsqd
_refine_ls_weighting_details
'w=1/[\s^2^(Fo^2^)+(0.0284P)^2^+0.0941P] where P=(Fo^2^+2Fc^2^)/3'
_refine_ls_weighting_scheme      calc
_refine_ls_wR_factor_gt          0.0585
_refine_ls_wR_factor_ref         0.0608
_reflns_number_gt                1986
_reflns_number_total             2299
_reflns_threshold_expression     'I > 2\s(I)'
_cod_data_source_file            dv3005sup1.cif
_cod_data_source_block           3
_cod_depositor_comments
'Adding full bibliography for 2022325--2022329.cif.'
_cod_database_code               2022327
_cod_database_fobs_code          2022327
_shelx_space_group_comment
;
The symmetry employed for this shelxl refinement is uniquely defined
by the following loop, which should always be used as a source of
symmetry information in preference to the above space-group names.
They are only intended as comments.
;
_shelx_hkl_file
;
   0   0  -2   25.36    2.16
   0   0  -2   27.61    2.02
   0   0   2   26.22    1.27
   0   0   2   25.97    1.97
   0   0  -2   26.55    1.87
   0   0  -2   24.97    1.89
   0   0   2   25.64    1.94
   0   0   2   24.73    1.67
   0   0  -2   24.38    1.17
   0   0   2   28.77    2.29
   0   0   2   26.32    1.92
   0   0  -2   23.49    1.64
   0   0  -2   26.04    2.00
   0   0   2   25.80    1.96
   0   0  -2   24.44    2.02
   0   0   2   25.20    1.95
   0   0  -3 3570.11   52.71
   0   0   3 3354.32   54.04
   0   0  -3 3454.15   53.95
   0   0  -3 3495.30   54.32
   0   0  -3 3395.78   53.87
   0   0   3 3597.55   52.62
   0   0  -3 3468.21   55.08
   0   0   3 3364.82   53.28
   0   0  -3 3397.31   53.60
   0   0  -3 3390.08   53.50
   0   0   3 3325.19   54.82
   0   0  -3 3494.62   49.93
   0   0  -3 3379.02   53.14
   0   0  -3 3146.31   48.97
   0   0   3 3484.19   54.05
   0   0   3 3398.44   54.13
   0   0   3 3388.90   53.24
   0   0  -3 3368.36   53.87
   0   0   3 3472.61   50.33
   0   0   4   64.84    4.40
   0   0  -4   63.49    4.43
   0   0  -4   53.33    3.47
   0   0   4   52.30    4.42
   0   0   4   59.29    3.59
   0   0  -4   60.89    4.37
   0   0  -4   51.27    3.80
   0   0  -4   57.79    4.51
   0   0  -4   58.06    4.14
   0   0   4   58.45    4.03
   0   0  -4   51.93    3.83
   0   0  -4   52.06    3.75
   0   0  -4   56.79    4.01
   0   0   4   55.23    3.81
   0   0  -4   55.28    3.76
   0   0  -4   57.80    1.97
   0   0   4   56.08    2.70
   0   0  -4   58.77    2.48
   0   0   5   15.38    2.46
   0   0  -5   17.92    2.83
   0   0  -5   12.58    2.42
   0   0  -5   12.22    2.66
   0   0  -5   12.09    0.92
   0   0   5   11.13    2.73
   0   0   5   17.03    2.73
   0   0  -5   14.35    2.62
   0   0  -5   15.36    2.57
   0   0  -5   12.05    2.69
   0   0  -5   15.51    2.54
   0   0  -5   14.22    2.49
   0   0   5   11.62    2.39
   0   0  -5   15.95    2.62
   0   0  -5   13.00    1.40
   0   0  -5   14.25    2.62
   0   0  -5   10.82    2.01
   0   0   5   22.67    3.44
   0   0   6  754.04   19.71
   0   0   6  744.24   22.06
   0   0   6  774.12   18.95
   0   0  -6  780.08   19.66
   0   0  -6  778.85   14.58
   0   0  -6  758.67   21.31
   0   0  -6  739.75   20.44
   0   0   6  764.28   20.80
   0   0  -6  782.13   19.22
   0   0   6  732.14   20.08
   0   0   7  510.13   19.20
   0   0   7  513.94   17.64
   0   0   7  492.46   17.02
   0   0   7  512.28   15.69
   0   0  -7  528.50   18.49
   0   0   7  513.49   16.44
   0   0  -7  509.28   10.98
   0   0   8    4.41    3.54
   0   0   8    3.25    3.83
   0   0  -8   -0.21    3.61
   0   0   8    3.15    2.47
   0   0   8    5.79    3.23
   0   0  -8    4.24    1.17
   0   0   9   11.32    3.52
   0   0   9   20.50    3.90
   0   0   9   11.42    4.44
   0   0  -9   19.34    5.03
   0   0   9   23.76    5.32
   0   0 -10   71.85    9.15
   0   0  10   65.31    7.17
   0   0  10   71.88    7.28
   0   0  10   69.91    8.19
   0   0  10   84.91   10.18
   0   0  11   11.69    4.38
   0   0  11   13.54    5.40
   0   0  11   10.80    4.29
   0   0 -11   11.24    4.48
   0   0 -11   13.33    5.79
   0   1 -11    5.70    4.87
   0  -1  11    1.47    3.31
   0   1 -11    6.33    4.51
   0  -1  10   62.96    8.06
   0   1 -10   71.60    7.77
   0  -1  10   81.68    7.75
   0   1 -10   74.94    9.27
   0  -1  10   67.22    6.97
   0  -1   9   94.18    7.53
   0   1  -9  105.87    8.80
   0  -1   9   87.71    7.37
   0   1  -9   78.99    8.64
   0  -1   9  103.64    9.34
   0  -1   8   57.15    6.58
   0  -1   8   49.74    7.06
   0  -1   8   51.35    5.32
   0   1  -8   54.24    3.80
   0   1  -8   54.51    6.78
   0  -1   8   58.51    5.71
   0   1  -7  164.67    6.46
   0   1  -7  173.89    5.56
   0   1  -7  179.64   10.38
   0  -1   7  165.62    9.91
   0  -1   7  180.20    8.91
   0  -1   7  174.19    8.76
   0  -1   7  150.99   10.53
   0  -1   6  530.54   15.13
   0   1  -6  520.55   15.94
   0   1  -6  531.44   17.18
   0   1  -6  541.40   11.72
   0  -1   6  508.61   18.17
   0   1  -6  526.51   12.67
   0  -1   6  548.45   17.39
   0  -1   6  542.62   15.28
   0   1  -5  143.44    5.18
   0   1  -5  145.59    7.58
   0   1  -5  139.91    7.55
   0   1  -5  151.19    5.67
   0  -1   5  148.07    6.73
   0  -1   5  142.72    7.91
   0  -1   5  150.71    7.59
   0   1  -5  146.03    7.91
   0   1  -5  156.24    7.23
   0   1  -5  153.20    7.40
   0   1  -5  146.45    6.66
   0  -1   5  142.89    8.31
   0  -1   5  147.09    6.63
   0  -1   5  132.21    7.45
   0   1  -4  128.83    6.46
   0   1  -4  119.55    4.84
   0   1  -4  127.09    6.47
   0   1  -4  128.75    6.60
   0   1  -4  127.58    6.07
   0   1  -4  121.27    6.32
   0  -1   4  109.78    6.25
   0   1  -4  131.10    5.57
   0  -1   4  128.68    6.48
   0  -1   4  123.96    6.89
   0   1  -4  125.57    5.61
   0  -1   4  126.83    5.60
   0  -1   4  133.57    5.60
   0   1  -4  124.98    4.70
   0   1  -4  117.31    5.82
   0   1  -4  118.55    6.21
   0   1  -4  125.39    6.97
   0   1  -4  124.61    6.18
   0  -1   4  122.33    6.08
   0   1  -3 2423.05   39.59
   0  -1   3 2419.14   42.04
   0   1  -3 2450.63   40.80
   0  -1   3 2505.84   41.63
   0  -1   3 2431.97   40.68
   0   1  -3 2415.15   41.76
   0   1  -3 2458.57   40.36
   0   1  -3 2477.60   41.96
   0   1  -3 2453.52   39.41
   0  -1   3 2412.42   39.02
   0   1  -3 2436.39   41.46
   0   1  -3 2318.54   38.92
   0  -1   3 2491.09   40.59
   0   1  -3 2504.16   42.76
   0   1  -3 2468.32   40.76
   0   1  -3 2449.42   41.26
   0   1  -3 2451.35   38.92
   0  -1   3 2465.78   42.54
   0  -1   3 2438.92   41.71
   0  -1   3 2510.73   39.85
   0   1  -3 2443.82   41.59
   0   1  -2 3676.84   55.51
   0   1  -2 3491.90   56.83
   0   1  -2 3556.85   55.63
   0   1  -2 3716.02   57.35
   0  -1   2 3822.40   57.69
   0  -1   2 3736.08   57.00
   0  -1   2 3604.81   54.59
   0  -1   2 3544.43   56.92
   0  -1   2 3697.83   56.81
   0  -1   2 3628.27   57.20
   0   1  -2 3670.33   54.80
   0   1  -2 3651.05   55.76
   0  -1   2 3608.88   55.75
   0  -1   2 3747.47   57.70
   0  -1   2 3628.89   56.25
   0   1  -2 3887.42   57.92
   0   1  -2 3609.66   56.69
   0   1  -2 3689.90   56.88
   0   1  -2 3647.46   56.26
   0  -1   2 3714.88   55.63
   0   1  -2 3860.64   57.79
   0   1  -1   13.12    1.30
   0   1  -1   13.11    0.94
   0  -1   1   15.58    1.57
   0   1  -1   15.17    1.30
   0  -1   1   14.69    1.52
   0   1  -1   13.38    1.31
   0   1  -1   12.18    1.39
   0   1  -1   13.13    1.41
   0  -1   1   11.42    1.23
   0  -1   1   13.54    1.14
   0   1  -1   13.46    1.39
   0   1  -1   13.10    1.27
   0  -1   1   13.45    1.37
   0   1  -1   14.07    1.18
   0  -1   1   16.27    1.57
   0   1  -1   11.11    1.40
   0   1  -1   11.54    1.43
   0   1  -1   13.01    1.41
   0  -1   1   13.58    1.46
   0   1  -1   10.18    1.22
   0   1   0    0.93    0.66
   0  -1   0   10.53    1.09
   0  -1  -1 2444.82   37.40
   0   1   1 2404.56   38.57
   0  -1  -1 2567.92   39.21
   0  -1  -1 2537.53   38.71
   0  -1  -1 2485.47   38.83
   0   1   1 2565.91   39.18
   0   1   2 1195.07   21.15
   0   1   2 1178.02   18.97
   0   1   2 1235.12   20.84
   0   1   2 1184.03   21.65
   0  -1  -2 1191.31   21.52
   0   1   2 1151.17   20.58
   0   1   2 1151.18   21.40
   0  -1  -2 1181.84   20.51
   0  -1  -2 1219.09   20.89
   0  -1  -2 1200.91   21.70
   0  -1  -3 1758.90   31.90
   0   1   3 1742.18   31.67
   0   1   3 1791.75   26.93
   0  -1  -3 1807.93   31.76
   0   1   3 1733.60   28.96
   0   1   3 1783.66   31.38
   0   1   3 1780.51   31.82
   0  -1  -3 1780.20   31.16
   0  -1  -3 1807.68   30.53
   0   1   3 1809.55   31.32
   0  -1  -3 1809.02   31.44
   0  -1  -3 1783.80   31.98
   0  -1  -3 1748.00   28.81
   0   1   3 1853.43   30.56
   0  -1  -4 2724.68   47.24
   0  -1  -4 2810.70   45.48
   0  -1  -4 2670.86   43.70
   0   1   4 2702.77   47.11
   0   1   4 2719.93   40.40
   0  -1  -4 2660.99   47.27
   0   1   4 2806.80   45.37
   0  -1  -4 2788.16   47.70
   0  -1  -4 2722.38   46.83
   0   1   4 2742.96   46.94
   0   1   4 2691.67   47.26
   0   1   4 2636.54   44.06
   0  -1  -4 2761.86   46.93
   0   1   4 2808.44   46.75
   0  -1  -5  384.26   13.06
   0  -1  -5  373.39   11.39
   0  -1  -5  378.88   10.59
   0  -1  -5  383.79   11.57
   0   1   5  350.29   12.34
   0   1   5  350.04    7.41
   0   1   5  358.57   12.15
   0  -1  -5  398.72   12.81
   0   1   5  366.59   12.27
   0  -1  -5  380.64   12.74
   0  -1  -5  371.87   12.54
   0   1   5  373.54   11.30
   0   1   5  363.76   10.87
   0   1   5  349.64   12.64
   0  -1  -5  365.22   12.76
   0  -1  -6  139.22    6.80
   0  -1  -6  133.38    7.32
   0   1   6  127.01    8.17
   0   1   6  128.51    4.04
   0   1   6  135.45    7.92
   0   1   6  138.97    7.11
   0  -1  -6  154.67    8.95
   0   1   6  134.72    7.86
   0   1   6  142.55    7.22
   0  -1  -7  180.98   10.66
   0  -1  -7  182.44    8.50
   0   1   7  176.28    9.69
   0   1   7  185.75   10.04
   0   1   7  167.28   10.42
   0   1   7  164.60    8.68
   0   1   7  184.30    9.00
   0   1   8  282.89   12.73
   0   1   8  273.40   11.96
   0  -1  -8  263.65   14.10
   0   1   8  272.43   12.99
   0   1   8  293.54   13.86
   0   1   8  277.45   14.60
   0   1   9    9.59    4.49
   0  -1  -9    5.07    3.97
   0   1   9    1.34    3.39
   0   1   9    5.76    3.53
   0   1   9    4.16    3.34
   0   1  10   57.20    7.90
   0  -1 -10   63.54    8.94
   0   1  10   61.53    8.51
   0   1  10   65.82    7.55
   0   1  10   59.62    6.84
   0   1  11   24.32    5.72
   0  -1 -11   29.26    6.89
   0   1  11   28.43    5.31
   0   1  11   29.85    6.01
   0   1  12   -0.88    3.56
   0   1  12    6.81    4.89
   0   2 -11    5.86    4.89
   0   2 -11   16.90    5.72
   0   2 -10   13.16    5.04
   0  -2  10    1.29    4.33
   0   2 -10    8.36    4.34
   0  -2  10    4.97    3.38
   0  -2   9  186.64   12.81
   0  -2   9  168.48   10.35
   0   2  -9  160.34   11.98
   0   2  -9  182.73   12.20
   0  -2   9  190.15   10.38
   0  -2   8   68.47    5.91
   0   2  -8   59.86    7.01
   0   2  -8   71.45    7.38
   0  -2   8   68.43    6.41
   0  -2   8   71.93    7.78
   0   2  -8   58.78    4.63
   0   2  -7   -1.31    2.74
   0  -2   7   -2.50    3.51
   0   2  -7    1.11    1.48
   0   2  -7    0.12    1.66
   0  -2   7    3.85    2.41
   0   2  -7    2.98    2.58
   0  -2   7    0.16    1.92
   0  -2   6  507.59   18.70
   0  -2   6  514.27   16.84
   0   2  -6  501.35   14.08
   0   2  -6  555.64   17.69
   0  -2   6  528.60   14.66
   0   2  -6  493.29   15.14
   0   2  -6  516.76   13.82
   0  -2   6  540.80   18.06
   0   2  -6  507.04   16.79
   0  -2   6  517.36   15.57
   0  -2   5 1262.12   30.12
   0   2  -5 1286.58   27.10
   0   2  -5 1321.68   28.85
   0   2  -5 1201.71   25.25
   0  -2   5 1268.37   26.43
   0   2  -5 1222.68   25.08
   0   2  -5 1236.43   27.51
   0  -2   5 1280.02   28.99
   0  -2   5 1275.68   24.92
   0   2  -5 1189.97   25.20
   0  -2   5 1252.95   27.34
   0   2  -5 1205.02   25.86
   0  -2   4  386.59   10.22
   0   2  -4  377.79   11.18
   0   2  -4  391.46   13.65
   0   2  -4  399.64   11.69
   0   2  -4  387.31   12.16
   0  -2   4  376.54   13.31
   0  -2   4  393.78   11.63
   0  -2   4  377.75   11.67
   0   2  -4  374.11   11.27
   0   2  -4  379.45   13.35
   0  -2   4  382.49   12.01
   0  -2   4  376.19   12.97
   0  -2   4  374.37   12.77
   0   2  -4  383.37   11.70
   0   2  -4  397.39   12.95
   0   2  -4  392.10   12.64
   0   2  -4  403.98   13.30
   0   2  -4  368.16   11.19
   0   2  -4  393.69   13.31
   0   2  -4  368.37   10.29
   0   2  -4  389.87   12.87
   0   2  -3 1176.68   25.51
   0   2  -3 1233.71   23.43
   0   2  -3 1202.26   21.77
   0   2  -3 1223.03   25.54
   0  -2   3 1197.62   25.61
   0  -2   3 1226.82   23.75
   0   2  -3 1242.19   24.37
   0   2  -3 1200.79   24.91
   0  -2   3 1199.82   24.89
   0   2  -3 1232.76   25.58
   0  -2   3 1189.80   25.66
   0   2  -3 1235.24   23.50
   0   2  -3 1231.44   25.46
   0   2  -3 1222.51   24.19
   0   2  -3 1205.60   26.19
   0   2  -3 1192.79   24.17
   0  -2   3 1238.69   25.54
   0   2  -3 1220.49   25.95
   0  -2   3 1219.01   25.40
   0  -2   3 1225.06   23.50
   0  -2   3 1184.19   24.12
   0   2  -2 1563.48   29.63
   0  -2   2 1518.28   28.35
   0   2  -2 1576.66   29.06
   0   2  -2 1536.98   27.58
   0   2  -2 1579.03   29.00
   0  -2   2 1552.31   29.25
   0   2  -2 1545.46   28.93
   0   2  -2 1566.15   28.02
   0  -2   2 1532.98   26.75
   0  -2   2 1471.46   27.65
   0   2  -2 1565.11   29.30
   0   2  -2 1529.49   25.35
   0   2  -2 1521.16   29.68
   0   2  -2 1593.07   28.65
   0  -2   2 1544.36   29.18
   0   2  -2 1553.82   29.26
   0   2  -2 1546.22   27.98
   0   2  -2 1587.80   27.12
   0   2  -1 1002.43   19.28
   0  -2   1  950.90   18.98
   0   2  -1  998.89   20.30
   0  -2   1  974.90   20.22
   0   2  -1  972.56   20.56
   0   2  -1  985.73   19.48
   0   2  -1  968.03   18.79
   0  -2   1  962.33   20.37
   0  -2   1  956.19   19.60
   0  -2   1  997.42   19.48
   0   2  -1  992.55   19.93
   0   2  -1  977.54   20.30
   0   2  -1  965.65   17.96
   0  -2   1 1056.41   18.41
   0   2  -1 1018.93   19.38
   0  -2   1  976.26   18.98
   0  -2   0  131.54    5.08
   0  -2   0  145.24    5.40
   0  -2   0  125.00    5.98
   0   2   0  126.75    5.76
   0  -2   0  138.84    6.46
   0  -2   0  120.12    5.78
   0   2   0  132.37    4.81
   0  -2   0  126.89    5.77
   0   2   0  134.28    4.85
   0  -2   0  126.33    5.86
   0  -2   0  134.34    4.94
   0   2   0  138.42    5.38
   0   2   1 4551.15   68.92
   0   2   1 4454.15   68.14
   0  -2  -1 4492.64   66.81
   0  -2  -1 4455.97   68.35
   0  -2  -1 4405.70   69.07
   0  -2  -1 4415.56   68.82
   0  -2  -2 2710.26   42.71
   0   2   2 2762.76   42.62
   0   2   2 2728.49   45.11
   0   2   2 2741.00   45.96
   0   2   2 2747.33   45.35
   0  -2  -2 2705.62   45.12
   0  -2  -2 2835.70   46.00
   0   2   3  502.95   13.01
   0  -2  -3  521.40   13.74
   0   2   3  504.72   13.54
   0  -2  -3  522.66   14.12
   0  -2  -3  525.67   13.24
   0   2   3  503.47   10.27
   0   2   3  510.73   12.29
   0  -2  -3  519.49   12.09
   0   2   3  508.94   13.34
   0   2   3  504.52   13.97
   0  -2  -4  780.60   18.37
   0   2   4  785.43   18.25
   0  -2  -4  831.51   20.17
   0   2   4  772.21   15.30
   0   2   4  763.80   13.96
   0  -2  -4  838.25   19.91
   0   2   4  791.56   19.71
   0   2   4  786.18   18.22
   0   2   4  791.02   19.48
   0   2   4  780.24   14.33
   0  -2  -4  783.13   17.94
   0   2   4  797.89   18.94
   0  -2  -5  553.24   15.50
   0   2   5  523.46   10.27
   0  -2  -5  549.36   16.79
   0   2   5  527.64   16.28
   0   2   5  497.30   12.51
   0   2   5  517.60   15.43
   0  -2  -5  532.77   15.06
   0   2   5  536.32   15.72
   0  -2  -5  522.72   16.58
   0   2   5  533.56   14.84
   0   2   6   36.19    1.89
   0   2   6   43.14    4.92
   0  -2  -6   52.37    5.60
   0   2   6   48.14    3.95
   0   2   6   49.57    5.04
   0   2   6   47.11    4.52
   0   2   6   50.11    5.16
   0   2   7   16.68    4.00
   0  -2  -7   16.41    4.68
   0   2   7   11.90    3.20
   0  -2  -7   13.30    2.71
   0   2   7   12.25    3.54
   0   2   7    7.66    2.40
   0  -2  -7   17.29    2.75
   0   2   7   20.23    3.60
   0   2   8  187.52   10.18
   0   2   8  196.33    9.71
   0   2   8  181.68   11.20
   0  -2  -8  184.05   11.79
   0   2   8  194.74   11.40
   0   2   8  188.30   11.87
   0   2   9   14.31    4.67
   0   2   9   19.98    4.56
   0   2   9   14.64    3.60
   0   2   9   18.35    4.93
   0  -2  -9   21.65    5.30
   0   2   9   12.11    3.73
   0   2  10    0.44    3.49
   0   2  10    3.36    4.44
   0  -2 -10    1.48    4.14
   0   2  10    1.13    3.66
   0   2  10    1.40    3.03
   0  -2 -11   23.67    7.05
   0   2  11   29.44    6.59
   0   2  11   36.10    8.09
   0   2  11   17.89    5.05
   0   2  11   27.99    5.43
   0   2  12   24.73    5.74
   0   3 -10    7.59    3.87
   0   3 -10   -4.22    4.64
   0   3 -10    0.28    4.01
   0   3  -9   56.22    7.67
   0   3  -9   59.65    7.36
   0   3  -9   47.23    7.05
   0  -3   9   60.41    8.34
   0  -3   8  133.94    9.16
   0   3  -8  131.32   10.05
   0   3  -8  153.30   11.24
   0  -3   8  154.55   11.28
   0   3  -8  141.12    8.11
   0   3  -8  145.38   10.43
   0  -3   7  122.37    8.05
   0  -3   7  112.59    8.54
   0   3  -7  114.68    7.12
   0   3  -7  117.10    7.40
   0   3  -7  115.79    8.59
   0   3  -7  121.66    9.55
   0  -3   7  126.10    9.58
   0   3  -7  112.40    8.38
   0   3  -6    3.08    2.20
   0   3  -6   -1.56    3.29
   0   3  -6    3.30    2.47
   0   3  -6    2.16    2.18
   0  -3   6    0.43    2.98
   0  -3   6    0.86    2.34
   0   3  -6    3.72    1.96
   0   3  -6    2.73    2.48
   0   3  -5  581.94   16.90
   0   3  -5  593.54   17.68
   0   3  -5  538.25   14.38
   0   3  -5  587.97   16.77
   0  -3   5  581.45   16.88
   0   3  -5  553.59   16.76
   0  -3   5  592.53   19.07
   0   3  -5  581.63   16.98
   0   3  -5  572.05   18.99
   0  -3   5  539.80   17.16
   0   3  -4 1101.63   25.72
   0  -3   4 1125.60   24.34
   0   3  -4 1128.18   27.60
   0   3  -4 1153.80   25.75
   0   3  -4 1094.12   21.90
   0   3  -4 1101.69   25.69
   0  -3   4 1120.63   26.43
   0   3  -4 1163.62   24.63
   0   3  -4 1117.17   24.62
   0  -3   4 1144.44   25.72
   0  -3   4 1161.40   27.56
   0  -3   3    7.44    1.88
   0   3  -3    6.52    1.83
   0  -3   3    6.98    2.02
   0  -3   3    9.26    2.64
   0   3  -3    5.31    1.92
   0   3  -3    6.58    2.23
   0   3  -3    6.63    1.95
   0   3  -3    4.43    1.46
   0  -3   3    4.73    1.74
   0  -3   3    4.40    2.29
   0   3  -3    7.14    1.88
   0   3  -3    9.25    2.28
   0   3  -3    2.88    2.16
   0   3  -3    5.37    2.04
   0   3  -3    7.01    1.46
   0   3  -3    5.37    2.13
   0   3  -3   11.30    2.25
   0   3  -3    4.42    2.04
   0  -3   2 1013.87   23.33
   0  -3   2 1024.67   20.74
   0   3  -2 1035.83   22.55
   0   3  -2 1024.92   23.88
   0   3  -2 1034.39   22.49
   0   3  -2 1015.36   24.12
   0   3  -2 1037.04   23.67
   0   3  -2 1020.64   22.96
   0   3  -2 1032.49   22.42
   0   3  -2 1043.01   24.52
   0  -3   2  996.08   24.01
   0  -3   2 1012.97   22.56
   0   3  -2 1031.59   20.77
   0   3  -2 1059.00   24.24
   0   3  -2 1006.30   23.67
   0  -3   2 1037.94   24.04
   0  -3   2 1021.63   22.06
   0  -3   2 1023.54   22.12
   0   3  -2 1028.87   22.42
   0   3  -1 3954.76   62.75
   0   3  -1 4117.29   64.27
   0  -3   1 4008.23   68.09
   0   3  -1 4218.98   66.86
   0   3  -1 4113.33   67.05
   0   3  -1 4095.85   68.55
   0  -3   1 4092.42   64.22
   0   3  -1 4080.78   66.65
   0  -3   1 4060.34   66.00
   0  -3   1 3950.34   66.16
   0   3  -1 4099.13   66.77
   0  -3   1 4115.91   66.26
   0  -3   1 4013.85   67.93
   0   3  -1 3960.34   63.70
   0  -3   1 4002.35   65.99
   0   3  -1 4143.17   67.35
   0   3  -1 4087.23   68.47
   0  -3   0   21.44    2.65
   0  -3   0   19.08    3.19
   0  -3   0   25.68    3.35
   0  -3   0   20.99    2.95
   0  -3   0   21.70    3.38
   0   3   0   19.36    3.17
   0  -3   0   18.55    2.48
   0  -3   0   16.50    2.60
   0   3   0   28.31    2.99
   0  -3   0   27.41    2.73
   0   3   0   24.00    2.42
   0   3   0   24.59    2.55
   0  -3  -1 1380.08   27.02
   0   3   1 1359.74   26.18
   0  -3  -1 1391.28   25.44
   0   3   1 1368.54   26.06
   0   3   1 1319.99   26.48
   0  -3  -1 1305.17   27.76
   0  -3  -1 1420.10   27.03
   0  -3  -2 1328.73   23.96
   0   3   2 1373.75   23.42
   0  -3  -2 1315.61   27.42
   0  -3  -2 1361.82   26.82
   0   3   2 1335.93   26.53
   0   3   2 1295.51   27.16
   0  -3  -2 1303.77   26.79
   0   3   2 1283.06   27.55
   0   3   3 2098.28   39.23
   0  -3  -3 2141.54   36.08
   0  -3  -3 2118.81   40.28
   0   3   3 2141.14   40.39
   0   3   3 2088.31   39.37
   0  -3  -3 2091.34   39.27
   0   3   3 2089.43   35.60
   0   3   4  335.90   10.62
   0  -3  -4  347.71   12.26
   0   3   4  339.97   11.98
   0  -3  -4  339.18   12.91
   0   3   4  372.41   12.80
   0  -3  -4  357.66   10.82
   0   3   4  342.85   12.21
   0  -3  -4  355.12   12.69
   0   3   4  344.20    8.71
   0   3   4  337.34   12.81
   0   3   5  440.21   10.82
   0  -3  -5  435.52   15.51
   0   3   5  459.74   14.13
   0   3   5  454.13   11.01
   0   3   5  476.24   15.43
   0  -3  -5  466.54   13.98
   0   3   5  453.06   16.02
   0   3   5  422.24   14.27
   0   3   6  590.28   17.88
   0  -3  -6  631.58   20.12
   0   3   6  607.67   12.42
   0   3   6  579.70   11.60
   0   3   6  587.99   12.49
   0   3   6  610.15   18.30
   0   3   6  598.06   14.43
   0   3   6  609.98   18.99
   0   3   6  589.04   19.61
   0   3   7  438.91   16.69
   0   3   7  407.33   16.01
   0   3   7  411.37    8.97
   0   3   7  424.69   12.75
   0   3   7  426.49   17.32
   0  -3  -7  427.70   17.68
   0   3   7  402.97   15.17
   0   3   8   10.67    3.95
   0  -3  -8    6.33    4.14
   0   3   8   14.47    4.25
   0   3   8   13.56    3.73
   0   3   8    7.50    2.46
   0   3   8    6.45    3.57
   0   3   9   80.24    6.54
   0   3   9   90.73    8.95
   0  -3  -9   87.74    9.55
   0   3   9   96.94    8.89
   0   3   9   80.23    8.61
   0   3   9   86.80    7.98
   0   3  10    4.41    4.38
   0   3  10    8.85    4.35
   0   3  10    8.21    4.37
   0  -3 -10    8.31    5.77
   0   3  10    4.04    3.87
   0   3  11    3.67    5.21
   0  -3 -11    6.97    5.82
   0   3  11    5.56    5.23
   0   3  11    8.17    5.06
   0   3  11    2.26    3.61
   0   3  12    6.53    4.68
   0   4 -10   62.85    9.11
   0   4  -9   20.37    5.96
   0   4  -9   11.48    4.60
   0   4  -9   18.03    5.02
   0   4  -8   81.02    7.90
   0   4  -8   78.24    8.10
   0   4  -8   99.73    9.95
   0   4  -8   83.33    7.35
   0   4  -7  359.52   16.08
   0   4  -7  346.01   15.07
   0   4  -7  330.19   14.37
   0   4  -7  372.58   18.11
   0   4  -7  364.03   14.89
   0  -4   7  353.66   15.15
   0   4  -6   51.25    5.91
   0  -4   6   48.40    6.44
   0   4  -6   54.55    6.01
   0   4  -6   41.92    5.27
   0  -4   6   55.76    5.75
   0   4  -6   51.78    5.55
   0  -4   6   50.79    5.86
   0   4  -6   47.34    6.47
   0  -4   5   10.06    3.22
   0   4  -5    8.25    1.82
   0   4  -5    8.69    2.78
   0  -4   5    9.14    2.82
   0   4  -5   10.48    3.11
   0   4  -5    6.72    3.22
   0  -4   5   14.95    3.88
   0  -4   5    9.72    3.80
   0   4  -5    7.63    3.17
   0   4  -5    8.16    2.86
   0   4  -4  727.96   21.71
   0   4  -4  741.44   21.03
   0   4  -4  737.66   16.54
   0  -4   4  757.38   20.98
   0   4  -4  759.12   23.40
   0  -4   4  743.12   21.75
   0  -4   4  762.32   19.31
   0   4  -4  714.19   21.54
   0   4  -4  750.35   19.09
   0  -4   4  731.63   22.57
   0  -4   4  734.79   22.68
   0   4  -3  339.20   12.73
   0  -4   3  332.96   13.11
   0   4  -3  339.16   13.02
   0   4  -3  368.04   11.68
   0   4  -3  366.78   13.20
   0  -4   3  355.60   12.93
   0   4  -3  324.21   13.41
   0  -4   3  350.38   14.34
   0  -4   3  360.08   11.56
   0   4  -3  341.40   14.41
   0  -4   3  324.20   13.48
   0   4  -3  344.17    9.77
   0   4  -2   -1.56    2.15
   0   4  -2    0.40    2.19
   0  -4   2    5.37    2.50
   0  -4   2    1.88    2.39
   0   4  -2    2.68    2.01
   0   4  -2    4.59    1.63
   0  -4   2    3.61    1.88
   0  -4   2    3.81    2.25
   0   4  -2    5.18    2.04
   0   4  -2   -4.45    3.15
   0   4  -2    2.55    1.46
   0  -4   2    1.35    2.30
   0  -4   2    3.46    1.96
   0   4  -2    2.24    2.00
   0   4  -2    2.41    1.73
   0   4  -1 1818.60   38.82
   0   4  -1 1716.59   31.90
   0   4  -1 1758.66   37.92
   0   4  -1 1804.34   36.34
   0  -4   1 1742.10   35.95
   0  -4   1 1747.90   34.98
   0   4  -1 1733.99   31.69
   0  -4   1 1712.22   35.71
   0  -4   1 1756.75   37.65
   0  -4   1 1762.81   33.71
   0  -4   1 1717.18   35.76
   0   4  -1 1755.31   37.06
   0   4  -1 1759.34   37.00
   0   4  -1 1743.04   36.80
   0   4  -1 1732.75   32.72
   0   4  -1 1792.30   36.33
   0  -4   1 1706.35   37.61
   0  -4   0 1192.09   28.36
   0   4   0 1266.50   27.23
   0   4   0 1166.16   24.74
   0   4   0 1261.00   25.07
   0  -4   0 1183.05   26.43
   0  -4   0 1177.31   28.60
   0   4   0 1248.86   29.46
   0  -4   0 1184.39   28.57
   0  -4   0 1252.63   29.17
   0  -4   0 1194.32   29.75
   0  -4   0 1232.90   25.92
   0  -4  -1   59.39    5.43
   0   4   1   50.97    4.42
   0  -4  -1   47.48    5.13
   0  -4  -1   45.42    5.23
   0  -4  -1   52.45    4.08
   0   4   1   49.91    4.40
   0  -4  -1   45.84    5.15
   0   4   1   47.49    3.99
   0  -4  -1   51.02    4.96
   0  -4  -1   61.03    4.81
   0  -4  -2  469.30   12.58
   0  -4  -2  479.82   15.16
   0   4   2  483.29   14.17
   0  -4  -2  491.07   15.57
   0   4   2  486.62   11.59
   0   4   2  442.66   15.58
   0   4   2  462.66   14.74
   0  -4  -2  481.42   14.76
   0   4   3  869.65   21.78
   0  -4  -3  857.93   22.88
   0   4   3  838.14   22.65
   0  -4  -3  876.58   22.06
   0   4   3  841.51   17.69
   0   4   3  868.84   22.73
   0  -4  -3  872.55   21.86
   0  -4  -3  882.18   18.34
   0   4   4   22.60    3.97
   0   4   4   20.81    4.17
   0  -4  -4   26.43    3.84
   0   4   4   25.37    2.87
   0  -4  -5  170.45    9.89
   0  -4  -5  192.87    8.54
   0   4   5  185.71   10.13
   0   4   5  182.06   10.58
   0   4   5  184.02    6.53
   0   4   5  183.95    8.36
   0   4   5  185.79    9.84
   0   4   6  409.19   16.98
   0   4   6  400.18   14.23
   0  -4  -6  424.00   14.41
   0   4   6  404.59   10.91
   0  -4  -6  399.74   16.71
   0   4   6  390.76   15.27
   0   4   6  405.99   11.50
   0   4   6  411.00   16.14
   0   4   7  116.09    5.12
   0   4   7  127.79    9.83
   0   4   7  124.04    5.33
   0   4   7  120.78    8.61
   0   4   7  109.99    4.62
   0   4   7  127.43    9.36
   0  -4  -7  118.39    9.58
   0   4   7  111.82    5.80
   0   4   7  123.85    8.63
   0   4   8    0.51    1.71
   0   4   8    1.36    3.30
   0   4   8    0.09    3.15
   0  -4  -8   -1.71    3.65
   0   4   8    0.17    2.89
   0   4   8    0.01    3.78
   0   4   9   69.85    7.92
   0  -4  -9   80.01    9.33
   0   4   9   69.18    8.24
   0   4   9   81.95    9.15
   0   4   9   71.45    7.87
   0   4  10    0.14    3.77
   0  -4 -10   -0.31    4.76
   0   4  10   -0.15    3.63
   0   4  10    1.76    3.62
   0   4  10    7.00    4.63
   0   4  11    5.16    4.98
   0   4  11    5.85    3.66
   0   4  11   -0.70    4.17
   0   5  -9   11.67    4.91
   0   5  -9   32.35    7.57
   0   5  -8   14.35    5.55
   0   5  -8    9.99    3.82
   0   5  -8   15.65    5.25
   0   5  -7  164.14   11.54
   0  -5   7  158.69   10.36
   0  -5   7  153.29   12.40
   0   5  -7  170.64   13.24
   0   5  -7  165.85   10.45
   0   5  -7  159.55   11.25
   0   5  -7  152.90   10.57
   0  -5   6  175.90   11.24
   0  -5   6  161.91    9.67
   0   5  -6  165.69    9.58
   0   5  -6  166.09   10.96
   0   5  -6  186.61   13.14
   0  -5   6  185.33   12.92
   0   5  -6  154.02   10.99
   0   5  -6  150.48   10.58
   0   5  -5    3.05    3.50
   0  -5   5    3.43    3.21
   0   5  -5   -0.17    3.26
   0  -5   5    4.91    3.40
   0   5  -5    0.33    2.00
   0   5  -5    4.34    3.89
   0   5  -5    1.33    2.80
   0  -5   5    1.54    2.19
   0  -5   5    0.19    2.88
   0  -5   4  471.25   17.97
   0   5  -4  445.60   17.93
   0  -5   4  470.43   18.73
   0   5  -4  450.15   14.94
   0  -5   4  455.58   17.05
   0   5  -4  453.97   18.16
   0   5  -4  448.61   12.27
   0  -5   4  444.89   18.55
   0   5  -4  496.14   19.96
   0  -5   4  479.13   15.17
   0   5  -4  474.24   17.62
   0   5  -3  548.74   19.95
   0   5  -3  556.48   14.42
   0  -5   3  586.59   18.98
   0   5  -3  560.95   15.57
   0   5  -3  602.43   19.80
   0  -5   3  569.57   19.75
   0   5  -3  556.93   16.46
   0  -5   3  572.59   16.53
   0  -5   3  541.93   20.28
   0   5  -3  570.25   21.17
   0  -5   3  564.80   19.23
   0   5  -2  129.91    6.29
   0  -5   2  155.39   10.32
   0  -5   2  129.88    8.50
   0   5  -2  128.91    9.06
   0   5  -2  121.07    7.37
   0  -5   2  149.67    9.26
   0   5  -2  145.43    6.99
   0  -5   2  131.43    8.58
   0   5  -2  148.27   10.10
   0   5  -2  135.84    9.17
   0  -5   2  144.98    7.68
   0   5  -1  180.52   10.66
   0  -5   1  198.83    9.28
   0  -5   1  196.97    9.88
   0  -5   1  183.64   10.25
   0   5  -1  192.80   11.41
   0   5  -1  187.60    7.92
   0   5  -1  180.77    8.15
   0  -5   1  184.43   11.10
   0   5  -1  194.19    8.24
   0  -5   1  191.64   10.36
   0   5   0  947.13   26.93
   0   5   0  940.55   21.58
   0  -5   0  917.97   23.62
   0  -5   0  917.22   26.79
   0   5   0  909.68   21.77
   0  -5   0  932.56   22.89
   0  -5   0  943.39   25.76
   0   5   0  882.13   19.89
   0   5   0  986.37   24.74
   0  -5   0  934.42   25.92
   0  -5   0  937.28   26.04
   0  -5  -1  211.93    9.68
   0   5   1  208.23    8.97
   0  -5  -1  194.48   10.89
   0  -5  -1  203.52   11.45
   0   5   1  211.57    9.65
   0  -5  -1  200.00   11.03
   0   5   1  228.43   10.29
   0  -5  -1  214.99   10.55
   0  -5  -1  206.76    9.02
   0  -5  -1  203.94   11.27
   0  -5  -2  185.47    9.51
   0   5   2  181.52    9.36
   0   5   2  171.06   10.33
   0   5   2  182.01    8.82
   0  -5  -2  193.84    8.22
   0   5   2  195.34    7.14
   0   5   3  643.55   14.78
   0  -5  -3  690.61   20.28
   0   5   3  625.77   20.86
   0   5   3  642.13   19.01
   0  -5  -3  652.88   16.31
   0   5   3  659.05   20.16
   0   5   4  169.96   10.42
   0   5   4  163.04   10.21
   0   5   4  161.47    6.89
   0  -5  -4  170.05    7.12
   0  -5  -4  174.97   10.12
   0   5   5   13.33    3.60
   0   5   5   15.69    4.11
   0   5   5   18.50    2.92
   0  -5  -5   18.89    4.02
   0  -5  -5   23.51    2.86
   0   5   5   21.20    2.66
   0   5   6   82.50    4.60
   0   5   6   82.51    7.61
   0   5   6   84.22    8.36
   0  -5  -6   91.55    8.44
   0   5   6   75.59    7.42
   0   5   6   79.22    5.99
   0   5   7   72.50    4.44
   0   5   7   78.26    8.39
   0   5   7   66.71    7.47
   0   5   7   78.93    7.78
   0  -5  -7   64.19    7.33
   0   5   7   60.52    5.84
   0   5   7   61.29    4.87
   0   5   8   -0.71    2.81
   0   5   8    3.72    4.50
   0   5   8    4.81    4.04
   0   5   8    1.05    3.59
   0  -5  -8    8.55    4.46
   0   5   9   28.39    6.46
   0   5   9   25.18    5.94
   0  -5  -9   27.06    5.97
   0   5   9   28.38    5.60
   0   5   9   29.17    5.71
   0   5  10   -0.46    4.37
   0   5  10    6.30    4.53
   0   5  10   -2.15    3.77
   0   5  10   -0.08    4.31
   0   5  11   19.02    6.20
   0   5  11    8.20    4.94
   0   6  -8    0.26    3.93
   0   6  -7   19.80    5.72
   0  -6   7   17.72    6.29
   0   6  -7   13.94    5.12
   0   6  -7   20.61    5.83
   0   6  -7   13.13    5.87
   0   6  -6  285.92   15.86
   0  -6   6  271.90   15.12
   0   6  -6  270.33   15.83
   0   6  -6  269.42   15.51
   0   6  -6  283.58   17.66
   0  -6   6  268.24   17.02
   0   6  -5   53.26    7.40
   0  -6   5   63.80    7.44
   0   6  -5   64.55    7.43
   0   6  -5   55.89    7.34
   0  -6   5   59.56    8.38
   0   6  -5   50.07    7.55
   0  -6   5   52.41    5.41
   0  -6   5   47.87    7.18
   0   6  -5   58.03    5.63
   0  -6   4   23.10    4.94
   0  -6   4   14.03    3.20
   0  -6   4   11.13    4.23
   0   6  -4   16.58    4.65
   0   6  -4   14.42    4.29
   0   6  -4   11.07    4.62
   0   6  -4   14.77    4.97
   0  -6   4   19.14    4.97
   0  -6   3  129.75    9.73
   0  -6   3  134.77    9.66
   0   6  -3  114.69    9.71
   0   6  -3  126.38    9.73
   0  -6   3  122.41    9.64
   0  -6   3  127.75   10.65
   0   6  -3  124.59   10.05
   0   6  -3  141.92   11.40
   0  -6   3  131.69    7.97
   0   6  -3  128.00    6.34
   0   6  -2  385.43   17.97
   0   6  -2  359.88   12.50
   0   6  -2  354.63   16.73
   0  -6   2  342.38   16.90
   0  -6   2  387.55   16.47
   0  -6   2  367.73   15.64
   0   6  -2  356.61   11.78
   0  -6   2  362.12   15.81
   0  -6   2  364.32   13.87
   0   6  -2  369.03   16.89
   0  -6   1   18.56    4.25
   0   6  -1   24.03    3.14
   0   6  -1   19.56    4.98
   0   6  -1   18.16    2.93
   0   6  -1   18.80    2.97
   0  -6   1   21.79    4.21
   0  -6   1   23.67    3.80
   0  -6   1   12.99    3.77
   0   6  -1   15.24    4.26
   0  -6   1   16.67    4.61
   0   6   0  260.93    9.64
   0  -6   0  274.15   14.65
   0   6   0  293.87   15.11
   0   6   0  261.38   13.68
   0   6   0  267.50   10.61
   0  -6   0  268.90   13.73
   0   6   0  297.29   11.50
   0  -6   0  278.46   13.77
   0  -6   0  266.16   12.21
   0  -6   0  288.93   12.25
   0  -6  -1 1000.40   28.65
   0   6   1  929.16   23.27
   0  -6  -1  975.25   26.41
   0  -6  -1  964.83   24.04
   0   6   1 1020.11   26.69
   0   6   1  977.54   24.90
   0  -6  -1  932.50   28.71
   0  -6  -1 1004.48   28.54
   0  -6  -1  996.73   25.14
   0   6   2   50.95    6.69
   0  -6  -2   51.80    6.70
   0   6   2   68.21    4.41
   0  -6  -2   70.15    6.33
   0  -6  -2   75.43    5.58
   0  -6  -2   59.46    6.66
   0   6   2   66.03    6.36
   0   6   2   66.87    5.66
   0  -6  -2   61.35    6.98
   0  -6  -3  242.62   12.13
   0   6   3  221.77    7.62
   0   6   3  216.30   11.66
   0  -6  -3  232.88    9.41
   0   6   4  203.38    7.68
   0  -6  -4  200.19   11.75
   0   6   4  196.59   11.80
   0   6   4  197.45   12.40
   0  -6  -4  220.68    8.79
   0  -6  -5   53.64    4.18
   0   6   5   51.49    6.89
   0   6   5   41.84    3.88
   0  -6  -5   35.24    5.44
   0   6   5   41.34    6.45
   0   6   6   48.17    3.86
   0   6   6   54.17    7.00
   0   6   6   52.55    4.94
   0   6   6   48.35    7.37
   0   6   6   59.50    7.77
   0  -6  -6   52.55    7.06
   0  -6  -6   66.21    4.63
   0  -6  -7   29.82    6.02
   0   6   7   34.14    5.70
   0   6   7   21.90    3.70
   0   6   7   24.23    4.07
   0   6   7   27.18    5.85
   0   6   7   24.37    5.96
   0   6   8   10.85    4.46
   0  -6  -8   24.48    6.29
   0   6   8   14.10    5.57
   0   6   8   17.77    3.98
   0   6   8   21.93    5.43
   0   6   9   -0.53    3.87
   0  -6  -9    3.41    5.05
   0   6   9    3.69    4.54
   0   6   9    1.93    4.05
   0  -6 -10   24.37    7.02
   0   6  10   14.00    5.03
   0   7  -7    6.63    4.60
   0   7  -7   12.43    4.56
   0   7  -7   10.96    4.90
   0  -7   6   15.15    6.14
   0   7  -6   13.77    6.11
   0   7  -6   13.76    5.16
   0   7  -6    5.82    4.65
   0  -7   6   13.18    4.97
   0   7  -6   14.93    5.03
   0   7  -5   93.43   10.24
   0   7  -5   98.19   10.21
   0  -7   5  114.74   10.56
   0  -7   5   92.99   10.73
   0   7  -5   87.87   10.19
   0  -7   5   94.37    9.96
   0   7  -5  108.12   11.48
   0   7  -4   33.89    6.75
   0  -7   4   51.11    7.09
   0   7  -4   49.72    7.96
   0  -7   4   40.28    7.06
   0   7  -4   32.49    6.48
   0  -7   4   48.66    7.45
   0   7  -4   34.25    6.56
   0  -7   3  144.58   11.12
   0  -7   3  162.23    9.34
   0  -7   3  143.58   12.21
   0   7  -3  136.66   11.36
   0   7  -3  159.08   12.92
   0   7  -3  160.98   12.36
   0  -7   3  152.28   11.29
   0  -7   3  153.30   11.24
   0   7  -3  155.97   11.96
   0   7  -2  119.17   11.08
   0   7  -2  102.26    9.73
   0   7  -2   82.08    8.87
   0   7  -2  107.58    6.45
   0  -7   2  108.75    9.61
   0  -7   2  108.25    7.89
   0  -7   2  126.10   10.05
   0  -7   2  107.97   10.36
   0  -7   2  107.03    8.92
   0   7  -1  176.11    8.81
   0  -7   1  179.23   11.78
   0  -7   1  186.01   10.56
   0   7  -1  197.13   13.51
   0  -7   1  176.66   11.63
   0  -7   1  177.87   12.77
   0  -7   1  188.51   11.19
   0   7  -1  175.33   12.34
   0  -7   0   69.70    7.59
   0  -7   0   65.76    6.54
   0  -7   0   84.47    8.81
   0  -7   0   69.37    7.73
   0   7   0   57.70    7.11
   0   7   0   74.10    6.10
   0  -7   0   70.78    6.74
   0  -7  -1    8.31    4.29
   0  -7  -1    1.01    2.26
   0   7   1    2.90    2.86
   0  -7  -1    4.67    3.46
   0   7   1    5.90    3.67
   0   7   1    6.83    2.52
   0  -7  -1    2.95    3.53
   0  -7  -1    3.55    3.07
   0  -7  -2  361.63   17.23
   0  -7  -2  371.87   16.49
   0   7   2  373.49   18.13
   0  -7  -2  378.08   13.78
   0  -7  -2  363.03   17.94
   0   7   2  370.12   15.36
   0   7   2  403.55   11.37
   0  -7  -2  370.15   17.51
   0  -7  -2  391.66   15.62
   0   7   3   -0.53    4.09
   0  -7  -3    1.19    3.28
   0  -7  -3   -1.53    2.76
   0   7   3    3.26    1.35
   0  -7  -3    0.64    3.15
   0   7   3    0.84    2.80
   0  -7  -3    2.70    2.29
   0  -7  -3   -3.00    4.27
   0   7   4   40.25    6.26
   0  -7  -4   53.66    6.67
   0   7   4   52.59    3.54
   0  -7  -4   59.48    4.87
   0   7   4   59.77    7.56
   0   7   5  122.64   10.85
   0   7   5  130.20   10.69
   0  -7  -5  136.71    7.04
   0  -7  -5  146.28   11.18
   0   7   6   -1.69    3.76
   0   7   6   -6.89    3.67
   0   7   6   -3.83    5.00
   0  -7  -6    6.65    4.24
   0   7   6   -1.51    3.03
   0   7   7    7.31    4.12
   0   7   7    7.03    5.32
   0   7   7   14.22    3.70
   0   7   7   12.55    3.54
   0   7   7   12.15    5.03
   0  -7  -7   13.87    5.05
   0   7   8   25.32    6.37
   0   7   8   15.27    5.95
   0   7   8   19.49    6.20
   0  -7  -8   27.09    6.70
   0   7   9   24.90    6.36
   0   7   9    4.23    5.10
   0   7   9    6.91    5.51
   0  -7  -9   12.86    6.62
   0  -8   6    4.21    4.44
   0   8  -6    0.02    4.66
   0   8  -6    6.86    4.79
   0   8  -5   53.03    8.53
   0  -8   5   51.28    9.18
   0   8  -5   72.22    9.69
   0  -8   5   55.49    8.24
   0  -8   5   62.94    8.94
   0   8  -5   61.84    9.19
   0   8  -4   53.54    8.80
   0  -8   4   74.18    8.87
   0  -8   4   90.07   10.84
   0   8  -4   67.77   10.00
   0  -8   4   53.73    7.95
   0   8  -4   65.66    9.39
   0  -8   3   -4.88    5.22
   0   8  -3    2.17    4.98
   0  -8   3   -4.37    4.34
   0   8  -3    3.00    4.28
   0   8  -3   -3.22    4.65
   0  -8   3   -0.37    3.53
   0  -8   2   50.33    6.95
   0   8  -2   54.53    7.95
   0   8  -2   49.62    7.56
   0  -8   2   47.74    7.64
   0  -8   2   47.98    7.12
   0  -8   2   48.31    7.10
   0   8  -2   53.39    8.56
   0  -8   1  133.01   10.92
   0  -8   1  138.92    9.52
   0   8  -1  146.78   12.35
   0  -8   1  135.68   10.85
   0  -8   1  111.89   10.81
   0  -8   1  119.61    9.58
   0   8  -1  124.22   11.11
   0  -8   0    7.30    3.46
   0   8   0    7.20    2.75
   0  -8   0    6.13    3.85
   0  -8   0    5.17    3.80
   0   8   0    2.96    3.48
   0  -8   0   10.47    4.55
   0  -8   0    0.09    3.51
   0  -8  -1   14.53    4.94
   0  -8  -1    9.81    4.28
   0   8   1    8.24    3.28
   0  -8  -1    8.10    3.25
   0  -8  -1   15.77    4.09
   0  -8  -1    7.28    3.94
   0   8   1    9.01    4.88
   0   8   2  144.22   11.70
   0  -8  -2  155.27    9.16
   0   8   2  162.74   10.43
   0  -8  -2  162.56   11.17
   0   8   2  157.72   12.34
   0  -8  -2  161.15   12.34
   0  -8  -2  163.56   12.18
   0  -8  -2  158.86   10.09
   0  -8  -2  160.70   11.96
   0  -8  -3   -6.92    4.36
   0  -8  -3   -1.77    2.88
   0   8   3    4.07    4.26
   0  -8  -3    1.21    2.04
   0  -8  -3    5.05    3.20
   0  -8  -3   11.25    4.87
   0   8   3    8.75    5.23
   0   8   3    5.07    3.48
   0  -8  -3    4.28    4.13
   0  -8  -4    5.66    4.44
   0  -8  -4   13.32    4.83
   0   8   4    4.50    4.45
   0  -8  -4    0.12    3.81
   0  -8  -4    8.68    3.92
   0   8   4    6.73    3.76
   0   8   4    6.90    4.23
   0  -8  -5   57.93    8.15
   0   8   5   45.38    7.07
   0   8   5   67.42    7.75
   0   8   5   53.34    8.24
   0   8   5   52.10    7.17
   0   8   6    9.42    5.05
   0   8   6    7.39    3.86
   0  -8  -6    9.89    4.67
   0   8   6    5.63    3.82
   0   8   6    5.79    5.34
   0   8   7   -1.96    4.19
   0  -8  -7   -7.28    5.61
   0   8   7   -7.50    6.24
   0   8   7   -3.55    3.60
   0   8   7    4.12    5.02
   0   8   7    5.41    3.68
   0   8   8   -2.27    4.43
   0  -8  -8    2.40    4.81
   0   8   8    7.67    4.99
   0  -9   4   16.49    5.78
   0  -9   4   14.45    5.44
   0  -9   3   63.53    9.89
   0  -9   3   74.53    9.19
   0  -9   3   68.35    8.93
   0  -9   2    1.81    5.27
   0  -9   2    0.92    4.00
   0  -9   2    3.43    3.85
   0   9  -2    4.18    5.22
   0   9  -2   -0.31    4.21
   0  -9   1   39.44    6.81
   0  -9   1   47.65    7.11
   0   9  -1   36.42    7.64
   0  -9   1   44.68    7.01
   0   9  -1   30.49    6.72
   0  -9   1   26.06    6.24
   0  -9   0   67.75    8.41
   0   9   0   73.20    9.36
   0   9   0   73.95    9.40
   0  -9   0   68.33    7.33
   0  -9   0   59.11    7.70
   0  -9   0   64.93    8.68
   0  -9  -1    2.72    2.95
   0  -9  -1    0.30    3.85
   0  -9  -1    5.43    4.78
   0   9   1    1.86    4.39
   0   9   1    7.08    4.98
   0  -9  -1   -0.11    3.81
   0  -9  -1   -0.56    2.72
   0   9   1   -3.75    4.17
   0   9   2   16.65    6.03
   0  -9  -2   33.27    7.06
   0   9   2   17.36    5.40
   0  -9  -2   25.63    4.38
   0  -9  -2   19.21    5.56
   0  -9  -2   24.52    5.83
   0  -9  -2   17.13    4.94
   0   9   2   24.46    4.95
   0   9   2   23.09    6.26
   0   9   3   20.62    5.43
   0  -9  -3   21.45    4.66
   0   9   3   18.86    6.45
   0  -9  -3   17.13    5.53
   0   9   3   24.40    6.07
   0  -9  -3   16.28    5.18
   0  -9  -3   28.45    5.84
   0  -9  -3   22.53    6.27
   0   9   3   19.39    4.96
   0   9   4   43.98    7.41
   0   9   4   42.38    8.13
   0  -9  -4   53.26    7.72
   0   9   4   49.05    7.64
   0   9   4   45.07    6.98
   0  -9  -4   32.03    6.45
   0  -9  -4   34.71    7.34
   0  -9  -4   42.59    6.55
   0  -9  -4   57.71    8.56
   0  -9  -5   17.99    5.34
   0  -9  -5   15.82    5.39
   0   9   5   16.03    5.27
   0   9   5   12.09    4.79
   0  -9  -5    8.54    4.78
   0  -9  -5   18.18    5.73
   0   9   5   19.98    5.43
   0   9   5   12.32    5.77
   0  -9  -6    6.82    4.49
   0   9   6   12.64    4.50
   0   9   6    0.52    4.98
   0   9   6    1.17    3.70
   0  -9  -7    4.23    4.55
   0  -9  -8   23.24    6.98
   0 -10   1   13.30    5.35
   0 -10   1    7.33    4.73
   0 -10   0   -0.85    4.21
   0 -10   0    5.99    4.08
   0 -10   0   16.19    6.32
   0  10   0   12.28    5.80
   0  10   1   26.86    6.82
   0 -10  -1   31.68    6.71
   0 -10  -1   30.33    6.38
   0 -10  -1   36.27    7.28
   0 -10  -2   -3.61    4.41
   0  10   2   -1.81    5.06
   0 -10  -2   -5.71    4.28
   0 -10  -2   -3.88    4.45
   0 -10  -3   18.75    5.74
   0 -10  -3   13.35    5.55
   0  10   3   10.92    5.80
   0  10   3    8.28    4.58
   0 -10  -3   23.56    6.20
   0  10   4   -3.06    4.64
   0  10   4   -0.21    3.90
   0  10   4   -9.77    5.85
   0 -10  -4   -2.33    4.33
   0 -10  -4    8.15    5.37
   0 -10  -4    6.69    5.24
   0  10   5    4.41    4.65
   0  10   5    1.91    4.13
   0 -10  -5    5.38    5.25
   0 -10  -5   -4.37    5.35
   0 -10  -5   10.84    5.78
   0  10   5    0.22    4.05
   0 -10  -5    1.25    4.79
   0  10   6   12.15    5.54
   0  10   6    6.27    4.30
   1 -10  -4   17.47    6.32
   1 -10  -3   -2.97    4.33
   1 -10  -3   -3.41    4.65
   1 -10  -2   -1.48    4.16
   1 -10  -2  -14.35    6.58
   1 -10  -2   -6.22    5.12
   1 -10  -1   10.26    5.25
   1 -10  -1   12.49    5.78
   1 -10  -1    8.23    3.99
   1 -10   0    9.66    4.68
   1 -10   0   14.28    5.73
   1 -10   0   11.38    5.34
   1 -10   1    7.17    5.14
   1 -10   1    2.11    3.87
   1 -10   1   -0.28    4.29
   1  -9  -7   -7.73    5.44
   1  -9  -6   -0.35    4.74
  -1   9   6    0.30    4.31
  -1   9   6   -1.37    3.89
  -1   9   6    4.76    4.50
  -1   9   5   -0.73    4.17
  -1   9   5   -0.37    4.07
   1  -9  -5   -2.65    4.69
   1  -9  -5   -0.07    4.54
   1  -9  -5   -3.76    5.32
  -1   9   4    6.98    5.27
  -1   9   4   13.73    4.77
  -1   9   4    4.85    4.60
   1  -9  -4   11.79    5.46
   1  -9  -4    9.25    5.14
   1  -9  -4   20.11    6.62
  -1   9   3   12.24    5.98
   1  -9  -3    3.14    4.64
   1  -9  -3   13.32    5.59
  -1   9   3   15.56    5.82
  -1   9   3    9.17    4.17
   1  -9  -3   17.37    5.85
   1  -9  -2    5.03    5.01
  -1   9   2    5.41    5.31
  -1   9   2   -1.68    4.51
   1  -9  -2    0.45    4.02
  -1   9   2    0.18    4.13
   1  -9  -2   -8.36    3.72
   1  -9  -2    0.90    4.40
  -1   9   1   25.80    7.07
   1  -9  -1   26.90    6.66
   1  -9  -1   11.04    4.01
   1  -9  -1    6.01    4.83
   1  -9  -1   14.29    5.03
  -1   9   1   16.35    5.41
   1  -9   0   11.78    5.80
  -1   9   0    7.66    4.88
  -1   9   0    1.37    5.07
   1  -9   0    5.90    4.17
   1  -9   0    6.20    3.95
   1  -9   0    6.82    4.82
   1  -9   1   12.59    4.88
   1  -9   1    9.28    4.83
  -1   9  -1   -2.59    5.00
   1  -9   1    3.41    4.46
   1  -9   1    1.23    3.93
  -1   9  -1    7.20    5.05
   1  -9   2    4.51    4.97
   1  -9   2   15.37    5.32
   1  -9   2    9.37    4.30
  -1   9  -2    0.31    5.19
   1  -9   2   14.62    4.91
   1  -9   3   34.50    7.42
   1  -9   3   45.53    7.71
   1  -9   3   47.73    8.29
   1  -9   3   30.80    7.21
   1  -8  -8   11.94    5.24
   1  -8  -7   15.49    5.20
  -1   8   7   15.98    6.67
  -1   8   7   22.09    6.55
  -1   8   7   27.10    6.95
  -1   8   6    2.49    4.68
  -1   8   6    6.54    5.63
  -1   8   6    2.75    5.79
  -1   8   6    7.94    4.34
   1  -8  -6    3.77    3.93
  -1   8   5    8.43    5.39
   1  -8  -5    1.95    3.78
  -1   8   5    6.14    4.08
  -1   8   5    3.43    3.86
  -1   8   4   15.40    5.25
   1  -8  -4    9.96    3.08
   1  -8  -4    3.73    3.95
  -1   8   4   12.08    5.46
   1  -8  -4   -0.69    4.50
   1  -8  -4   12.60    5.47
  -1   8   4    6.42    3.97
   1  -8  -4   10.14    4.42
  -1   8   3   11.64    4.05
  -1   8   3   15.41    5.21
   1  -8  -3   14.29    3.69
   1  -8  -3    0.50    4.42
   1  -8  -3   13.49    4.83
   1  -8  -3   18.99    5.97
   1  -8  -3   10.84    3.54
  -1   8   3   12.36    4.54
   1  -8  -2    6.53    3.50
  -1   8   2    7.07    5.34
   1  -8  -2    1.16    2.35
   1  -8  -2    7.00    3.41
  -1   8   2    3.88    3.23
   1  -8  -2   -2.53    3.87
   1  -8  -2   10.24    5.25
   1  -8  -2    5.06    4.30
  -1   8   2    6.60    4.09
   1  -8  -1   24.06    6.05
   1  -8  -1   20.36    5.33
   1  -8  -1   13.32    5.11
   1  -8  -1   19.54    4.13
  -1   8   1   23.90    5.77
   1  -8  -1   28.02    5.21
  -1   8   1   20.56    4.14
   1  -8   0   80.97    9.30
   1  -8   0   82.62    8.06
  -1   8   0   94.42   10.16
   1  -8   0   91.15    9.60
   1  -8   0   80.45    8.80
   1  -8   1   23.24    5.51
   1  -8   1   20.43    5.38
   1  -8   1   19.05    5.02
  -1   8  -1   25.13    6.07
   1  -8   1   15.80    5.82
  -1   8  -1   23.69    5.91
  -1   8  -1   25.76    6.63
  -1   8  -2   10.52    5.46
  -1   8  -2    6.11    4.67
   1  -8   2    2.00    3.58
   1  -8   2    1.32    3.87
   1  -8   2    4.29    4.21
   1  -8   2    2.75    3.78
  -1   8  -2    9.71    5.23
  -1   8  -3   59.88    8.56
   1  -8   3   68.14    8.51
   1  -8   3   50.29    7.90
  -1   8  -3   69.58    9.41
   1  -8   3   59.81    8.53
   1  -8   3   63.19    8.73
  -1   8  -3   86.43   10.43
  -1   8  -4   23.48    6.32
  -1   8  -4   41.61    8.37
   1  -8   4   34.32    7.09
   1  -8   4   29.11    6.84
  -1   8  -4   49.01    8.57
   1  -8   4   29.90    6.59
   1  -8   4   43.01    8.07
  -1   8  -5    6.71    5.04
  -1   8  -5    9.90    5.76
  -1   8  -5   -3.51    6.06
   1  -8   5   18.12    6.32
   1  -8   5   10.38    5.82
   1  -8   5    9.52    5.67
   1  -7  -9   20.24    6.75
  -1   7   8    5.07    5.42
  -1   7   8    3.67    4.52
  -1   7   8   -2.65    4.77
   1  -7  -8    1.92    4.15
  -1   7   7    1.52    3.99
  -1   7   7    1.21    4.29
  -1   7   7   -3.37    3.92
   1  -7  -7    7.68    4.95
  -1   7   6    3.45    4.01
  -1   7   6   -0.72    4.66
  -1   7   6   -1.17    4.38
  -1   7   6    5.34    3.34
   1  -7  -6    6.95    3.99
  -1   7   5   12.50    5.18
   1  -7  -5   18.16    4.94
  -1   7   5   13.70    3.99
  -1   7   5   10.25    4.56
   1  -7  -5    9.09    2.96
  -1   7   4   14.03    5.62
  -1   7   4    1.40    3.27
  -1   7   4    7.59    3.98
   1  -7  -4    6.65    2.58
   1  -7  -4    6.38    3.42
  -1   7   3   70.51    8.76
   1  -7  -3   72.58    8.03
  -1   7   3   62.09    6.80
   1  -7  -3   74.76    6.79
  -1   7   3   66.12    7.55
   1  -7  -3   74.63    8.86
   1  -7  -3   89.30    9.77
   1  -7  -3   74.72    6.97
   1  -7  -2  152.72    9.07
   1  -7  -2  142.01    9.23
  -1   7   2  146.05   10.99
   1  -7  -2  134.45   11.19
   1  -7  -2  159.45   12.18
  -1   7   2  136.92    9.36
   1  -7  -2  146.60   10.79
   1  -7  -1    7.57    3.45
   1  -7  -1    7.22    3.30
   1  -7  -1    9.71    4.74
  -1   7   1    9.43    4.09
   1  -7  -1   11.95    3.40
   1  -7  -1    7.11    2.46
   1  -7  -1    8.76    3.90
  -1   7   1   16.47    3.86
   1  -7   0   77.28    7.31
  -1   7   0   86.11    8.93
   1  -7   0   86.98    9.06
   1  -7   0   65.70    7.57
   1  -7   0   94.95    9.18
   1  -7   0   81.68    6.47
  -1   7   0   87.17    6.42
  -1   7  -1  180.65    8.43
   1  -7   1  186.07   13.04
  -1   7  -1  188.99   13.20
   1  -7   1  177.76   11.39
  -1   7  -1  175.18   13.05
   1  -7   1  186.78    9.18
   1  -7   1  180.27   12.25
   1  -7   1  177.07   12.69
   1  -7   2   28.08    3.43
   1  -7   2   29.53    5.70
  -1   7  -2   23.41    5.33
   1  -7   2   22.21    5.63
   1  -7   2   22.59    5.31
  -1   7  -2   35.98    6.62
  -1   7  -2   23.08    5.74
   1  -7   2   32.46    6.30
  -1   7  -3   63.84    8.20
   1  -7   3   50.73    7.02
  -1   7  -3   69.29    8.89
   1  -7   3   59.22    7.91
  -1   7  -3   57.21    8.45
   1  -7   3   55.84    7.77
   1  -7   3   53.72    7.80
  -1   7  -4  111.40   11.00
   1  -7   4  113.08   10.78
  -1   7  -4  100.03   10.98
  -1   7  -4  102.48   10.33
  -1   7  -4   99.70   10.62
   1  -7   4   89.50   10.05
   1  -7   4  116.11   10.66
   1  -7   4   93.94    9.93
  -1   7  -5  120.59   12.14
   1  -7   5  146.71   12.75
   1  -7   5  105.46   10.88
   1  -7   5  113.27   11.39
  -1   7  -5  130.89   12.09
   1  -7   5   98.85   10.24
  -1   7  -5  121.25   11.50
  -1   7  -5  119.30   11.49
   1  -7   6    7.66    5.07
  -1   7  -6   -4.28    4.89
  -1   7  -6    3.39    4.97
  -1   7  -6   11.25    5.61
   1  -7   6   -1.90    4.51
   1  -7   6    6.15    4.89
  -1   7  -6   -7.40    5.81
  -1   7  -7  123.68   12.28
  -1   7  -7  109.44   11.47
   1  -7   7  135.12   13.09
  -1   7  -7  117.53   12.27
  -1   6   9    7.62    4.96
  -1   6   9   -0.91    4.51
  -1   6   9   -0.29    4.61
   1  -6  -9    0.31    4.78
  -1   6   8   28.69    6.47
  -1   6   8   18.11    6.26
   1  -6  -8   22.47    5.38
  -1   6   8   23.31    5.61
   1  -6  -7   -0.30    3.54
  -1   6   7    6.52    3.77
  -1   6   7    4.37    4.57
  -1   6   7    6.24    4.82
   1  -6  -7    2.75    2.45
   1  -6  -6  149.10   11.11
   1  -6  -6  155.01    8.67
  -1   6   6  135.72   11.15
  -1   6   6  144.08    8.98
  -1   6   6  129.39   11.09
  -1   6   6  138.85   11.21
   1  -6  -5   47.83    4.91
  -1   6   5   46.87    6.49
  -1   6   5   47.80    5.50
  -1   6   5   32.14    6.09
   1  -6  -5   50.61    6.23
  -1   6   5   38.81    3.11
  -1   6   4   12.85    4.07
  -1   6   4    7.38    3.16
   1  -6  -4    2.83    2.14
   1  -6  -4   11.36    3.65
  -1   6   4    7.74    4.81
  -1   6   3  100.29    8.22
  -1   6   3   96.21    9.39
   1  -6  -3  100.63    7.63
  -1   6   3  101.26    5.70
   1  -6  -3  105.57    7.18
  -1   6   3  103.85    8.21
  -1   6   2   20.89    4.05
  -1   6   2   22.47    3.21
   1  -6  -2   16.29    4.57
  -1   6   2   27.72    4.94
   1  -6  -2   23.01    3.81
   1  -6  -2   15.08    4.00
   1  -6  -2   25.01    5.13
   1  -6  -2   15.96    3.50
  -1   6   2   19.13    2.90
  -1   6   1  411.93   14.58
   1  -6  -1  436.21   15.93
   1  -6  -1  399.68   16.90
  -1   6   1  416.83   14.65
   1  -6  -1  442.48   15.52
   1  -6  -1  403.70   18.51
   1  -6  -1  382.46   18.00
  -1   6   1  389.38   12.41
   1  -6  -1  436.25   14.08
  -1   6   1  409.92   17.39
  -1   6   0   41.91    4.34
  -1   6   0   46.93    3.57
   1  -6   0   55.56    7.33
  -1   6   0   46.85    6.33
  -1   6   0   43.12    2.82
   1  -6   0   31.71    5.41
   1  -6   0   36.92    5.21
   1  -6   0   48.95    6.65
  -1   6   0   50.24    6.38
   1  -6   0   38.79    4.51
  -1   6  -1   98.28    9.01
  -1   6  -1  109.82    5.69
  -1   6  -1  112.25    6.09
   1  -6   1  108.97    9.50
  -1   6  -1  103.19    4.84
  -1   6  -1  102.42    9.18
   1  -6   1  108.48    9.62
   1  -6   1  119.59    6.82
   1  -6   1  101.77    8.16
   1  -6   1  114.14    8.98
  -1   6  -2  525.74   20.97
  -1   6  -2  527.19   13.02
   1  -6   2  541.46   19.95
   1  -6   2  491.33   20.65
   1  -6   2  543.99   14.66
  -1   6  -2  549.02   21.90
  -1   6  -2  493.72   15.37
   1  -6   2  534.94   20.46
   1  -6   2  513.07   20.95
  -1   6  -3   12.58    4.67
  -1   6  -3    1.25    4.00
   1  -6   3    5.38    3.51
   1  -6   3    7.80    3.59
   1  -6   3    7.91    3.76
   1  -6   3    5.31    1.96
   1  -6   3    2.95    3.38
  -1   6  -3   -0.83    3.93
  -1   6  -3    0.90    3.46
  -1   6  -3    2.92    1.13
  -1   6  -4  107.02    9.96
   1  -6   4  114.36    9.96
   1  -6   4  118.72   10.59
   1  -6   4  118.14   10.10
   1  -6   4  120.76   10.24
  -1   6  -4  114.21   10.26
   1  -6   4  118.14    6.15
  -1   6  -4  114.53   10.04
  -1   6  -4  124.27   11.01
  -1   6  -5  251.62   15.14
   1  -6   5  265.41   15.39
  -1   6  -5  259.34   15.26
   1  -6   5  275.26   16.21
  -1   6  -5  287.47   17.08
   1  -6   5  292.43   16.68
  -1   6  -5  285.04   16.16
   1  -6   5  258.17   15.27
  -1   6  -6   40.35    6.66
  -1   6  -6   52.58    7.74
   1  -6   6   32.63    6.99
  -1   6  -6   53.79    7.86
   1  -6   6   39.33    7.01
   1  -6   6   42.34    7.28
  -1   6  -6   53.62    8.54
  -1   6  -7    9.14    5.33
   1  -6   7   13.00    5.09
  -1   6  -7   17.15    6.01
  -1   6  -7   10.02    4.90
  -1   6  -7   18.97    5.50
  -1   6  -8  145.75   13.08
   1  -5 -10   -0.83    4.75
  -1   5  10   -7.74    4.95
  -1   5   9   11.51    4.42
  -1   5   9   27.41    6.39
   1  -5  -9   29.48    6.92
  -1   5   9   17.14    6.14
  -1   5   8  102.42    9.56
  -1   5   8   94.08   10.23
   1  -5  -8  101.80   10.00
  -1   5   8   93.24    7.90
  -1   5   8  103.00    9.93
  -1   5   7   20.14    5.23
   1  -5  -7    8.29    4.22
  -1   5   7   11.27    4.36
  -1   5   7   11.44    2.41
  -1   5   7    9.32    4.26
  -1   5   7   12.11    3.32
  -1   5   6   -6.36    3.94
  -1   5   6    3.42    3.45
  -1   5   6    2.74    2.26
  -1   5   6   -0.01    1.87
  -1   5   6    0.47    3.51
   1  -5  -6    7.76    3.92
   1  -5  -5  144.90    9.66
  -1   5   5  147.03    6.73
  -1   5   5  141.54   10.29
  -1   5   5  154.37   10.46
  -1   5   5  160.63   10.72
  -1   5   5  159.39    8.56
  -1   5   4  114.15    9.43
  -1   5   4  108.41    8.47
  -1   5   4  113.33    4.35
  -1   5   4  117.35    7.65
   1  -5  -4  119.79    7.17
  -1   5   4  117.16    4.91
   1  -5  -4  117.71    8.06
  -1   5   3   -2.75    2.83
  -1   5   3    1.93    1.39
  -1   5   3   -0.39    1.60
  -1   5   3   -2.60    3.61
   1  -5  -3    1.09    1.94
  -1   5   3    1.34    2.40
   1  -5  -3   -0.42    2.04
  -1   5   3    0.32    0.44
  -1   5   2  634.67   18.94
  -1   5   2  679.79   20.53
   1  -5  -2  626.50   19.18
   1  -5  -2  694.58   18.72
   1  -5  -2  668.19   18.80
  -1   5   2  623.44   16.00
  -1   5   2  643.80   17.22
   1  -5  -1  247.71   11.07
   1  -5  -1  236.60   11.93
   1  -5  -1  229.62   13.11
   1  -5  -1  262.33   10.05
  -1   5   1  253.26   10.36
  -1   5   1  239.48    8.74
   1  -5  -1  239.35   13.36
  -1   5   1  246.46    9.82
  -1   5   1  235.67   11.84
  -1   5   0    5.31    1.83
   1  -5   0    2.52    1.88
  -1   5   0    3.61    2.98
   1  -5   0    6.83    2.81
   1  -5   0    5.01    3.08
  -1   5   0    5.83    1.16
  -1   5   0    6.22    1.59
  -1   5   0    6.99    3.52
  -1   5   0    3.61    2.14
   1  -5   0    5.82    3.56
   1  -5   0    4.87    2.87
   1  -5   1   12.53    3.82
  -1   5  -1   20.76    4.44
   1  -5   1   17.73    4.52
  -1   5  -1   18.67    2.59
  -1   5  -1   18.84    2.00
  -1   5  -1   18.12    4.18
   1  -5   1   12.71    3.24
  -1   5  -1   18.69    2.36
   1  -5   1   13.51    3.62
   1  -5   1   17.21    2.69
  -1   5  -2  575.88   20.83
   1  -5   2  569.21   20.46
  -1   5  -2  566.60   12.63
  -1   5  -2  583.61   12.90
   1  -5   2  559.20   19.39
   1  -5   2  582.78   19.79
  -1   5  -2  592.80   21.43
   1  -5   2  587.26   14.26
  -1   5  -2  554.41   15.75
  -1   5  -2  573.06   20.33
   1  -5   2  541.79   20.40
   1  -5   3  284.57   13.75
   1  -5   3  305.19    9.34
  -1   5  -3  286.13   14.42
  -1   5  -3  288.42    6.73
  -1   5  -3  297.97   14.96
  -1   5  -3  291.08    6.79
  -1   5  -3  293.57   12.04
  -1   5  -3  296.06    8.72
  -1   5  -3  296.22   14.48
   1  -5   3  283.07   14.30
   1  -5   3  293.83   14.23
   1  -5   3  283.42   14.06
  -1   5  -4    0.31    3.06
  -1   5  -4    0.22    3.12
   1  -5   4   -1.40    1.53
   1  -5   4   -1.32    3.55
  -1   5  -4    1.38    3.31
   1  -5   4    3.05    3.71
  -1   5  -4    0.70    1.49
   1  -5   4    0.74    2.99
  -1   5  -4    1.18    1.28
  -1   5  -4   -5.80    4.38
   1  -5   4    0.77    3.10
  -1   5  -4    0.50    1.35
   1  -5   5  337.58   16.78
  -1   5  -5  339.05   11.09
  -1   5  -5  328.36   16.04
   1  -5   5  350.98   17.27
  -1   5  -5  369.78   17.80
  -1   5  -5  352.84   16.46
   1  -5   5  326.99   15.70
   1  -5   5  316.29   15.90
  -1   5  -5  338.70   16.05
   1  -5   5  340.69   11.49
   1  -5   6  167.53    8.54
  -1   5  -6  152.46   11.33
   1  -5   6  165.49   12.31
  -1   5  -6  186.35   13.14
   1  -5   6  191.93   12.81
  -1   5  -6  163.70   11.23
   1  -5   6  181.43   13.14
  -1   5  -6  167.19   11.56
   1  -5   6  187.35   12.40
   1  -5   7   14.66    5.03
  -1   5  -7   12.60    4.59
  -1   5  -7    9.20    3.74
  -1   5  -7   10.36    4.06
  -1   5  -7    8.66    4.28
  -1   5  -8   56.92    7.07
  -1   5  -8   82.33    9.92
  -1   5  -8   68.27    8.76
  -1   5  -8   66.60    8.03
  -1   5  -9  118.24   11.35
  -1   4  11   21.50    5.80
  -1   4  10   25.88    5.42
  -1   4  10   36.06    7.44
  -1   4  10   25.96    5.90
   1  -4 -10   31.19    7.41
  -1   4   9   -4.26    3.11
   1  -4  -9    2.81    3.68
  -1   4   9   -2.21    4.38
  -1   4   8   21.46    5.07
  -1   4   8   29.51    5.31
  -1   4   8   32.45    6.24
   1  -4  -8   35.60    6.56
  -1   4   8   21.95    4.72
  -1   4   7   47.52    2.83
  -1   4   7   43.98    5.28
  -1   4   7   48.16    6.03
  -1   4   7   51.22    6.66
  -1   4   7   54.27    7.14
   1  -4  -7   50.38    6.77
  -1   4   6   41.94    4.68
  -1   4   6   40.62    5.45
  -1   4   6   39.02    5.32
   1  -4  -6   40.70    4.26
  -1   4   6   42.98    5.89
   1  -4  -6   39.95    5.47
  -1   4   6   39.72    3.91
  -1   4   6   38.74    3.24
  -1   4   5   94.58    7.60
  -1   4   5   91.69    5.43
   1  -4  -5   99.27    5.69
  -1   4   5   92.17    5.89
  -1   4   5   98.64    7.97
   1  -4  -5   92.68    7.31
  -1   4   5   85.67    7.22
  -1   4   5   92.92    5.74
   1  -4  -4  646.42   14.47
  -1   4   4  629.96   16.61
  -1   4   4  644.13   19.75
   1  -4  -4  629.62   18.56
  -1   4   4  611.63   19.71
   1  -4  -4  639.81   17.57
  -1   4   4  627.21   14.42
   1  -4  -3  134.78    7.39
   1  -4  -3  120.74    7.23
  -1   4   3  133.01    8.01
  -1   4   3  132.33    7.21
  -1   4   3  143.36    7.53
  -1   4   3  124.20    4.50
  -1   4   3  137.91    4.63
   1  -4  -3  152.87    7.53
  -1   4   3  135.93    8.86
  -1   4   2   67.19    5.43
  -1   4   2   63.22    4.53
   1  -4  -2   64.09    4.77
   1  -4  -2   66.97    5.11
   1  -4  -2   64.43    5.40
  -1   4   2   63.67    5.23
   1  -4  -2   68.01    5.32
  -1   4   2   65.60    3.76
  -1   4   1  533.43   13.27
  -1   4   1  526.58   13.75
  -1   4   1  552.72   17.59
  -1   4   1  513.73   14.64
   1  -4  -1  528.49   19.17
   1  -4  -1  566.19   14.53
   1  -4  -1  538.14   19.21
   1  -4  -1  527.67   17.00
   1  -4  -1  522.94   15.08
   1  -4  -1  544.91   16.82
   1  -4  -1  573.47   16.27
  -1   4   1  540.08   16.70
   1  -4   0  655.96   18.91
   1  -4   0  616.51   20.86
  -1   4   0  614.15   13.42
  -1   4   0  639.20   15.32
  -1   4   0  649.48   19.54
   1  -4   0  657.46   14.89
  -1   4   0  615.16   19.07
  -1   4   0  644.54   18.85
   1  -4   0  674.31   16.36
  -1   4   0  631.88   16.53
  -1   4   0  607.93   11.92
   1  -4   0  650.95   18.87
   1  -4   0  617.91   20.71
   1  -4   0  632.83   18.25
   1  -4   0  634.70   21.04
  -1   4  -1  299.87   12.74
  -1   4  -1  289.18   12.23
   1  -4   1  265.33   12.46
   1  -4   1  288.12   12.10
  -1   4  -1  278.91    8.17
  -1   4  -1  269.77    7.18
  -1   4  -1  290.58   13.16
  -1   4  -1  295.74   13.41
   1  -4   1  274.79   11.54
   1  -4   1  266.44   12.72
  -1   4  -1  280.03   12.33
   1  -4   1  280.03   13.06
   1  -4   1  280.65    8.76
  -1   4  -1  271.71   10.80
  -1   4  -1  283.52    8.37
   1  -4   1  275.86   11.90
  -1   4  -2  769.90   22.21
  -1   4  -2  747.24   18.03
   1  -4   2  739.91   20.75
   1  -4   2  764.94   21.97
   1  -4   2  721.40   22.26
  -1   4  -2  742.00   14.27
   1  -4   2  710.96   21.67
  -1   4  -2  760.14   14.88
   1  -4   2  778.21   15.71
  -1   4  -2  809.43   22.17
  -1   4  -2  761.93   21.78
  -1   4  -2  749.62   22.47
  -1   4  -3  535.29    9.82
  -1   4  -3  605.95   17.24
   1  -4   3  618.09   13.35
  -1   4  -3  626.59   19.49
  -1   4  -3  582.42   18.89
   1  -4   3  589.43   19.38
  -1   4  -3  544.22   10.03
  -1   4  -3  598.20   13.81
   1  -4   3  588.17   19.53
  -1   4  -3  580.49   12.37
   1  -4   3  577.09   18.80
  -1   4  -3  586.77   12.76
  -1   4  -3  629.33   20.06
   1  -4   3  604.80   18.54
   1  -4   4  297.77   14.18
   1  -4   4  311.68   14.24
  -1   4  -4  311.03    9.87
  -1   4  -4  299.36   13.32
  -1   4  -4  298.46   13.78
  -1   4  -4  305.79   13.64
   1  -4   4  323.60   13.80
  -1   4  -4  321.13   14.65
   1  -4   4  296.44   13.22
   1  -4   4  298.73    9.44
  -1   4  -4  313.48    9.37
   1  -4   5  285.82   13.62
   1  -4   5  284.09   13.40
  -1   4  -5  298.68   14.57
   1  -4   5  292.61   10.32
  -1   4  -5  301.90   13.81
  -1   4  -5  269.98   13.29
  -1   4  -5  305.89   10.42
  -1   4  -5  286.02   13.14
   1  -4   5  304.47   14.53
   1  -4   5  278.34   14.53
  -1   4  -5  281.30   10.06
  -1   4  -6  477.69   18.60
  -1   4  -6  464.67   15.09
   1  -4   6  485.28   18.78
   1  -4   6  482.46   19.45
  -1   4  -6  498.78   20.13
   1  -4   6  485.83   19.28
   1  -4   6  480.55   20.18
  -1   4  -6  443.20   17.50
  -1   4  -6  467.07   17.44
  -1   4  -7  248.20   14.67
  -1   4  -7  249.70   13.82
   1  -4   7  226.12   13.11
  -1   4  -7  237.79   11.44
  -1   4  -7  247.37   12.94
  -1   4  -7  228.14   12.07
  -1   4  -8   18.39    4.88
  -1   4  -8   21.55    4.58
  -1   4  -8   21.36    5.76
  -1   4  -8    8.62    3.21
  -1   4  -9  102.40   10.09
  -1   4  -9   88.89   10.07
  -1   3  11    0.52    3.59
   1  -3 -10   62.70    8.68
  -1   3  10   54.19    7.86
  -1   3  10   56.19    8.11
  -1   3  10   42.89    6.30
  -1   3   9   20.60    4.52
  -1   3   9   12.45    4.29
   1  -3  -9   15.19    5.06
  -1   3   9   13.08    4.94
  -1   3   8   18.06    4.44
  -1   3   8   26.38    5.23
  -1   3   8   24.50    4.32
   1  -3  -8   28.51    5.85
  -1   3   8   19.50    4.71
  -1   3   7  347.65   14.12
  -1   3   7  379.79   16.00
  -1   3   7  348.23   10.35
  -1   3   7  391.15   17.07
   1  -3  -7  369.11   16.62
  -1   3   7  369.78   15.39
  -1   3   6   15.65    3.90
  -1   3   6   18.29    3.57
  -1   3   6   17.13    2.50
  -1   3   6   10.74    1.21
  -1   3   6   12.29    3.59
   1  -3  -6    4.89    3.36
  -1   3   6   11.23    3.52
  -1   3   5   -0.54    1.05
  -1   3   5    0.02    1.94
   1  -3  -5    0.10    2.60
  -1   3   5    1.41    1.24
  -1   3   5    2.42    2.36
  -1   3   5   -0.25    2.21
  -1   3   5    0.68    0.63
  -1   3   5    6.16    2.97
   1  -3  -5    2.10    1.71
  -1   3   4  626.19   18.55
  -1   3   4  602.30   17.62
   1  -3  -4  631.70   17.83
   1  -3  -4  620.83   14.61
  -1   3   4  626.06   15.31
  -1   3   4  623.11   15.37
  -1   3   4  594.24   17.52
  -1   3   4  607.19   17.58
  -1   3   4  600.79   14.14
   1  -3  -3  121.79    4.66
   1  -3  -3  123.77    6.75
  -1   3   3  119.71    7.00
   1  -3  -3  119.32    6.51
   1  -3  -3  120.39    6.97
  -1   3   3  118.24    5.75
  -1   3   3  125.59    4.93
  -1   3   3  101.27    6.71
  -1   3   3  124.19    6.50
   1  -3  -3  117.81    6.00
   1  -3  -2 1218.10   25.45
  -1   3   2 1261.49   25.31
   1  -3  -2 1282.76   26.15
   1  -3  -2 1230.31   24.49
  -1   3   2 1202.44   19.81
  -1   3   2 1288.89   26.14
  -1   3   2 1239.28   20.66
  -1   3   2 1256.19   24.54
   1  -3  -1  855.24   18.80
  -1   3   1  877.52   20.82
  -1   3   1  851.74   17.12
  -1   3   1  852.52   18.71
   1  -3  -1  876.20   19.94
  -1   3   1  855.05   19.97
  -1   3   1  845.24   16.70
   1  -3  -1  870.71   17.58
   1  -3  -1  840.85   19.96
  -1   3   0 1056.57   23.40
   1  -3   0 1028.87   23.26
   1  -3   0 1102.05   19.60
   1  -3   0 1055.84   20.49
  -1   3   0 1017.63   20.80
   1  -3   0 1058.44   23.50
  -1   3   0 1022.13   19.84
  -1   3   0 1003.01   23.45
   1  -3   0 1014.07   26.54
   1  -3   0 1004.78   22.94
  -1   3   0 1008.42   16.68
   1  -3   0 1041.03   26.54
   1  -3   0 1065.83   26.86
  -1   3   0 1035.44   18.18
  -1   3   0 1056.39   24.56
  -1   3  -1    6.63    1.33
  -1   3  -1    9.11    2.63
   1  -3   1    5.80    1.98
   1  -3   1    3.59    2.27
  -1   3  -1    4.35    1.88
  -1   3  -1    8.01    1.25
   1  -3   1    8.04    2.17
   1  -3   1   11.95    2.66
  -1   3  -1   12.27    2.58
   1  -3   1    7.21    2.68
  -1   3  -1    9.33    2.13
  -1   3  -1    4.98    0.79
   1  -3   1    5.38    2.53
  -1   3  -1    5.37    2.25
  -1   3  -1    8.77    2.08
   1  -3   1    8.53    1.39
  -1   3  -1    8.26    2.78
  -1   3  -2   54.30    2.85
  -1   3  -2   55.46    4.56
   1  -3   2   55.74    4.76
  -1   3  -2   48.06    1.97
  -1   3  -2   54.15    4.51
  -1   3  -2   51.14    2.43
  -1   3  -2   51.76    3.74
   1  -3   2   53.47    4.45
  -1   3  -2   59.53    5.03
  -1   3  -2   68.82    5.56
   1  -3   2   54.44    5.12
  -1   3  -2   54.72    5.08
  -1   3  -2   55.57    4.87
  -1   3  -2   52.53    4.98
  -1   3  -2   49.90    4.56
   1  -3   2   53.84    2.63
  -1   3  -2   50.52    4.63
   1  -3   2   55.19    5.32
   1  -3   2   45.49    4.59
  -1   3  -2   52.47    4.52
  -1   3  -3  894.50   21.97
   1  -3   3  887.16   22.28
  -1   3  -3  857.14   22.59
   1  -3   3  866.43   21.49
  -1   3  -3  875.59   21.08
   1  -3   3  888.93   23.51
   1  -3   3  878.09   20.54
   1  -3   3  890.23   16.92
   1  -3   3  844.81   22.51
  -1   3  -3  884.18   22.19
  -1   3  -3  872.48   21.96
  -1   3  -3  899.85   22.50
  -1   3  -3  882.79   22.61
  -1   3  -3  918.06   23.33
  -1   3  -3  871.20   17.14
  -1   3  -3  861.98   21.70
  -1   3  -3  930.11   22.21
  -1   3  -3  867.93   16.60
  -1   3  -4  636.75   11.74
  -1   3  -4  668.40   15.15
  -1   3  -4  678.52   19.38
  -1   3  -4  679.95   19.34
  -1   3  -4  686.15   15.36
   1  -3   4  690.31   19.23
  -1   3  -4  657.62   18.58
   1  -3   4  683.79   15.27
   1  -3   4  654.19   19.71
   1  -3   4  677.24   18.75
   1  -3   4  683.31   19.30
  -1   3  -4  607.10   18.87
   1  -3   4  655.83   20.44
  -1   3  -4  679.46   20.04
  -1   3  -5  750.16   21.45
  -1   3  -5  700.28   20.43
   1  -3   5  726.61   22.80
  -1   3  -5  734.44   18.06
   1  -3   5  692.98   21.19
  -1   3  -5  768.41   22.39
   1  -3   5  746.96   21.54
   1  -3   5  738.84   17.94
   1  -3   5  704.89   21.68
  -1   3  -5  742.85   14.64
   1  -3   5  715.94   21.09
  -1   3  -5  757.83   17.89
  -1   3  -5  714.27   19.96
  -1   3  -6  701.70   20.09
  -1   3  -6  698.10   20.62
   1  -3   6  717.05   23.67
   1  -3   6  715.21   22.82
   1  -3   6  710.23   21.99
  -1   3  -6  736.39   16.26
  -1   3  -6  744.82   22.34
  -1   3  -6  740.13   19.05
  -1   3  -6  722.18   23.16
  -1   3  -6  743.96   19.90
   1  -3   6  740.65   23.14
  -1   3  -7  353.10   16.29
  -1   3  -7  328.85   13.13
   1  -3   7  348.76   16.46
  -1   3  -7  353.21   14.16
  -1   3  -7  336.76   13.12
  -1   3  -7  342.46   15.34
   1  -3   7  338.01   14.60
  -1   3  -8  130.12    9.37
  -1   3  -8  113.76    7.54
  -1   3  -8  117.50   10.06
  -1   3  -8  126.97    7.93
  -1   3  -8  124.06    9.78
   1  -3   8  112.29    8.80
  -1   3  -9   90.73    9.02
   1  -3   9   83.71    8.22
  -1   3  -9   77.39    8.20
  -1   3  -9  103.62   10.05
  -1   3 -10  112.15   10.56
  -1   3 -10  111.87   11.07
  -1   2  11    9.41    5.01
  -1   2  11   -1.09    3.60
  -1   2  10   32.37    6.36
   1  -2 -10   27.24    6.34
  -1   2  10   30.47    6.54
  -1   2  10   19.58    4.41
  -1   2   9   85.30    8.84
  -1   2   9  101.20    9.61
  -1   2   9   86.64    7.57
   1  -2  -9  104.07    9.91
   1  -2  -8   88.47    8.64
  -1   2   8   94.85    8.68
  -1   2   8   91.59    8.27
  -1   2   8   94.41    7.16
  -1   2   8   93.79    8.91
  -1   2   7  422.69   16.53
  -1   2   7  426.28   14.72
  -1   2   7  411.76   10.79
   1  -2  -7  447.29   17.82
  -1   2   7  425.12   17.18
  -1   2   7  428.63   17.12
   1  -2  -7  435.00   12.07
   1  -2  -6  458.81   16.87
  -1   2   6  455.14   16.31
  -1   2   6  452.30   14.59
   1  -2  -6  488.04   11.55
  -1   2   6  454.51   15.98
  -1   2   6  471.90   16.87
  -1   2   6  438.42   11.30
  -1   2   5  439.31   14.55
  -1   2   5  411.03   13.90
   1  -2  -5  437.23   13.52
   1  -2  -5  432.00   13.97
  -1   2   5  416.55   13.10
  -1   2   5  420.89   10.87
  -1   2   5  426.93   14.90
   1  -2  -5  404.83   14.59
   1  -2  -4  293.09   10.99
   1  -2  -4  289.74    9.46
  -1   2   4  279.70   11.10
  -1   2   4  289.66    8.57
  -1   2   4  286.55    9.99
   1  -2  -4  301.11   11.40
  -1   2   4  295.23   10.73
  -1   2   4  289.83   10.96
  -1   2   4  290.38   10.08
  -1   2   4  294.75    6.86
   1  -2  -4  291.73   11.05
  -1   2   3  735.88   16.02
  -1   2   3  716.01   17.45
   1  -2  -3  763.53   17.76
  -1   2   3  765.58   17.82
   1  -2  -3  773.44   18.54
  -1   2   3  745.63   18.38
   1  -2  -3  735.73   17.83
   1  -2  -3  738.35   15.39
  -1   2   3  758.62   17.82
  -1   2   3  739.20   15.84
  -1   2   3  740.84   14.53
  -1   2   2  715.54   16.54
  -1   2   2  710.67   14.77
   1  -2  -2  710.81   12.99
   1  -2  -2  724.04   15.77
  -1   2   2  688.42   17.12
  -1   2   2  729.33   13.54
   1  -2  -2  684.63   14.82
   1  -2  -2  721.91   15.90
  -1   2   2  707.91   15.68
   1  -2  -2  733.87   16.64
  -1   2   1  664.31   14.43
  -1   2   1  637.69   13.06
  -1   2   1  637.00   14.16
   1  -2  -1  664.94   14.24
   1  -2  -1  666.06   13.28
  -1   2   1  637.06   11.43
   1  -2  -1  658.70   14.49
  -1   2   1  637.80   14.72
  -1   2   0  429.34    9.72
   1  -2   0  456.04   12.25
  -1   2   0  437.62   11.29
   1  -2   0  429.28   11.20
  -1   2   0  449.44   11.58
   1  -2   0  391.71   13.73
   1  -2   0  413.88    9.46
   1  -2   0  447.35    8.58
   1  -2   0  433.67   14.23
   1  -2   0  439.55   14.05
   1  -2   0  400.79   10.84
  -1   2   0  420.12    9.39
  -1   2   0  419.32    8.11
  -1   2  -1 3680.95   60.52
  -1   2  -1 3662.02   58.62
   1  -2   1 3628.81   54.72
  -1   2  -1 3647.44   58.62
  -1   2  -1 3694.08   55.11
  -1   2  -1 3598.00   57.36
   1  -2   1 3642.84   57.43
   1  -2   1 3591.77   57.02
  -1   2  -1 3632.20   57.68
   1  -2   1 3661.78   60.54
   1  -2   1 3601.45   60.44
  -1   2  -1 3709.18   60.57
   1  -2   1 3579.38   61.20
   1  -2   1 3663.94   60.39
  -1   2  -1 3562.65   60.74
  -1   2  -1 3611.42   61.47
  -1   2  -1 3636.12   53.05
  -1   2  -2  318.25   10.03
   1  -2   2  320.73   10.38
   1  -2   2  312.63    8.86
  -1   2  -2  332.83    9.76
   1  -2   2  306.20    9.39
   1  -2   2  324.10   11.34
  -1   2  -2  324.99   10.14
  -1   2  -2  311.28    6.44
  -1   2  -2  317.61   10.09
   1  -2   2  300.99   10.53
   1  -2   2  311.87   10.17
  -1   2  -2  343.07   11.71
  -1   2  -2  325.83   10.87
  -1   2  -2  324.74   10.43
  -1   2  -2  331.78   10.38
  -1   2  -2  309.95   10.22
  -1   2  -2  320.04    6.76
   1  -2   2  315.29    6.55
   1  -2   2  298.52    9.80
  -1   2  -2  319.92    9.24
  -1   2  -2  330.78    9.85
   1  -2   3  130.16    6.84
  -1   2  -3  135.74    4.70
   1  -2   3  133.20    6.35
  -1   2  -3  133.85    6.34
  -1   2  -3  134.89    6.97
   1  -2   3  132.77    7.32
   1  -2   3  138.31    6.69
  -1   2  -3  141.37    6.78
   1  -2   3  136.97    7.03
   1  -2   3  129.63    6.60
  -1   2  -3  129.74    6.87
  -1   2  -3  137.28    6.92
  -1   2  -3  135.15    6.49
  -1   2  -3  140.78    7.73
  -1   2  -3  139.19    6.91
  -1   2  -3  134.72    6.40
  -1   2  -3  149.06    6.78
   1  -2   3  139.81    4.77
   1  -2   3  144.48    6.74
  -1   2  -3  130.05    4.75
  -1   2  -3  140.03    6.91
  -1   2  -4 1257.00   28.18
  -1   2  -4 1260.74   26.59
  -1   2  -4 1239.75   25.80
  -1   2  -4 1299.52   28.28
   1  -2   4 1266.02   28.30
  -1   2  -4 1271.59   24.25
   1  -2   4 1227.11   27.67
  -1   2  -4 1288.51   28.18
   1  -2   4 1269.45   28.77
  -1   2  -4 1265.42   21.65
  -1   2  -4 1248.79   27.26
   1  -2   4 1263.49   26.80
  -1   2  -4 1222.74   26.63
   1  -2   4 1244.87   27.15
  -1   2  -4 1249.84   29.42
  -1   2  -4 1268.47   27.46
   1  -2   4 1267.08   27.28
   1  -2   4 1262.46   27.41
  -1   2  -4 1284.76   23.68
   1  -2   4 1286.88   27.07
   1  -2   4 1239.15   23.92
  -1   2  -4 1280.39   27.42
  -1   2  -5  187.35    8.02
  -1   2  -5  186.63    7.53
  -1   2  -5  192.50    8.17
   1  -2   5  197.04    6.20
   1  -2   5  184.31    9.04
   1  -2   5  185.58    8.81
  -1   2  -5  188.18    6.66
   1  -2   5  172.56    9.24
   1  -2   5  187.97    9.55
   1  -2   5  183.03    9.17
   1  -2   5  181.42    9.72
  -1   2  -5  194.35    9.40
   1  -2   5  178.01    9.60
  -1   2  -5  167.89    7.89
  -1   2  -6    5.77    2.83
   1  -2   6    1.80    1.38
  -1   2  -6   -0.25    1.48
  -1   2  -6    0.28    1.64
   1  -2   6    2.35    3.15
  -1   2  -6   -2.69    2.53
  -1   2  -6    0.30    1.81
   1  -2   6    5.34    2.87
  -1   2  -6    3.16    1.60
   1  -2   6    6.40    3.12
   1  -2   6   -0.33    2.63
   1  -2   6    2.96    2.44
  -1   2  -7  283.97   10.42
  -1   2  -7  296.17   12.92
   1  -2   7  303.48   10.04
   1  -2   7  294.10   12.74
  -1   2  -7  263.16   10.72
  -1   2  -7  291.46   10.49
   1  -2   7  287.75   13.34
  -1   2  -7  282.11   13.17
   1  -2   7  279.05   14.14
   1  -2   7  276.00   14.06
  -1   2  -7  279.74   13.44
   1  -2   8  485.29   18.96
  -1   2  -8  492.17   18.65
  -1   2  -8  474.07   14.19
  -1   2  -8  469.97   18.49
   1  -2   8  465.07   17.57
  -1   2  -8  506.60   19.59
  -1   2  -8  463.61   13.80
   1  -2   8  509.74   14.79
   1  -2   8  464.80   20.07
  -1   2  -9    5.34    3.72
   1  -2   9    8.00    4.17
   1  -2   9   13.39    5.20
   1  -2   9    4.59    3.42
  -1   2  -9   11.52    4.36
  -1   2  -9   12.37    5.00
  -1   2 -10   72.52    8.43
  -1   2 -10   63.91    8.34
   1  -2  10   78.80    8.95
  -1   2 -10   96.27    9.88
   1  -2  10   78.01    8.12
  -1   2 -11   89.08   10.18
  -1   2 -11   74.91    9.19
   1  -2  11   82.96    8.78
  -1   1  11   13.42    4.83
  -1   1  11   11.01    4.15
  -1   1  10   21.05    5.18
  -1   1  10   13.99    5.47
  -1   1  10   12.51    4.07
   1  -1 -10   24.31    6.81
   1  -1  -9  128.73   11.04
  -1   1   9  118.00    8.27
  -1   1   9  118.10    9.90
  -1   1   9  127.71   10.34
  -1   1   8  132.63    9.89
  -1   1   8  142.23   10.05
  -1   1   8  127.98    7.97
   1  -1  -8  130.93   10.32
  -1   1   7   12.36    2.95
  -1   1   7    8.09    3.09
   1  -1  -7   15.85    4.31
  -1   1   7   17.69    2.31
   1  -1  -7   10.92    2.33
  -1   1   7    8.66    2.92
  -1   1   7   12.75    3.92
   1  -1  -6  189.20    7.46
  -1   1   6  198.45    6.77
  -1   1   6  203.62   10.84
   1  -1  -6  189.31    8.68
  -1   1   6  199.81   10.10
  -1   1   6  198.37    8.56
   1  -1  -6  198.43   10.63
  -1   1   6  214.79   10.51
   1  -1  -5 1068.42   23.43
  -1   1   5 1110.17   25.97
  -1   1   5 1143.44   25.58
  -1   1   5 1075.15   20.51
   1  -1  -5 1116.11   25.59
   1  -1  -5 1100.75   20.77
  -1   1   5 1092.29   26.29
   1  -1  -5 1101.64   21.19
  -1   1   5 1088.75   22.92
   1  -1  -5 1110.10   26.30
  -1   1   4    6.27    1.71
  -1   1   4    4.38    2.17
  -1   1   4    4.19    1.96
   1  -1  -4    3.85    1.94
   1  -1  -4    5.01    1.97
   1  -1  -4    5.63    1.64
  -1   1   4    2.16    1.88
   1  -1  -4    1.44    1.25
  -1   1   4    4.69    1.12
   1  -1  -4    4.45    1.73
   1  -1  -4    5.05    1.77
   1  -1  -4    6.63    1.35
   1  -1  -4    3.96    1.30
  -1   1   3  751.78   14.87
   1  -1  -3  776.18   17.53
  -1   1   3  761.28   17.68
  -1   1   3  749.35   15.77
   1  -1  -3  774.21   15.06
   1  -1  -3  767.90   17.15
  -1   1   3  740.56   17.03
   1  -1  -3  758.75   16.33
  -1   1   3  739.70   12.39
  -1   1   3  772.73   17.02
   1  -1  -3  777.62   17.81
   1  -1  -3  756.72   13.26
   1  -1  -3  721.61   16.26
  -1   1   3  774.15   17.70
   1  -1  -3  765.83   17.59
   1  -1  -2 2251.05   35.48
  -1   1   2 2330.05   36.98
  -1   1   2 2305.95   37.74
   1  -1  -2 2281.97   36.88
   1  -1  -2 2339.34   38.58
  -1   1   2 2307.52   38.97
  -1   1   2 2344.51   35.24
   1  -1  -2 2348.19   39.03
  -1   1   2 2373.27   38.20
  -1   1   2 2361.83   38.64
   1  -1  -2 2290.46   38.43
  -1   1   1 1680.01   27.20
   1  -1  -1 1655.23   27.51
   1  -1  -1 1646.51   26.46
  -1   1   1 1702.93   26.97
   1  -1  -1 1612.69   25.33
   1  -1  -1 1545.09   25.47
   1  -1  -1 1607.92   26.84
  -1   1   1 1660.58   26.34
  -1   1   1 1636.20   27.49
   1  -1  -1 1654.35   26.77
  -1   1   0  181.98    5.41
   1  -1   0  188.58    5.49
   1  -1   0  189.00    4.75
   1  -1   0  178.34    4.64
   1  -1   0  190.63    7.43
  -1   1   0  176.72    4.67
  -1   1   0  179.78    5.03
   1  -1   0  175.97    4.42
  -1   1   0  179.83    4.43
   1  -1   0  188.22    7.46
   1  -1   0  180.93    4.12
   1  -1   0  189.81    4.04
   1  -1   1 3311.98   51.76
  -1   1  -1 3228.30   53.74
  -1   1  -1 3416.36   51.81
  -1   1  -1 3413.23   50.39
  -1   1  -1 3205.84   52.65
  -1   1  -1 3287.60   53.75
   1  -1   1 3207.44   53.68
  -1   1  -1 3377.32   51.33
   1  -1   1 3409.62   50.17
   1  -1   1 3357.16   52.84
  -1   1  -1 3327.65   50.45
   1  -1   1 3366.11   53.01
   1  -1   1 3421.82   51.32
  -1   1  -1 3418.76   52.20
   1  -1   1 3359.51   50.15
   1  -1   1 3401.98   53.77
  -1   1  -1 3283.77   52.78
  -1   1  -2 1291.34   20.81
   1  -1   2 1262.33   23.90
  -1   1  -2 1279.52   25.32
  -1   1  -2 1282.27   22.87
   1  -1   2 1256.52   22.58
   1  -1   2 1291.14   23.00
   1  -1   2 1259.04   20.34
  -1   1  -2 1268.09   20.09
  -1   1  -2 1289.51   22.42
   1  -1   2 1291.54   23.05
  -1   1  -2 1272.79   23.66
  -1   1  -2 1315.57   23.84
   1  -1   2 1278.30   23.69
   1  -1   2 1279.97   23.37
  -1   1  -2 1282.91   23.27
   1  -1   2 1244.83   25.12
   1  -1   2 1266.83   23.63
  -1   1  -2 1260.04   24.12
   1  -1   2 1306.27   22.62
  -1   1  -2 1288.15   23.35
  -1   1  -2 1247.39   23.47
  -1   1  -2 1309.82   22.74
   1  -1   3    7.72    2.03
  -1   1  -3    7.97    1.65
  -1   1  -3    5.08    1.34
   1  -1   3    8.37    2.05
   1  -1   3    3.76    1.54
  -1   1  -3    5.64    1.34
  -1   1  -3    7.17    1.58
  -1   1  -3    7.14    1.60
  -1   1  -3    5.22    1.69
  -1   1  -3    5.87    1.23
   1  -1   3    4.71    1.41
  -1   1  -3    8.04    1.95
  -1   1  -3    8.65    1.17
   1  -1   3    8.87    2.02
  -1   1  -3    6.61    1.47
  -1   1  -3    4.53    1.58
   1  -1   3    7.76    0.96
  -1   1  -3    7.09    1.15
   1  -1   3    5.51    1.32
  -1   1  -3    4.97    1.41
   1  -1   3    5.88    1.90
   1  -1   3    7.10    2.03
   1  -1   3    7.93    1.26
  -1   1  -4  661.17   16.11
  -1   1  -4  662.89   15.48
   1  -1   4  629.57   16.91
  -1   1  -4  666.54   17.10
   1  -1   4  645.87   16.84
  -1   1  -4  647.09   14.80
  -1   1  -4  680.05   18.17
  -1   1  -4  684.26   17.20
  -1   1  -4  637.32   14.03
   1  -1   4  630.02   16.85
   1  -1   4  658.58   16.61
   1  -1   4  671.15   16.08
  -1   1  -4  677.57   16.66
  -1   1  -4  668.78   16.08
  -1   1  -4  641.90   16.55
   1  -1   4  649.35   17.04
  -1   1  -4  646.53   14.48
  -1   1  -4  664.23   14.64
  -1   1  -4  668.83   17.60
   1  -1   4  659.62   16.07
   1  -1   4  677.74   13.27
  -1   1  -5 1126.86   24.26
   1  -1   5 1136.31   24.78
  -1   1  -5 1131.61   26.89
   1  -1   5 1096.23   26.03
   1  -1   5 1072.89   25.56
  -1   1  -5 1106.59   22.60
   1  -1   5 1119.72   21.31
  -1   1  -5 1132.14   24.74
  -1   1  -5 1106.26   24.23
  -1   1  -5 1116.78   23.13
  -1   1  -5 1068.11   21.20
   1  -1   5 1116.29   25.46
  -1   1  -5 1068.98   21.51
   1  -1   5 1089.44   23.99
  -1   1  -6  379.41   13.59
  -1   1  -6  390.34   12.71
  -1   1  -6  393.45   10.85
   1  -1   6  408.36   11.62
   1  -1   6  406.99   14.11
  -1   1  -6  406.11   13.00
  -1   1  -6  394.79   10.46
   1  -1   6  412.98   15.44
   1  -1   6  398.27   14.81
   1  -1   6  406.25   13.48
  -1   1  -7  101.55    7.60
  -1   1  -7   97.47    4.65
   1  -1   7   97.33    6.90
  -1   1  -7   95.92    6.73
   1  -1   7  102.49    6.03
   1  -1   7  105.34    8.53
  -1   1  -7   98.79    5.00
   1  -1   7   94.20    7.40
   1  -1   7   99.27    7.84
  -1   1  -8  615.97   21.38
   1  -1   8  634.43   21.08
   1  -1   8  633.50   17.76
   1  -1   8  601.63   19.40
   1  -1   8  645.36   23.22
  -1   1  -8  589.10   13.48
  -1   1  -8  618.14   14.46
   1  -1   8  594.54   21.50
   1  -1   9   67.15    7.00
   1  -1   9   71.55    7.47
   1  -1   9   75.27    6.31
  -1   1  -9   81.61    8.70
   1  -1   9   74.38    8.78
   1  -1  10   11.00    5.78
   1  -1  10    3.38    4.08
   1  -1  10    0.43    3.00
  -1   1 -10   -1.00    3.65
   1  -1  10    2.89    3.08
  -1   1 -11   71.71    8.64
  -1   1 -11   84.24   10.32
   1  -1  11   86.77    8.65
   1  -1  11   82.20    9.59
  -1   1 -12   10.75    6.09
   1  -1  12   21.00    6.01
  -1   0  11   31.46    6.17
   1   0 -10    5.69    4.00
  -1   0  10   18.79    5.07
  -1   0  10   10.99    5.31
  -1   0  10    7.46    3.61
  -1   0   9   42.60    6.07
  -1   0   9   41.82    5.18
   1   0  -9   60.74    7.91
  -1   0   9   46.95    6.49
   1   0  -9   48.83    5.52
   1   0  -8  177.13   11.86
  -1   0   8  184.22    9.34
  -1   0   8  194.49   11.81
   1   0  -8  169.61    6.85
  -1   0   8  174.95   10.59
   1   0  -7  167.65    6.71
  -1   0   7  173.21   10.33
  -1   0   7  176.86   10.05
  -1   0   7  171.43    7.26
  -1   0   7  167.11    8.24
   1   0  -7  171.01   10.75
  -1   0   6  163.86    6.62
  -1   0   6  160.82    7.28
  -1   0   6  159.82    9.90
   1   0  -6  172.23    6.47
  -1   0   6  167.46    9.22
  -1   0   6  163.93    8.86
   1   0  -6  168.63    7.94
   1   0  -6  172.58    9.74
   1   0  -6  157.69    7.46
  -1   0   5 1699.96   30.96
  -1   0   5 1716.14   34.70
   1   0  -5 1675.04   31.36
   1   0  -5 1722.29   32.21
   1   0  -5 1691.86   29.61
  -1   0   5 1719.93   36.75
  -1   0   5 1741.01   35.76
   1   0  -5 1713.00   35.22
   1   0  -5 1738.85   35.71
  -1   0   5 1711.19   34.45
  -1   0   5 1666.68   29.95
  -1   0   4  371.13    9.69
  -1   0   4  357.58   12.65
   1   0  -4  384.90   12.53
  -1   0   4  358.31    9.32
  -1   0   4  358.13   11.61
  -1   0   4  370.43   11.75
   1   0  -4  366.33   11.94
   1   0  -4  391.81   12.27
   1   0  -4  393.11   12.59
   1   0  -4  361.53   10.33
   1   0  -4  386.41   11.71
   1   0  -4  368.96    9.32
  -1   0   4  390.78   12.41
   1   0  -4  352.66    9.73
   1   0  -4  394.43   12.01
   1   0  -3    1.16    1.29
   1   0  -3    0.48    0.31
   1   0  -3    1.66    1.21
  -1   0   3    0.77    1.26
   1   0  -3    0.29    1.16
  -1   0   3    1.26    0.86
  -1   0   3    0.11    0.68
  -1   0   3   -0.49    1.42
   1   0  -3    2.32    1.03
  -1   0   3    1.67    1.50
   1   0  -3    0.39    0.91
   1   0  -3    1.60    1.03
   1   0  -3    0.51    1.56
   1   0  -3    2.01    1.09
   1   0  -3    0.89    0.94
  -1   0   2 1598.93   24.42
   1   0  -2 1529.11   25.67
  -1   0   2 1694.49   27.78
   1   0  -2 1613.09   26.42
  -1   0   2 1607.74   28.36
   1   0  -2 1646.35   24.39
  -1   0   2 1572.79   25.39
   1   0  -2 1677.62   27.80
   1   0  -2 1671.88   28.53
   1   0  -2 1697.31   27.27
   1   0  -2 1626.11   28.40
  -1   0   2 1552.49   26.24
  -1   0   2 1636.88   28.39
   1   0  -2 1591.63   28.54
   1   0  -2 1553.07   26.51
   1   0  -1  585.61   11.86
   1   0  -1  588.79   11.18
   1   0  -1  589.82   11.96
  -1   0   1  596.32   11.85
   1   0  -1  587.31   11.05
  -1   0   1  591.70   11.04
  -1   0   1  564.60   10.04
  -1   0   1  617.26   10.59
  -1   0   1  585.92   10.13
  -1   0   1  597.93   11.96
   1   0  -1  576.80   10.58
  -1   0   1  571.51   11.10
   1   0  -1  584.35   10.19
   1   0   0   10.80    1.07
  -1   0   0    9.63    1.04
  -1   0   0    9.24    0.79
   1   0   0    8.61    0.94
  -1   0   0    8.80    0.92
  -1   0   0   10.46    1.03
   1   0   1  147.41    4.14
  -1   0  -1  145.52    4.17
  -1   0  -1  153.59    4.20
   1   0   1  132.02    3.96
  -1   0  -1  147.99    3.85
  -1   0  -1  148.24    4.76
  -1   0  -1  149.29    4.18
  -1   0  -1  151.17    4.44
   1   0   1  147.92    4.56
   1   0   1  143.11    4.26
  -1   0  -1  161.53    4.89
  -1   0  -1  147.37    4.12
   1   0   1  139.33    4.04
   1   0   1  132.66    4.31
   1   0   1  154.84    4.90
   1   0   1  138.85    4.17
  -1   0  -1  149.55    4.28
   1   0   1  151.76    4.13
   1   0   2 2172.07   34.01
   1   0   2 2023.02   35.45
  -1   0  -2 2276.04   35.14
  -1   0  -2 2203.06   33.90
   1   0   2 2173.86   34.54
   1   0   2 2130.21   34.09
  -1   0  -2 2218.65   34.01
  -1   0  -2 2208.51   35.05
  -1   0  -2 2188.67   35.88
  -1   0  -2 2199.67   34.88
   1   0   2 2241.73   35.03
  -1   0  -2 1979.83   35.62
  -1   0  -2 2209.69   35.12
   1   0   2 2185.78   34.89
   1   0   2 2258.81   35.12
   1   0   2 2200.11   35.24
  -1   0  -2 2191.54   35.29
   1   0   2 2235.94   33.86
   1   0   2 2158.61   35.66
   1   0   3 1551.86   25.50
  -1   0  -3 1548.66   27.68
  -1   0  -3 1557.47   27.68
  -1   0  -3 1552.05   27.52
  -1   0  -3 1519.65   26.69
   1   0   3 1569.03   27.65
  -1   0  -3 1517.57   26.87
   1   0   3 1527.13   27.26
   1   0   3 1518.94   26.87
   1   0   3 1533.19   26.64
   1   0   3 1573.75   27.21
  -1   0  -3 1517.58   28.07
  -1   0  -3 1527.86   27.50
   1   0   3 1522.93   25.99
  -1   0  -3 1549.06   27.13
   1   0   3 1524.84   28.47
   1   0   3 1538.03   27.40
  -1   0  -3 1560.77   28.62
   1   0   3 1570.81   27.82
  -1   0  -3 1538.42   25.30
   1   0   4  291.31    7.60
   1   0   4  295.21    9.15
  -1   0  -4  275.98    8.97
  -1   0  -4  288.68    7.32
  -1   0  -4  282.30    9.06
   1   0   4  289.49    8.44
  -1   0  -4  285.12    9.70
   1   0   4  283.51    9.06
   1   0   4  296.88    9.17
  -1   0  -4  288.92   10.28
   1   0   4  281.24   10.11
  -1   0  -4  293.73    9.51
   1   0   4  283.25    9.52
  -1   0  -4  295.06    9.57
  -1   0  -4  292.77    9.44
  -1   0  -4  292.31    9.17
  -1   0  -4  286.99    8.94
   1   0   4  295.95    9.23
  -1   0  -4  286.89    9.58
  -1   0  -4  280.04    6.36
  -1   0  -5 2430.64   44.43
   1   0   5 2372.46   39.18
  -1   0  -5 2470.79   45.91
  -1   0  -5 2410.34   44.19
  -1   0  -5 2421.60   43.59
   1   0   5 2462.42   43.47
  -1   0  -5 2319.78   43.01
   1   0   5 2403.11   45.43
   1   0   5 2430.83   44.02
  -1   0  -5 2480.44   43.02
  -1   0  -5 2375.45   36.70
  -1   0  -5 2427.85   38.53
  -1   0  -5 2399.98   43.62
  -1   0  -5 2444.04   44.05
   1   0   5 2477.64   43.32
   1   0   5 2430.69   42.79
  -1   0  -5 2479.31   44.20
  -1   0  -5 2433.72   43.51
  -1   0  -5 2479.27   43.06
   1   0   5 2446.57   41.68
   1   0   6  514.20   15.10
   1   0   6  528.45   15.75
  -1   0  -6  526.58   16.70
  -1   0  -6  494.86    9.63
  -1   0  -6  524.34   15.90
  -1   0  -6  519.96   15.38
  -1   0  -6  514.50   16.59
   1   0   6  517.73   16.17
   1   0   6  521.08   14.45
   1   0   6  509.16   17.13
  -1   0  -6  517.93   11.27
  -1   0  -7   30.37    1.64
   1   0   7   36.88    4.64
  -1   0  -7   35.07    4.57
   1   0   7   32.22    4.94
   1   0   7   29.87    4.02
   1   0   7   36.19    4.10
   1   0   7   38.12    4.86
  -1   0  -7   30.65    2.28
  -1   0  -7   30.36    4.67
   1   0   8   25.99    4.45
  -1   0  -8   22.32    4.54
   1   0   8   28.50    4.80
   1   0   8   28.85    4.98
   1   0   8   23.65    4.78
   1   0   8   27.89    4.07
  -1   0  -8   28.72    2.11
   1   0   9  320.16   15.57
   1   0   9  353.88   14.30
   1   0   9  326.57   14.37
  -1   0  -9  343.12   16.99
   1   0   9  345.47   17.62
   1   0   9  346.96   15.95
   1   0  10   22.28    5.77
  -1   0 -10   37.92    7.09
   1   0  10   36.90    6.31
   1   0  10   33.75    6.04
   1   0  10   36.52    5.81
   1   0  10   33.01    4.96
   1   0  11   19.29    5.18
   1   0  11   10.27    4.69
   1   0  11   13.07    5.00
   1   0  11   11.53    3.73
  -1   0 -11   19.69    6.17
   1   0  12  108.41   10.29
  -1  -1  10   58.50    7.34
  -1  -1  10   43.76    5.74
  -1  -1  10   45.90    7.17
   1   1 -10   43.03    7.31
  -1  -1   9   11.88    4.07
  -1  -1   9   13.17    3.54
  -1  -1   9   13.42    5.02
   1   1  -9   11.51    4.50
   1   1  -9   18.50    4.31
   1   1  -8  474.08   13.60
   1   1  -8  461.31   19.66
  -1  -1   8  489.47   17.92
   1   1  -8  489.57   17.51
  -1  -1   8  501.35   19.73
  -1  -1   8  487.17   15.88
   1   1  -7  295.18   10.05
  -1  -1   7  318.71   11.53
  -1  -1   7  307.04   14.19
   1   1  -7  309.49   12.58
  -1  -1   7  313.16   14.55
  -1  -1   7  337.90   13.68
   1   1  -7  315.92   14.75
  -1  -1   6   58.23    4.46
   1   1  -6   68.24    6.49
  -1  -1   6   61.27    4.53
   1   1  -6   64.86    5.28
  -1  -1   6   59.53    5.34
  -1  -1   6   58.22    5.82
   1   1  -6   58.70    4.16
   1   1  -6   49.80    4.11
  -1  -1   6   61.83    5.92
   1   1  -6   55.43    2.62
   1   1  -6   55.02    2.50
   1   1  -5   82.29    6.33
   1   1  -5   85.62    4.79
   1   1  -5   89.36    4.82
  -1  -1   5   85.97    6.49
  -1  -1   5   92.71    6.00
  -1  -1   5   83.11    6.33
  -1  -1   5   93.14    4.96
   1   1  -5   91.21    6.09
   1   1  -5   93.40    5.70
   1   1  -5   87.10    3.43
   1   1  -5   94.00    3.84
  -1  -1   5   87.83    5.05
   1   1  -5   86.39    5.96
   1   1  -4 2430.85   40.65
   1   1  -4 2560.30   45.11
  -1  -1   4 2517.67   45.31
   1   1  -4 2519.35   45.54
   1   1  -4 2469.80   44.86
   1   1  -4 2567.36   43.02
  -1  -1   4 2558.59   40.83
   1   1  -4 2522.88   44.47
  -1  -1   4 2521.75   43.93
  -1  -1   4 2480.56   45.01
   1   1  -4 2501.86   46.94
   1   1  -4 2524.03   44.75
   1   1  -4 2431.82   42.98
   1   1  -4 2408.16   41.16
   1   1  -4 2529.67   45.16
   1   1  -4 2495.31   44.13
  -1  -1   4 2423.65   41.82
   1   1  -3  736.31   16.97
   1   1  -3  709.23   15.49
   1   1  -3  691.86   17.86
  -1  -1   3  718.38   16.64
  -1  -1   3  695.03   16.62
   1   1  -3  735.51   16.82
   1   1  -3  679.43   14.66
   1   1  -3  732.01   16.50
   1   1  -3  695.62   15.12
  -1  -1   3  707.02   16.83
   1   1  -3  679.36   13.49
   1   1  -3  729.75   16.96
   1   1  -3  711.79   16.68
  -1  -1   3  699.52   13.60
  -1  -1   3  689.17   14.97
  -1  -1   3  728.14   16.28
   1   1  -2  369.42    7.37
   1   1  -2  352.99    8.87
   1   1  -2  379.81   10.02
  -1  -1   2  363.74    9.82
   1   1  -2  369.81    9.74
  -1  -1   2  357.28    8.99
   1   1  -2  358.58    8.51
   1   1  -2  374.13    9.38
  -1  -1   2  363.86    9.87
  -1  -1   2  378.04   10.21
  -1  -1   2  376.15    7.47
   1   1  -2  380.11    9.83
   1   1  -2  382.23   10.20
  -1  -1   2  369.20    9.69
   1   1  -2  357.99   10.87
   1   1  -1 5429.63   76.33
   1   1  -1 4876.41   75.59
  -1  -1   1 5305.02   75.56
   1   1  -1 4859.01   75.92
   1   1  -1 4842.85   76.46
  -1  -1   1 4892.25   76.36
  -1  -1   1 4928.41   75.72
   1   1  -1 5502.41   75.58
   1   1  -1 5249.44   73.73
  -1  -1   1 4861.62   75.97
   1   1  -1 5078.65   76.38
  -1  -1   1 4963.95   75.83
   1   1   0   16.68    1.36
  -1  -1   0   16.86    2.03
  -1  -1   0   16.89    1.36
   1   1   0   17.85    1.44
  -1  -1   0   20.39    1.87
   1   1   0   16.59    1.92
  -1  -1  -1    6.92    1.52
   1   1   1    7.00    0.85
  -1  -1  -1    6.32    0.81
  -1  -1  -1    5.97    0.81
  -1  -1  -1    8.23    1.07
   1   1   1    5.94    0.89
   1   1   1    6.00    0.79
   1   1   1    7.16    1.40
   1   1   2 2332.97   39.21
  -1  -1  -2 2405.25   35.23
  -1  -1  -2 2386.69   39.31
   1   1   2 2443.24   35.13
   1   1   2 2356.00   37.37
   1   1   2 2374.29   39.71
   1   1   2 2468.63   35.70
   1   1   2 2447.71   37.69
  -1  -1  -2 2369.52   39.94
  -1  -1  -2 2372.17   36.62
   1   1   2 2236.38   37.74
   1   1   2 2297.62   39.63
  -1  -1  -2 2373.99   37.65
  -1  -1  -2 2377.31   36.11
   1   1   2 2435.85   36.72
  -1  -1  -3 1146.61   22.89
   1   1   3 1159.61   22.63
   1   1   3 1119.80   19.10
  -1  -1  -3 1167.19   22.72
  -1  -1  -3 1158.40   21.32
   1   1   3 1131.27   19.26
  -1  -1  -3 1168.75   21.26
  -1  -1  -3 1153.44   19.08
  -1  -1  -3 1121.50   21.21
   1   1   3 1100.43   22.45
   1   1   3 1145.88   21.28
   1   1   3 1133.76   21.09
   1   1   3 1155.00   22.55
  -1  -1  -3 1124.67   22.91
   1   1   3 1125.12   21.10
  -1  -1  -3 1143.41   20.12
  -1  -1  -4  688.66   16.88
  -1  -1  -4  649.75   12.33
   1   1   4  665.05   16.79
   1   1   4  686.00   15.57
  -1  -1  -4  638.13   15.23
   1   1   4  658.11   15.22
  -1  -1  -4  681.49   16.97
  -1  -1  -4  654.86   14.56
  -1  -1  -4  690.50   17.07
  -1  -1  -4  664.08   15.64
   1   1   4  658.13   16.02
  -1  -1  -4  660.17   15.17
  -1  -1  -4  672.62   15.47
   1   1   4  676.99   16.44
   1   1   4  658.50   12.53
   1   1   4  664.49   15.31
   1   1   5  102.86    3.80
  -1  -1  -5  104.57    5.78
   1   1   5  120.17    6.28
  -1  -1  -5  109.25    6.60
  -1  -1  -5   99.39    5.72
   1   1   5  101.25    6.52
  -1  -1  -5  115.41    6.89
  -1  -1  -5  115.74    6.88
  -1  -1  -5  108.77    6.10
  -1  -1  -5  102.68    5.51
  -1  -1  -5  114.28    6.11
   1   1   5  106.84    6.08
   1   1   5  110.46    5.94
  -1  -1  -5  110.96    5.78
  -1  -1  -5   94.52    5.90
   1   1   5  112.51    5.96
  -1  -1  -5   99.41    3.62
   1   1   5  110.58    6.40
   1   1   6  238.25    6.39
  -1  -1  -6  264.50    9.99
   1   1   6  247.01    9.97
   1   1   6  257.65   11.48
  -1  -1  -6  235.63    6.11
   1   1   6  233.10    9.62
  -1  -1  -6  231.33   10.89
   1   1   6  242.02   10.14
  -1  -1  -6  252.68   11.12
  -1  -1  -6  240.04    9.80
   1   1   6  240.45    9.98
   1   1   7  471.12   15.36
  -1  -1  -7  476.89   17.48
   1   1   7  467.38   17.46
   1   1   7  488.76   16.19
  -1  -1  -7  498.20   16.27
   1   1   7  472.17   15.66
   1   1   7  467.99   15.66
   1   1   8   19.83    3.90
   1   1   8   21.57    5.05
   1   1   8   26.44    4.23
  -1  -1  -8   24.30    4.55
   1   1   8   26.81    4.54
   1   1   8   25.21    4.35
   1   1   9  142.64    9.58
   1   1   9  144.95   10.26
   1   1   9  162.06   11.85
  -1  -1  -9  164.86   11.71
   1   1   9  155.28   10.19
   1   1   9  167.52   10.08
   1   1  10  102.73   10.51
  -1  -1 -10  116.72   11.06
   1   1  10  115.24    9.81
   1   1  10  112.85    9.65
   1   1  10  119.51    9.37
   1   1  10  127.55    9.52
   1   1  11   11.31    5.13
   1   1  11    5.16    4.22
   1   1  11    9.05    4.09
   1   1  11    4.17    3.79
  -1  -1 -11    7.62    4.44
   1   1  12   -5.64    4.56
   1   2 -10  100.34   10.92
  -1  -2  10  116.26   11.20
   1   2 -10   90.97    9.18
  -1  -2   9   59.36    6.02
   1   2  -9   51.51    7.52
   1   2  -9   70.50    7.72
  -1  -2   9   65.72    6.83
  -1  -2   9   62.43    8.18
   1   2  -8   20.09    3.26
  -1  -2   8   18.52    4.13
  -1  -2   8   20.60    5.29
   1   2  -8   24.59    4.97
   1   2  -8   26.91    5.61
  -1  -2   8   16.74    3.38
  -1  -2   7  293.69   14.36
  -1  -2   7  283.69   11.20
   1   2  -7  277.91   10.62
  -1  -2   7  284.85   13.96
  -1  -2   7  305.52   12.70
   1   2  -7  279.61    8.77
   1   2  -7  278.95   13.04
   1   2  -7  276.99   13.96
   1   2  -6  613.62   15.15
  -1  -2   6  642.95   18.36
   1   2  -6  608.37   16.38
   1   2  -6  610.71   16.49
  -1  -2   6  621.43   19.98
  -1  -2   6  665.23   17.02
   1   2  -6  643.03   20.53
  -1  -2   6  677.78   21.06
   1   2  -6  646.29   19.45
  -1  -2   5    0.71    1.52
  -1  -2   5    1.86    2.23
   1   2  -5    3.11    2.14
  -1  -2   5    0.50    1.43
  -1  -2   5    1.14    2.51
   1   2  -5    1.21    2.36
  -1  -2   5    4.69    3.00
   1   2  -5    1.26    1.51
   1   2  -5    1.06    1.52
   1   2  -5    2.49    1.67
  -1  -2   5    1.38    1.83
   1   2  -4  953.41   21.28
  -1  -2   4  966.87   23.46
   1   2  -4  958.06   21.85
   1   2  -4  990.88   22.92
   1   2  -4  932.18   19.18
  -1  -2   4 1001.96   23.59
  -1  -2   4  967.81   21.80
   1   2  -4  981.90   22.28
  -1  -2   4  991.79   21.49
   1   2  -4  965.29   24.11
  -1  -2   4  960.79   22.96
   1   2  -4  980.05   22.77
   1   2  -4  911.27   20.55
  -1  -2   4  986.47   19.77
   1   2  -3  861.46   21.86
   1   2  -3  850.57   18.90
  -1  -2   3  844.06   17.08
   1   2  -3  869.17   20.14
   1   2  -3  893.75   20.48
   1   2  -3  839.97   16.62
   1   2  -3  843.60   18.68
  -1  -2   3  878.87   19.38
   1   2  -3  879.18   20.31
   1   2  -3  847.56   18.25
  -1  -2   3  888.24   20.68
   1   2  -3  870.75   21.43
   1   2  -3  891.82   20.14
   1   2  -3  847.60   18.97
   1   2  -3  888.57   20.89
  -1  -2   3  856.80   20.02
  -1  -2   3  875.15   20.62
   1   2  -2  246.19    9.46
   1   2  -2  230.52    8.11
   1   2  -2  222.18    7.72
  -1  -2   2  223.61    8.14
  -1  -2   2  221.85    7.79
   1   2  -2  224.88    6.88
  -1  -2   2  226.05    6.81
   1   2  -2  234.67    6.25
  -1  -2   2  236.88    8.59
   1   2  -2  235.33    8.70
   1   2  -2  233.33    7.70
   1   2  -2  219.32    8.20
  -1  -2   2  231.84    8.66
   1   2  -2  233.81    8.27
   1   2  -2  236.78    7.48
   1   2  -2  239.03    8.82
  -1  -2   2  227.16    8.30
   1   2  -1 1173.69   23.34
   1   2  -1 1132.02   21.89
   1   2  -1 1088.89   21.83
   1   2  -1 1102.52   19.16
   1   2  -1 1085.94   22.87
   1   2  -1 1093.49   21.35
   1   2  -1 1129.63   19.77
  -1  -2   1 1147.47   22.26
  -1  -2   1 1094.60   18.96
   1   2  -1 1107.20   19.17
  -1  -2   1 1119.20   21.43
  -1  -2   1 1089.55   22.85
  -1  -2   1 1116.92   22.99
   1   2  -1 1101.56   20.92
  -1  -2   1 1122.71   19.64
  -1  -2   0 2254.20   34.55
  -1  -2   0 2422.13   37.52
   1   2   0 2160.71   35.57
   1   2   0 2428.09   37.57
  -1  -2   0 2067.11   40.32
  -1  -2   0 2285.79   39.24
   1   2   0 2411.77   35.86
  -1  -2   0 2261.33   38.69
  -1  -2   0 2324.45   34.45
   1   2   0 2191.12   37.98
  -1  -2   0 2274.13   34.61
   1   2   0 2168.23   38.17
   1   2   0 2196.13   34.93
   1   2   0 2145.25   35.56
  -1  -2  -1 3188.92   49.82
   1   2   1 3265.80   49.77
   1   2   1 2972.60   52.55
  -1  -2  -1 3018.32   52.85
   1   2   1 3229.08   47.01
  -1  -2  -1 3206.22   49.81
   1   2   1 3317.10   49.88
   1   2   2  355.36   10.97
   1   2   2  337.74    9.05
  -1  -2  -2  363.36   11.24
   1   2   2  326.52    7.97
   1   2   2  353.76   10.27
   1   2   2  353.49   10.97
  -1  -2  -2  351.97    9.14
   1   2   3   95.28    4.79
  -1  -2  -3   97.44    5.82
  -1  -2  -3  103.40    5.98
   1   2   3   96.70    5.15
   1   2   3   95.55    3.92
  -1  -2  -3   98.56    5.20
  -1  -2  -3   99.11    4.80
   1   2   3  101.86    5.93
   1   2   3   99.59    3.37
   1   2   3  104.18    5.77
   1   2   4 1317.08   22.68
   1   2   4 1360.66   28.38
   1   2   4 1333.43   28.04
   1   2   4 1275.17   26.07
  -1  -2  -4 1316.95   28.58
   1   2   4 1284.13   24.73
  -1  -2  -4 1314.38   22.43
  -1  -2  -4 1350.22   27.34
   1   2   4 1334.88   26.07
  -1  -2  -4 1324.68   26.05
  -1  -2  -4 1352.36   28.53
   1   2   4 1308.10   27.02
  -1  -2  -5    7.40    2.38
  -1  -2  -5    9.07    2.45
  -1  -2  -5    8.07    2.08
   1   2   5    9.80    2.59
   1   2   5    4.91    2.26
   1   2   5    7.43    1.18
   1   2   5    6.20    1.89
  -1  -2  -5   10.34    2.76
   1   2   5    8.18    2.53
  -1  -2  -5    5.58    1.46
   1   2   5    6.95    1.91
   1   2   6  333.70   12.92
   1   2   6  297.73   11.41
  -1  -2  -6  306.97   13.13
   1   2   6  304.58    7.43
   1   2   6  308.86   10.83
   1   2   6  317.42   12.95
  -1  -2  -6  318.56   10.38
   1   2   6  321.90   12.11
   1   2   7 1080.84   25.92
   1   2   7 1057.60   26.62
  -1  -2  -7 1058.47   24.38
   1   2   7 1090.96   28.41
   1   2   7 1072.54   27.23
   1   2   7 1078.94   24.95
   1   2   7  993.26   17.52
  -1  -2  -7 1093.00   28.98
  -1  -2  -8   10.50    3.79
   1   2   8    4.79    3.57
   1   2   8    6.45    2.94
   1   2   8    4.35    2.81
   1   2   8    6.35    2.93
   1   2   8    7.16    3.75
   1   2   9    3.39    3.15
   1   2   9   -2.11    3.80
   1   2   9    2.42    3.47
  -1  -2  -9    0.73    3.51
   1   2   9    3.23    2.70
   1   2   9    2.75    2.96
   1   2  10   61.92    7.41
   1   2  10   64.36    7.56
   1   2  10   64.26    8.22
   1   2  10   78.63    7.69
  -1  -2 -10   69.90    8.74
   1   2  10   76.15    7.82
   1   2  11   16.69    5.01
   1   2  11   20.74    5.22
   1   2  11   22.32    5.78
  -1  -2 -11   18.53    6.74
   1   2  11   11.68    4.33
   1   2  11   23.81    6.64
   1   2  12    6.28    4.46
   1   2  12  -13.09    4.95
   1   3 -10   31.61    7.19
   1   3 -10   33.54    6.14
   1   3  -9  185.81   13.41
   1   3  -9  190.87   12.38
  -1  -3   9  192.94   13.86
   1   3  -9  178.88   13.41
  -1  -3   8   41.30    6.43
   1   3  -8   44.13    6.67
   1   3  -8   42.33    6.42
   1   3  -8   45.24    6.15
  -1  -3   8   29.39    5.97
   1   3  -8   38.89    4.90
   1   3  -7  151.79    7.90
  -1  -3   7  164.79   11.32
   1   3  -7  164.65   10.77
   1   3  -7  151.07   10.43
  -1  -3   7  166.35   10.81
   1   3  -7  156.19    8.69
   1   3  -6  918.11   22.72
   1   3  -6  881.19   22.72
  -1  -3   6  951.43   27.34
   1   3  -6  922.14   26.43
  -1  -3   6  943.90   27.40
  -1  -3   6  936.89   26.20
   1   3  -6  885.33   25.62
   1   3  -5    5.82    2.41
  -1  -3   5    6.12    2.92
   1   3  -5    1.84    1.56
   1   3  -5    6.24    2.76
  -1  -3   5    5.76    3.14
   1   3  -5    6.32    1.86
  -1  -3   5    1.37    2.18
   1   3  -5    2.24    1.96
   1   3  -4   40.83    4.31
  -1  -3   4   44.46    5.09
  -1  -3   4   37.67    4.43
   1   3  -4   41.99    4.13
   1   3  -4   53.01    4.44
   1   3  -4   45.32    4.46
   1   3  -4   44.89    4.02
   1   3  -4   44.42    4.92
   1   3  -4   45.66    3.58
   1   3  -3 1305.11   25.99
   1   3  -3 1342.11   29.98
   1   3  -3 1296.19   30.06
  -1  -3   3 1289.43   27.88
   1   3  -3 1261.68   26.18
   1   3  -3 1283.17   24.75
   1   3  -3 1317.28   27.08
  -1  -3   3 1302.33   29.51
   1   3  -3 1270.64   27.50
  -1  -3   3 1307.17   25.94
   1   3  -3 1303.49   26.11
   1   3  -3 1345.01   28.05
   1   3  -2  874.38   19.13
   1   3  -2  852.51   20.29
  -1  -3   2  854.23   18.81
   1   3  -2  860.97   18.34
   1   3  -2  853.08   18.93
   1   3  -2  834.55   17.99
   1   3  -2  849.44   20.04
   1   3  -2  866.44   21.14
   1   3  -2  858.74   21.71
  -1  -3   2  889.78   21.92
  -1  -3   2  860.82   21.82
  -1  -3   2  858.82   17.99
   1   3  -2  863.31   18.49
   1   3  -2  830.00   21.71
  -1  -3   2  899.73   20.65
   1   3  -2  871.10   20.10
   1   3  -2  882.10   22.15
   1   3  -1  197.67    9.14
  -1  -3   1  164.56    8.55
   1   3  -1  171.32    8.57
  -1  -3   1  180.30    8.68
   1   3  -1  181.61    6.69
   1   3  -1  162.09    6.73
  -1  -3   1  176.23    6.11
   1   3  -1  184.79    6.65
   1   3  -1  177.35    7.49
  -1  -3   1  180.42    7.83
  -1  -3   1  175.67    6.37
   1   3  -1  171.89    6.46
   1   3  -1  157.67    7.34
   1   3   0 1007.95   21.72
  -1  -3   0 1034.61   19.39
   1   3   0 1012.99   22.14
  -1  -3   0  988.31   19.65
  -1  -3   0  981.18   19.72
  -1  -3   0  971.72   23.19
   1   3   0  998.00   19.55
   1   3   0  992.57   20.42
   1   3   0 1008.13   21.69
  -1  -3   0 1014.79   22.72
  -1  -3   0 1041.69   25.46
  -1  -3  -1 1048.16   23.33
   1   3   1 1012.44   22.78
  -1  -3  -1  987.54   20.46
  -1  -3  -1  988.49   23.52
   1   3   1 1028.41   21.21
  -1  -3  -1 1017.46   22.61
  -1  -3  -1  968.47   17.89
   1   3   1 1001.88   18.47
   1   3   1  983.65   20.83
   1   3   2  105.86    6.34
  -1  -3  -2   98.04    3.00
  -1  -3  -2  117.42    6.76
   1   3   2  108.60    5.24
   1   3   2  100.10    3.55
   1   3   2   98.31    5.35
   1   3   2  108.89    6.33
   1   3   3    8.20    2.25
  -1  -3  -3    6.49    2.19
   1   3   3    3.95    2.23
  -1  -3  -3    5.16    1.58
   1   3   3    4.86    2.19
   1   3   3    6.88    1.45
  -1  -3  -3    7.52    2.67
   1   3   3    9.11    2.24
   1   3   4 1452.84   31.25
  -1  -3  -4 1413.25   31.05
  -1  -3  -4 1395.13   31.48
   1   3   4 1384.42   31.23
  -1  -3  -4 1436.43   28.95
  -1  -3  -4 1418.63   29.05
   1   3   4 1398.96   28.80
   1   3   4 1412.69   28.74
   1   3   4 1345.14   25.81
   1   3   4 1385.85   24.91
  -1  -3  -5  296.72   11.35
   1   3   5  283.74   12.27
   1   3   5  281.78   11.17
  -1  -3  -5  272.80   12.17
   1   3   5  274.34    7.09
   1   3   5  281.54   10.96
   1   3   5  281.76   11.10
   1   3   5  279.18    9.38
  -1  -3  -5  273.79    7.24
   1   3   5  262.77    8.04
   1   3   6   84.58    6.41
   1   3   6   73.59    6.10
   1   3   6   71.22    5.03
   1   3   6   72.43    2.28
   1   3   6   77.84    3.84
   1   3   6   76.38    6.37
  -1  -3  -6   78.16    4.26
   1   3   6   79.24    6.96
  -1  -3  -6   85.16    7.26
   1   3   7  127.98    7.24
  -1  -3  -7  119.89    6.33
   1   3   7  133.44    9.37
  -1  -3  -7  143.43   10.16
   1   3   7  131.68    9.03
   1   3   7  138.32    8.48
   1   3   7  135.01    8.79
   1   3   7  120.38    4.52
  -1  -3  -8  300.08   15.52
   1   3   8  293.12   13.35
   1   3   8  325.03   15.31
   1   3   8  282.55   13.69
  -1  -3  -8  282.71   11.24
   1   3   8  288.79   11.96
   1   3   8  284.16   14.41
   1   3   9   21.62    4.99
  -1  -3  -9   21.02    5.14
   1   3   9   25.01    5.16
   1   3   9   25.90    5.46
   1   3   9   19.03    4.80
   1   3   9   16.22    3.62
   1   3  10   64.94    8.14
   1   3  10   60.67    6.84
   1   3  10   67.57    8.52
  -1  -3 -10   65.54    8.76
   1   3  10   63.85    6.68
   1   3  10   57.88    7.40
   1   3  11   39.22    6.51
   1   3  11   46.25    8.17
  -1  -3 -11   57.01    8.94
   1   3  11   41.05    7.12
   1   3  11   52.96    7.62
   1   3  12    7.30    4.61
   1   3  12    6.34    5.00
   1   4  -9   55.60    8.10
   1   4  -9   78.86    8.71
   1   4  -9   69.08    9.04
   1   4  -8  184.11   11.85
   1   4  -8  180.22   10.51
   1   4  -8  159.61   12.52
  -1  -4   8  172.49   12.23
   1   4  -8  154.00   11.67
   1   4  -7    4.72    3.48
  -1  -4   7    0.71    3.78
   1   4  -7    1.29    2.90
   1   4  -7   -6.52    5.07
   1   4  -7    0.94    3.07
   1   4  -7    0.80    2.33
   1   4  -6  150.63    9.23
  -1  -4   6  163.03   11.49
   1   4  -6  146.09    9.07
   1   4  -6  160.86    9.55
   1   4  -6  151.06   10.82
  -1  -4   6  142.19    9.87
   1   4  -6  134.55    9.41
  -1  -4   5 1501.49   37.47
   1   4  -5 1446.46   31.97
   1   4  -5 1484.55   34.10
   1   4  -5 1560.42   37.94
   1   4  -5 1528.80   33.59
  -1  -4   5 1561.59   35.28
  -1  -4   4    3.93    3.00
   1   4  -4   10.01    3.52
   1   4  -4    5.87    2.31
   1   4  -4    7.44    2.15
   1   4  -4    5.78    2.17
   1   4  -4   10.45    3.14
  -1  -4   4    7.14    2.49
  -1  -4   4    9.09    3.02
   1   4  -3  274.11   11.16
   1   4  -3  267.26    9.96
  -1  -4   3  263.68   10.09
   1   4  -3  289.16   10.72
  -1  -4   3  271.57   12.95
   1   4  -3  256.68    9.96
  -1  -4   3  273.20   10.83
   1   4  -3  279.78   10.79
   1   4  -3  279.08   13.17
   1   4  -3  287.33   11.29
   1   4  -3  274.67   11.83
  -1  -4   3  267.64   11.33
   1   4  -2 1825.41   37.92
   1   4  -2 1860.12   35.11
   1   4  -2 1781.93   35.16
   1   4  -2 1852.69   36.64
   1   4  -2 1876.51   35.93
   1   4  -2 1799.01   39.65
  -1  -4   2 1786.51   34.77
  -1  -4   2 1810.12   34.09
   1   4  -2 1821.27   35.16
   1   4  -2 1844.23   36.29
  -1  -4   2 1835.11   36.91
  -1  -4   2 1772.62   39.52
   1   4  -2 1769.30   37.34
   1   4  -1   71.78    6.47
  -1  -4   1   61.84    5.93
  -1  -4   1   67.28    6.37
  -1  -4   1   65.07    4.33
   1   4  -1   66.67    4.87
   1   4  -1   62.08    4.79
   1   4  -1   61.80    4.75
  -1  -4   1   66.10    4.52
  -1  -4   1   60.82    4.26
  -1  -4   1   65.61    5.41
   1   4  -1   60.12    4.86
   1   4  -1   62.36    5.30
   1   4  -1   59.54    4.57
   1   4  -1   58.32    4.55
   1   4  -1   77.19    6.74
   1   4   0    0.43    1.44
   1   4   0    1.30    1.99
  -1  -4   0    0.69    1.41
  -1  -4   0    1.17    1.67
   1   4   0    3.27    1.89
  -1  -4   0    2.40    2.71
  -1  -4   0    3.52    1.69
  -1  -4   0    2.58    1.74
  -1  -4   0    1.59    1.49
  -1  -4   0    0.84    2.04
  -1  -4  -1  854.12   22.81
   1   4   1  892.76   21.59
  -1  -4  -1  876.91   21.57
   1   4   1  853.57   21.45
  -1  -4  -1  865.48   18.05
   1   4   1  953.01   22.56
  -1  -4  -1  909.10   23.61
  -1  -4  -1  905.19   21.10
  -1  -4  -1  849.11   24.72
  -1  -4  -1  919.59   22.92
  -1  -4  -1  841.92   21.41
   1   4   1  872.89   18.99
  -1  -4  -2 1446.26   24.97
  -1  -4  -2 1531.09   32.93
   1   4   2 1485.59   26.67
   1   4   2 1407.96   30.24
   1   4   2 1516.63   32.12
  -1  -4  -2 1452.71   31.54
   1   4   2 1419.68   29.95
   1   4   2 1470.70   31.88
  -1  -4  -3   40.26    2.09
   1   4   3   38.11    3.60
   1   4   3   46.02    4.22
   1   4   3   46.20    4.98
   1   4   3   39.89    4.36
   1   4   3   42.79    4.63
  -1  -4  -3   45.69    5.08
  -1  -4  -4  284.24   12.49
   1   4   4  271.44    9.55
   1   4   4  276.44   10.49
  -1  -4  -4  251.88    5.69
   1   4   4  267.19   12.33
   1   4   4  256.97   10.91
   1   4   5  266.32   11.10
   1   4   5  278.61   11.84
   1   4   5  267.07    9.15
   1   4   5  295.21   13.64
  -1  -4  -5  286.95   13.26
   1   4   5  282.22   12.14
   1   4   5  289.79    9.96
   1   4   5  282.71    9.82
   1   4   6    5.06    3.23
   1   4   6    5.74    1.76
  -1  -4  -6    6.67    1.33
   1   4   6    5.90    2.09
   1   4   6    6.06    1.52
   1   4   6    4.66    3.40
   1   4   6    4.75    2.85
  -1  -4  -6    4.59    3.01
   1   4   6   10.83    3.14
  -1  -4  -7    9.64    1.90
   1   4   7   16.38    4.06
   1   4   7    8.28    2.47
   1   4   7    8.99    1.26
   1   4   7   10.47    1.26
   1   4   7   10.51    3.46
   1   4   7    7.20    1.70
   1   4   7    8.92    3.62
  -1  -4  -7   11.37    3.81
   1   4   7   18.02    4.22
  -1  -4  -8  125.86   10.44
   1   4   8  104.26    9.37
   1   4   8  117.52    9.15
   1   4   8  133.45    9.51
   1   4   8  125.18    7.63
   1   4   8  121.46    9.41
   1   4   9   36.29    5.88
   1   4   9   25.14    5.36
   1   4   9   36.26    6.52
   1   4   9   37.84    6.27
  -1  -4  -9   32.36    6.46
   1   4   9   37.55    4.71
   1   4  10    2.97    4.21
   1   4  10   -0.97    3.90
   1   4  10   -2.67    3.78
   1   4  10   -0.15    3.59
  -1  -4 -10    2.71    4.34
   1   4  11   22.34    6.39
  -1  -4 -11   13.69    5.93
   1   4  11   18.09    5.96
   1   4  11   25.19    5.46
   1   5  -9   26.58    5.95
   1   5  -9   34.82    7.34
   1   5  -8  108.37    9.70
   1   5  -8   94.70    8.68
   1   5  -8  110.46   11.12
   1   5  -8  115.23   10.20
  -1  -5   8  117.11   10.51
   1   5  -7   92.85    8.21
   1   5  -7   87.97    9.82
   1   5  -7   94.40    8.46
   1   5  -7   92.14    8.41
  -1  -5   7   97.72    8.99
   1   5  -7   93.76    8.79
  -1  -5   7  102.19   10.67
   1   5  -6    3.99    3.34
   1   5  -6    7.00    3.62
  -1  -5   6   11.11    5.41
   1   5  -6    1.11    3.16
   1   5  -6    2.53    3.75
  -1  -5   6    2.89    2.90
   1   5  -6    1.26    2.81
  -1  -5   5  381.94   18.18
   1   5  -5  367.85   16.23
   1   5  -5  395.33   18.42
   1   5  -5  384.49   15.36
  -1  -5   5  380.82   15.93
  -1  -5   5  351.46   14.50
   1   5  -4  279.11   12.46
   1   5  -4  278.74   11.36
  -1  -5   4  282.05   12.85
  -1  -5   4  266.96   14.54
   1   5  -4  276.64   14.83
   1   5  -4  279.47   13.68
  -1  -5   4  299.50   12.38
  -1  -5   4  287.76   12.92
   1   5  -3    4.50    3.16
  -1  -5   3    4.23    2.85
   1   5  -3   -0.27    2.34
   1   5  -3    2.23    3.49
   1   5  -3    0.14    1.67
  -1  -5   3    1.43    2.02
  -1  -5   3    2.25    3.28
  -1  -5   3    1.74    2.76
   1   5  -2  564.23   20.62
   1   5  -2  521.44   17.50
   1   5  -2  561.99   16.84
  -1  -5   2  547.45   16.81
  -1  -5   2  528.12   20.34
   1   5  -2  543.83   18.88
   1   5  -2  556.10   17.66
  -1  -5   2  570.58   16.51
   1   5  -2  550.43   17.43
   1   5  -2  561.26   17.62
  -1  -5   2  529.20   17.78
   1   5  -2  585.18   18.20
   1   5  -1  611.56   18.88
   1   5  -1  583.36   19.37
   1   5  -1  643.15   21.65
   1   5  -1  632.37   19.19
   1   5  -1  609.63   17.78
  -1  -5   1  593.01   17.14
  -1  -5   1  585.04   19.02
  -1  -5   1  586.45   21.56
  -1  -5   1  629.79   17.41
  -1  -5   1  636.72   17.56
   1   5  -1  601.18   18.67
  -1  -5   0  320.07   12.29
  -1  -5   0  310.82   11.27
  -1  -5   0  320.94   11.93
  -1  -5   0  324.82   15.46
  -1  -5   0  331.57   12.34
   1   5   0  288.41   12.85
   1   5   0  330.15   12.57
  -1  -5   0  344.53   14.01
   1   5   0  340.23   12.17
   1   5   1  382.06   14.02
   1   5   1  386.71   13.95
  -1  -5  -1  398.87   16.97
  -1  -5  -1  402.02   14.90
   1   5   1  358.53   14.06
   1   5   1  404.36   12.74
  -1  -5  -1  384.49   13.70
  -1  -5  -1  358.31   11.35
  -1  -5  -1  382.28   14.16
  -1  -5  -1  388.71   14.36
  -1  -5  -1  410.49   15.70
   1   5   2  422.85   15.51
   1   5   2  469.81   15.93
   1   5   2  461.00   13.26
   1   5   2  442.35   15.50
  -1  -5  -2  449.47   11.75
  -1  -5  -2  503.59   17.35
  -1  -5  -2  455.73   15.48
   1   5   2  466.63   16.11
   1   5   3  214.19   10.86
   1   5   3  213.79   10.07
  -1  -5  -3  230.24    6.84
  -1  -5  -3  239.91   11.89
   1   5   3  220.80   11.31
   1   5   3  223.56    9.86
   1   5   4    6.17    2.34
   1   5   4    2.71    2.14
   1   5   4    5.73    3.10
   1   5   4   -1.00    3.05
  -1  -5  -4    7.12    1.14
  -1  -5  -4    7.89    3.02
  -1  -5  -5  217.89   12.08
   1   5   5  185.03   10.54
   1   5   5  203.03   12.04
  -1  -5  -5  194.10    5.03
   1   5   5  212.26    9.34
   1   5   5  197.47    9.54
   1   5   6  120.63    8.92
  -1  -5  -6  136.33   10.08
   1   5   6  128.38    8.24
   1   5   6  132.73    6.95
   1   5   6  129.59    7.15
  -1  -5  -6  131.12    4.17
   1   5   6  122.63    9.82
   1   5   6  107.80    8.64
   1   5   6  127.25    7.18
   1   5   7    3.35    1.71
  -1  -5  -7    1.99    0.91
   1   5   7    8.16    4.61
  -1  -5  -7    4.82    3.79
   1   5   7    1.58    1.76
   1   5   7    2.95    2.51
   1   5   7    8.87    4.13
   1   5   7    6.11    2.38
   1   5   7   -0.40    3.30
   1   5   8   63.99    7.34
   1   5   8   71.64    8.41
   1   5   8   73.08    7.94
   1   5   8   69.48    7.34
   1   5   8   69.98    5.81
  -1  -5  -8   82.98    9.67
   1   5   9   23.41    5.04
  -1  -5  -9   36.49    7.32
   1   5   9   33.34    6.62
   1   5   9   29.01    5.54
   1   5   9   27.21    5.72
  -1  -5 -10   44.32    8.27
   1   5  10   44.84    6.67
   1   5  10   35.25    6.53
   1   5  10   46.06    7.91
   1   5  10   46.53    7.49
   1   5  11   -5.57    4.88
   1   5  11   -1.65    4.49
   1   5  11    3.63    4.48
   1   6  -8   71.30    8.61
   1   6  -8   70.79    9.85
  -1  -6   7   88.27   10.65
   1   6  -7  107.58    9.79
   1   6  -7  112.88   11.71
   1   6  -7   97.05    9.67
   1   6  -7   85.68    9.02
  -1  -6   7  105.59    9.52
   1   6  -6   21.05    5.22
   1   6  -6   13.25    4.19
  -1  -6   6   15.23    4.32
   1   6  -6   24.68    6.81
  -1  -6   6   19.31    6.05
   1   6  -6   14.58    4.62
   1   6  -6   17.93    5.58
   1   6  -5  102.37    9.45
   1   6  -5   86.96    9.61
   1   6  -5  113.91    9.14
   1   6  -5   96.20    9.25
  -1  -6   5  104.23   10.52
  -1  -6   5   91.56    7.94
  -1  -6   5  113.95    9.03
  -1  -6   4  316.26   14.06
   1   6  -4  313.47   16.01
  -1  -6   4  295.11   14.42
   1   6  -4  322.63   14.92
  -1  -6   4  335.15   14.93
  -1  -6   4  313.25   17.50
   1   6  -4  344.22   17.96
  -1  -6   3  260.36   15.53
   1   6  -3  269.01   13.17
   1   6  -3  240.15   13.67
   1   6  -3  261.99   11.64
   1   6  -3  244.25   14.72
  -1  -6   3  254.80   12.65
  -1  -6   3  262.51   12.24
  -1  -6   3  248.60   12.57
  -1  -6   2  165.42   12.11
   1   6  -2  180.12   10.73
   1   6  -2  135.22   10.11
   1   6  -2  174.83   12.19
  -1  -6   2  170.12    9.54
  -1  -6   2  187.87   10.94
  -1  -6   2  161.99    9.52
   1   6  -1  310.71   15.92
   1   6  -1  287.52   14.26
  -1  -6   1  313.92   16.56
  -1  -6   1  288.78   12.51
  -1  -6   1  328.29   14.54
  -1  -6   1  284.29   12.43
   1   6  -1  302.16   12.61
   1   6   0  251.23   11.34
  -1  -6   0  256.72   11.70
   1   6   0  242.46   12.83
  -1  -6   0  242.90   14.43
  -1  -6   0  264.70   11.19
  -1  -6   0  257.17   12.97
  -1  -6   0  253.29   11.88
  -1  -6   0  253.56   11.82
   1   6   0  258.36   11.68
   1   6   1   92.45    6.97
  -1  -6  -1   96.79    6.19
   1   6   1   87.00    7.46
  -1  -6  -1   89.43    7.19
  -1  -6  -1   93.59    7.50
  -1  -6  -1   93.68    7.12
   1   6   1   87.37    6.98
  -1  -6  -1   86.82    7.74
  -1  -6  -1   86.58    8.51
   1   6   1   92.27    6.64
   1   6   2   49.43    4.69
  -1  -6  -2   50.82    6.04
  -1  -6  -2   46.79    6.79
  -1  -6  -2   39.33    3.70
   1   6   2   31.27    4.72
  -1  -6  -2   40.64    5.21
   1   6   2   39.65    5.51
   1   6   2   51.00    5.86
  -1  -6  -2   43.21    6.01
  -1  -6  -2   41.24    4.88
   1   6   3  415.12   14.31
   1   6   3  385.91   15.39
  -1  -6  -3  404.82   11.09
   1   6   3  387.53   16.06
  -1  -6  -3  424.96   17.17
   1   6   3  397.88   16.48
   1   6   4   12.31    4.12
   1   6   4   16.10    4.35
  -1  -6  -4   18.47    1.98
   1   6   4   21.51    3.60
  -1  -6  -4   15.55    3.96
   1   6   4   24.30    4.22
   1   6   5   21.64    5.03
   1   6   5   22.17    3.54
   1   6   5   14.77    4.65
   1   6   5   12.11    3.11
  -1  -6  -5   14.60    1.45
  -1  -6  -5    6.98    3.86
   1   6   6  143.06   10.41
  -1  -6  -6  152.92   11.42
   1   6   6  145.79   11.33
   1   6   6  139.32    8.61
   1   6   6  143.13    8.39
   1   6   7   46.96    4.86
   1   6   7   53.29    6.89
   1   6   7   52.35    5.95
   1   6   7   56.79    7.60
  -1  -6  -7   61.15    8.28
   1   6   7   49.62    4.90
   1   6   7   61.85    7.97
   1   6   8    2.22    3.55
   1   6   8    7.04    3.61
   1   6   8    7.24    4.37
   1   6   8    0.40    3.41
  -1  -6  -8    1.84    4.18
   1   6   9   -0.44    4.62
   1   6   9   -1.75    3.73
  -1  -6  -9    7.45    5.35
   1   6   9    5.79    4.33
   1   6   9    6.95    4.95
   1   6  10   31.42    6.71
  -1  -6 -10   39.12    8.09
   1   6  10   25.56    7.24
   1   6  10   21.76    5.38
   1   6  10   38.60    7.47
   1   7  -7  113.45   10.92
   1   7  -7   81.80    9.61
   1   7  -6   92.00   11.31
   1   7  -6   86.91    9.73
   1   7  -6   90.41    9.81
   1   7  -6   91.54    9.48
  -1  -7   6  100.18   11.82
   1   7  -5    1.97    3.47
   1   7  -5   -5.89    4.59
  -1  -7   5    1.58    4.35
   1   7  -5    1.05    4.07
   1   7  -5   -4.17    3.97
  -1  -7   5    3.45    3.75
  -1  -7   5    2.57    3.19
  -1  -7   4   80.31    8.03
   1   7  -4   72.72    8.96
   1   7  -4   96.47   10.70
  -1  -7   4   90.04    8.28
  -1  -7   4   90.58   10.32
   1   7  -4   89.47    8.76
  -1  -7   4   78.85    8.27
  -1  -7   3  292.37   14.10
   1   7  -3  291.90   15.48
  -1  -7   3  286.53   17.60
   1   7  -3  300.87   17.58
   1   7  -3  275.28   16.04
  -1  -7   3  287.66   14.54
  -1  -7   3  313.43   14.98
  -1  -7   2   46.70    6.32
   1   7  -2   45.25    7.35
   1   7  -2   35.19    4.50
  -1  -7   2   38.64    5.26
  -1  -7   2   46.60    6.00
   1   7  -2   34.15    5.96
   1   7  -1  104.09    7.42
  -1  -7   1   93.12    9.85
  -1  -7   1   98.75    8.03
  -1  -7   1   97.80    8.15
   1   7  -1   92.85    9.15
  -1  -7   1   91.28    8.41
  -1  -7   0  259.74   13.09
  -1  -7   0  251.19   12.51
   1   7   0  248.28   14.11
   1   7   0  271.87   12.42
  -1  -7   0  228.07   14.75
  -1  -7   0  247.45   13.31
  -1  -7   0  244.35   11.65
  -1  -7  -1  131.76    7.81
  -1  -7  -1  126.07    9.24
  -1  -7  -1  117.34   10.30
   1   7   1  104.89    9.11
   1   7   1  107.86    8.19
   1   7   1  129.59    9.89
  -1  -7  -1  126.22    9.73
  -1  -7  -1  125.50    8.89
   1   7   2  237.03   13.36
  -1  -7  -2  248.81   12.71
  -1  -7  -2  219.80   14.18
  -1  -7  -2  235.67    9.92
  -1  -7  -2  245.21   12.84
   1   7   2  243.28   12.59
   1   7   2  240.05   11.23
  -1  -7  -2  234.48   12.90
   1   7   2  210.58   12.51
  -1  -7  -2  234.43   13.56
  -1  -7  -3   50.76    6.26
  -1  -7  -3   36.93    6.27
  -1  -7  -3   51.33    4.19
  -1  -7  -3   56.43    6.54
   1   7   3   59.11    7.19
  -1  -7  -3   50.76    7.15
   1   7   3   54.78    6.66
  -1  -7  -3   50.88    6.50
   1   7   3   44.06    6.24
   1   7   3   55.85    5.25
  -1  -7  -4   61.58    7.21
  -1  -7  -4   54.49    3.71
   1   7   4   50.22    4.89
   1   7   4   49.55    6.37
   1   7   4   50.51    7.03
   1   7   4   48.73    6.10
   1   7   5   -4.42    4.00
   1   7   5    1.79    2.31
   1   7   5   -1.83    2.86
   1   7   5   -5.67    3.89
  -1  -7  -5    0.80    0.94
  -1  -7  -5   -1.72    3.46
   1   7   6    6.86    4.25
   1   7   6    5.61    2.74
   1   7   6    2.03    3.62
   1   7   6    3.92    2.48
  -1  -7  -6    3.75    3.45
   1   7   7   30.48    6.39
   1   7   7   30.07    4.70
   1   7   7   31.70    6.54
   1   7   7   21.89    5.53
   1   7   7   32.68    4.76
  -1  -7  -7   23.73    6.18
  -1  -7  -8    7.32    4.71
   1   7   8    6.93    4.42
   1   7   8    7.50    5.42
   1   7   8    7.63    5.62
   1   7   9    0.55    5.07
   1   7   9   11.55    5.30
   1   7   9   14.46    6.03
   1   8  -6   96.84   10.91
   1   8  -5   33.46    7.60
   1   8  -5   28.48    7.05
  -1  -8   5   29.59    5.96
   1   8  -5   29.26    6.63
  -1  -8   4   -3.82    4.91
   1   8  -4    8.01    5.57
   1   8  -4    4.10    5.10
   1   8  -4    1.58    4.58
  -1  -8   4    8.84    4.35
  -1  -8   4    7.67    4.31
  -1  -8   3   89.80   10.81
   1   8  -3   81.09    9.79
   1   8  -3   84.96   10.45
  -1  -8   3   89.31    8.70
  -1  -8   3   90.35    8.90
  -1  -8   3   86.69    8.34
  -1  -8   2   53.44    6.96
  -1  -8   2   51.77    6.61
  -1  -8   2   54.12    8.57
  -1  -8   2   51.30    6.57
   1   8  -2   43.83    7.28
  -1  -8   1    2.99    4.40
  -1  -8   1    4.08    3.40
  -1  -8   1    0.01    3.06
   1   8  -1    4.04    2.53
   1   8  -1    0.69    4.13
  -1  -8   1    3.67    3.78
  -1  -8   0   78.27    7.99
  -1  -8   0   85.07    7.98
  -1  -8   0   83.75    9.68
   1   8   0   89.11    7.44
  -1  -8   0   90.11    8.39
   1   8   0   89.60    9.26
   1   8   1  118.67   10.21
  -1  -8  -1  134.05   11.78
  -1  -8  -1  141.27    8.82
  -1  -8  -1  111.41    9.15
   1   8   1  118.31   10.41
  -1  -8  -1  134.03    9.76
   1   8   1  129.10    9.30
  -1  -8  -1  131.23   10.31
  -1  -8  -2   10.10    4.15
  -1  -8  -2   13.32    4.51
  -1  -8  -2   11.16    3.67
  -1  -8  -2   16.74    3.39
   1   8   2   13.42    4.84
   1   8   2   11.03    4.48
   1   8   2   12.98    3.75
  -1  -8  -2   20.51    6.07
   1   8   3   -0.68    4.38
  -1  -8  -3    8.72    4.05
  -1  -8  -3    3.89    4.93
  -1  -8  -3    3.97    2.25
   1   8   3   -1.42    2.14
  -1  -8  -3    4.37    3.53
   1   8   3   -2.57    3.92
   1   8   3    2.81    3.38
  -1  -8  -3    0.08    3.37
  -1  -8  -3    4.28    4.31
  -1  -8  -4   48.33    6.66
   1   8   4   49.35    7.62
   1   8   4   46.75    6.75
  -1  -8  -4   39.47    7.44
   1   8   4   37.94    6.12
  -1  -8  -4   45.77    6.44
  -1  -8  -4   39.79    6.54
  -1  -8  -4   45.55    6.89
  -1  -8  -5   13.75    4.47
   1   8   5    9.82    4.46
   1   8   5    5.99    4.05
   1   8   5   17.72    5.60
   1   8   6    1.32    4.76
   1   8   6    1.96    2.96
  -1  -8  -6   -6.08    4.94
   1   8   6   -0.19    4.05
   1   8   7   34.75    7.05
   1   8   7   16.37    4.26
  -1  -8  -7   34.08    7.42
   1   8   7   31.58    6.87
   1   8   7   24.79    6.88
   1   8   8    0.84    4.75
   1   8   8   -5.05    6.05
   1   8   8    0.08    5.25
  -1  -8  -8    1.24    4.38
  -1  -8  -9    0.48    5.66
   1   9  -3    9.15    5.30
  -1  -9   3   16.97    5.05
  -1  -9   3   13.02    6.04
   1   9  -2   69.80    9.39
  -1  -9   2   79.77    8.48
  -1  -9   2   80.05    8.70
  -1  -9   2   72.24   10.23
  -1  -9   1   14.40    4.64
  -1  -9   1   13.26    6.04
   1   9  -1    6.60    5.01
  -1  -9   1    5.42    3.57
  -1  -9   0    6.32    3.99
  -1  -9   0    0.05    3.28
   1   9   0    3.32    3.79
  -1  -9   0    1.73    5.05
   1   9   0   -5.00    4.27
  -1  -9   0   -1.22    3.63
   1   9   1   38.77    5.73
   1   9   1   45.39    7.54
  -1  -9  -1   33.37    7.26
  -1  -9  -1   35.84    6.09
  -1  -9  -1   36.74    5.79
   1   9   1   31.68    6.38
  -1  -9  -1   30.26    5.64
   1   9   2   17.32    5.94
   1   9   2    9.78    4.93
  -1  -9  -2   10.83    5.61
   1   9   2   16.69    4.45
  -1  -9  -2    9.28    3.90
  -1  -9  -2   22.12    5.38
  -1  -9  -2   17.16    5.14
   1   9   3    1.20    4.22
   1   9   3   -3.24    3.77
  -1  -9  -3    6.71    5.04
  -1  -9  -3    4.23    3.41
  -1  -9  -3    1.80    3.41
  -1  -9  -3   -1.61    3.77
   1   9   3    2.02    4.06
   1   9   4   27.29    6.73
  -1  -9  -4   44.51    7.55
   1   9   4   29.67    5.91
  -1  -9  -4   30.99    5.96
   1   9   4   29.23    6.14
  -1  -9  -4   34.60    6.40
  -1  -9  -4   22.70    5.58
  -1  -9  -4   25.64    6.72
  -1  -9  -5    5.03    3.89
  -1  -9  -5   -3.47    3.94
  -1  -9  -5   -5.84    5.43
   1   9   5    2.24    3.96
   1   9   5   -1.55    3.94
  -1  -9  -5   -0.87    4.94
   1   9   5   11.08    6.03
  -1  -9  -5    0.21    4.48
  -1  -9  -6    0.79    4.31
   1   9   6   12.81    5.26
   1   9   6   12.20    4.34
   1   9   6   11.12    4.66
   1   9   7    7.42    5.19
  -1  -9  -7   -5.83    5.49
  -1  -9  -8    3.09    5.55
   1  10  -1   29.15    6.63
  -1 -10   0   -4.11    4.58
   1  10   0    0.96    4.50
   1  10   1   19.10    5.91
   1  10   1   23.90    7.07
   1  10   2    8.92    5.49
  -1 -10  -2   -1.10    4.65
   1  10   2   -0.06    4.30
  -1 -10  -2   -1.02    3.83
  -1 -10  -2   10.51    4.78
   1  10   3   16.90    4.70
  -1 -10  -3   18.80    6.59
  -1 -10  -3   15.07    5.69
   1  10   3   12.04    5.34
   1  10   3   20.96    6.01
  -1 -10  -3   11.53    4.80
   1  10   4   11.02    5.70
  -1 -10  -4    8.63    4.83
  -1 -10  -4    3.29    5.47
   1  10   4    3.56    3.87
   1  10   4    8.64    4.25
  -1 -10  -4    7.22    5.29
   1  10   5   -2.61    4.31
  -1 -10  -5    7.20    4.94
   1  10   5   15.28    5.44
  -1 -10  -5    8.69    5.11
  -1 -10  -5   -1.88    5.29
  -1 -10  -5   -1.38    4.30
   1  10   6    8.10    5.17
   1  10   6    4.64    4.29
  -1 -10  -6   -3.72    5.04
  -1 -10  -6    4.25    5.46
  -1 -10  -6   -5.67    5.62
  -1 -10  -7    2.09    4.63
  -2   9   5   23.51    6.06
  -2   9   5   34.17    6.88
  -2   9   4    4.61    4.48
   2  -9  -4    6.72    5.06
  -2   9   4   10.15    4.87
   2  -9  -3    3.11    6.03
   2  -9  -3    1.69    5.11
  -2   9   3   -4.05    4.41
  -2   9   2   36.44    6.98
   2  -9  -2   42.46    6.33
   2  -9  -2   48.20    8.54
   2  -9  -2   44.56    8.49
   2  -9  -1   35.79    7.37
   2  -9  -1   35.81    6.26
   2  -9  -1   27.52    6.71
  -2   9   1   39.81    8.07
   2  -9   0    2.14    3.93
   2  -9   0    4.59    3.75
   2  -9   0   11.48    5.85
   2  -9   1   36.01    7.06
   2  -9   1   25.96    6.54
   2  -9   1   27.74    6.96
   2  -9   1   18.57    5.78
   2  -9   2   30.15    6.58
   2  -9   2   25.68    6.57
   2  -9   2   20.29    6.76
   2  -9   2   18.49    5.69
   2  -9   3   20.94    6.26
   2  -8  -7   10.93    5.25
  -2   8   6    4.56    6.37
  -2   8   6   -0.73    4.19
  -2   8   6   -0.86    4.78
   2  -8  -6    4.97    3.80
   2  -8  -5    5.90    6.34
  -2   8   5   14.56    5.00
  -2   8   5    6.86    4.85
  -2   8   5   17.74    5.63
  -2   8   5   11.28    5.83
   2  -8  -5   13.49    4.46
  -2   8   4   46.38    7.25
   2  -8  -4   60.72    7.89
   2  -8  -4   36.33    7.42
  -2   8   4   45.50    6.85
   2  -8  -4   50.24    8.77
  -2   8   4   53.71    8.74
   2  -8  -4   47.65    6.26
   2  -8  -3    9.18    3.96
   2  -8  -3    7.39    4.23
  -2   8   3   -2.89    4.94
  -2   8   3    9.84    5.27
  -2   8   3    5.36    3.39
   2  -8  -3    8.69    4.56
   2  -8  -3    6.70    4.76
   2  -8  -2   50.55    6.73
  -2   8   2   39.88    6.87
  -2   8   2   43.72    5.97
   2  -8  -2   47.55    8.33
   2  -8  -2   50.22    8.74
   2  -8  -2   38.72    5.97
   2  -8  -1   11.31    5.63
   2  -8  -1   15.33    4.61
   2  -8  -1   12.09    5.36
  -2   8   1   15.87    5.30
   2  -8  -1   19.23    5.12
   2  -8   0   58.23    8.65
   2  -8   0   60.61    7.51
   2  -8   0   59.72    7.55
  -2   8   0   54.35    8.55
   2  -8   0   60.48    8.76
   2  -8   1   42.41    6.69
  -2   8  -1   42.50    8.08
   2  -8   1   37.48    6.61
  -2   8  -1   45.79    7.88
   2  -8   1   42.22    7.94
   2  -8   1   31.92    6.80
  -2   8  -2   80.84   10.48
   2  -8   2   65.86    8.04
   2  -8   2   58.47    7.84
  -2   8  -2   87.47   10.73
   2  -8   2   51.33    8.27
   2  -8   2   61.27    8.97
  -2   8  -3   81.68   10.52
   2  -8   3   76.54    9.02
  -2   8  -3   67.19    9.66
  -2   8  -3   59.04    8.64
   2  -8   3   75.02    9.04
   2  -8   3   81.17   10.53
   2  -8   3   68.63    9.67
   2  -8   4   18.75    5.67
  -2   8  -4   25.49    6.77
   2  -8   4   13.64    5.54
   2  -8   4   26.67    6.47
   2  -8   4    9.05    5.28
  -2   8  -4   17.10    7.00
   2  -8   5   42.65    7.91
  -2   7   8   -4.28    5.40
   2  -7  -8    3.08    4.71
  -2   7   7    8.31    4.85
  -2   7   7    4.55    4.71
  -2   7   7    7.92    5.33
   2  -7  -7   14.96    5.34
  -2   7   6   14.29    4.10
  -2   7   6    1.25    4.76
  -2   7   6   12.13    4.95
  -2   7   6    6.55    4.53
   2  -7  -6   11.64    4.62
  -2   7   5   16.10    4.64
  -2   7   5    2.32    4.67
  -2   7   5   10.23    4.25
  -2   7   5    6.04    4.10
   2  -7  -5    9.78    3.45
   2  -7  -5   19.99    5.08
  -2   7   4   21.67    5.14
   2  -7  -4   23.54    5.54
  -2   7   4   21.70    5.15
   2  -7  -4   24.53    4.66
   2  -7  -4   35.45    5.36
   2  -7  -4   28.30    7.13
  -2   7   4   22.66    6.14
   2  -7  -3   40.06    7.67
  -2   7   3   19.49    5.83
   2  -7  -3   27.98    5.01
  -2   7   3   30.47    5.43
   2  -7  -3   35.14    5.70
  -2   7   3   30.02    5.77
   2  -7  -3   27.90    6.65
   2  -7  -3   21.63    4.12
   2  -7  -2    6.17    2.44
   2  -7  -2   14.39    5.66
  -2   7   2    9.37    4.07
   2  -7  -2    6.48    2.96
   2  -7  -2    5.88    3.67
  -2   7   2   13.74    3.96
   2  -7  -2    2.16    4.50
   2  -7  -1   34.37    5.75
  -2   7   1   38.18    5.05
   2  -7  -1   36.88    6.86
  -2   7   1   42.66    6.65
   2  -7  -1   35.86    6.94
   2  -7  -1   42.14    6.03
   2  -7  -1   35.51    4.64
  -2   7   0  174.45   12.65
   2  -7   0  164.40   10.94
   2  -7   0  160.51   11.12
   2  -7   0  161.08   12.97
   2  -7   0  164.09   12.89
  -2   7   0  171.05    8.91
  -2   7   0  180.04   12.87
   2  -7   1   13.49    4.74
  -2   7  -1    2.19    4.41
   2  -7   1    0.78    3.15
  -2   7  -1    3.05    4.56
   2  -7   1    1.61    3.84
   2  -7   1    5.42    3.82
  -2   7  -2   44.73    7.77
   2  -7   2   49.22    6.62
  -2   7  -2   51.47    7.72
   2  -7   2   59.88    7.76
   2  -7   2   49.12    8.11
   2  -7   2   52.91    8.47
  -2   7  -3  198.24   14.41
  -2   7  -3  173.44   14.07
   2  -7   3  175.67   13.86
   2  -7   3  187.83   14.22
   2  -7   3  172.30   12.12
   2  -7   3  198.39   13.66
  -2   7  -4   10.75    5.00
   2  -7   4   14.20    5.54
   2  -7   4   15.51    5.15
  -2   7  -4    8.55    5.00
  -2   7  -4   24.31    5.87
   2  -7   4   18.34    6.12
   2  -7   4   17.92    5.40
  -2   7  -5   26.57    7.07
  -2   7  -5   16.31    6.40
   2  -7   5   14.75    5.60
   2  -7   5    6.17    5.04
  -2   7  -5   17.48    5.94
   2  -7   5   28.86    6.57
   2  -7   5   13.77    6.11
  -2   7  -5   14.12    6.11
  -2   7  -6   28.52    6.72
  -2   7  -6   34.80    7.05
   2  -7   6   44.54    7.47
  -2   7  -6   40.34    8.33
   2  -7   6   50.39    9.03
   2  -7   6   36.62    8.63
  -2   7  -7   24.12    6.43
  -2   7  -7   30.67    7.44
  -2   6   9    9.39    4.91
   2  -6  -9    9.20    5.09
  -2   6   8    1.71    4.78
   2  -6  -8   -0.74    4.41
  -2   6   8    4.96    4.97
  -2   6   8   -0.27    4.02
  -2   6   7    5.27    4.71
  -2   6   7    9.08    5.70
  -2   6   7    7.74    5.17
   2  -6  -7    4.63    3.49
  -2   6   6   42.66    7.10
  -2   6   6   44.81    7.36
  -2   6   6   49.30    5.49
  -2   6   6   41.03    6.73
   2  -6  -6   52.87    6.12
   2  -6  -6   36.82    6.01
  -2   6   5   12.57    5.06
  -2   6   5   15.35    4.00
  -2   6   5    7.95    4.35
  -2   6   5   15.15    4.57
   2  -6  -5   14.90    4.11
   2  -6  -5   10.90    3.49
  -2   6   4   26.89    4.81
  -2   6   4   20.04    4.66
   2  -6  -4   28.72    4.62
   2  -6  -4   29.44    4.83
  -2   6   4   20.59    5.71
  -2   6   3  326.00   17.81
   2  -6  -3  309.30   14.71
  -2   6   3  309.22   14.51
  -2   6   3  304.26   14.52
   2  -6  -3  291.38   17.38
   2  -6  -3  321.45   13.45
   2  -6  -3  320.79   14.38
  -2   6   2   91.78    8.29
   2  -6  -2   68.05    8.47
   2  -6  -2   78.16    6.16
   2  -6  -2   60.42    6.37
  -2   6   2   65.86    6.44
   2  -6  -2   74.71    8.89
   2  -6  -2   75.17    6.98
  -2   6   2   71.43    5.40
  -2   6   1  323.27   15.64
   2  -6  -1  327.65   14.36
   2  -6  -1  343.37   11.51
  -2   6   1  313.18   12.80
   2  -6  -1  306.50   11.24
  -2   6   1  319.02   12.05
   2  -6  -1  318.18   17.32
   2  -6  -1  330.14   15.02
   2  -6  -1  312.75   17.06
  -2   6   1  305.76   10.15
  -2   6   0  191.17   12.21
   2  -6   0  185.37    8.23
  -2   6   0  171.14    8.47
  -2   6   0  187.98   12.06
   2  -6   0  177.08   10.51
   2  -6   0  194.70   11.81
   2  -6   0  186.32   13.16
   2  -6   0  185.08   13.31
   2  -6   0  180.88    7.38
  -2   6  -1  184.08   12.22
   2  -6   1  197.08   12.10
  -2   6  -1  168.17    7.29
   2  -6   1  158.66   10.12
   2  -6   1  160.11   12.33
  -2   6  -1  190.74   12.47
   2  -6   1  180.10   12.87
   2  -6   1  183.53    6.83
   2  -6   2   28.56    4.94
  -2   6  -2   26.87    5.25
  -2   6  -2   30.88    5.79
   2  -6   2   20.46    5.44
   2  -6   2   33.77    5.93
   2  -6   2   26.55    5.59
   2  -6   3   85.09    7.88
   2  -6   3   86.75    9.38
  -2   6  -3   89.27    9.04
  -2   6  -3   78.32    8.92
   2  -6   3   82.65    9.26
  -2   6  -3   86.19    9.38
   2  -6   3   86.37    8.75
  -2   6  -4  263.16   15.50
   2  -6   4  270.19   15.79
   2  -6   4  257.92   14.09
   2  -6   4  276.04   16.86
  -2   6  -4  283.81   17.01
  -2   6  -4  284.37   16.62
   2  -6   4  267.94   16.20
  -2   6  -5   -7.59    5.15
  -2   6  -5   -0.63    3.97
   2  -6   5    4.07    4.39
   2  -6   5    5.45    3.72
   2  -6   5   -0.15    4.35
   2  -6   5   -3.79    4.44
  -2   6  -5    2.21    4.07
  -2   6  -5    0.58    3.82
  -2   6  -6  121.43   11.17
   2  -6   6  155.48   13.36
   2  -6   6  133.38   12.56
  -2   6  -6  158.46   13.23
  -2   6  -6  116.19   10.99
   2  -6   6  121.35   10.83
  -2   6  -6  144.69   12.83
   2  -6   6  139.96   12.36
  -2   6  -7   40.57    7.04
  -2   6  -7   40.29    7.29
  -2   6  -7   53.97    8.71
  -2   6  -7   45.17    8.07
   2  -6   7   41.05    8.25
   2  -6   7   44.85    7.81
   2  -6   7   43.77    8.23
  -2   6  -8   26.80    6.50
  -2   5  10   -3.97    4.73
  -2   5   9   13.64    4.83
  -2   5   9   29.58    7.02
  -2   5   9   24.13    6.44
   2  -5  -9   25.13    6.43
  -2   5   8    2.41    3.90
  -2   5   8    1.27    4.25
  -2   5   8   -3.59    3.66
   2  -5  -8    7.42    4.67
  -2   5   7    3.62    3.94
  -2   5   7    0.92    3.80
   2  -5  -7    2.32    3.56
  -2   5   7   -0.40    3.17
  -2   5   6   33.26    3.97
   2  -5  -6   29.39    5.43
  -2   5   6   34.24    6.19
  -2   5   6   39.78    6.15
  -2   5   6   30.60    5.87
  -2   5   5   35.28    5.63
  -2   5   5   46.02    4.80
  -2   5   5   30.33    5.52
  -2   5   5   43.29    6.29
   2  -5  -5   39.72    5.41
   2  -5  -4    6.47    3.05
   2  -5  -4   -0.24    1.84
  -2   5   4    0.87    2.27
  -2   5   4   -1.19    3.07
  -2   5   4    1.36    3.08
   2  -5  -4    0.99    2.33
  -2   5   4    2.25    3.90
  -2   5   3  170.84    9.66
   2  -5  -3  161.11    8.85
   2  -5  -3  172.57    9.97
   2  -5  -3  170.11    9.50
  -2   5   3  167.18    9.96
  -2   5   3  153.84   11.38
  -2   5   2  428.59   16.23
   2  -5  -2  448.72   14.16
   2  -5  -2  452.61   16.26
   2  -5  -2  412.70   19.51
  -2   5   2  435.79   15.51
  -2   5   2  431.64   11.33
   2  -5  -2  441.70   14.18
  -2   5   2  412.45   13.29
   2  -5  -2  483.08   17.08
  -2   5   1  143.50    9.52
   2  -5  -1  144.38    6.85
   2  -5  -1  153.58    8.94
  -2   5   1  145.34    9.68
   2  -5  -1  144.21    8.06
   2  -5  -1  146.28   11.42
   2  -5  -1  138.21   11.05
  -2   5   1  140.35    7.70
  -2   5   1  131.93    6.66
   2  -5  -1  160.59    9.67
  -2   5   1  141.25    6.30
   2  -5  -1  137.99    6.76
  -2   5   0  255.15   12.85
  -2   5   0  254.86   10.43
   2  -5   0  270.28    9.53
   2  -5   0  249.77   11.46
   2  -5   0  261.32    8.41
  -2   5   0  259.28    9.78
  -2   5   0  255.83   13.03
   2  -5   0  263.85   15.02
   2  -5   0  252.37   14.59
   2  -5   0  257.22   10.18
   2  -5   0  277.56   13.24
   2  -5   0  266.21    8.03
  -2   5  -1  819.62   24.90
  -2   5  -1  790.26   16.10
   2  -5   1  749.91   21.82
  -2   5  -1  815.88   17.58
  -2   5  -1  811.30   24.86
   2  -5   1  818.87   24.99
   2  -5   1  789.69   27.04
   2  -5   1  816.63   16.54
   2  -5   1  807.64   27.49
   2  -5   1  807.63   15.41
  -2   5  -2   64.35    2.92
  -2   5  -2   64.15    7.15
  -2   5  -2   78.54    7.76
   2  -5   2   52.43    7.22
   2  -5   2   73.24    8.16
   2  -5   2   68.73    6.29
   2  -5   2   70.45    7.21
  -2   5  -2   61.66    4.35
  -2   5  -3  167.90   11.07
   2  -5   3  170.46   10.04
  -2   5  -3  194.13   12.79
   2  -5   3  169.07   11.37
   2  -5   3  156.94   11.76
  -2   5  -3  171.20   11.36
   2  -5   3  148.35   11.08
  -2   5  -3  173.59    8.63
  -2   5  -4  522.75   20.34
   2  -5   4  485.93   18.50
   2  -5   4  565.00   21.94
  -2   5  -4  551.14   21.50
   2  -5   4  521.32   21.85
   2  -5   4  498.40   20.94
  -2   5  -4  521.94   21.58
  -2   5  -5   97.12    9.57
  -2   5  -5   83.34    8.15
   2  -5   5   99.91    8.86
  -2   5  -5  104.51    9.64
   2  -5   5  110.91   10.31
   2  -5   5  109.95    9.89
   2  -5   5   91.33    9.49
  -2   5  -5  103.61    9.71
  -2   5  -6    8.71    4.85
  -2   5  -6   10.62    5.01
   2  -5   6    7.92    4.89
  -2   5  -6    9.41    4.13
   2  -5   6   13.48    5.08
  -2   5  -6    8.73    4.20
   2  -5   6    8.98    4.92
  -2   5  -7  203.44   13.20
   2  -5   7  220.36   15.64
  -2   5  -7  190.68   13.17
  -2   5  -7  236.15   15.83
   2  -5   7  226.84   15.61
   2  -5   7  225.92   14.97
  -2   5  -7  229.81   15.00
  -2   5  -8   63.42    8.50
  -2   5  -8   68.82    8.61
  -2   5  -8   68.57    7.96
  -2   5  -8   74.88    9.52
   2  -5   8   89.73   10.27
  -2   4  10    0.55    3.52
  -2   4   9    9.58    5.13
  -2   4   9    2.05    4.60
   2  -4  -9   17.67    6.01
  -2   4   9    5.24    3.90
  -2   4   8    6.33    3.53
  -2   4   8    9.84    4.85
   2  -4  -8    9.96    4.95
  -2   4   8    7.80    4.47
  -2   4   7    8.38    3.92
  -2   4   7   10.54    4.27
  -2   4   7    4.60    4.26
   2  -4  -7    3.13    4.04
   2  -4  -6  143.16    7.63
  -2   4   6  140.78    6.30
  -2   4   6  132.93    9.42
  -2   4   6  137.26   10.46
   2  -4  -6  139.95    9.99
  -2   4   6  139.21    9.91
   2  -4  -5  201.15   11.02
  -2   4   5  190.26   10.89
   2  -4  -5  196.45    7.83
  -2   4   5  168.87   10.54
  -2   4   5  188.75   11.55
   2  -4  -5  194.14    8.77
  -2   4   5  192.14    8.14
  -2   4   4   79.85    5.55
   2  -4  -4   91.12    6.88
   2  -4  -4   97.59    4.47
  -2   4   4  100.93    7.67
   2  -4  -4   94.15    6.10
  -2   4   4   86.08    7.53
  -2   4   4   89.42    7.96
  -2   4   3   51.64    4.82
  -2   4   3   48.90    6.25
   2  -4  -3   38.27    4.02
  -2   4   3   53.56    5.44
   2  -4  -3   43.19    4.40
  -2   4   2  332.52   12.55
   2  -4  -2  369.61   13.69
   2  -4  -2  319.91   11.21
   2  -4  -2  336.56   12.14
   2  -4  -2  336.57   12.40
   2  -4  -2  327.95   10.99
  -2   4   2  336.37   12.53
  -2   4   2  321.08    7.89
   2  -4  -1  388.10   17.46
   2  -4  -1  418.52   15.09
  -2   4   1  395.83   14.27
   2  -4  -1  412.32   11.36
   2  -4  -1  391.03   13.51
  -2   4   1  405.54   12.86
   2  -4  -1  396.95   13.63
  -2   4   1  398.25   14.67
   2  -4  -1  406.14   12.95
  -2   4   1  386.01   10.63
   2  -4  -1  390.35   11.35
   2  -4   0   11.51    1.61
  -2   4   0   14.32    3.31
   2  -4   0   13.78    2.76
  -2   4   0   10.31    2.01
  -2   4   0   12.60    3.06
   2  -4   0   16.69    3.12
   2  -4   0   15.13    1.78
   2  -4   0   14.16    4.45
   2  -4   0   15.13    2.32
   2  -4   0    9.49    3.62
  -2   4   0   13.01    2.27
   2  -4   0   12.41    3.53
   2  -4   1 1205.29   32.64
  -2   4  -1 1180.19   28.81
   2  -4   1 1117.84   25.62
  -2   4  -1 1189.57   21.51
  -2   4  -1 1167.46   21.74
   2  -4   1 1120.03   32.23
  -2   4  -1 1213.60   29.17
   2  -4   1 1138.21   19.22
   2  -4   1 1179.84   20.55
   2  -4   1 1182.48   29.93
  -2   4  -1 1212.89   26.39
  -2   4  -2  470.50   12.81
  -2   4  -2  493.68   16.45
   2  -4   2  470.68   14.87
  -2   4  -2  493.53   19.04
   2  -4   2  459.69   18.73
  -2   4  -2  447.60    8.77
  -2   4  -2  485.43   17.17
  -2   4  -2  480.74   16.90
   2  -4   2  524.00   18.72
   2  -4   2  494.10   18.91
  -2   4  -3   72.04    6.71
  -2   4  -3   71.49    6.74
   2  -4   3   79.96    5.31
  -2   4  -3   71.36    5.35
  -2   4  -3   82.13    7.63
   2  -4   3   69.40    7.15
   2  -4   3   67.55    7.39
   2  -4   3   74.51    7.40
   2  -4   3   68.45    5.75
  -2   4  -4  322.56   14.18
   2  -4   4  327.20   15.15
   2  -4   4  311.77   15.35
   2  -4   4  329.25   12.49
  -2   4  -4  333.97   15.05
   2  -4   4  336.27   15.96
  -2   4  -4  332.86   15.40
   2  -4   4  319.15   13.29
  -2   4  -5  293.18   13.76
  -2   4  -5  304.87    8.63
   2  -4   5  314.81   15.98
  -2   4  -5  303.25   15.03
   2  -4   5  320.22   13.42
   2  -4   5  309.53   15.51
  -2   4  -5  297.08   14.78
   2  -4   5  307.55   13.84
   2  -4   5  301.57   14.98
  -2   4  -5  303.36    8.50
  -2   4  -6  262.63    9.40
   2  -4   6  253.59   13.05
   2  -4   6  251.84   14.87
   2  -4   6  266.02   14.93
   2  -4   6  236.54   13.58
  -2   4  -6  250.62   12.96
  -2   4  -6  259.31   14.06
  -2   4  -6  278.67   15.10
  -2   4  -6  243.64   13.65
  -2   4  -7   92.78    8.18
  -2   4  -7  107.26    9.62
   2  -4   7  100.90    9.95
   2  -4   7  120.50   10.45
  -2   4  -7   93.47    8.43
  -2   4  -7  120.56   10.45
   2  -4   7  101.65    9.44
   2  -4   7  102.33    9.03
  -2   4  -8   85.59    7.92
  -2   4  -8  100.21    8.75
  -2   4  -8  101.74   10.26
   2  -4   8  110.27   10.35
  -2   4  -8   98.61    9.83
  -2   4  -9  106.61   10.50
  -2   4  -9  128.25   12.17
  -2   3  10    3.30    4.33
   2  -3 -10    1.16    4.14
  -2   3  10    2.85    4.59
  -2   3  10   -0.48    3.10
  -2   3   9    1.20    4.57
  -2   3   9    8.90    4.77
  -2   3   9    2.76    3.43
   2  -3  -9    3.55    4.25
  -2   3   8   35.58    6.31
  -2   3   8   24.98    5.33
  -2   3   8   28.53    4.64
   2  -3  -7  294.53   15.10
  -2   3   7  291.18   12.86
  -2   3   7  292.44   15.46
  -2   3   7  277.90   14.14
  -2   3   6   17.98    3.77
   2  -3  -6   25.25    4.72
  -2   3   6   26.96    4.96
  -2   3   6   12.96    3.65
  -2   3   6   25.87    2.04
   2  -3  -5  104.92    7.84
  -2   3   5  103.87    7.50
  -2   3   5  110.93    5.02
   2  -3  -5  112.88    5.72
  -2   3   5  110.23    6.52
  -2   3   5  101.60    7.23
  -2   3   5  102.17    8.05
   2  -3  -5  114.23    6.26
  -2   3   4  592.71   14.46
   2  -3  -4  584.78   17.62
   2  -3  -4  597.48   14.37
  -2   3   4  589.15   18.82
  -2   3   4  620.44   18.17
  -2   3   4  598.32   16.58
   2  -3  -4  583.69   14.68
  -2   3   4  573.10   18.15
  -2   3   3   -1.95    2.88
   2  -3  -3    4.39    1.96
   2  -3  -3    1.65    1.28
   2  -3  -3   -0.10    1.77
  -2   3   3    4.13    2.44
  -2   3   3   -1.65    2.41
  -2   3   3    0.86    1.51
  -2   3   3    2.35    1.82
   2  -3  -3    1.14    0.93
  -2   3   2  474.30   13.67
   2  -3  -2  490.55   13.23
   2  -3  -2  480.10   14.39
   2  -3  -2  489.52   13.11
  -2   3   2  459.87   14.30
   2  -3  -2  476.45   13.46
  -2   3   1 1549.04   30.90
   2  -3  -1 1634.36   32.96
   2  -3  -1 1449.43   29.59
  -2   3   1 1554.63   31.32
   2  -3  -1 1586.67   29.89
  -2   3   1 1563.82   29.85
   2  -3  -1 1552.41   27.67
  -2   3   1 1511.35   25.91
   2  -3  -1 1502.05   27.87
   2  -3  -1 1541.40   29.55
  -2   3   0  738.19   18.82
   2  -3   0  696.15   16.58
  -2   3   0  684.99   15.70
  -2   3   0  740.98   18.80
   2  -3   0  730.22   15.98
   2  -3   0  724.23   22.93
   2  -3   0  714.83   23.36
  -2   3   0  715.61   15.75
   2  -3   0  722.85   22.87
   2  -3   0  753.07   20.34
   2  -3   0  712.84   13.96
   2  -3   0  723.41   13.80
   2  -3   1  485.03   17.43
  -2   3  -1  466.76   14.67
  -2   3  -1  483.10   10.54
  -2   3  -1  495.94   14.26
   2  -3   1  484.81   12.71
   2  -3   1  509.63   16.74
   2  -3   1  436.37    8.13
  -2   3  -1  493.79   14.85
   2  -3   1  486.43   10.11
  -2   3  -1  513.05   11.30
   2  -3   1  468.68   18.07
   2  -3   1  490.19   10.88
   2  -3   1  514.77   18.19
   2  -3   1  489.15   13.30
  -2   3  -1  486.70   13.31
  -2   3  -2 1464.67   31.80
   2  -3   2 1477.24   29.06
   2  -3   2 1497.66   27.19
   2  -3   2 1452.59   34.35
  -2   3  -2 1506.36   28.32
  -2   3  -2 1559.72   30.62
  -2   3  -2 1541.60   34.88
  -2   3  -2 1532.16   32.25
   2  -3   2 1458.79   35.31
   2  -3   2 1550.55   34.99
   2  -3   2 1517.27   30.83
  -2   3  -2 1492.08   30.78
  -2   3  -3  897.23   22.18
  -2   3  -3  986.54   23.86
  -2   3  -3 1000.22   22.81
   2  -3   3  929.68   21.75
   2  -3   3  891.76   24.53
  -2   3  -3  949.14   25.06
   2  -3   3  914.13   25.56
  -2   3  -3  930.26   23.94
   2  -3   3  943.42   26.36
   2  -3   3  923.97   23.21
   2  -3   3  917.64   20.62
  -2   3  -3  912.63   21.58
  -2   3  -4  216.68   10.33
  -2   3  -4  226.68   10.28
   2  -3   4  226.18   12.23
   2  -3   4  210.55    9.43
  -2   3  -4  221.63    9.92
  -2   3  -4  221.67   11.15
   2  -3   4  205.43    9.61
   2  -3   4  231.86   11.81
  -2   3  -4  223.18    5.83
   2  -3   4  221.09   11.11
  -2   3  -4  224.08   11.07
   2  -3   4  220.10   10.82
  -2   3  -4  226.40    6.44
  -2   3  -5  704.18   20.71
  -2   3  -5  747.24   16.82
  -2   3  -5  733.37   22.53
  -2   3  -5  760.66   22.81
   2  -3   5  713.84   22.26
   2  -3   5  731.95   23.16
   2  -3   5  723.13   20.77
  -2   3  -5  750.27   15.61
   2  -3   5  715.22   22.42
   2  -3   5  742.58   24.13
  -2   3  -6   95.74    7.22
  -2   3  -6  112.30    6.50
  -2   3  -6   94.08    7.83
  -2   3  -6  113.14    8.60
   2  -3   6  109.00    8.13
  -2   3  -6  107.63    8.66
   2  -3   6  118.30    9.32
   2  -3   6   93.59    8.64
   2  -3   6   96.32    8.21
  -2   3  -6  104.20    5.49
   2  -3   6  107.55    8.68
  -2   3  -7   41.41    4.77
   2  -3   7   45.45    7.09
  -2   3  -7   28.34    4.46
   2  -3   7   39.64    6.06
  -2   3  -7   28.71    4.40
  -2   3  -7   25.57    5.38
   2  -3   7   27.89    4.98
   2  -3   7   33.29    5.59
   2  -3   7   35.85    5.67
  -2   3  -7   43.62    6.04
  -2   3  -8   78.83    6.88
  -2   3  -8   82.45    7.11
  -2   3  -8   77.70    8.17
   2  -3   8   72.22    8.14
  -2   3  -8   65.12    7.85
  -2   3  -8   66.61    6.44
  -2   3  -9  146.14   12.02
   2  -3   9  134.21   11.66
  -2   3  -9  142.67   11.59
  -2   3 -10   67.32    8.73
  -2   3 -10   71.13    9.34
   2  -2 -10   15.31    5.47
  -2   2  10    9.24    4.11
  -2   2  10   17.15    4.07
  -2   2  10   15.10    5.45
  -2   2   9    3.14    2.99
   2  -2  -9    0.39    4.49
  -2   2   9   -1.18    3.73
  -2   2   9    2.39    3.86
  -2   2   8   68.28    8.01
  -2   2   8   62.35    6.21
   2  -2  -8   72.17    8.33
  -2   2   8   59.75    7.05
   2  -2  -7    3.99    3.77
  -2   2   7    0.52    2.35
  -2   2   7    4.51    3.38
  -2   2   7    2.88    3.49
   2  -2  -6  222.93   11.89
  -2   2   6  209.11    9.59
  -2   2   6  200.28    8.38
  -2   2   6  207.67   11.70
  -2   2   6  207.75   10.86
  -2   2   5   60.72    4.94
  -2   2   5   66.39    4.74
  -2   2   5   63.67    5.74
  -2   2   5   65.80    6.38
   2  -2  -5   64.97    6.04
   2  -2  -5   58.39    4.84
  -2   2   5   65.85    2.91
   2  -2  -4  484.43   13.32
  -2   2   4  448.07   13.80
  -2   2   4  485.34   13.58
  -2   2   4  450.70   15.50
  -2   2   4  469.06   14.63
   2  -2  -4  468.70   15.06
  -2   2   4  468.13   10.78
  -2   2   3 1750.30   29.82
   2  -2  -3 1641.11   29.96
  -2   2   3 1746.48   32.53
  -2   2   3 1709.71   34.51
  -2   2   3 1656.03   33.32
   2  -2  -3 1768.43   34.71
   2  -2  -3 1615.21   28.33
  -2   2   3 1751.13   33.02
   2  -2  -3 1728.84   33.68
   2  -2  -3 1769.87   33.36
  -2   2   2  227.91    7.66
   2  -2  -2  236.06    7.99
   2  -2  -2  216.32    6.42
  -2   2   2  242.09    8.72
  -2   2   2  228.96    8.98
   2  -2  -2  236.55    8.96
  -2   2   2  227.33    8.25
   2  -2  -2  230.27    6.37
   2  -2  -2  230.89    8.37
   2  -2  -2  219.78    7.97
  -2   2   1  852.48   18.23
   2  -2  -1  836.79   18.38
   2  -2  -1  834.49   18.05
  -2   2   1  827.86   18.21
   2  -2  -1  795.56   16.10
   2  -2  -1  825.80   14.39
  -2   2   1  847.04   19.12
  -2   2   1  851.96   17.73
   2  -2  -1  810.54   16.87
   2  -2  -1  835.53   16.67
  -2   2   0 1756.80   32.57
   2  -2   0 1798.20   32.90
   2  -2   0 1767.56   29.26
  -2   2   0 1761.03   30.50
   2  -2   0 1806.61   28.35
  -2   2   0 1833.59   31.95
   2  -2   0 1771.89   30.37
   2  -2   0 1876.78   39.06
   2  -2   0 1777.52   38.70
   2  -2   0 1773.56   34.76
  -2   2   0 1788.91   29.70
   2  -2   0 1743.44   28.70
   2  -2   0 1769.91   27.38
   2  -2   0 1747.01   29.63
  -2   2  -1  480.27   13.31
   2  -2   1  473.92   13.38
  -2   2  -1  484.90   11.74
   2  -2   1  497.27   10.77
   2  -2   1  481.28   15.73
   2  -2   1  478.03    9.98
  -2   2  -1  481.68   10.19
  -2   2  -1  477.18   12.04
   2  -2   1  479.74   10.19
  -2   2  -1  495.69   13.00
   2  -2   1  485.14   16.94
  -2   2  -1  501.84   16.41
   2  -2   1  464.96   15.74
  -2   2  -1  501.21   16.51
   2  -2   1  480.98   12.10
  -2   2  -1  520.15   14.45
   2  -2   1  501.52   15.35
  -2   2  -2  896.62   20.75
  -2   2  -2  928.10   21.55
   2  -2   2  922.56   21.13
   2  -2   2  908.44   18.40
  -2   2  -2  949.24   24.15
  -2   2  -2  936.84   19.49
  -2   2  -2  950.07   19.12
   2  -2   2  949.99   24.09
   2  -2   2  924.35   22.68
  -2   2  -2  942.41   22.85
  -2   2  -2  938.59   24.13
   2  -2   2  890.07   22.23
  -2   2  -2  969.05   21.00
   2  -2   2  913.11   23.43
  -2   2  -2  912.25   19.29
  -2   2  -2  923.62   22.82
   2  -2   2  922.48   20.28
  -2   2  -2  888.90   20.14
   2  -2   2  896.51   18.27
  -2   2  -3 2361.04   42.13
   2  -2   3 2365.86   42.50
   2  -2   3 2388.15   43.68
  -2   2  -3 2281.13   35.84
   2  -2   3 2363.75   40.56
   2  -2   3 2306.82   40.22
  -2   2  -3 2465.26   45.69
  -2   2  -3 2375.02   40.28
   2  -2   3 2316.82   44.39
  -2   2  -3 2435.24   40.89
  -2   2  -3 2382.24   42.92
   2  -2   3 2398.38   46.52
   2  -2   3 2355.14   43.63
  -2   2  -3 2373.22   44.09
   2  -2   3 2371.13   42.59
  -2   2  -3 2335.07   42.40
  -2   2  -3 2377.79   41.80
  -2   2  -3 2373.05   43.84
  -2   2  -3 2403.50   46.99
  -2   2  -4  271.44   10.97
  -2   2  -4  277.25    8.19
  -2   2  -4  270.23    9.80
   2  -2   4  276.57   10.39
   2  -2   4  259.10   11.36
   2  -2   4  281.43   10.75
   2  -2   4  265.46   10.85
   2  -2   4  258.40   12.09
  -2   2  -4  278.90   10.30
   2  -2   4  254.41   10.99
  -2   2  -4  264.85   10.18
   2  -2   4  264.76   11.03
  -2   2  -4  269.44    6.86
  -2   2  -4  264.57   11.24
  -2   2  -5  243.16   10.03
  -2   2  -5  259.34    9.21
   2  -2   5  229.85   10.66
   2  -2   5  252.76   12.41
   2  -2   5  239.00   10.71
   2  -2   5  256.34   10.42
  -2   2  -5  262.63   10.36
   2  -2   5  238.14   11.41
   2  -2   5  249.68   11.28
  -2   2  -5  254.91   11.50
   2  -2   5  244.30   11.44
  -2   2  -5  262.65    8.00
  -2   2  -6  972.61   23.50
  -2   2  -6  991.61   23.50
  -2   2  -6  943.76   25.95
   2  -2   6  975.19   27.69
   2  -2   6 1027.61   17.62
   2  -2   6  991.79   25.00
  -2   2  -6  924.44   23.92
   2  -2   6  951.03   26.50
   2  -2   6  970.86   26.19
   2  -2   6  950.93   26.02
   2  -2   6  993.04   27.18
  -2   2  -6  966.79   21.13
   2  -2   6  987.98   25.80
  -2   2  -7  245.74   10.53
  -2   2  -7  246.87    9.91
   2  -2   7  249.78   13.54
  -2   2  -7  239.08   10.30
   2  -2   7  269.48    7.72
   2  -2   7  239.69   11.90
   2  -2   7  240.35   12.52
   2  -2   7  235.56   12.03
   2  -2   7  248.03   13.02
  -2   2  -7  253.50   11.56
  -2   2  -7  229.75   12.38
   2  -2   7  251.65   13.40
   2  -2   8    2.79    3.16
   2  -2   8    4.62    3.61
  -2   2  -8    1.95    3.09
   2  -2   8    6.19    1.84
  -2   2  -8    1.55    2.59
  -2   2  -8    4.46    2.24
   2  -2   8    3.36    2.89
   2  -2   8    6.87    4.31
  -2   2  -8    3.88    2.47
   2  -2   9  128.51    9.93
   2  -2   9  107.55    9.33
  -2   2  -9  114.60    9.79
  -2   2  -9  110.97    9.93
   2  -2   9  100.52    9.91
  -2   2  -9  121.77    9.91
   2  -2   9  114.14   10.38
   2  -2  10   47.71    6.91
   2  -2  10   52.37    8.00
  -2   2 -10   51.76    7.59
  -2   2 -10   50.96    7.95
   2  -2  10   45.72    7.03
  -2   2 -10   47.87    7.25
   2  -2  11    2.15    3.84
   2  -2  11    9.75    5.12
  -2   2 -11   11.21    5.53
  -2   1  10   53.39    7.75
  -2   1  10   41.46    6.95
   2  -1 -10   27.14    6.52
   2  -1  -9   12.16    5.46
  -2   1   9   17.22    5.09
  -2   1   9   13.96    4.94
  -2   1   9    7.77    3.04
  -2   1   8    3.16    2.32
   2  -1  -8   15.06    4.64
   2  -1  -8   11.18    2.72
  -2   1   8    9.01    3.76
  -2   1   8    2.40    3.55
   2  -1  -7  199.51   12.11
  -2   1   7  194.63    8.38
  -2   1   7  200.27   11.85
  -2   1   7  183.65   10.94
  -2   1   7  205.34    9.33
   2  -1  -7  202.27    8.16
  -2   1   6  317.04   11.08
  -2   1   6  329.93   13.58
  -2   1   6  324.71   10.73
   2  -1  -6  329.25   10.93
   2  -1  -6  300.73   11.87
  -2   1   6  340.30   14.57
   2  -1  -6  316.39    9.69
   2  -1  -6  326.55   14.44
  -2   1   5    6.21    2.81
  -2   1   5    4.18    1.96
  -2   1   5    2.56    1.50
  -2   1   5    2.64    2.45
   2  -1  -5    2.92    1.76
   2  -1  -5    2.11    2.37
  -2   1   5    2.50    2.35
   2  -1  -5    3.94    1.26
   2  -1  -5    6.24    2.18
   2  -1  -4  245.15    6.48
   2  -1  -4  265.89   10.09
   2  -1  -4  262.22    9.00
  -2   1   4  243.63    9.79
   2  -1  -4  254.21    9.16
  -2   1   4  258.78   10.89
  -2   1   4  247.78    6.13
   2  -1  -4  268.02   10.22
   2  -1  -4  248.03    6.67
  -2   1   4  258.13    8.82
  -2   1   4  247.06   10.65
  -2   1   4  246.93    8.49
   2  -1  -4  257.51   10.72
   2  -1  -3 1153.34   23.65
   2  -1  -3 1131.47   20.47
  -2   1   3 1118.79   22.38
  -2   1   3 1177.78   23.22
   2  -1  -3 1171.28   23.20
   2  -1  -3 1186.95   25.59
   2  -1  -3 1144.54   22.09
  -2   1   3 1162.44   23.77
   2  -1  -3 1175.32   24.07
  -2   1   3 1166.67   25.51
   2  -1  -3 1127.05   19.01
   2  -1  -3 1176.86   25.20
  -2   1   3 1177.40   25.01
   2  -1  -3 1178.92   25.02
  -2   1   3 1150.37   20.21
   2  -1  -2  367.77    9.14
  -2   1   2  362.06   10.35
   2  -1  -2  376.13   10.53
  -2   1   2  360.91   11.23
   2  -1  -2  354.90    9.86
   2  -1  -2  355.17   11.11
  -2   1   2  376.08   10.07
   2  -1  -2  368.52   10.84
  -2   1   2  374.64   10.75
   2  -1  -2  368.10   10.78
  -2   1   2  339.07   10.10
  -2   1   2  350.76    8.87
   2  -1  -1    8.92    1.47
   2  -1  -1    8.44    1.61
  -2   1   1    7.31    1.44
  -2   1   1    9.96    1.05
  -2   1   1    8.76    1.58
  -2   1   1   12.09    1.95
   2  -1  -1   11.62    1.83
  -2   1   1   10.12    1.49
  -2   1   1    9.52    1.61
   2  -1  -1   10.71    1.06
  -2   1   0 4169.97   65.27
   2  -1   0 4214.94   65.44
  -2   1   0 4188.43   63.09
  -2   1   0 4196.55   64.75
  -2   1   0 4273.89   65.99
   2  -1   0 4107.44   71.04
   2  -1   0 4203.78   63.47
   2  -1   0 4194.81   71.00
   2  -1   0 4183.91   64.40
   2  -1   0 4318.62   63.00
  -2   1   0 4259.09   62.99
  -2   1  -1  547.63   12.93
   2  -1   1  531.63   12.88
   2  -1   1  528.53   14.55
  -2   1  -1  538.13   15.16
   2  -1   1  527.77   11.05
   2  -1   1  556.75   11.85
   2  -1   1  533.53   10.70
  -2   1  -1  539.81   13.12
   2  -1   1  517.89   15.76
   2  -1   1  526.71   14.62
  -2   1  -1  531.53   15.13
   2  -1   1  537.29   10.29
   2  -1   1  528.99   11.95
  -2   1  -1  532.24    9.43
  -2   1  -1  538.54   12.12
  -2   1  -1  551.33    9.98
   2  -1   1  556.84   14.80
  -2   1  -2   49.37    3.62
   2  -1   2   60.32    3.86
  -2   1  -2   55.62    4.46
  -2   1  -2   57.67    3.86
   2  -1   2   54.19    3.97
   2  -1   2   58.16    2.48
   2  -1   2   57.64    2.26
   2  -1   2   54.53    3.97
  -2   1  -2   53.57    2.96
  -2   1  -2   59.56    2.60
  -2   1  -2   57.63    2.82
  -2   1  -2   69.58    4.16
   2  -1   2   59.48    3.57
   2  -1   2   56.36    4.50
   2  -1   2   52.93    4.01
  -2   1  -2   56.45    2.02
  -2   1  -2   59.24    4.78
  -2   1  -2   63.90    4.48
  -2   1  -2   59.40    4.26
   2  -1   2   58.58    3.85
  -2   1  -2   57.20    3.79
   2  -1   2   57.21    4.86
  -2   1  -3 1799.18   36.36
   2  -1   3 1799.58   28.99
  -2   1  -3 1788.32   32.37
   2  -1   3 1823.83   33.42
   2  -1   3 1835.44   32.87
  -2   1  -3 1790.19   30.45
  -2   1  -3 1770.38   31.42
   2  -1   3 1749.28   32.60
   2  -1   3 1779.35   33.98
   2  -1   3 1764.46   33.56
  -2   1  -3 1754.66   33.74
  -2   1  -3 1758.21   30.62
  -2   1  -3 1808.37   33.86
  -2   1  -3 1852.93   34.86
   2  -1   3 1741.36   27.71
   2  -1   3 1778.66   30.79
   2  -1   3 1737.93   36.09
  -2   1  -3 1805.37   34.02
  -2   1  -3 1852.48   33.43
   2  -1   3 1798.99   33.36
  -2   1  -3 1842.75   33.64
  -2   1  -3 1783.90   28.07
  -2   1  -4 1613.24   30.53
   2  -1   4 1629.66   31.14
  -2   1  -4 1658.85   33.38
  -2   1  -4 1614.13   29.87
   2  -1   4 1618.73   32.29
  -2   1  -4 1678.27   31.20
  -2   1  -4 1638.28   32.20
  -2   1  -4 1635.99   30.15
  -2   1  -4 1682.68   32.89
   2  -1   4 1610.61   26.13
  -2   1  -4 1624.19   33.33
   2  -1   4 1651.23   30.12
   2  -1   4 1558.14   33.95
   2  -1   4 1589.55   32.59
   2  -1   4 1649.07   32.43
   2  -1   4 1636.64   32.08
  -2   1  -4 1685.24   32.76
   2  -1   4 1616.82   32.68
  -2   1  -4 1638.26   32.66
  -2   1  -4 1611.07   27.62
  -2   1  -4 1668.86   35.36
   2  -1   4 1600.10   28.30
  -2   1  -5  217.97    8.44
   2  -1   5  225.74    8.97
  -2   1  -5  242.68   10.27
  -2   1  -5  228.07    9.39
  -2   1  -5  212.21    8.66
   2  -1   5  242.84   10.41
   2  -1   5  211.98   10.36
   2  -1   5  230.48    6.56
   2  -1   5  228.86    8.98
   2  -1   5  209.15    9.33
   2  -1   5  223.35   10.09
  -2   1  -5  223.94    9.17
   2  -1   5  236.73   10.50
  -2   1  -5  219.46   11.10
   2  -1   5  229.35    9.99
  -2   1  -5  225.75    7.68
   2  -1   5  220.75    7.99
  -2   1  -6  432.51   12.77
   2  -1   6  425.15   10.92
  -2   1  -6  413.68   12.37
   2  -1   6  414.52   13.29
   2  -1   6  433.30   15.58
  -2   1  -6  422.81   12.39
  -2   1  -6  418.50   15.00
   2  -1   6  396.17   14.62
   2  -1   6  408.13   14.37
   2  -1   6  433.37   14.03
   2  -1   6  419.78   15.43
  -2   1  -6  424.49   14.37
   2  -1   6  431.02   15.69
  -2   1  -7  487.74   17.55
   2  -1   7  497.01   18.45
   2  -1   7  499.14   17.10
   2  -1   7  524.82   13.49
  -2   1  -7  487.91   15.08
  -2   1  -7  497.45   12.99
   2  -1   7  483.96   17.52
   2  -1   7  495.14   16.59
  -2   1  -7  511.30   17.40
   2  -1   7  496.67   18.28
  -2   1  -7  493.80   14.28
  -2   1  -8   15.43    4.02
  -2   1  -8   23.74    3.25
   2  -1   8    8.86    3.93
  -2   1  -8   14.51    4.39
   2  -1   8   20.52    4.33
  -2   1  -8   17.49    2.24
   2  -1   8   16.42    4.22
   2  -1   8   18.40    2.76
   2  -1   8   20.17    4.97
  -2   1  -9    1.03    3.17
   2  -1   9    3.21    1.89
  -2   1  -9    9.26    3.78
   2  -1   9    0.87    3.72
   2  -1   9    4.51    3.28
   2  -1   9    2.24    4.10
   2  -1   9    4.06    2.97
   2  -1  10  142.96   12.32
  -2   1 -10  131.78   10.82
   2  -1  10  138.76   10.51
   2  -1  10  131.41   10.52
  -2   1 -10  136.36   11.50
   2  -1  10  127.54   11.38
   2  -1  11   41.89    7.88
   2  -1  11   43.72    7.27
  -2   1 -11   37.25    7.41
   2  -1  11   42.31    6.55
  -2   1 -11   55.11    8.12
  -2   0  10   14.86    5.05
   2   0 -10   16.59    5.99
  -2   0  10   19.71    5.69
   2   0  -9   76.49    9.13
  -2   0   9   70.94    8.14
  -2   0   9   69.25    7.98
  -2   0   9   71.71    6.28
   2   0  -8   60.56    5.38
   2   0  -8   62.65    7.63
   2   0  -8   56.60    4.75
  -2   0   8   58.46    7.02
  -2   0   8   57.45    7.32
  -2   0   8   62.38    5.40
  -2   0   7  133.27    9.45
   2   0  -7  121.38    6.68
  -2   0   7  132.17    9.50
   2   0  -7  130.51    7.09
  -2   0   7  123.64    6.83
   2   0  -7  134.20    9.91
   2   0  -6  291.62   10.69
  -2   0   6  307.73   10.73
   2   0  -6  300.68   10.45
  -2   0   6  325.00   10.43
   2   0  -6  306.73   10.18
  -2   0   6  325.12   13.58
   2   0  -6  292.37   10.77
  -2   0   6  313.30   13.57
   2   0  -6  326.11   14.48
  -2   0   6  311.56   14.16
  -2   0   5  197.64   10.42
  -2   0   5  204.62   10.12
   2   0  -5  201.78    7.08
  -2   0   5  188.66    7.11
  -2   0   5  187.11    7.74
   2   0  -5  198.07    7.93
  -2   0   5  199.17    9.47
   2   0  -5  201.61    8.05
   2   0  -5  179.03    7.46
   2   0  -5  196.84   10.34
  -2   0   4  262.91    7.69
   2   0  -4  267.40   11.01
  -2   0   4  268.45   10.22
   2   0  -4  260.99   10.05
   2   0  -4  265.50    8.96
  -2   0   4  262.24    8.95
  -2   0   4  280.13   11.04
   2   0  -4  272.90    7.48
   2   0  -4  288.68   10.03
   2   0  -4  265.14    6.34
  -2   0   4  271.43   11.04
   2   0  -4  256.84    8.61
   2   0  -4  274.59   11.19
   2   0  -4  253.28    8.35
   2   0  -3 1721.69   27.61
   2   0  -3 1644.62   27.21
  -2   0   3 1689.57   28.06
   2   0  -3 1744.60   30.93
  -2   0   3 1697.14   30.64
   2   0  -3 1715.77   30.80
  -2   0   3 1737.98   33.41
   2   0  -3 1732.69   33.56
  -2   0   3 1708.72   31.71
   2   0  -3 1734.52   31.88
   2   0  -3 1674.24   33.43
   2   0  -3 1747.04   33.52
  -2   0   3 1739.60   33.40
  -2   0   3 1638.33   27.58
  -2   0   2 1567.45   29.85
   2   0  -2 1547.85   26.84
   2   0  -2 1556.24   28.09
  -2   0   2 1535.53   27.98
   2   0  -2 1607.43   29.96
  -2   0   2 1544.62   27.66
   2   0  -2 1601.78   27.85
   2   0  -2 1593.46   29.72
  -2   0   2 1585.41   29.56
  -2   0   2 1522.21   25.27
  -2   0   2 1529.93   25.86
   2   0  -2 1561.85   25.95
  -2   0   1 1029.64   17.20
   2   0  -1 1031.67   17.62
  -2   0   1 1034.85   19.88
   2   0  -1 1028.63   19.87
  -2   0   1 1028.95   18.23
   2   0  -1 1031.89   18.23
   2   0  -1 1053.49   20.61
   2   0  -1 1039.07   20.49
  -2   0   1 1012.35   20.09
  -2   0   1 1037.20   20.82
  -2   0   1 1012.24   18.52
   2   0  -1 1002.80   18.59
   2   0   0 9999.00  141.54
  -2   0   0 9832.15  142.05
   2   0   0 9787.41  142.12
   2   0   0 9733.55  142.06
   2   0   0 9945.49  142.13
  -2   0   0 9660.02  138.20
   2   0   0 9812.66  138.30
  -2   0   0 9537.62  141.31
  -2   0   0 9324.10  139.88
  -2   0   0 9664.79  141.29
   2   0   1  727.65   14.75
   2   0   1  716.58   14.25
   2   0   1  707.09   14.78
   2   0   1  724.77   15.40
  -2   0  -1  740.20   15.84
  -2   0  -1  737.79   15.86
  -2   0  -1  714.05   14.49
   2   0   1  721.09   14.61
   2   0   1  711.66   16.44
   2   0   1  709.57   14.91
  -2   0  -1  709.28   13.97
   2   0   1  722.56   14.73
  -2   0  -1  713.55   13.76
   2   0   1  718.60   14.53
  -2   0  -1  709.81   14.71
   2   0   2 3561.51   54.79
   2   0   2 3348.52   57.02
  -2   0  -2 3512.31   53.59
   2   0   2 3561.85   54.67
   2   0   2 3440.04   55.92
   2   0   2 3317.44   55.24
  -2   0  -2 3492.62   55.10
  -2   0  -2 3388.88   54.85
   2   0   2 3561.37   51.03
  -2   0  -2 3438.04   55.91
   2   0   2 3456.43   54.94
  -2   0  -2 3465.73   50.97
  -2   0  -2 3425.88   54.08
   2   0   2 3409.25   54.54
  -2   0  -2 3489.67   54.96
  -2   0  -2 3584.29   54.70
   2   0   2 3518.97   55.20
  -2   0  -2 3469.08   55.17
  -2   0  -2 3476.01   54.59
   2   0   3 1390.54   25.26
  -2   0  -3 1394.43   27.80
  -2   0  -3 1380.03   26.04
  -2   0  -3 1419.45   26.01
   2   0   3 1337.44   26.72
  -2   0  -3 1378.55   26.66
  -2   0  -3 1427.78   26.65
  -2   0  -3 1383.53   27.78
   2   0   3 1366.54   25.18
   2   0   3 1371.60   25.22
   2   0   3 1356.11   25.86
  -2   0  -3 1364.08   26.31
  -2   0  -3 1351.43   23.58
   2   0   3 1368.54   23.38
  -2   0  -3 1361.40   23.43
   2   0   3 1391.37   25.92
  -2   0  -3 1414.31   26.19
   2   0   3 1294.38   27.55
   2   0   3 1375.87   25.90
   2   0   3 1367.65   26.41
  -2   0  -3 1400.61   25.22
   2   0   4  743.22   16.60
   2   0   4  752.73   16.95
  -2   0  -4  754.36   17.81
   2   0   4  747.09   18.80
  -2   0  -4  784.03   18.46
  -2   0  -4  773.04   19.67
   2   0   4  797.79   18.64
   2   0   4  766.54   18.67
  -2   0  -4  759.28   14.62
   2   0   4  780.88   16.38
  -2   0  -4  774.40   18.33
   2   0   4  768.58   16.24
  -2   0  -4  758.84   16.29
   2   0   4  772.69   18.05
   2   0   4  756.54   17.88
  -2   0  -4  774.76   18.20
   2   0   4  737.86   17.66
  -2   0  -4  780.88   18.62
  -2   0  -4  761.11   19.44
  -2   0  -4  774.67   16.53
   2   0   5  603.57   14.22
   2   0   5  578.62   14.27
   2   0   5  578.78   17.20
  -2   0  -5  591.12   16.05
   2   0   5  568.61   15.98
  -2   0  -5  572.71   16.20
  -2   0  -5  565.88   11.70
   2   0   5  582.60   14.85
  -2   0  -5  597.29   16.49
  -2   0  -5  580.40   14.97
   2   0   5  555.16   15.79
  -2   0  -5  587.56   16.58
  -2   0  -5  565.33   17.57
  -2   0  -5  596.89   17.70
   2   0   5  589.58   16.59
  -2   0  -5  587.04   16.63
   2   0   5  575.58   15.79
  -2   0  -5  583.38   14.71
  -2   0  -5  586.62   13.97
   2   0   5  576.74   15.21
   2   0   6   91.54    5.15
   2   0   6   90.80    5.22
  -2   0  -6   87.56    6.43
   2   0   6   88.79    6.93
   2   0   6   83.13    5.94
  -2   0  -6   79.17    3.61
  -2   0  -6   84.34    3.39
   2   0   6   80.94    5.85
  -2   0  -6   83.60    5.87
   2   0   6   83.05    5.67
  -2   0  -6   79.44    6.54
   2   0   6   79.61    6.28
  -2   0  -6   83.14    5.50
   2   0   6   83.62    5.66
  -2   0  -6   76.44    4.59
   2   0   7  419.44   12.46
   2   0   7  461.15   17.38
  -2   0  -7  432.00   15.23
   2   0   7  435.23   13.19
   2   0   7  434.71   14.74
  -2   0  -7  443.75   16.43
  -2   0  -7  402.04    8.61
   2   0   7  435.36   15.18
   2   0   7  428.75   15.96
  -2   0  -7  406.17    8.55
  -2   0  -7  432.52   11.87
   2   0   8  297.88   14.99
   2   0   8  328.79   12.10
   2   0   8  311.78   13.44
   2   0   8  308.73   13.43
  -2   0  -8  310.36   14.72
   2   0   8  321.57   14.63
  -2   0  -8  306.33    9.79
   2   0   9   19.66    3.62
   2   0   9   20.36    4.42
  -2   0  -9   13.93    4.48
   2   0   9   16.68    4.45
   2   0   9   19.51    5.24
   2   0   9   22.13    5.27
   2   0  10   62.69    7.21
   2   0  10   59.21    8.19
   2   0  10   65.01    6.24
   2   0  10   63.57    8.05
  -2   0 -10   59.03    8.01
   2   0  10   56.48    6.93
   2   0  11   13.94    5.98
   2   0  11   23.21    5.35
   2   0  11   18.20    5.44
  -2   0 -11   13.90    5.46
   2   0  11   21.49    5.57
  -2   0 -12    4.16    4.77
   2   0  12   11.96    5.20
  -2  -1  10    4.98    3.68
   2   1 -10   19.55    6.77
   2   1  -9   69.36    8.74
  -2  -1   9   60.69    7.49
  -2  -1   9   71.20    8.90
  -2  -1   8   82.21    8.89
  -2  -1   8   78.83    5.80
   2   1  -8   75.44    5.79
   2   1  -8   77.20    6.65
   2   1  -8   67.73    8.18
  -2  -1   8   80.44    7.88
  -2  -1   8   78.53    8.12
   2   1  -7   18.08    3.17
   2   1  -7   20.23    4.87
   2   1  -7   14.87    3.32
  -2  -1   7   29.18    5.00
  -2  -1   7   18.88    4.56
  -2  -1   7   25.04    5.00
  -2  -1   7   17.29    2.97
   2   1  -6  132.39    6.51
   2   1  -6  135.47    4.48
  -2  -1   6  150.02    6.59
  -2  -1   6  147.16    9.15
   2   1  -6  140.25    7.16
   2   1  -6  161.07    8.02
  -2  -1   6  165.38    9.72
  -2  -1   6  154.12    7.81
  -2  -1   6  161.93   10.27
   2   1  -6  156.29   10.12
   2   1  -6  139.43    4.11
  -2  -1   5  509.38   12.39
  -2  -1   5  528.90   14.91
   2   1  -5  519.56   14.45
   2   1  -5  522.56   15.99
  -2  -1   5  520.62   16.86
  -2  -1   5  532.80   17.74
   2   1  -5  545.41   18.05
  -2  -1   5  541.16   17.03
   2   1  -5  509.46   14.24
   2   1  -5  492.63   10.54
   2   1  -5  498.99   12.70
   2   1  -4   77.41    5.57
  -2  -1   4   73.07    4.79
  -2  -1   4   82.54    3.70
   2   1  -4   69.11    3.57
   2   1  -4   74.27    4.80
  -2  -1   4   79.82    5.90
   2   1  -4   66.53    4.39
  -2  -1   4   74.89    5.61
   2   1  -4   75.30    5.47
  -2  -1   4   74.53    5.83
   2   1  -4   74.74    3.43
  -2  -1   3  210.53    8.82
  -2  -1   3  219.65    8.26
   2   1  -3  220.13    8.54
   2   1  -3  205.17    7.66
  -2  -1   3  189.05    7.40
   2   1  -3  204.94    8.17
   2   1  -3  207.63    5.53
   2   1  -3  215.85    8.97
   2   1  -3  201.40    7.15
  -2  -1   3  204.55    8.35
  -2  -1   3  204.39    5.25
   2   1  -3  209.01    8.94
  -2  -1   3  191.47    8.72
   2   1  -3  202.65    6.07
   2   1  -3  211.69    9.71
  -2  -1   2 1529.11   27.86
   2   1  -2 1540.12   28.38
  -2  -1   2 1483.03   27.67
   2   1  -2 1524.99   27.79
  -2  -1   2 1549.36   29.56
  -2  -1   2 1516.11   25.66
   2   1  -2 1509.76   26.70
  -2  -1   2 1494.10   28.04
   2   1  -2 1539.77   27.90
   2   1  -2 1595.35   30.24
  -2  -1   2 1563.11   29.97
   2   1  -2 1582.42   29.83
   2   1  -2 1487.37   25.82
   2   1  -1 1265.59   23.12
   2   1  -1 1178.36   22.62
  -2  -1   1 1221.63   22.24
   2   1  -1 1272.75   24.20
  -2  -1   1 1174.97   21.92
  -2  -1   1 1215.31   22.09
   2   1  -1 1231.48   21.81
  -2  -1   1 1217.65   22.68
   2   1  -1 1257.26   24.56
  -2  -1   1 1223.89   24.11
  -2  -1   1 1206.93   21.76
   2   1  -1 1205.71   21.50
  -2  -1   0 3967.97   60.17
  -2  -1   0 3953.15   56.35
   2   1   0 3924.26   58.14
  -2  -1   0 3764.92   60.28
   2   1   0 3871.37   56.52
   2   1   0 3953.77   60.20
   2   1   0 3804.46   61.77
  -2  -1   0 3940.78   61.76
  -2  -1   0 3981.33   59.82
   2   1   0 3839.93   59.58
  -2  -1  -1 5248.43   74.56
   2   1   1 5419.21   74.76
  -2  -1  -1 4704.37   74.22
   2   1   1 4710.45   79.05
   2   1   1 5191.86   76.10
  -2  -1  -1 5140.71   76.51
   2   1   1 4899.11   74.42
  -2  -1  -1 5248.86   76.08
   2   1   1 5338.10   73.71
  -2  -1  -1 4666.78   74.26
   2   1   1 4710.31   78.52
  -2  -1  -1 4836.58   77.72
   2   1   1 5268.40   73.67
   2   1   1 5348.63   76.46
  -2  -1  -2 3100.39   47.51
   2   1   2 2891.42   52.43
   2   1   2 2973.52   51.99
   2   1   2 3127.68   47.64
  -2  -1  -2 2973.11   52.21
   2   1   2 3186.77   47.12
   2   1   2 3136.19   46.46
   2   1   2 3179.72   47.43
  -2  -1  -2 3126.50   47.63
  -2  -1  -2 3078.88   48.28
   2   1   2 3176.48   48.46
  -2  -1  -2 3050.57   47.65
   2   1   2 2932.57   49.02
  -2  -1  -2 3114.38   48.81
   2   1   2 3160.78   48.87
  -2  -1  -3    7.07    1.48
   2   1   3   10.21    1.83
   2   1   3    6.79    1.99
   2   1   3   10.51    1.73
  -2  -1  -3   17.45    2.61
  -2  -1  -3   10.55    1.16
   2   1   3    8.70    1.20
  -2  -1  -3    9.72    1.56
   2   1   3    9.46    1.64
   2   1   3    7.88    2.27
   2   1   3   11.32    2.23
   2   1   3   10.78    1.62
  -2  -1  -3   12.93    1.76
  -2  -1  -3   14.52    1.91
  -2  -1  -3   10.10    1.47
  -2  -1  -3   12.72    2.41
   2   1   3   10.64    1.58
   2   1   3   12.34    2.15
   2   1   3   10.45    1.44
   2   1   4 2200.36   40.06
  -2  -1  -4 2173.60   33.19
  -2  -1  -4 2216.47   38.49
  -2  -1  -4 2265.34   41.65
   2   1   4 2142.82   36.99
   2   1   4 2174.86   39.81
   2   1   4 2215.24   36.87
  -2  -1  -4 2190.73   37.93
  -2  -1  -4 2163.83   37.08
  -2  -1  -4 2193.06   38.20
   2   1   4 2184.31   40.71
  -2  -1  -4 2171.93   41.17
   2   1   4 2168.96   39.09
   2   1   4 2166.55   38.22
  -2  -1  -4 2163.97   38.22
  -2  -1  -4 2190.07   36.35
   2   1   4 2118.48   36.47
   2   1   5 1065.41   20.74
   2   1   5 1083.99   24.32
  -2  -1  -5 1108.98   23.76
  -2  -1  -5 1073.88   25.49
   2   1   5 1087.20   25.42
   2   1   5 1078.04   21.50
  -2  -1  -5 1087.89   26.10
  -2  -1  -5  944.96   16.19
  -2  -1  -5 1082.28   23.36
   2   1   5 1103.53   23.80
   2   1   5 1098.21   22.33
  -2  -1  -5 1083.66   22.67
  -2  -1  -5 1088.06   23.23
  -2  -1  -5 1082.16   23.33
   2   1   5 1104.84   23.96
  -2  -1  -5 1107.79   23.99
   2   1   5 1072.55   23.23
  -2  -1  -5 1082.50   20.47
   2   1   6  368.80   10.45
   2   1   6  364.51   13.17
   2   1   6  385.68   12.98
  -2  -1  -6  375.79   14.44
   2   1   6  396.75   14.90
   2   1   6  369.79   12.64
   2   1   6  374.89   12.42
  -2  -1  -6  383.18   12.80
  -2  -1  -6  392.58   13.43
  -2  -1  -6  365.21   13.91
  -2  -1  -6  370.84   10.12
   2   1   7   45.02    3.46
   2   1   7   50.50    5.18
   2   1   7   43.39    5.66
  -2  -1  -7   41.94    4.72
   2   1   7   44.19    4.70
   2   1   7   50.95    4.87
  -2  -1  -7   52.27    5.96
   2   1   7   47.72    5.51
  -2  -1  -7   48.26    3.36
   2   1   8  467.49   12.48
   2   1   8  475.19   16.84
   2   1   8  463.17   15.90
   2   1   8  454.27   18.70
   2   1   8  462.12   16.63
   2   1   8  454.53   17.16
  -2  -1  -8  459.16   18.84
  -2  -1  -8  471.01   11.82
   2   1   9   71.55    7.02
   2   1   9   64.15    6.81
   2   1   9   50.09    7.05
   2   1   9   65.89    6.27
  -2  -1  -9   53.00    7.05
   2   1   9   58.12    6.77
  -2  -1 -10    3.03    4.03
   2   1  10    1.85    3.53
   2   1  10    8.73    5.00
   2   1  10    2.08    2.65
   2   1  10    4.99    3.92
   2   1  10   -0.56    3.42
   2   1  11   31.50    6.71
   2   1  11   34.06    5.47
   2   1  11   26.23    5.72
  -2  -1 -11   24.72    6.49
   2   1  11   27.37    5.79
   2   1  11   25.22    5.95
  -2  -1 -12   11.36    5.63
   2   1  12   11.20    4.87
   2   1  12   13.65    5.48
   2   2 -10    8.60    4.85
   2   2  -9   28.73    6.33
  -2  -2   9   45.66    7.60
  -2  -2   8   64.26    5.41
  -2  -2   8   72.64    8.49
   2   2  -8   79.26    6.38
   2   2  -8   67.56    8.17
   2   2  -8   63.76    6.65
  -2  -2   8   72.40    7.57
  -2  -2   8   69.06    8.20
  -2  -2   7  149.80    7.43
  -2  -2   7  149.35   10.69
  -2  -2   7  151.66    9.83
   2   2  -7  144.17    9.28
   2   2  -7  161.39    8.57
  -2  -2   7  156.01   11.16
   2   2  -7  148.45   10.90
  -2  -2   6   62.45    6.81
   2   2  -6   60.95    6.81
   2   2  -6   55.71    5.00
  -2  -2   6   67.47    4.52
   2   2  -6   60.28    5.58
  -2  -2   6   63.07    6.47
   2   2  -6   56.98    4.14
  -2  -2   6   63.99    6.22
   2   2  -6   64.41    3.77
  -2  -2   5  574.61   18.30
   2   2  -5  525.39   12.82
   2   2  -5  536.00   15.60
  -2  -2   5  573.02   17.59
   2   2  -5  564.05   16.95
  -2  -2   5  541.30   18.14
  -2  -2   5  537.78   18.43
   2   2  -5  534.24   12.98
  -2  -2   5  553.80   13.24
  -2  -2   4  894.30   22.46
  -2  -2   4  859.91   20.74
   2   2  -4  847.24   20.29
  -2  -2   4  876.73   16.77
   2   2  -4  841.61   21.16
   2   2  -4  861.96   23.17
  -2  -2   4  903.13   22.70
   2   2  -4  856.24   19.52
  -2  -2   4  871.02   23.07
   2   2  -4  836.73   16.37
   2   2  -4  820.77   17.78
   2   2  -3   30.45    3.75
   2   2  -3   29.55    1.80
   2   2  -3   27.29    2.59
   2   2  -3   26.73    3.14
   2   2  -3   26.38    3.36
  -2  -2   3   29.70    3.22
  -2  -2   3   27.91    3.89
   2   2  -3   28.57    3.26
   2   2  -3   31.74    3.72
  -2  -2   3   27.54    3.75
   2   2  -3   27.03    3.86
   2   2  -3   29.48    3.46
   2   2  -3   31.25    2.79
  -2  -2   3   28.16    3.69
   2   2  -3   27.74    2.92
  -2  -2   2  139.27    6.69
  -2  -2   2  145.59    6.96
   2   2  -2  130.29    4.80
   2   2  -2  139.58    6.57
  -2  -2   2  136.10    6.34
  -2  -2   2  126.55    6.14
   2   2  -2  140.18    6.38
   2   2  -2  127.54    6.49
   2   2  -2  135.61    5.46
   2   2  -2  158.50    7.26
   2   2  -2  168.33    7.87
  -2  -2   2  134.85    7.11
   2   2  -2  130.55    3.27
   2   2  -2  131.09    5.57
   2   2  -2  145.19    7.22
   2   2  -1 2642.12   44.72
  -2  -2   1 2611.12   46.05
   2   2  -1 2741.32   47.52
  -2  -2   1 2704.15   44.87
   2   2  -1 2692.33   44.64
  -2  -2   1 2675.45   46.55
   2   2  -1 2687.09   41.73
   2   2  -1 2694.56   40.40
   2   2  -1 2641.15   46.68
  -2  -2   1 2604.70   46.73
   2   2  -1 2724.52   44.09
   2   2   0  200.68    7.02
  -2  -2   0  212.50    8.84
  -2  -2   0  218.29    7.24
  -2  -2   0  208.05    7.68
   2   2   0  212.19    4.68
   2   2   0  222.73    8.52
  -2  -2   0  220.78    8.45
   2   2   0  215.96    7.13
   2   2   0  213.65    4.83
  -2  -2  -1  894.63   17.64
   2   2   1  873.33   17.49
  -2  -2  -1  918.18   16.36
   2   2   1  899.75   21.02
   2   2   1  894.34   20.95
  -2  -2  -1  896.08   20.74
   2   2   1  893.93   16.01
   2   2   1  903.52   18.04
  -2  -2  -2 1712.35   28.69
   2   2   2 1679.39   28.56
   2   2   2 1690.12   34.43
  -2  -2  -2 1684.42   28.38
  -2  -2  -2 1709.76   34.27
  -2  -2  -2 1642.39   26.58
  -2  -2  -2 1679.85   29.54
   2   2   2 1717.15   29.53
   2   2   2 1668.11   28.18
  -2  -2  -2 1681.70   25.71
  -2  -2  -3 1691.11   29.81
  -2  -2  -3 1626.82   27.49
   2   2   3 1733.66   34.65
  -2  -2  -3 1718.55   34.98
   2   2   3 1684.89   33.55
   2   2   3 1642.15   33.57
   2   2   3 1673.95   27.20
  -2  -2  -3 1657.79   27.48
  -2  -2  -3 1609.00   28.06
   2   2   3 1681.91   26.81
   2   2   3 1629.12   29.64
  -2  -2  -3 1678.74   29.31
   2   2   3 1678.76   29.32
  -2  -2  -4    0.04    1.14
   2   2   4    5.13    0.86
  -2  -2  -4    1.93    1.19
   2   2   4    0.49    1.40
  -2  -2  -4    3.79    2.16
  -2  -2  -4   -0.12    0.69
   2   2   4    1.32    0.81
  -2  -2  -4    2.17    0.99
   2   2   4    6.51    1.74
   2   2   4    3.42    1.99
   2   2   4    4.26    2.32
  -2  -2  -4    1.35    1.11
  -2  -2  -4    1.28    2.30
   2   2   4   -0.59    1.80
  -2  -2  -4    2.98    1.21
   2   2   4    3.94    1.18
   2   2   4    2.46    1.73
   2   2   5  722.66   20.04
  -2  -2  -5  722.24   20.88
   2   2   5  724.06   20.01
   2   2   5  665.38   17.47
   2   2   5  709.85   17.93
   2   2   5  685.76   19.65
   2   2   5  699.30   17.28
  -2  -2  -5  683.87   17.14
  -2  -2  -5  670.08   16.66
  -2  -2  -5  708.73   15.63
  -2  -2  -5  731.24   20.43
  -2  -2  -5  704.06   17.79
  -2  -2  -5  693.87   15.32
   2   2   5  705.28   15.45
  -2  -2  -6  865.20   24.46
   2   2   6  819.06   23.17
   2   2   6  823.31   21.02
   2   2   6  839.40   22.65
   2   2   6  853.06   20.98
  -2  -2  -6  846.69   19.40
   2   2   6  841.75   21.11
  -2  -2  -6  805.38   17.37
  -2  -2  -6  850.44   23.97
   2   2   6  812.97   17.52
   2   2   7    2.20    1.35
   2   2   7    0.70    2.45
  -2  -2  -7   -1.68    2.13
   2   2   7   -1.51    2.55
   2   2   7    1.48    2.38
   2   2   7    2.38    2.92
  -2  -2  -7    2.92    3.60
   2   2   7    0.05    2.16
   2   2   8   22.14    4.72
   2   2   8   30.39    4.53
  -2  -2  -8   33.89    4.33
   2   2   8   26.77    4.48
  -2  -2  -8   27.71    5.28
   2   2   8   30.55    2.64
   2   2   8   24.38    4.25
   2   2   8   26.95    4.52
   2   2   9  145.39    9.76
   2   2   9  153.30   11.48
   2   2   9  141.41    9.77
   2   2   9  136.98    9.58
  -2  -2  -9  125.12   10.78
   2   2   9  143.45    9.81
   2   2  10   39.32    6.00
   2   2  10   45.91    7.58
   2   2  10   36.25    5.74
   2   2  10   45.44    6.60
  -2  -2 -10   35.70    7.05
   2   2  10   31.80    5.74
   2   2  11    8.40    4.81
   2   2  11   13.60    4.87
  -2  -2 -11    6.18    4.99
   2   2  11   11.21    4.78
   2   2  11   12.99    4.73
   2   2  11    5.70    3.89
   2   2  12   45.86    7.22
   2   2  12   46.16    7.04
  -2  -2 -12   39.08    7.86
   2   2  12   27.82    6.34
   2   3 -10   22.75    5.96
  -2  -3   9    0.02    4.53
   2   3  -9    3.21    3.91
  -2  -3   9   -0.04    4.72
  -2  -3   8   74.34    8.80
   2   3  -8   75.99    6.72
   2   3  -8   84.66    8.37
  -2  -3   8   93.23    9.65
   2   3  -8   89.42    9.63
   2   3  -7  190.43   10.06
   2   3  -7  204.75   12.15
  -2  -3   7  220.56   13.55
  -2  -3   7  198.86   13.07
   2   3  -7  207.14   13.24
   2   3  -6  105.37    7.32
  -2  -3   6   90.77    8.21
  -2  -3   6   94.79    8.33
   2   3  -6  100.06    8.57
   2   3  -6   99.06    8.17
   2   3  -5    6.05    1.70
  -2  -3   5    9.44    3.22
  -2  -3   5    7.76    3.22
   2   3  -5    7.37    2.79
   2   3  -5    7.08    3.27
  -2  -3   5    8.23    3.06
   2   3  -4  842.81   17.29
  -2  -3   4  880.99   24.21
   2   3  -4  857.53   21.72
   2   3  -4  867.39   23.79
  -2  -3   4  903.28   24.34
   2   3  -4  883.57   20.48
  -2  -3   4  902.26   24.51
   2   3  -3  621.80   18.63
   2   3  -3  604.72   16.80
  -2  -3   3  636.32   18.85
   2   3  -3  618.82   17.70
  -2  -3   3  630.66   17.99
   2   3  -3  621.74   16.01
   2   3  -3  594.49   14.76
   2   3  -3  595.42   12.58
  -2  -3   3  636.52   18.75
  -2  -3   2   49.17    4.82
  -2  -3   2   55.61    5.18
   2   3  -2   36.61    3.65
  -2  -3   2   42.02    3.96
   2   3  -2   45.44    4.21
   2   3  -2   38.48    3.83
  -2  -3   2   38.96    4.29
   2   3  -2   33.06    4.09
   2   3  -2   45.51    4.69
   2   3  -2   40.83    2.93
   2   3  -2   41.37    3.27
   2   3  -2   38.45    2.35
   2   3  -2   36.93    4.06
   2   3  -2   38.92    2.81
   2   3  -2   43.25    4.35
  -2  -3   1 1890.72   38.76
   2   3  -1 1919.07   31.13
  -2  -3   1 1970.62   36.07
   2   3  -1 1906.87   35.72
  -2  -3   1 1988.10   39.23
   2   3  -1 1892.56   36.52
   2   3  -1 1921.23   32.08
   2   3  -1 1866.76   31.09
   2   3  -1 1983.42   40.13
   2   3  -1 1922.58   37.54
  -2  -3   1 1918.43   38.10
   2   3   0  977.13   18.75
   2   3   0  955.43   21.22
  -2  -3   0  975.43   25.36
  -2  -3   0 1016.23   21.60
   2   3   0 1051.67   23.59
  -2  -3   0 1011.50   23.76
   2   3   0 1026.05   17.63
   2   3   0 1003.26   23.48
  -2  -3   0  988.72   23.70
  -2  -3   0  983.35   16.17
  -2  -3  -1  418.26    9.27
  -2  -3  -1  414.97   11.60
   2   3   1  405.07   11.45
   2   3   1  422.41   10.48
  -2  -3  -1  391.99    7.22
  -2  -3  -1  426.26    9.35
  -2  -3  -1  438.93   14.45
   2   3   1  450.83   14.36
  -2  -3  -2  333.23    9.78
   2   3   2  348.22   13.24
   2   3   2  324.39    9.53
  -2  -3  -2  329.70    9.74
  -2  -3  -2  368.87   13.81
  -2  -3  -2  356.02   13.63
   2   3   2  327.53    9.63
   2   3   2  328.13   10.33
   2   3   3 4674.25   72.99
  -2  -3  -3 4712.85   73.21
   2   3   3 4420.81   78.80
   2   3   3 4532.12   77.97
  -2  -3  -3 4636.10   71.32
  -2  -3  -3 4592.12   79.46
   2   3   3 4679.45   70.75
   2   3   3 4760.10   72.94
  -2  -3  -4   13.96    2.42
   2   3   4   14.63    2.65
   2   3   4   13.37    3.18
   2   3   4   15.55    3.22
   2   3   4   14.86    3.61
  -2  -3  -4   14.11    3.34
   2   3   4   15.78    2.27
   2   3   4   15.44    1.75
   2   3   5   72.69    5.39
  -2  -3  -5   71.79    6.83
   2   3   5   62.43    2.85
   2   3   5   65.33    5.77
   2   3   5   72.77    6.64
   2   3   5   65.41    5.07
   2   3   5   68.47    5.22
   2   3   5   69.38    4.31
  -2  -3  -6  998.76   27.95
   2   3   6  961.95   26.10
   2   3   6 1008.00   27.25
   2   3   6  982.10   24.00
   2   3   6  951.65   23.31
  -2  -3  -6  997.96   18.84
   2   3   6  978.75   24.18
   2   3   6  931.70   20.10
   2   3   7   22.78    4.70
  -2  -3  -7   21.83    2.63
   2   3   7   22.64    4.14
   2   3   7   18.46    4.08
   2   3   7   21.45    4.35
  -2  -3  -7   19.02    4.93
   2   3   7   22.88    3.74
   2   3   7   16.96    2.27
   2   3   8   39.85    3.13
   2   3   8   41.39    5.48
   2   3   8   43.10    6.08
  -2  -3  -8   50.16    4.41
   2   3   8   38.33    5.99
   2   3   8   43.85    5.69
  -2  -3  -8   43.65    6.59
   2   3   8   38.88    4.96
   2   3   9  210.76   12.11
  -2  -3  -9  235.40   14.97
   2   3   9  248.87   14.67
   2   3   9  239.76   13.56
   2   3   9  219.34   12.40
   2   3   9  215.62   11.85
   2   3  10   18.60    4.88
   2   3  10   12.07    4.04
   2   3  10   19.37    5.43
   2   3  10   19.30    4.89
  -2  -3 -10   16.34    5.88
   2   3  10   11.66    4.02
   2   3  11   19.06    5.74
   2   3  11   22.72    5.41
   2   3  11   22.39    5.67
   2   3  11   18.36    4.98
  -2  -3 -11   19.26    6.13
   2   3  11   22.75    5.29
   2   3  12    4.18    4.05
  -2  -4   9   10.23    5.39
   2   4  -9   14.74    4.63
   2   4  -9   15.10    5.98
  -2  -4   8    7.47    4.87
   2   4  -8    8.11    3.88
   2   4  -8   -1.08    3.92
   2   4  -8    8.97    4.48
   2   4  -8    3.14    3.16
   2   4  -7  183.37   10.82
   2   4  -7  192.17   12.95
  -2  -4   7  203.16   13.50
   2   4  -7  195.29   13.20
   2   4  -7  198.90   11.30
  -2  -4   6   17.68    4.86
   2   4  -6   16.42    3.98
   2   4  -6   12.57    3.45
   2   4  -6   16.45    4.43
   2   4  -6   14.19    4.42
  -2  -4   6   14.87    4.24
   2   4  -5  116.19    7.34
  -2  -4   5  119.30    9.41
   2   4  -5  101.07    8.70
   2   4  -5  103.76    5.65
  -2  -4   5  106.74    8.86
   2   4  -5  102.26    7.58
   2   4  -4  279.41    9.08
  -2  -4   4  285.63   13.81
   2   4  -4  265.16   11.94
   2   4  -4  282.86   13.77
   2   4  -4  288.59   10.98
  -2  -4   4  293.35   13.66
   2   4  -4  284.52   10.81
   2   4  -3  476.14   15.89
   2   4  -3  468.59   13.45
   2   4  -3  456.29   15.63
   2   4  -3  463.09   17.49
   2   4  -3  489.78   14.59
   2   4  -3  479.99   13.63
   2   4  -3  447.08   11.86
  -2  -4   3  466.28   16.96
  -2  -4   3  490.24   18.00
   2   4  -2  595.58   14.69
  -2  -4   2  592.79   19.89
   2   4  -2  572.46   17.36
   2   4  -2  626.15   19.95
   2   4  -2  621.17   15.72
  -2  -4   2  572.27   13.78
   2   4  -2  568.10   17.32
   2   4  -2  586.83   14.74
  -2  -4   2  615.20   19.16
   2   4  -2  557.98   14.03
  -2  -4   1   41.68    5.11
   2   4  -1   52.21    3.65
  -2  -4   1   50.19    5.79
   2   4  -1   49.24    4.84
   2   4  -1   50.72    3.66
  -2  -4   1   47.49    5.21
  -2  -4   1   40.27    3.15
  -2  -4   1   42.64    2.88
   2   4  -1   55.71    3.79
   2   4  -1   47.70    4.89
   2   4  -1   44.15    4.00
   2   4  -1   43.18    4.53
  -2  -4   0 1705.45   28.92
  -2  -4   0 1664.84   39.58
  -2  -4   0 1726.23   37.55
   2   4   0 1760.97   34.95
   2   4   0 1683.45   31.10
   2   4   0 1729.73   31.77
  -2  -4   0 1752.78   29.13
  -2  -4   0 1723.21   29.01
   2   4   0 1708.51   36.48
  -2  -4   0 1715.40   37.25
  -2  -4   0 1769.78   34.90
   2   4   0 1710.68   32.20
   2   4   0 1746.01   36.23
  -2  -4  -1  992.31   28.40
  -2  -4  -1 1015.42   20.82
   2   4   1 1080.32   26.29
   2   4   1 1036.09   22.26
   2   4   1 1025.27   20.14
  -2  -4  -1 1058.21   18.90
  -2  -4  -1 1050.04   27.13
  -2  -4  -1 1028.43   20.91
  -2  -4  -1 1039.09   25.72
  -2  -4  -1 1070.60   23.96
   2   4   1 1032.61   23.68
  -2  -4  -2    2.17    2.52
   2   4   2    0.49    1.65
  -2  -4  -2    0.70    1.28
   2   4   2    0.24    1.76
   2   4   2    1.76    0.91
   2   4   2    0.33    2.34
  -2  -4  -2    1.85    2.85
  -2  -4  -3  451.23   16.83
  -2  -4  -3  431.31   13.50
   2   4   3  388.37   12.76
   2   4   3  418.23   15.50
   2   4   3  442.90   16.40
   2   4   3  409.74   12.23
   2   4   4  656.49   18.17
  -2  -4  -4  701.38   22.16
   2   4   4  642.98   15.68
   2   4   4  665.78   21.30
   2   4   4  690.07   20.58
   2   4   4  669.29   17.37
   2   4   5  106.56    7.21
  -2  -4  -5  113.11    8.96
   2   4   5  120.51    8.09
   2   4   5  111.30    5.12
   2   4   5  116.84    9.00
   2   4   5  106.10    6.04
   2   4   6  260.18   11.85
   2   4   6  239.97   11.39
   2   4   6  264.01   12.52
   2   4   6  261.27   13.78
   2   4   6  257.20   10.77
  -2  -4  -6  289.11   14.49
   2   4   6  258.08    9.49
   2   4   6  256.80    7.20
   2   4   7  762.63   22.11
   2   4   7  773.02   23.80
  -2  -4  -7  795.64   25.94
   2   4   7  767.95   25.10
   2   4   7  762.69   22.14
   2   4   7  755.86   20.43
   2   4   7  723.83   17.10
   2   4   8   11.44    4.43
   2   4   8   11.20    2.10
   2   4   8   12.72    4.18
   2   4   8    3.30    3.68
  -2  -4  -8   17.79    5.96
   2   4   8   11.88    4.00
   2   4   8   12.72    3.35
   2   4   9   24.91    4.96
   2   4   9   24.96    4.77
   2   4   9   29.06    5.84
   2   4   9   29.33    6.10
  -2  -4  -9   32.53    6.16
   2   4   9   26.42    4.78
   2   4  10    9.41    4.30
   2   4  10    7.93    4.61
   2   4  10   -2.16    4.43
   2   4  10    7.87    4.81
  -2  -4 -10   14.21    5.80
   2   4  10   10.85    3.92
   2   4  11    5.49    4.66
   2   4  11   -0.86    3.93
   2   4  11    2.07    4.43
   2   4  11    2.54    4.40
  -2  -4 -11   14.33    5.83
   2   4  12    1.62    4.14
  -2  -5   9   72.42   10.16
   2   5  -8   12.07    4.47
   2   5  -8    9.30    5.44
   2   5  -8    9.68    5.06
   2   5  -8   12.55    4.46
  -2  -5   8   21.02    6.28
  -2  -5   7   27.59    5.96
  -2  -5   7   37.05    7.37
   2   5  -7   30.32    5.57
   2   5  -7   24.61    5.68
   2   5  -7   20.28    5.22
   2   5  -7   28.39    5.21
  -2  -5   6  361.41   18.65
   2   5  -6  334.85   15.64
   2   5  -6  332.57   17.62
   2   5  -6  377.88   15.51
  -2  -5   6  366.44   17.84
  -2  -5   5   34.03    5.41
  -2  -5   5   36.15    6.45
   2   5  -5   34.05    6.12
   2   5  -5   35.75    4.84
   2   5  -5   36.16    5.32
  -2  -5   4   16.28    4.62
   2   5  -4   11.71    2.43
  -2  -5   4    9.52    3.89
   2   5  -4   11.49    3.00
   2   5  -4   17.50    4.27
   2   5  -4   12.85    4.33
   2   5  -3  292.32   10.66
  -2  -5   3  318.72   15.95
   2   5  -3  304.27   11.60
   2   5  -3  289.72   13.38
   2   5  -3  293.96   14.98
  -2  -5   3  298.86   10.79
   2   5  -3  309.30   11.81
  -2  -5   3  310.44   14.51
  -2  -5   2  423.96   18.52
   2   5  -2  449.25   14.02
   2   5  -2  434.70   17.95
   2   5  -2  436.68   16.50
  -2  -5   2  435.26   12.62
   2   5  -2  401.25   13.52
   2   5  -2  454.23   14.19
  -2  -5   2  430.79   17.15
   2   5  -2  442.20   14.46
  -2  -5   1  157.67   11.03
   2   5  -1  147.76    7.60
   2   5  -1  153.50    9.26
   2   5  -1  156.62    7.88
   2   5  -1  154.32    7.84
  -2  -5   1  145.15    6.86
  -2  -5   1  151.07    6.54
  -2  -5   1  155.76   10.00
   2   5   0  355.09   12.77
  -2  -5   0  387.86   11.14
  -2  -5   0  386.89   17.52
   2   5   0  384.96   14.76
   2   5   0  377.06   12.31
  -2  -5   0  380.56   10.94
  -2  -5   0  387.47   11.21
  -2  -5   0  398.93   16.13
   2   5   0  378.95   14.51
   2   5   1  447.34   14.50
  -2  -5  -1  467.83   13.58
  -2  -5  -1  431.25   18.57
   2   5   1  453.91   16.74
   2   5   1  449.99   15.73
  -2  -5  -1  464.27   12.27
   2   5   1  454.52   12.86
  -2  -5  -1  455.22   13.54
  -2  -5  -1  493.13   18.37
  -2  -5  -2  202.19    8.98
  -2  -5  -2  202.14   11.42
  -2  -5  -2  207.95    8.31
   2   5   2  188.97    9.49
   2   5   2  194.52    9.32
   2   5   2  195.84   10.42
  -2  -5  -2  201.22   11.71
  -2  -5  -2  197.62    9.00
   2   5   2  199.82    7.23
   2   5   3  133.25    7.85
   2   5   3  132.63    4.92
  -2  -5  -3  157.87   10.31
   2   5   3  137.20    7.82
   2   5   3  131.10    8.95
   2   5   4  414.02   14.90
   2   5   4  434.97   17.43
   2   5   4  449.78   16.50
  -2  -5  -4  416.79   17.55
   2   5   4  402.69   13.52
  -2  -5  -5  466.53   19.16
   2   5   5  449.12   13.60
   2   5   5  443.87   18.52
   2   5   5  451.13   16.84
   2   5   5  426.27   15.86
   2   5   6    3.07    3.24
   2   5   6    4.11    1.78
   2   5   6    1.05    3.11
   2   5   6    0.71    3.69
  -2  -5  -6    3.14    3.52
   2   5   6   -0.34    2.30
   2   5   6    6.54    3.45
   2   5   7   40.34    4.10
   2   5   7   38.93    5.51
   2   5   7   41.19    3.05
   2   5   7   35.60    5.35
   2   5   7   35.31    5.45
   2   5   7   40.49    6.55
  -2  -5  -7   52.18    7.07
   2   5   7   40.06    4.87
   2   5   8   50.15    6.43
   2   5   8   58.62    7.34
   2   5   8   51.99    6.74
   2   5   8   55.50    8.09
  -2  -5  -8   59.60    8.09
   2   5   8   51.79    5.51
   2   5   9    1.07    3.60
   2   5   9    1.87    3.48
   2   5   9    6.90    4.43
   2   5   9    3.00    4.10
  -2  -5  -9    4.03    3.90
   2   5   9    3.70    3.27
   2   5  10    8.87    4.63
   2   5  10   15.80    5.38
   2   5  10   10.93    4.88
   2   5  10   10.21    4.41
  -2  -5 -10   20.20    6.56
   2   5  11   30.77    6.75
   2   5  11   25.75    6.27
   2   5  11   19.97    6.31
   2   5  11   19.61    5.57
  -2  -5 -11   30.41    7.85
  -2  -6   8   44.23    8.13
   2   6  -8   20.86    6.09
  -2  -6   7    2.78    4.19
   2   6  -7   -3.42    3.89
   2   6  -7    1.26    4.30
   2   6  -7   -9.37    5.64
  -2  -6   6   67.20    8.24
   2   6  -6   95.45    9.30
  -2  -6   6   91.22   10.67
   2   6  -6   78.10    7.76
   2   6  -6   76.29    9.50
   2   6  -6   73.65    8.29
  -2  -6   5  148.75   12.67
   2   6  -5  146.34    9.67
   2   6  -5  144.92   11.01
   2   6  -5  150.02   12.37
  -2  -6   5  135.82   11.06
   2   6  -4   92.99    7.55
  -2  -6   4   99.49   10.10
   2   6  -4   97.17    9.02
  -2  -6   4  105.80    9.26
   2   6  -4  100.69    9.75
  -2  -6   3   18.07    4.29
  -2  -6   3   25.38    5.88
   2   6  -3   22.82    5.35
   2   6  -3   25.59    5.24
  -2  -6   3   28.83    4.04
   2   6  -3   23.47    3.96
  -2  -6   2  271.83   15.96
   2   6  -2  296.38   12.68
   2   6  -2  295.65   14.56
   2   6  -2  276.03   15.24
  -2  -6   2  264.85   11.28
  -2  -6   2  288.81   11.00
   2   6  -2  265.15   12.21
  -2  -6   2  288.15   14.73
  -2  -6   1  316.69   17.24
   2   6  -1  300.13   14.64
   2   6  -1  329.16   13.68
  -2  -6   1  328.50   11.83
  -2  -6   1  345.55   11.85
  -2  -6   1  308.71   15.54
  -2  -6   0    2.56    1.62
  -2  -6   0    2.29    3.98
   2   6   0   -0.57    3.03
  -2  -6   0    0.79    1.76
   2   6   0    3.77    2.48
  -2  -6   0    1.32    1.79
  -2  -6   0    8.36    3.70
   2   6   1  447.75   15.99
  -2  -6  -1  454.14   20.08
  -2  -6  -1  439.54   13.53
   2   6   1  445.33   14.28
  -2  -6  -1  448.58   14.78
  -2  -6  -1  449.07   18.68
   2   6   1  424.50   16.82
  -2  -6  -1  460.04   14.80
  -2  -6  -2  719.96   26.14
  -2  -6  -2  764.60   21.38
  -2  -6  -2  807.01   25.21
  -2  -6  -2  778.80   19.91
   2   6   2  783.43   23.73
   2   6   2  763.05   22.81
  -2  -6  -2  766.29   21.42
  -2  -6  -2  795.16   26.20
   2   6   2  756.66   18.66
   2   6   2  705.51   21.69
  -2  -6  -3    3.50    3.74
   2   6   3    1.14    2.53
   2   6   3   -0.13    3.15
  -2  -6  -3    0.20    2.47
   2   6   3   -0.86    3.37
  -2  -6  -3    1.28    3.71
   2   6   3    0.07    1.33
   2   6   4   91.65    7.76
   2   6   4  102.83    8.14
  -2  -6  -4  105.02    9.18
   2   6   4   94.57    7.13
   2   6   4  117.06    9.38
   2   6   5  199.34   11.04
  -2  -6  -5  203.35   13.02
   2   6   5  166.20    9.11
   2   6   5  170.27   10.63
   2   6   5  184.94   12.28
   2   6   6    8.71    4.37
   2   6   6    3.14    2.68
   2   6   6    4.03    2.37
   2   6   6    5.81    4.02
  -2  -6  -6    6.04    3.50
   2   6   7   12.08    4.26
   2   6   7   -2.39    4.12
   2   6   7    3.17    3.33
   2   6   7    5.10    3.80
  -2  -6  -7   10.08    5.12
   2   6   7    5.04    2.32
   2   6   7    7.06    3.14
   2   6   8   66.24    7.86
   2   6   8   82.64    8.23
   2   6   8   71.04    8.87
   2   6   8   74.04    8.23
   2   6   8   82.91    7.19
  -2  -6  -8   76.97    9.42
   2   6   9   36.70    6.58
   2   6   9   23.67    5.45
   2   6   9   28.04    6.07
  -2  -6  -9   39.87    7.78
   2   6   9   21.02    4.30
   2   6   9   25.86    6.73
   2   6  10   20.18    5.85
   2   6  10   18.67    5.50
   2   6  10   25.74    6.49
   2   6  10   27.39    6.20
  -2  -6 -10   31.85    8.14
   2   6  11    8.58    5.32
   2   7  -7    6.06    4.58
  -2  -7   6    8.41    4.70
   2   7  -6    3.65    4.84
   2   7  -6   -2.62    4.32
   2   7  -6    4.92    3.94
  -2  -7   5   78.10    9.02
   2   7  -5   98.01   10.87
  -2  -7   5   95.09   11.37
   2   7  -5   82.04    9.46
   2   7  -4  101.17    9.97
   2   7  -4  127.88    9.61
   2   7  -4  113.44   11.35
  -2  -7   4  107.42   11.43
  -2  -7   4  125.39    8.69
  -2  -7   4  120.84   10.52
  -2  -7   3    9.80    4.30
   2   7  -3   22.34    5.13
   2   7  -3   23.98    4.54
  -2  -7   3   17.27    3.97
   2   7  -3   20.01    5.56
  -2  -7   3   11.32    5.04
  -2  -7   2   16.46    5.43
   2   7  -2   10.97    4.42
  -2  -7   2    7.27    5.40
  -2  -7   2    6.80    2.39
  -2  -7   2    6.78    2.42
  -2  -7   1  310.42   16.46
   2   7  -1  290.70   15.77
  -2  -7   1  318.11   12.90
  -2  -7   1  337.90   13.05
  -2  -7   1  340.61   18.82
  -2  -7   0   22.53    5.13
   2   7   0   17.60    4.50
  -2  -7   0   22.29    5.84
  -2  -7   0   21.79    3.88
  -2  -7   0   21.04    3.49
   2   7   0   25.32    4.81
  -2  -7  -1  126.85    7.57
  -2  -7  -1  134.27   11.54
   2   7   1  111.69    9.23
  -2  -7  -1  133.33    8.27
   2   7   1  119.32    9.04
  -2  -7  -1  116.92    7.92
  -2  -7  -1  130.97   10.71
   2   7   1  128.79    9.17
   2   7   2  505.89   19.06
  -2  -7  -2  527.49   22.88
   2   7   2  475.29   19.10
   2   7   2  509.88   19.66
  -2  -7  -2  533.65   18.23
  -2  -7  -2  547.29   22.02
  -2  -7  -2  553.06   17.10
   2   7   2  521.41   16.18
   2   7   3  106.59    8.62
  -2  -7  -3  102.18    7.49
  -2  -7  -3  109.76   10.54
   2   7   3   91.99    8.49
  -2  -7  -3   85.73    8.76
  -2  -7  -3  110.43    8.23
   2   7   3   85.32    7.87
  -2  -7  -3   99.12    9.54
  -2  -7  -4    9.19    4.25
   2   7   4   11.09    4.11
   2   7   4    7.63    3.29
   2   7   4    6.42    3.20
  -2  -7  -4    7.40    3.05
   2   7   4    6.10    4.14
  -2  -7  -4    2.80    3.77
   2   7   5  166.31   11.41
   2   7   5  183.55   10.86
   2   7   5  161.72   10.09
   2   7   5  159.08   12.06
   2   7   6   74.91    8.24
   2   7   6   72.79    6.77
   2   7   6   91.61    9.68
   2   7   6   77.42    7.36
  -2  -7  -6   70.34    8.57
   2   7   7    3.75    3.62
   2   7   7    1.51    2.65
   2   7   7   -7.22    4.14
   2   7   7   -0.80    3.00
  -2  -7  -7    2.34    4.21
   2   7   7   -0.69    3.23
   2   7   8   11.51    4.21
   2   7   8   15.72    4.64
   2   7   8   18.44    5.67
   2   7   8   14.24    5.30
  -2  -7  -8   13.03    5.69
   2   7   8   12.84    3.93
   2   7   9   22.47    5.39
   2   7   9   26.67    6.94
   2   7   9   12.02    4.58
  -2  -7  -9   20.27    6.66
   2   7   9   19.78    5.46
   2   7  10    5.25    4.09
   2   7  10   11.40    5.82
  -2  -7 -10    8.05    5.17
   2   8  -5    2.15    4.39
   2   8  -5   12.62    5.34
   2   8  -5   18.16    6.84
   2   8  -4   64.44    8.77
  -2  -8   4   56.74    9.30
  -2  -8   4   43.69    7.31
  -2  -8   3   75.15    8.70
  -2  -8   3   99.36   11.79
   2   8  -3   81.47    9.37
  -2  -8   2   -2.00    4.06
   2   8  -2   -4.26    4.56
  -2  -8   2    2.67    3.14
  -2  -8   2    6.94    5.24
  -2  -8   2    8.65    3.34
  -2  -8   1   65.48    8.29
   2   8  -1   93.54    9.96
  -2  -8   1   87.24   10.66
  -2  -8   1   85.30    7.35
  -2  -8   1   74.52    6.68
   2   8  -1   89.32    7.95
  -2  -8   0   94.27   10.34
   2   8   0   73.75    8.70
   2   8   0   81.33    8.01
   2   8   0   87.98    8.05
  -2  -8   0   89.73    7.10
  -2  -8   0   80.14    7.11
  -2  -8   0   85.64    9.16
  -2  -8  -1   -0.45    4.12
   2   8   1   -7.92    4.22
   2   8   1    6.44    4.50
   2   8   1    5.41    3.59
  -2  -8  -1    1.00    2.59
  -2  -8  -1   -1.24    2.28
  -2  -8  -1    4.25    4.17
   2   8   2   18.79    5.00
   2   8   2   14.09    4.38
   2   8   2   14.74    4.19
  -2  -8  -2   15.65    3.32
  -2  -8  -2   21.34    4.61
  -2  -8  -2   20.05    5.54
  -2  -8  -2   18.65    5.13
   2   8   3   32.76    6.10
  -2  -8  -3   50.96    7.25
  -2  -8  -3   38.45    7.31
   2   8   3   42.72    6.44
   2   8   3   39.27    6.17
  -2  -8  -3   41.37    5.37
  -2  -8  -3   45.61    5.89
  -2  -8  -3   53.32    7.69
  -2  -8  -4   65.80    8.29
   2   8   4   45.18    6.57
   2   8   4   55.58    7.50
  -2  -8  -4   59.33    6.56
   2   8   4   53.95    6.28
  -2  -8  -4   50.75    6.93
  -2  -8  -4   39.41    6.72
  -2  -8  -4   51.49    7.52
   2   8   4   41.37    6.29
  -2  -8  -5    7.96    4.64
  -2  -8  -5    4.37    2.87
   2   8   5    8.16    4.11
   2   8   5    6.63    4.29
   2   8   5   11.79    3.48
   2   8   5   -2.60    3.08
  -2  -8  -6   42.50    7.72
   2   8   6   38.36    5.47
   2   8   6   25.16    5.66
   2   8   6   29.38    5.27
   2   8   6   41.55    6.98
   2   8   7   24.36    6.26
   2   8   7   16.00    3.94
   2   8   7   26.99    6.88
  -2  -8  -7   17.86    5.84
   2   8   8   -2.88    4.16
   2   8   8   -1.33    4.01
   2   8   8    2.62    5.44
  -2  -8  -8    0.23    4.24
   2   8   9    5.06    5.89
  -2  -8  -9   -3.33    5.05
  -2  -9   2   19.91    5.98
  -2  -9   2   18.19    6.58
   2   9  -2   15.40    5.93
  -2  -9   1    1.86    4.52
  -2  -9   1    7.83    4.90
   2   9  -1   13.98    5.75
   2   9  -1   10.22    4.48
  -2  -9   0   40.30    6.76
   2   9   0   54.41    7.36
  -2  -9   0   46.26    7.79
   2   9   0   50.32    7.91
   2   9   0   61.46    7.22
  -2  -9  -1   28.19    7.13
   2   9   1   12.34    4.89
   2   9   1   19.90    4.65
   2   9   1   24.10    5.73
  -2  -9  -1   29.55    4.93
  -2  -9  -1   20.92    5.56
  -2  -9  -2    8.45    5.77
   2   9   2   -3.40    3.93
   2   9   2   -1.44    3.52
  -2  -9  -2    3.52    3.24
   2   9   2   -1.66    4.01
  -2  -9  -2    1.09    4.33
   2   9   3   37.14    6.98
   2   9   3   38.41    6.43
   2   9   3   45.25    7.23
  -2  -9  -3   42.74    6.09
  -2  -9  -3   45.91    7.36
  -2  -9  -3   40.32    7.80
  -2  -9  -4   62.36    8.14
   2   9   4   51.63    7.74
  -2  -9  -4   79.72   10.43
   2   9   4   70.33    8.32
   2   9   4   52.38    7.61
  -2  -9  -4   67.24    7.76
  -2  -9  -4   76.41    9.39
  -2  -9  -5    2.54    4.17
   2   9   5    1.98    3.97
  -2  -9  -5   -6.18    4.89
   2   9   5    5.66    4.86
   2   9   5    1.82    4.23
  -2  -9  -5    1.16    3.74
  -2  -9  -5    6.26    5.04
   2   9   6    3.82    4.69
  -2  -9  -6    2.71    4.87
   2   9   6    9.18    4.10
   2   9   6   10.18    5.31
  -2  -9  -6    4.21    5.80
  -2  -9  -7    9.75    5.17
   2   9   7    7.40    4.63
   2   9   7    9.08    5.21
  -2  -9  -8   -3.28    5.43
   2  10   0   -2.17    4.49
  -2 -10   0   -1.28    4.08
  -2 -10  -1   67.09    8.73
  -2 -10  -1   73.57   10.56
   2  10   1   56.88    7.78
   2  10   1   41.55    7.72
   2  10   2   12.54    4.92
   2  10   2    3.63    4.21
   2  10   2    4.77    4.14
  -2 -10  -2    9.40    5.92
  -2 -10  -2    2.48    4.46
   2  10   3    7.73    5.69
  -2 -10  -3   -5.14    5.80
   2  10   3    1.79    4.23
   2  10   3    1.16    3.74
  -2 -10  -3   -3.20    4.59
  -2 -10  -4    7.16    5.28
   2  10   4    5.69    4.77
   2  10   4   -5.47    4.53
  -2 -10  -4    1.94    5.11
   2  10   5   29.20    7.01
  -2 -10  -5   35.87    8.62
   2  10   5   21.32    5.50
   2  10   5   26.15    6.32
  -2 -10  -5   25.66    6.45
  -2 -10  -5   28.48    7.24
  -2 -10  -6    0.18    4.30
   2  10   6    7.46    4.65
   2  10   6    5.47    5.06
  -2 -10  -6    7.06    5.95
  -2 -10  -7    0.82    4.96
  -2 -11  -4   -1.42    4.71
   3  -9  -2    4.27    3.99
   3  -9  -1   -0.53    4.17
   3  -9   0    4.75    4.58
  -3   8   5   11.56    4.87
  -3   8   5    4.29    4.11
  -3   8   5    5.41    5.73
  -3   8   4    6.35    5.23
  -3   8   4   -0.29    5.90
  -3   8   4   -9.64    5.61
   3  -8  -4   -4.91    4.34
  -3   8   4    1.84    4.90
   3  -8  -4   -8.46    7.13
  -3   8   3    8.85    6.17
   3  -8  -3    2.19    3.73
  -3   8   3   -2.08    4.66
  -3   8   3    3.18    3.84
   3  -8  -3   11.51    6.45
   3  -8  -3   -0.50    4.65
  -3   8   2   16.89    5.57
   3  -8  -2    6.82    4.30
   3  -8  -2   11.40    5.69
   3  -8  -2   18.42    6.52
   3  -8  -1    1.46    4.12
  -3   8   1    3.53    4.61
   3  -8  -1   -3.60    5.50
   3  -8  -1    0.14    4.63
  -3   8   0   27.40    6.80
   3  -8   0   21.62    5.61
   3  -8   0   22.10    6.60
   3  -8   0   39.63    7.03
  -3   8  -1   20.96    6.54
   3  -8   1   13.90    5.82
   3  -8   1    8.96    4.70
   3  -8   1   26.16    5.92
  -3   8  -1    9.64    5.09
  -3   8  -2   16.68    6.14
   3  -8   2   21.82    6.35
  -3   8  -2   19.16    6.23
   3  -8   2    9.66    6.02
   3  -8   2   27.34    7.45
  -3   8  -3   14.77    6.48
   3  -8   3    6.14    4.52
   3  -8   3    6.15    5.56
   3  -8   3    2.83    5.20
  -3   7   7   -0.18    5.85
   3  -7  -7   -7.68    4.57
  -3   7   6    6.50    6.17
  -3   7   6    2.60    4.88
  -3   7   6    9.07    5.59
   3  -7  -6    9.13    4.77
  -3   7   5   20.52    5.35
  -3   7   5   23.30    7.63
   3  -7  -5   20.49    5.11
  -3   7   5    7.87    4.14
  -3   7   5    4.26    3.96
   3  -7  -5   16.68    4.74
  -3   7   4    0.64    5.23
   3  -7  -4   -4.29    3.46
  -3   7   4   -0.55    3.46
  -3   7   4    4.39    3.83
  -3   7   4   -2.15    4.48
   3  -7  -4   11.12    5.59
  -3   7   3   20.35    7.26
  -3   7   3    9.32    4.32
  -3   7   3   11.29    4.13
   3  -7  -3   11.59    6.18
   3  -7  -3   20.18    6.42
   3  -7  -3   12.40    4.56
  -3   7   2   35.15    6.30
  -3   7   2   37.77    5.80
   3  -7  -2   47.35    6.77
   3  -7  -2   37.65    7.80
   3  -7  -2   41.52    7.62
  -3   7   1   67.82    8.48
   3  -7  -1   62.79    6.42
   3  -7  -1   75.16    8.30
  -3   7   1   72.63    6.72
   3  -7  -1   79.41   10.15
   3  -7  -1   53.14    8.62
  -3   7   0    5.75    4.28
  -3   7   0    8.33    4.84
   3  -7   0   -0.58    3.43
   3  -7   0    2.32    2.85
   3  -7   0    3.16    4.60
   3  -7   0    0.94    4.33
   3  -7   1   38.27    6.69
  -3   7  -1   31.71    6.66
   3  -7   1   38.65    5.69
  -3   7  -1   34.08    6.24
   3  -7   1   32.23    7.05
   3  -7   1   42.06    7.95
   3  -7   2   60.95    6.82
  -3   7  -2   61.00    8.73
   3  -7   2   67.33    8.87
  -3   7  -2   60.18    8.25
   3  -7   2   52.13    8.49
   3  -7   2   73.03    9.80
   3  -7   3    3.95    3.18
  -3   7  -3    8.77    4.15
  -3   7  -3    3.72    4.70
   3  -7   3    9.19    4.67
   3  -7   3    6.60    5.16
   3  -7   3    5.65    4.77
  -3   7  -4   31.92    7.22
   3  -7   4   23.91    5.29
  -3   7  -4    5.40    4.88
   3  -7   4   24.34    6.45
   3  -7   4   10.30    6.25
   3  -7   4    7.96    5.21
  -3   7  -5   78.09   10.19
   3  -7   5   94.36    9.57
  -3   7  -5  111.28   11.90
  -3   7  -5  106.05   11.97
   3  -7   5   96.85   11.11
   3  -7   5   91.02   11.47
   3  -7   5   99.48   12.03
  -3   7  -6   35.16    8.10
  -3   6   8   10.29    5.37
   3  -6  -8    6.79    4.62
  -3   6   7    6.33    4.45
  -3   6   7   -2.50    4.30
  -3   6   7    0.33    4.61
   3  -6  -7   -2.63    4.31
  -3   6   6   13.88    6.16
   3  -6  -6   13.83    4.52
  -3   6   6   12.18    4.24
   3  -6  -6    9.60    4.17
  -3   6   6   16.73    5.20
  -3   6   5   19.63    6.59
  -3   6   5   18.43    4.27
   3  -6  -5   16.98    4.35
  -3   6   5   16.05    5.02
  -3   6   5   12.60    4.89
   3  -6  -5   21.92    4.95
  -3   6   4   53.18    6.47
  -3   6   4   41.75    7.96
  -3   6   4   55.83    7.12
  -3   6   4   49.10    7.09
   3  -6  -4   55.15    6.24
   3  -6  -4   51.63    6.89
  -3   6   3   -3.64    5.17
  -3   6   3    0.21    3.06
   3  -6  -3   -0.62    2.50
  -3   6   3    0.40    3.16
   3  -6  -3   -3.19    3.39
   3  -6  -3    1.79    2.26
   3  -6  -3   -3.82    4.98
   3  -6  -2   12.90    3.54
  -3   6   2    9.51    3.77
  -3   6   2   16.63    4.10
   3  -6  -2    5.55    4.84
   3  -6  -2    6.24    3.69
   3  -6  -2   10.43    4.73
   3  -6  -2    6.34    2.33
  -3   6   1  215.98   12.97
   3  -6  -1  186.95    7.89
  -3   6   1  198.05   10.53
   3  -6  -1  196.15   14.57
   3  -6  -1  211.22   10.61
   3  -6  -1  185.13   14.18
   3  -6  -1  219.21   13.32
  -3   6   0   16.57    3.29
   3  -6   0   12.50    3.23
  -3   6   0   14.70    4.90
   3  -6   0   17.85    4.90
   3  -6   0   19.96    5.56
   3  -6   0   16.57    4.77
  -3   6   0    9.16    4.44
  -3   6  -1   -1.18    3.69
   3  -6   1    1.71    3.88
   3  -6   1    0.92    2.25
  -3   6  -1    2.42    3.67
   3  -6   1   -5.60    4.60
   3  -6   1   -3.93    4.80
  -3   6  -2  322.56   17.05
   3  -6   2  288.96   13.20
  -3   6  -2  325.61   17.17
   3  -6   2  296.81   18.02
   3  -6   2  308.20   16.79
   3  -6   2  302.42   17.98
   3  -6   3   88.57    7.86
  -3   6  -3  101.49    9.73
  -3   6  -3  103.02   10.26
   3  -6   3   84.22    9.82
   3  -6   3   97.84   11.05
   3  -6   3  111.12   10.27
  -3   6  -4    3.60    4.87
  -3   6  -4   -0.64    5.39
  -3   6  -4   -0.07    4.04
   3  -6   4    2.71    2.96
   3  -6   4    1.71    4.14
   3  -6   4   -4.64    4.19
   3  -6   4    6.35    5.05
  -3   6  -5   58.36    8.19
  -3   6  -5   51.99    8.47
   3  -6   5   61.34    7.36
  -3   6  -5   62.71    8.59
   3  -6   5   43.77    7.62
   3  -6   5   55.77    8.42
   3  -6   5   45.66    8.22
  -3   6  -6  134.46   11.88
  -3   6  -6  113.24   11.31
   3  -6   6  128.44   12.61
  -3   6  -6  132.33   12.60
   3  -6   6  112.14   12.29
  -3   6  -6  130.54   12.90
   3  -6   6  138.27   12.91
  -3   6  -7   49.46    8.18
  -3   6  -7   45.64    7.86
  -3   6  -8   27.56    6.49
  -3   5   9   -4.52    4.25
  -3   5   8   10.52    5.29
  -3   5   8    2.73    4.25
   3  -5  -8    8.52    4.87
  -3   5   8    2.27    3.63
  -3   5   7   35.29    6.41
  -3   5   7   38.29    6.49
   3  -5  -7   38.62    6.71
  -3   5   6   38.53    6.94
  -3   5   6   41.43    7.07
   3  -5  -6   38.23    5.96
  -3   5   6   47.16    6.97
  -3   5   5   35.10    6.69
  -3   5   5   38.02    4.67
  -3   5   5   34.16    6.23
  -3   5   5   39.57    6.27
   3  -5  -5   46.21    6.06
  -3   5   4  124.93    8.37
  -3   5   4  124.94    9.84
  -3   5   4  114.24   10.62
  -3   5   4  110.61    9.01
   3  -5  -4  124.49    8.53
   3  -5  -3   57.12    5.54
  -3   5   3   46.75    5.61
   3  -5  -3   58.96    6.80
  -3   5   3   49.10    6.05
  -3   5   3   52.30    6.13
  -3   5   2  151.91    9.67
   3  -5  -2  159.17   10.58
   3  -5  -2  151.51    7.82
  -3   5   2  140.73    9.11
   3  -5  -2  156.41    8.57
   3  -5  -2  159.61   12.70
   3  -5  -2  140.38    7.84
  -3   5   1   32.09    5.32
   3  -5  -1   32.22    4.01
   3  -5  -1   29.12    5.59
  -3   5   1   24.28    4.52
  -3   5   1   28.87    4.13
   3  -5  -1   41.70    7.41
   3  -5  -1   27.18    5.92
   3  -5  -1   32.51    3.41
  -3   5   1   27.70    3.05
   3  -5  -1   32.77    3.41
  -3   5   0  186.09   11.38
   3  -5   0  206.77    9.32
   3  -5   0  198.18    6.15
  -3   5   0  192.93    8.91
  -3   5   0  195.37   11.39
   3  -5   0  202.40    9.16
   3  -5   0  194.01   13.54
   3  -5   0  199.41   13.81
  -3   5   0  176.87    8.59
   3  -5   0  197.30    6.79
   3  -5   0  190.40   11.96
  -3   5  -1   37.56    5.71
  -3   5  -1   21.82    2.83
  -3   5  -1   21.11    4.53
   3  -5   1   33.27    4.13
   3  -5   1   24.75    5.38
   3  -5   1   26.32    3.06
   3  -5   1   28.30    6.13
   3  -5   1   29.02    5.69
  -3   5  -2   38.32    5.83
   3  -5   2   51.24    6.74
   3  -5   2   56.34    5.21
  -3   5  -2   53.95    6.65
   3  -5   2   42.87    7.17
   3  -5   2   27.46    5.60
  -3   5  -3  260.15   14.37
   3  -5   3  263.36   16.27
   3  -5   3  260.89   11.99
  -3   5  -3  303.75   17.21
  -3   5  -3  303.03   15.38
   3  -5   3  284.71   15.91
   3  -5   3  285.33   16.56
  -3   5  -4  168.20   11.83
   3  -5   4  152.27    9.75
  -3   5  -4  155.04   12.63
  -3   5  -4  169.91   11.98
   3  -5   4  161.47   12.97
   3  -5   4  184.60   13.17
   3  -5   4  152.85   12.13
  -3   5  -5    4.30    3.74
  -3   5  -5   18.85    5.52
  -3   5  -5   13.84    5.12
   3  -5   5   10.65    4.30
   3  -5   5    6.49    4.30
   3  -5   5    9.14    4.39
  -3   5  -6  133.27   10.86
  -3   5  -6  143.22   12.15
   3  -5   6  145.17   12.97
   3  -5   6  142.72   12.42
   3  -5   6  141.80   12.34
  -3   5  -6  143.35   12.49
  -3   5  -7  120.80   10.73
  -3   5  -7  131.14   12.53
  -3   5  -7  105.89   10.54
   3  -5   7  118.16   11.97
  -3   5  -7  128.91   12.00
   3  -5   7  127.27   12.26
   3  -5   7  124.50   12.72
   3  -5   8    4.34    5.38
  -3   5  -8    6.61    5.27
  -3   5  -8    5.30    3.91
   3  -5   8   14.87    5.75
   3  -5   8   20.39    7.32
  -3   4   9   14.59    4.24
   3  -4  -9   24.79    6.53
  -3   4   9   22.10    5.94
  -3   4   8    2.08    3.29
   3  -4  -8    4.62    4.85
  -3   4   8    5.66    4.12
  -3   4   8   -1.78    4.62
  -3   4   7   38.20    5.93
   3  -4  -7   43.83    6.81
  -3   4   7   48.49    7.30
  -3   4   7   43.32    6.75
  -3   4   6   46.43    6.26
  -3   4   6   48.52    6.98
   3  -4  -6   38.45    5.90
  -3   4   6   49.42    6.64
  -3   4   6   55.19    4.40
  -3   4   5   10.11    3.73
  -3   4   5   15.30    2.91
   3  -4  -5    9.09    3.55
  -3   4   5    5.36    3.47
  -3   4   5   10.11    3.82
  -3   4   4  141.23    7.90
   3  -4  -4  155.33    9.17
  -3   4   4  141.12   10.41
  -3   4   4  148.37    9.28
  -3   4   4  133.81    9.63
   3  -4  -4  141.86    5.38
   3  -4  -4  141.51    6.46
  -3   4   3  203.37    9.79
   3  -4  -3  211.90    9.86
  -3   4   3  202.28   12.77
  -3   4   3  191.72   10.81
   3  -4  -3  203.57    8.21
  -3   4   3  196.92   10.49
   3  -4  -2  266.95   10.04
  -3   4   2  241.34   11.07
   3  -4  -2  261.00   12.82
   3  -4  -2  238.06    9.84
  -3   4   2  237.46   11.19
   3  -4  -2  244.34   10.11
  -3   4   1  188.58   10.00
   3  -4  -1  193.56    7.44
   3  -4  -1  190.62   10.98
  -3   4   1  191.97    9.23
  -3   4   1  199.82   10.20
   3  -4  -1  182.11    8.77
   3  -4  -1  189.10    7.97
   3  -4  -1  182.37    7.64
  -3   4   1  187.06    6.86
   3  -4  -1  180.87   12.62
  -3   4   0  442.05   16.19
   3  -4   0  441.75   12.64
   3  -4   0  440.60   13.31
  -3   4   0  450.32   13.52
   3  -4   0  467.69   20.81
  -3   4   0  470.97   16.31
   3  -4   0  466.47   10.76
   3  -4   0  444.55   19.85
   3  -4   0  440.02   10.96
  -3   4   0  442.86   13.03
   3  -4   0  461.90   17.85
  -3   4  -1  287.33   12.89
  -3   4  -1  271.60    8.96
   3  -4   1  269.71    9.60
   3  -4   1  279.96   15.92
  -3   4  -1  269.10   12.39
   3  -4   1  274.96    9.01
   3  -4   1  290.08   15.68
  -3   4  -1  271.69   10.74
   3  -4   1  278.20   14.06
  -3   4  -2    1.98    2.81
   3  -4   2   -0.19    1.62
   3  -4   2    1.88    2.91
  -3   4  -2   -1.98    2.86
   3  -4   2    0.90    1.23
   3  -4   2   -3.27    3.82
   3  -4   2   -0.10    3.62
   3  -4   2   -0.06    2.21
  -3   4  -3  205.52   11.45
  -3   4  -3  232.26   10.92
  -3   4  -3  213.47    9.70
  -3   4  -3  209.23   13.31
   3  -4   3  222.85    8.65
  -3   4  -3  221.01   11.96
   3  -4   3  220.42   13.93
   3  -4   3  240.69   13.85
   3  -4   3  221.91   13.43
   3  -4   3  221.25   11.05
   3  -4   3  195.60    9.15
  -3   4  -4  422.02   17.10
   3  -4   4  444.52   15.32
   3  -4   4  449.40   14.47
  -3   4  -4  455.59   19.73
  -3   4  -4  455.42   18.18
   3  -4   4  408.43   19.20
   3  -4   4  465.74   20.16
   3  -4   4  433.84   19.16
   3  -4   4  463.38   17.50
   3  -4   5   42.40    4.89
  -3   4  -5   40.08    6.49
  -3   4  -5   37.90    5.87
   3  -4   5   46.73    7.24
   3  -4   5   40.69    6.63
   3  -4   5   45.01    6.80
   3  -4   5   37.18    5.59
  -3   4  -5   33.55    5.28
  -3   4  -6  142.91   10.28
   3  -4   6  147.47    9.66
   3  -4   6  135.35   11.66
  -3   4  -6  156.26   11.56
   3  -4   6  139.48   11.67
  -3   4  -6  156.23   11.79
   3  -4   6  142.63   11.32
   3  -4   6  142.77   10.93
  -3   4  -7  205.79   12.52
   3  -4   7  220.75   12.89
  -3   4  -7  227.78   14.10
   3  -4   7  233.17   15.62
  -3   4  -7  236.56   14.98
   3  -4   7  235.82   15.61
   3  -4   7  223.43   14.60
  -3   4  -7  232.10   14.94
  -3   4  -8   82.18    9.48
   3  -4   8   79.57   10.12
   3  -4   8   84.43    8.90
  -3   4  -8   64.87    7.55
  -3   4  -8   81.19    8.11
  -3   4  -8   91.14   10.08
   3  -4   8   84.07    9.64
   3  -4   8   68.42    9.41
   3  -4   9   -0.73    3.88
  -3   4  -9  -10.94    5.99
  -3   4  -9    5.57    4.18
  -3   4  -9    3.45    4.69
   3  -4   9    8.12    5.24
  -3   3   9   28.40    4.99
  -3   3   9   27.56    6.92
  -3   3   9   40.31    7.14
  -3   3   8    8.81    3.59
   3  -3  -8    7.12    4.23
  -3   3   8    3.87    3.90
  -3   3   8    2.62    3.73
   3  -3  -7   66.64    7.79
  -3   3   7   67.83    8.02
  -3   3   7   62.64    7.57
  -3   3   7   57.08    6.05
  -3   3   6   22.03    2.45
   3  -3  -6   17.99    4.39
  -3   3   6   17.89    4.92
  -3   3   6   22.48    4.72
  -3   3   6   15.58    3.58
   3  -3  -5  187.22   10.75
  -3   3   5  185.31   11.43
  -3   3   5  160.19    9.56
  -3   3   5  186.26   10.49
   3  -3  -5  187.04    8.49
  -3   3   5  185.37    7.50
  -3   3   4   18.95    4.11
  -3   3   4   11.38    3.56
   3  -3  -4   14.46    2.32
   3  -3  -4   13.88    1.49
   3  -3  -4   11.93    3.22
  -3   3   4   18.99    3.78
  -3   3   4   16.54    2.69
  -3   3   3  170.25    7.96
   3  -3  -3  171.15    8.67
  -3   3   3  170.42   10.36
   3  -3  -3  178.84    6.17
  -3   3   3  170.75    9.58
  -3   3   3  166.60    8.57
   3  -3  -2  924.42   20.91
  -3   3   2  893.82   21.77
   3  -3  -2  882.17   15.92
  -3   3   2  929.27   23.40
  -3   3   2  899.94   21.68
   3  -3  -2  903.68   21.56
   3  -3  -1    8.25    1.89
   3  -3  -1    6.66    0.83
   3  -3  -1    9.11    1.75
  -3   3   1    7.91    2.58
   3  -3  -1    7.16    1.71
  -3   3   1    9.69    2.63
  -3   3   1    5.61    2.02
   3  -3  -1    7.86    2.04
   3  -3  -1    9.33    4.37
   3  -3  -1    7.06    1.37
  -3   3   0   96.86    6.58
   3  -3   0  101.79    4.26
   3  -3   0   96.38    7.48
   3  -3   0   97.35    3.11
   3  -3   0  103.66    4.35
  -3   3   0  101.91    5.66
   3  -3   0   94.56    9.04
  -3   3   0  109.98    6.55
   3  -3   0  114.12    5.78
   3  -3   0  107.77    9.30
   3  -3   0   98.91    5.13
   3  -3   0  100.96    4.53
  -3   3   0   96.56    5.03
  -3   3  -1  255.28   11.03
   3  -3   1  246.79    6.74
  -3   3  -1  243.47    8.11
   3  -3   1  250.52   14.12
  -3   3  -1  253.48   10.58
   3  -3   1  247.15    7.86
   3  -3   1  246.14   13.66
   3  -3   1  251.76    5.79
   3  -3   1  248.87    9.25
  -3   3  -1  249.44    9.38
   3  -3   1  245.83    7.54
   3  -3   1  261.98   12.59
  -3   3  -2  581.86   17.93
  -3   3  -2  595.35   15.71
  -3   3  -2  594.48   21.33
  -3   3  -2  573.99   17.40
   3  -3   2  540.24   21.10
   3  -3   2  563.83   11.61
   3  -3   2  554.55   13.83
   3  -3   2  550.51   20.34
   3  -3   2  595.35   16.52
  -3   3  -2  559.94   16.38
   3  -3   2  616.42   20.90
   3  -3   2  572.20   13.47
   3  -3   3  133.30    9.94
  -3   3  -3  112.83    7.64
   3  -3   3  126.35    6.25
  -3   3  -3  120.46    7.13
  -3   3  -3  121.04    7.90
   3  -3   3  105.27    9.07
  -3   3  -3  119.01    6.77
  -3   3  -3  118.95    6.67
   3  -3   3  124.26    9.33
  -3   3  -3  128.32    9.39
   3  -3   3  121.64    7.72
   3  -3   3  118.09    6.23
  -3   3  -4  283.05   12.74
   3  -3   4  299.45   11.19
  -3   3  -4  310.50   11.84
  -3   3  -4  297.98   14.47
  -3   3  -4  288.52   12.35
  -3   3  -4  319.08   13.74
   3  -3   4  310.43   15.09
  -3   3  -4  280.35   11.05
   3  -3   4  328.61   15.96
   3  -3   4  281.03   13.84
   3  -3   4  307.16   13.18
  -3   3  -5 1120.84   28.84
   3  -3   5 1184.34   27.85
  -3   3  -5 1230.22   32.22
   3  -3   5 1171.96   33.43
  -3   3  -5 1074.85   19.24
  -3   3  -5 1221.46   31.00
   3  -3   5 1147.93   32.01
   3  -3   5 1180.26   31.51
   3  -3   5 1192.95   30.45
  -3   3  -6   13.33    3.73
   3  -3   6    7.47    3.03
  -3   3  -6    6.71    3.72
  -3   3  -6   14.12    4.23
   3  -3   6   10.06    4.23
   3  -3   6   19.92    4.97
   3  -3   6   13.96    4.17
  -3   3  -6    7.48    1.76
   3  -3   6    8.94    3.64
  -3   3  -7   86.83    7.55
  -3   3  -7   98.01    9.30
  -3   3  -7   95.01    8.81
   3  -3   7   89.73    9.39
   3  -3   7  101.47    9.27
   3  -3   7   95.86    8.26
   3  -3   7   82.84    8.61
   3  -3   7   91.47    9.29
  -3   3  -8  398.63   16.69
  -3   3  -8  428.03   19.74
  -3   3  -8  407.63   17.16
   3  -3   8  407.02   20.50
   3  -3   8  400.07   18.43
  -3   3  -8  437.83   20.18
   3  -3   8  425.57   20.12
   3  -3   8  420.33   19.42
   3  -3   8  397.27   19.44
   3  -3   9    7.11    5.40
   3  -3   9   -5.37    4.55
  -3   3  -9    5.81    4.77
  -3   3  -9   -2.92    3.04
   3  -3   9    0.37    4.28
  -3   3  -9   -2.95    4.74
   3  -3  10   20.90    5.51
   3  -2  -9   16.72    6.17
  -3   2   9   28.22    6.45
  -3   2   9   24.59    6.32
   3  -2  -8  140.45   11.75
  -3   2   8  142.50   11.89
  -3   2   8  142.95    8.83
  -3   2   8  154.47   11.51
  -3   2   7   -2.59    2.58
   3  -2  -7    2.33    3.51
  -3   2   7   -0.95    3.41
  -3   2   7    0.05    3.20
   3  -2  -6  172.11   11.13
  -3   2   6  165.52    8.64
  -3   2   6  153.36   10.80
  -3   2   6  170.61   10.31
  -3   2   6  156.07    4.86
   3  -2  -5  462.14   14.46
  -3   2   5  472.60   14.90
  -3   2   5  479.23   18.19
  -3   2   5  498.59   16.79
  -3   2   5  475.49   11.59
   3  -2  -5  476.86   17.45
  -3   2   4   15.28    2.20
  -3   2   4   14.02    2.77
   3  -2  -4   12.02    2.12
   3  -2  -4   11.34    2.18
   3  -2  -4   15.72    2.67
   3  -2  -4   16.34    3.56
  -3   2   4   14.96    3.62
  -3   2   4   15.29    3.18
   3  -2  -3   95.20    5.54
   3  -2  -3  104.85    5.42
  -3   2   3  113.13    7.50
  -3   2   3   99.40    6.61
  -3   2   3  108.55    6.41
  -3   2   3  106.59    6.80
   3  -2  -3  113.45    6.91
   3  -2  -3  101.96    4.83
  -3   2   3  109.25    5.67
  -3   2   2  333.58   10.82
   3  -2  -2  345.47   11.25
   3  -2  -2  342.16    9.64
  -3   2   2  343.55   12.41
   3  -2  -2  352.92   12.35
  -3   2   2  344.91   10.76
   3  -2  -2  325.60    6.53
   3  -2  -2  344.32   11.68
  -3   2   2  349.81   11.43
   3  -2  -2  344.32   11.29
  -3   2   1  410.22   12.51
   3  -2  -1  410.30   12.78
  -3   2   1  412.16   13.38
  -3   2   1  409.28   12.91
   3  -2  -1  416.47   12.63
  -3   2   1  413.55   11.07
  -3   2   1  418.54   11.27
   3  -2  -1  412.57    9.17
   3  -2  -1  415.24   11.91
   3  -2  -1  378.14    8.80
  -3   2   1  411.38   11.35
   3  -2  -1  412.47   11.27
   3  -2   0    0.74    0.94
  -3   2   0    1.96    1.78
  -3   2   0    0.54    0.94
   3  -2   0    1.69    1.49
   3  -2   0    0.60    0.34
   3  -2   0   -0.94    1.20
  -3   2   0   -0.79    1.44
  -3   2   0    0.76    1.49
  -3   2   0    1.14    1.44
   3  -2   0    1.41    1.27
   3  -2   0   -0.34    2.62
   3  -2   0    1.21    2.96
   3  -2   0    0.57    0.97
   3  -2   0    2.42    1.30
  -3   2  -1 2036.95   39.04
   3  -2   1 2109.75   39.57
  -3   2  -1 2095.13   39.63
   3  -2   1 2026.80   32.03
   3  -2   1 2138.42   44.47
   3  -2   1 2064.39   34.49
  -3   2  -1 2117.44   40.26
  -3   2  -1 2033.98   35.64
   3  -2   1 2098.48   42.52
   3  -2   1 2098.75   46.58
   3  -2   1 2041.64   34.82
  -3   2  -1 2024.30   37.21
   3  -2   1 2086.33   44.18
   3  -2   1 2138.31   33.39
   3  -2   1 2081.64   36.46
  -3   2  -1 2019.73   36.69
  -3   2  -2  383.18   12.71
  -3   2  -2  358.11   12.88
   3  -2   2  383.02   14.41
   3  -2   2  378.22   10.38
  -3   2  -2  370.46    9.86
  -3   2  -2  360.12   14.76
   3  -2   2  366.96   15.27
  -3   2  -2  371.16   10.12
   3  -2   2  374.24    8.45
   3  -2   2  366.77   14.41
  -3   2  -2  376.67   15.12
   3  -2   2  380.89   11.85
  -3   2  -2  388.54   12.01
   3  -2   2  396.41   15.22
  -3   2  -3  125.67    7.33
  -3   2  -3  136.41    6.14
  -3   2  -3  124.78    8.24
  -3   2  -3  125.02    7.31
   3  -2   3  124.28    8.55
  -3   2  -3  124.16    5.63
   3  -2   3  126.26    8.10
   3  -2   3  135.92    9.26
   3  -2   3  134.40    7.38
  -3   2  -3  129.31    7.25
   3  -2   3  128.02    6.39
  -3   2  -4  160.76    8.56
  -3   2  -4  173.90    9.17
   3  -2   4  168.37    8.12
  -3   2  -4  173.74    7.75
  -3   2  -4  160.68    9.54
  -3   2  -4  162.08    5.28
   3  -2   4  151.94    9.49
  -3   2  -4  155.29    6.90
   3  -2   4  172.86   10.88
   3  -2   4  140.14    8.69
   3  -2   4  164.42    8.77
  -3   2  -5  166.42    8.91
  -3   2  -5  171.82   10.16
   3  -2   5  177.96    9.17
  -3   2  -5  185.09    7.26
   3  -2   5  193.62   11.80
   3  -2   5  160.57    9.98
  -3   2  -5  164.04    7.84
   3  -2   5  179.89    9.97
   3  -2   5  177.29   10.12
   3  -2   5  186.35   10.19
  -3   2  -5  173.80    5.28
  -3   2  -6  583.48   18.21
  -3   2  -6  633.11   17.00
   3  -2   6  607.30   19.61
  -3   2  -6  595.10   20.48
   3  -2   6  589.48   19.82
   3  -2   6  575.80   21.76
   3  -2   6  605.18   20.88
   3  -2   6  605.61   20.43
   3  -2   6  554.18   19.82
  -3   2  -6  598.34   13.62
  -3   2  -7   23.16    4.25
   3  -2   7   20.49    4.61
   3  -2   7   16.87    3.70
  -3   2  -7   13.49    4.14
   3  -2   7   13.98    4.58
   3  -2   7   16.97    4.45
  -3   2  -7   22.91    3.95
   3  -2   7   20.37    4.33
   3  -2   7   21.54    4.62
   3  -2   8  299.45   15.07
  -3   2  -8  321.92   14.17
  -3   2  -8  301.67   15.66
   3  -2   8  299.53   16.16
  -3   2  -8  299.39   12.78
   3  -2   8  305.23   14.03
   3  -2   8  294.11   15.11
   3  -2   8  308.75   16.19
   3  -2   8  290.78   15.23
  -3   2  -8  285.43   12.78
   3  -2   9  170.64   11.90
   3  -2   9  168.45   12.51
  -3   2  -9  186.67   12.90
   3  -2   9  177.51   11.49
   3  -2   9  192.33   13.60
  -3   2  -9  174.67    9.97
   3  -2  10    6.91    4.13
   3  -2  10   -4.49    4.56
  -3   2 -10    8.19    5.41
   3  -2  10    7.53    4.28
   3  -2  10    7.80    4.99
  -3   2 -10    3.64    4.07
  -3   1   9    0.47    4.39
  -3   1   9    5.35    3.67
  -3   1   8   63.14    5.67
   3  -1  -8   65.01    8.56
  -3   1   8   61.86    7.81
  -3   1   8   68.71    8.08
  -3   1   7  237.20   13.83
  -3   1   7  228.75   12.72
  -3   1   7  234.78    9.98
   3  -1  -7  229.02   13.82
  -3   1   6   -0.22    1.99
   3  -1  -6   -1.45    3.02
  -3   1   6   -0.31    3.05
  -3   1   6   -3.98    2.89
  -3   1   6    3.15    3.65
   3  -1  -6    1.43    1.20
   3  -1  -5  336.44    8.98
  -3   1   5  350.33   11.06
   3  -1  -5  336.16   12.32
  -3   1   5  339.79   14.80
  -3   1   5  342.86   13.38
   3  -1  -5  341.35    8.94
  -3   1   5  339.43   14.53
  -3   1   5  325.25    8.52
   3  -1  -5  342.20   14.55
   3  -1  -4  447.94   11.38
  -3   1   4  422.13   12.12
   3  -1  -4  452.76   14.79
   3  -1  -4  422.87   12.67
   3  -1  -4  434.86   13.92
  -3   1   4  428.45   15.86
  -3   1   4  446.93   14.28
   3  -1  -4  436.24    9.93
  -3   1   4  441.97   15.85
   3  -1  -4  442.55   15.60
  -3   1   4  443.14   10.97
   3  -1  -3   34.09    2.97
  -3   1   3   29.67    2.76
  -3   1   3   33.41    3.26
   3  -1  -3   27.57    3.25
   3  -1  -3   28.76    3.76
  -3   1   3   35.66    3.68
  -3   1   3   35.43    4.49
  -3   1   3   27.77    3.31
   3  -1  -3   32.44    2.82
   3  -1  -3   26.71    3.53
  -3   1   3   33.22    4.12
   3  -1  -2  754.09   17.17
   3  -1  -2  754.69   14.69
   3  -1  -2  765.56   18.96
  -3   1   2  768.83   18.93
  -3   1   2  770.68   19.97
   3  -1  -2  792.95   19.84
  -3   1   2  778.04   17.14
   3  -1  -2  769.62   19.33
  -3   1   2  767.64   18.67
  -3   1   2  758.23   16.94
   3  -1  -1 1923.51   34.17
  -3   1   1 1997.06   35.75
  -3   1   1 1912.15   35.82
   3  -1  -1 1949.83   35.41
  -3   1   1 1869.80   29.44
  -3   1   1 1894.24   31.61
   3  -1  -1 1950.48   34.81
   3  -1  -1 1945.75   30.67
  -3   1   1 1940.81   33.85
  -3   1   1 1933.82   33.99
   3  -1   0  230.50    8.45
   3  -1   0  229.22   11.06
  -3   1   0  232.98    8.87
  -3   1   0  226.76    8.47
   3  -1   0  235.00    8.20
  -3   1   0  223.33    5.96
  -3   1   0  221.76    8.25
   3  -1   0  235.29   11.28
   3  -1   0  231.28    7.89
   3  -1   0  231.24    7.04
  -3   1   0  225.46    7.20
  -3   1   0  231.39    8.46
  -3   1  -1   56.54    4.37
   3  -1   1   55.18    4.11
  -3   1  -1   57.94    4.09
   3  -1   1   52.88    3.77
   3  -1   1   56.63    3.46
   3  -1   1   52.21    5.70
   3  -1   1   57.29    3.42
   3  -1   1   50.60    5.09
   3  -1   1   56.80    5.14
  -3   1  -1   50.08    2.77
   3  -1   1   53.13    3.62
  -3   1  -1   52.85    3.99
  -3   1  -2 1144.51   24.65
   3  -1   2 1187.43   24.95
   3  -1   2 1174.33   27.94
   3  -1   2 1185.32   26.21
   3  -1   2 1176.30   23.68
  -3   1  -2 1195.19   27.37
   3  -1   2 1168.58   22.86
  -3   1  -2 1168.14   24.36
   3  -1   2 1157.36   21.16
   3  -1   2 1128.63   27.46
  -3   1  -2 1138.33   19.37
  -3   1  -2 1191.27   20.35
   3  -1   2 1166.48   26.16
  -3   1  -2 1191.52   27.51
  -3   1  -2 1199.61   19.73
   3  -1   2 1191.54   24.08
  -3   1  -2 1180.99   24.38
  -3   1  -2 1194.22   24.85
  -3   1  -3  570.14   15.54
   3  -1   3  567.46   15.74
  -3   1  -3  594.45   15.96
   3  -1   3  569.89   12.46
   3  -1   3  558.57   15.91
   3  -1   3  551.08   16.00
  -3   1  -3  562.20   16.70
  -3   1  -3  581.47   12.68
  -3   1  -3  562.58   14.88
   3  -1   3  558.55   11.53
  -3   1  -3  575.47   13.09
  -3   1  -3  583.71   18.29
   3  -1   3  536.57   16.57
  -3   1  -3  548.39   11.72
   3  -1   3  565.99   16.18
  -3   1  -3  552.11   16.69
  -3   1  -3  560.43   11.19
   3  -1   3  572.59   15.60
  -3   1  -3  576.66   15.87
   3  -1   3  610.64   19.11
   3  -1   3  576.47   15.18
   3  -1   4   29.98    3.67
  -3   1  -4   29.67    3.62
   3  -1   4   23.47    3.14
   3  -1   4   26.69    3.63
  -3   1  -4   28.88    2.96
   3  -1   4   23.90    2.25
   3  -1   4   29.12    4.65
  -3   1  -4   31.58    4.25
  -3   1  -4   22.61    3.47
  -3   1  -4   22.97    2.76
   3  -1   4   25.97    2.18
  -3   1  -4   23.51    2.38
   3  -1   4   27.92    3.89
  -3   1  -4   29.86    4.60
   3  -1   4   17.37    3.12
   3  -1   4   30.16    3.80
  -3   1  -4   27.97    2.95
   3  -1   5  886.80   23.19
  -3   1  -5  881.70   20.20
  -3   1  -5  948.11   21.93
   3  -1   5  924.29   23.63
  -3   1  -5  939.66   21.90
  -3   1  -5  932.31   24.23
   3  -1   5  924.16   17.10
   3  -1   5  922.22   20.54
  -3   1  -5  897.89   20.11
   3  -1   5  914.73   26.03
   3  -1   5  906.10   23.85
   3  -1   5  895.34   23.53
   3  -1   5  941.54   24.07
  -3   1  -5  900.22   18.08
   3  -1   5  905.54   19.15
  -3   1  -5  903.78   22.00
   3  -1   6  439.68   16.06
  -3   1  -6  471.53   16.71
  -3   1  -6  452.99   15.13
   3  -1   6  429.82   16.09
  -3   1  -6  426.32   12.56
   3  -1   6  462.58   10.68
   3  -1   6  425.71   16.96
   3  -1   6  461.79   14.18
  -3   1  -6  454.45   14.03
   3  -1   6  446.30   16.30
   3  -1   6  447.64   16.54
  -3   1  -6  435.39   12.10
   3  -1   6  440.47   12.80
   3  -1   6  441.48   15.85
  -3   1  -6  429.07   14.20
  -3   1  -7   88.75    7.34
  -3   1  -7   92.46    7.60
   3  -1   7   78.89    7.38
   3  -1   7   86.45    7.84
  -3   1  -7   88.96    5.18
   3  -1   7   93.74    4.63
   3  -1   7   95.62    6.79
   3  -1   7   85.39    7.58
   3  -1   7   88.75    7.62
   3  -1   7   87.57    8.01
  -3   1  -7   87.77    5.47
   3  -1   7   89.88    5.88
   3  -1   7   85.71    7.18
  -3   1  -7   92.71    6.40
   3  -1   8   68.73    7.05
   3  -1   8   77.14    7.88
  -3   1  -8   65.32    4.80
  -3   1  -8   68.22    7.17
   3  -1   8   67.85    7.23
   3  -1   8   75.96    4.60
   3  -1   8   59.95    5.92
  -3   1  -8   68.69    6.98
   3  -1   8   65.93    7.57
  -3   1  -8   65.35    5.62
  -3   1  -9  200.66   12.81
  -3   1  -9  211.72   13.21
   3  -1   9  213.08   13.67
   3  -1   9  190.04   11.44
   3  -1   9  203.49   13.53
   3  -1   9  225.34   13.01
  -3   1  -9  206.19    9.93
   3  -1  10  119.30   10.21
  -3   1 -10  113.10   10.58
   3  -1  10  109.17   10.75
   3  -1  10  106.79    9.26
   3  -1  10  105.97   10.51
  -3   1 -10  132.68   11.14
   3  -1  11   12.65    4.62
   3  -1  11   17.24    5.31
   3  -1  11    7.82    5.38
   3   0  -9    3.56    4.80
  -3   0   9    0.72    3.58
  -3   0   9    8.70    4.49
   3   0  -8   43.35    4.87
   3   0  -8   53.79    7.84
  -3   0   8   52.71    7.55
  -3   0   8   45.55    6.62
  -3   0   7  127.62    6.67
  -3   0   7  138.41   10.50
   3   0  -7  128.08    7.95
  -3   0   7  117.89    9.32
  -3   0   7  137.65   10.80
   3   0  -7  120.96   10.17
  -3   0   6   52.59    3.98
  -3   0   6   63.84    7.15
   3   0  -6   61.80    7.01
   3   0  -6   55.23    5.09
   3   0  -6   51.69    3.75
  -3   0   6   56.36    6.45
  -3   0   6   65.40    6.47
   3   0  -6   52.78    4.50
   3   0  -5  111.38    4.44
  -3   0   5  117.34    5.32
   3   0  -5  118.63    7.02
  -3   0   5  120.17    8.61
   3   0  -5  101.33    4.48
  -3   0   5  111.21    7.73
   3   0  -5  105.70    5.92
  -3   0   5  118.33    8.60
   3   0  -5  122.33    8.85
   3   0  -4  815.11   16.92
  -3   0   4  847.95   16.94
  -3   0   4  861.54   23.57
   3   0  -4  863.32   20.57
   3   0  -4  827.99   20.52
  -3   0   4  859.53   21.43
   3   0  -4  835.09   19.11
  -3   0   4  867.76   23.44
   3   0  -4  879.41   23.61
   3   0  -3  478.79   11.82
  -3   0   3  484.91   10.91
  -3   0   3  487.86   14.15
   3   0  -3  509.59   16.11
   3   0  -3  503.76   14.37
   3   0  -3  488.05   13.15
  -3   0   3  487.71   15.91
  -3   0   3  486.15   13.81
   3   0  -3  494.92   13.87
  -3   0   3  487.93   15.53
  -3   0   3  487.21   11.92
   3   0  -2   35.30    2.88
   3   0  -2   35.37    3.88
  -3   0   2   33.44    2.47
  -3   0   2   33.57    3.60
   3   0  -2   31.44    2.61
  -3   0   2   33.96    3.40
   3   0  -2   31.32    3.39
  -3   0   2   36.62    4.05
   3   0  -2   36.76    3.12
   3   0  -2   37.48    3.91
  -3   0   2   31.91    2.98
  -3   0   2   36.18    2.98
   3   0  -1  549.64   13.43
   3   0  -1  558.77   11.80
  -3   0   1  562.54   14.68
   3   0  -1  539.36   14.44
  -3   0   1  588.55   15.62
   3   0  -1  581.19   15.30
  -3   0   1  538.31   11.99
   3   0  -1  548.75   12.03
   3   0  -1  568.35   15.30
  -3   0   1  551.30   14.54
  -3   0   1  539.28   13.27
   3   0   0  439.97   11.72
  -3   0   0  437.97   12.18
  -3   0   0  412.72    7.50
   3   0   0  435.39   13.96
   3   0   0  452.90   12.34
  -3   0   0  428.52   10.23
  -3   0   0  436.43    8.58
   3   0   0  441.53   12.33
   3   0   0  416.38   13.79
   3   0   0  449.90   12.39
  -3   0   0  436.63   11.59
  -3   0   0  440.91   11.70
   3   0   1 1276.97   25.03
   3   0   1 1238.22   25.50
   3   0   1 1292.76   24.55
   3   0   1 1288.95   25.14
   3   0   1 1199.48   28.28
   3   0   1 1254.83   25.68
   3   0   1 1289.05   25.33
  -3   0  -1 1326.10   23.96
  -3   0  -1 1286.16   25.01
   3   0   1 1297.40   24.36
  -3   0  -1 1266.64   23.48
  -3   0  -1 1237.64   24.85
   3   0   2 1155.01   23.25
   3   0   2 1132.67   22.60
  -3   0  -2 1147.43   24.11
   3   0   2 1149.90   24.45
   3   0   2 1112.05   24.55
  -3   0  -2 1102.34   22.36
  -3   0  -2 1072.29   25.96
   3   0   2 1093.54   25.01
   3   0   2 1096.21   23.91
   3   0   2 1138.62   22.89
  -3   0  -2 1142.97   24.25
  -3   0  -2 1119.34   21.17
  -3   0  -2 1121.14   22.30
   3   0   2 1148.43   23.11
   3   0   2 1084.18   22.58
  -3   0  -2 1121.15   23.06
   3   0   3 1303.88   26.12
   3   0   3 1265.06   25.79
  -3   0  -3 1265.36   26.28
   3   0   3 1312.68   27.35
  -3   0  -3 1299.25   25.97
   3   0   3 1304.53   26.47
  -3   0  -3 1268.87   24.49
  -3   0  -3 1313.28   28.05
   3   0   3 1283.63   21.17
   3   0   3 1252.44   26.01
  -3   0  -3 1262.53   21.02
   3   0   3 1277.54   25.85
  -3   0  -3 1276.09   26.54
  -3   0  -3 1284.52   24.63
   3   0   3 1308.31   26.57
  -3   0  -3 1308.59   25.93
   3   0   3 1297.70   29.21
  -3   0  -3 1305.19   25.98
   3   0   4  889.94   20.34
   3   0   4  829.87   20.38
  -3   0  -4  889.31   21.02
   3   0   4  877.02   21.69
  -3   0  -4  878.17   21.34
  -3   0  -4  956.26   24.00
  -3   0  -4  865.58   18.25
  -3   0  -4  911.27   21.79
   3   0   4  886.95   20.10
   3   0   4  865.51   17.09
  -3   0  -4  835.17   16.97
   3   0   4  870.70   20.64
   3   0   4  867.44   20.51
  -3   0  -4  906.48   21.28
   3   0   4  859.08   23.25
   3   0   4  882.13   19.83
   3   0   4  888.15   21.32
  -3   0  -4  893.12   21.63
  -3   0  -4  871.86   20.65
  -3   0  -4  901.88   22.77
  -3   0  -4  886.50   20.08
   3   0   5  288.24   10.43
   3   0   5  292.79   10.22
  -3   0  -5  306.61   12.73
  -3   0  -5  279.92   11.19
  -3   0  -5  287.76   11.77
   3   0   5  292.04   12.02
  -3   0  -5  263.55    8.29
   3   0   5  270.83   10.86
   3   0   5  283.43    9.61
   3   0   5  284.00    9.07
  -3   0  -5  278.49    9.11
   3   0   5  278.93   12.05
   3   0   5  294.77   11.19
   3   0   5  280.04   11.02
   3   0   5  292.09   11.60
  -3   0  -5  287.64   10.21
   3   0   6  248.48    9.93
   3   0   6  238.04   10.71
  -3   0  -6  239.03   11.32
   3   0   6  239.78   11.73
  -3   0  -6  237.80    7.54
   3   0   6  226.91   10.96
   3   0   6  245.51    8.90
  -3   0  -6  234.14   10.91
   3   0   6  245.03    9.35
  -3   0  -6  243.40    9.42
   3   0   6  229.39   10.69
   3   0   6  235.82   10.58
   3   0   6  239.26   11.34
  -3   0  -6  232.17    9.05
  -3   0  -6  245.97    9.55
   3   0   6  243.78    9.88
   3   0   7  540.23   18.19
  -3   0  -7  569.90   18.85
  -3   0  -7  577.46   19.86
   3   0   7  548.93   19.79
  -3   0  -7  556.42   12.49
   3   0   7  579.72   15.46
   3   0   7  566.38   16.74
   3   0   7  538.98   19.03
   3   0   7  574.19   18.50
  -3   0  -7  574.30   15.99
   3   0   8   62.55    6.60
   3   0   8   58.86    6.18
   3   0   8   68.73    7.41
  -3   0  -8   60.84    6.48
  -3   0  -8   54.51    3.05
   3   0   8   67.30    5.09
   3   0   8   57.28    5.66
  -3   0  -8   57.88    6.92
   3   0   8   58.55    6.74
  -3   0  -8   56.89    4.84
   3   0   9  217.91   12.37
  -3   0  -9  234.01   13.25
   3   0   9  211.23   13.69
  -3   0  -9  240.39   14.38
   3   0   9  231.47   10.25
   3   0   9  230.30   12.00
   3   0   9  228.52   13.63
  -3   0  -9  224.72    9.68
   3   0  10   95.34    8.88
   3   0  10   97.88   10.15
  -3   0 -10   92.81    8.96
   3   0  10   97.55    8.53
  -3   0 -10   92.20    9.94
   3   0  10   87.88    9.24
   3   0  11   30.64    6.15
   3   0  11   25.07    6.92
  -3   0 -11   28.23    5.96
   3   0  11   27.39    5.86
  -3   0 -11   31.22    7.05
   3   0  11   34.52    6.98
   3   0  12   42.40    6.86
  -3   0 -12   45.29    8.37
   3   1  -9   72.02    9.56
  -3  -1   9   70.29    8.76
  -3  -1   9   55.45    8.02
  -3  -1   8   35.02    6.97
   3   1  -8   32.86    4.75
   3   1  -8   31.34    6.41
  -3  -1   8   30.99    5.73
  -3  -1   8   31.89    6.04
  -3  -1   7  103.90    5.60
   3   1  -7  109.52    7.45
  -3  -1   7  101.32    8.88
  -3  -1   7   99.40    8.77
  -3  -1   7  118.52   10.52
   3   1  -7  114.36   10.20
  -3  -1   6  456.92   11.68
   3   1  -6  430.55   14.81
  -3  -1   6  455.01   17.97
   3   1  -6  417.75   13.66
  -3  -1   6  457.90   17.59
  -3  -1   6  463.37   19.00
   3   1  -6  458.99   18.95
   3   1  -5  117.10    7.18
   3   1  -5  118.24    6.26
  -3  -1   5  116.01    8.11
  -3  -1   5  126.92    4.91
   3   1  -5  127.34    7.72
  -3  -1   5  136.35    9.31
   3   1  -5  116.98    8.81
  -3  -1   5  130.81    8.94
   3   1  -5  123.72    5.03
  -3  -1   4  789.38   14.31
   3   1  -4  749.30   19.48
  -3  -1   4  808.25   22.48
   3   1  -4  780.21   17.27
  -3  -1   4  783.29   20.80
  -3  -1   4  769.29   22.40
   3   1  -4  739.84   16.15
  -3  -1   3  819.11   18.86
   3   1  -3  809.91   19.80
  -3  -1   3  786.86   19.41
   3   1  -3  779.56   19.37
  -3  -1   3  833.80   21.81
  -3  -1   3  788.63   19.57
   3   1  -3  808.92   19.39
  -3  -1   3  791.38   13.27
  -3  -1   3  833.86   21.89
   3   1  -3  779.10   16.77
  -3  -1   2  515.13   13.00
  -3  -1   2  530.10   14.39
   3   1  -2  500.94   14.13
   3   1  -2  557.14   16.07
  -3  -1   2  515.03   10.79
  -3  -1   2  502.11   13.41
   3   1  -2  520.40   13.35
   3   1  -2  540.63   16.21
  -3  -1   2  539.51   15.81
   3   1  -2  513.81   13.94
  -3  -1   2  526.88   13.03
   3   1  -2  505.38   12.54
  -3  -1   1 1810.81   30.42
   3   1  -1 1735.85   32.41
  -3  -1   1 1822.77   32.98
   3   1  -1 1728.46   32.60
   3   1  -1 1855.05   34.78
  -3  -1   1 1734.52   30.38
  -3  -1   1 1799.20   30.79
   3   1  -1 1738.83   30.04
  -3  -1   1 1685.39   26.07
   3   1  -1 1922.56   35.41
  -3  -1   1 1849.25   34.31
  -3  -1   1 1769.04   31.40
   3   1  -1 1738.50   31.10
  -3  -1   0  552.32   10.41
  -3  -1   0  569.16   12.57
   3   1   0  574.80   13.88
  -3  -1   0  550.45   13.92
   3   1   0  567.70   14.16
   3   1   0  590.80   15.16
   3   1   0  538.69   11.02
   3   1   0  571.83   13.88
   3   1   0  550.38   15.19
  -3  -1   0  565.08   14.82
  -3  -1   0  562.18   13.66
   3   1   0  542.92   13.40
   3   1   1  682.86   13.90
   3   1   1  684.59   13.87
  -3  -1  -1  705.42   15.82
   3   1   1  684.20   15.84
   3   1   1  738.63   18.70
   3   1   1  703.38   16.59
   3   1   1  682.13   11.73
  -3  -1  -1  688.96   13.61
   3   1   1  702.98   14.01
   3   1   1  730.02   17.98
  -3  -1  -1  699.84   16.57
  -3  -1  -1  687.42   15.92
   3   1   1  692.87   15.87
   3   1   2  336.38    9.27
  -3  -1  -2  345.38    9.50
   3   1   2  339.81   12.64
  -3  -1  -2  346.34    9.69
  -3  -1  -2  325.85   10.79
   3   1   2  337.37    9.02
   3   1   2  325.20    6.37
   3   1   2  333.30    8.70
  -3  -1  -2  337.34    9.14
  -3  -1  -2  346.63    9.57
  -3  -1  -2  349.92   10.86
   3   1   2  342.43    9.68
  -3  -1  -2  338.40   10.22
   3   1   2  342.90   10.20
   3   1   3   64.36    4.95
  -3  -1  -3   60.45    3.99
   3   1   3   58.66    4.05
  -3  -1  -3   56.73    3.75
   3   1   3   66.68    5.53
   3   1   3   58.98    5.02
  -3  -1  -3   67.73    5.23
  -3  -1  -3   57.57    3.52
   3   1   3   60.55    3.69
  -3  -1  -3   61.64    4.23
   3   1   3   59.92    2.63
   3   1   3   58.76    3.64
   3   1   3   62.21    3.75
  -3  -1  -3   59.82    3.83
  -3  -1  -3   64.10    4.86
   3   1   3   56.40    4.40
  -3  -1  -3   69.05    4.44
   3   1   3   66.35    4.29
   3   1   4 1271.97   25.38
   3   1   4 1196.93   25.51
  -3  -1  -4 1270.10   25.82
   3   1   4 1333.10   28.57
  -3  -1  -4 1250.35   25.25
  -3  -1  -4 1253.03   28.92
  -3  -1  -4 1240.88   22.67
   3   1   4 1204.19   28.14
  -3  -1  -4 1255.38   25.59
   3   1   4 1219.43   27.73
   3   1   4 1220.86   22.27
   3   1   4 1246.08   24.56
   3   1   4 1238.21   24.79
  -3  -1  -4 1251.05   25.38
   3   1   4 1224.25   27.12
   3   1   4 1250.90   26.90
  -3  -1  -4 1240.56   25.00
   3   1   5  378.97   11.72
   3   1   5  400.02   13.65
  -3  -1  -5  373.24   12.73
  -3  -1  -5  382.29   14.73
   3   1   5  374.98   14.10
  -3  -1  -5  360.94    9.04
   3   1   5  386.76   12.71
   3   1   5  362.06   10.43
   3   1   5  383.12   13.39
  -3  -1  -5  374.86   12.34
   3   1   5  396.22   12.75
  -3  -1  -5  389.00   12.59
   3   1   5  369.84   13.13
  -3  -1  -5  369.42   11.39
   3   1   6   90.49    5.53
  -3  -1  -6   91.68    6.41
  -3  -1  -6   89.69    7.43
  -3  -1  -6   80.54    3.40
   3   1   6   86.47    5.77
   3   1   6   86.18    6.11
   3   1   6   82.84    5.30
  -3  -1  -6   84.85    5.49
   3   1   6   79.12    6.43
   3   1   6   82.13    6.97
   3   1   6   84.99    6.21
  -3  -1  -6   86.42    5.39
   3   1   7  655.36   17.12
   3   1   7  625.97   19.15
   3   1   7  626.73   21.34
   3   1   7  628.89   17.56
  -3  -1  -7  579.09   10.76
   3   1   7  660.08   18.59
   3   1   7  640.33   17.63
   3   1   7  663.03   20.47
  -3  -1  -7  653.40   22.07
  -3  -1  -7  637.00   16.32
  -3  -1  -7  675.68   20.31
   3   1   8   18.82    3.06
   3   1   8   14.14    4.05
   3   1   8   17.13    4.80
   3   1   8   21.95    4.01
   3   1   8   18.99    3.89
  -3  -1  -8   17.67    4.47
   3   1   8   29.36    5.16
  -3  -1  -8   19.75    2.96
   3   1   9    0.04    3.64
   3   1   9    5.47    2.79
   3   1   9    2.77    2.28
   3   1   9    1.16    3.21
  -3  -1  -9   -0.04    3.34
   3   1   9    3.75    3.60
  -3  -1  -9    1.78    1.71
   3   1  10  102.04    9.18
  -3  -1 -10  125.19   11.41
   3   1  10  121.58   10.95
   3   1  10  109.37    8.23
   3   1  10   92.54    8.44
   3   1  10  108.08   10.03
   3   1  11   81.04    8.60
   3   1  11   84.82   10.46
   3   1  11   92.79    8.99
  -3  -1 -11   87.20   10.49
   3   1  11   82.97    9.37
   3   1  12   18.13    4.78
  -3  -1 -12   14.88    6.46
   3   1  12   32.93    7.15
   3   2  -9   71.07    9.74
  -3  -2   9   79.28   10.12
  -3  -2   9   47.84    7.85
  -3  -2   8  103.07   10.55
   3   2  -8   88.70    7.26
   3   2  -8   99.61   10.39
  -3  -2   8   86.12    9.27
   3   2  -7   43.48    6.95
   3   2  -7   41.26    5.02
  -3  -2   7   30.15    6.42
   3   2  -7   33.07    4.67
  -3  -2   7   31.69    5.60
  -3  -2   6  402.88   10.44
   3   2  -6  392.98   14.57
   3   2  -6  358.02   14.19
  -3  -2   6  395.06   16.81
  -3  -2   6  389.95   17.69
   3   2  -6  382.09   17.66
   3   2  -5  139.63    5.32
   3   2  -5  156.58    8.62
  -3  -2   5  155.95    5.18
   3   2  -5  148.61    8.30
  -3  -2   5  134.72    9.09
  -3  -2   5  157.77   10.42
   3   2  -5  147.73    6.32
  -3  -2   4   14.84    3.73
   3   2  -4    9.72    2.88
   3   2  -4   20.30    3.32
   3   2  -4   19.18    2.53
  -3  -2   4   15.86    3.46
   3   2  -4   15.40    2.47
  -3  -2   4   15.34    3.23
  -3  -2   3  721.10   18.68
   3   2  -3  720.16   19.87
   3   2  -3  674.71   18.16
  -3  -2   3  698.68   18.91
   3   2  -3  652.94   15.38
  -3  -2   3  696.05   20.38
   3   2  -3  652.48   15.83
  -3  -2   2 1497.86   29.87
   3   2  -2 1507.67   31.67
  -3  -2   2 1452.97   29.86
   3   2  -2 1444.80   29.77
   3   2  -2 1500.60   32.07
  -3  -2   2 1490.18   28.83
  -3  -2   2 1465.61   29.95
   3   2  -2 1499.02   29.31
  -3  -2   2 1475.24   32.21
   3   2  -2 1420.45   27.79
  -3  -2   1  120.79    6.27
   3   2  -1  126.70    7.30
  -3  -2   1  126.00    6.29
   3   2  -1  124.52    6.38
   3   2  -1  131.18    7.15
  -3  -2   1  116.34    6.40
   3   2  -1  121.74    5.65
   3   2  -1  129.08    7.39
  -3  -2   1  130.62    7.53
   3   2  -1  117.39    5.70
  -3  -2   0 1300.21   20.38
  -3  -2   0 1287.02   25.66
   3   2   0 1289.12   20.23
   3   2   0 1238.07   20.90
   3   2   0 1267.42   25.64
  -3  -2   0 1335.96   27.28
   3   2   0 1299.99   23.91
   3   2   0 1279.30   20.92
   3   2   0 1370.25   28.98
  -3  -2   0 1320.11   28.14
  -3  -2   0 1345.48   25.76
   3   2   0 1288.36   25.19
  -3  -2  -1 2125.81   33.17
   3   2   1 2169.41   36.81
   3   2   1 2147.63   41.28
  -3  -2  -1 2077.41   36.45
   3   2   1 2087.44   32.63
   3   2   1 2184.41   41.13
   3   2   1 2160.18   33.31
  -3  -2  -1 2109.94   39.57
  -3  -2  -1 2164.62   37.21
   3   2   1 2110.24   36.85
  -3  -2  -2  229.83    7.11
  -3  -2  -2  234.19    6.19
  -3  -2  -2  229.97    7.68
  -3  -2  -2  236.16   10.39
   3   2   2  222.61    5.21
   3   2   2  242.03    7.89
  -3  -2  -2  230.45    6.20
  -3  -2  -2  241.92   10.18
   3   2   2  255.27   11.33
   3   2   2  220.96    7.02
  -3  -2  -2  237.03    8.44
   3   2   2  232.89    8.26
  -3  -2  -3    3.97    1.82
  -3  -2  -3    3.80    2.98
  -3  -2  -3    3.23    1.36
   3   2   3    2.93    1.54
   3   2   3    3.00    2.51
   3   2   3    1.47    1.14
  -3  -2  -3    1.36    1.09
  -3  -2  -3    2.12    1.02
  -3  -2  -3    1.14    0.93
   3   2   3    1.29    1.98
   3   2   3    1.91    1.50
   3   2   3    3.76    1.61
  -3  -2  -3    0.22    2.18
  -3  -2  -4 1306.35   26.15
   3   2   4 1265.79   25.89
   3   2   4 1297.55   31.13
   3   2   4 1291.13   30.36
  -3  -2  -4 1331.80   31.57
  -3  -2  -4 1221.82   22.89
   3   2   4 1264.42   23.30
   3   2   4 1302.95   30.38
  -3  -2  -4 1277.77   24.36
   3   2   4 1300.99   24.18
  -3  -2  -4 1279.14   24.89
   3   2   4 1303.66   25.45
   3   2   4 1303.46   27.71
  -3  -2  -4 1297.07   25.68
   3   2   4 1278.16   25.67
   3   2   5  213.36    9.10
   3   2   5  234.43   11.28
  -3  -2  -5  232.75   12.02
   3   2   5  218.14   10.98
   3   2   5  213.08    6.37
   3   2   5  217.95   10.98
   3   2   5  223.53    7.71
  -3  -2  -5  218.93    8.39
   3   2   5  217.45    8.07
  -3  -2  -5  205.95    8.46
   3   2   5  210.32    9.58
  -3  -2  -5  200.48    6.10
  -3  -2  -5  203.99    8.09
   3   2   5  216.06    8.43
  -3  -2  -6    0.18    1.63
   3   2   6    2.97    2.40
   3   2   6    3.12    2.76
  -3  -2  -6    0.52    0.58
   3   2   6   -0.32    1.28
   3   2   6   -0.10    1.62
   3   2   6    1.21    2.65
  -3  -2  -6    0.14    1.43
   3   2   6    0.87    1.46
  -3  -2  -6    0.40    2.75
  -3  -2  -6   -0.45    1.53
   3   2   6    1.72    2.35
   3   2   7  287.37   10.36
  -3  -2  -7  303.35   11.48
  -3  -2  -7  289.80   14.82
   3   2   7  281.62   14.01
   3   2   7  297.36   13.20
   3   2   7  292.36   11.53
   3   2   7  302.73   13.07
  -3  -2  -7  278.88    9.94
   3   2   7  283.20   12.31
   3   2   8  218.72    9.09
   3   2   8  220.41   13.25
   3   2   8  225.48   11.62
  -3  -2  -8  238.17   14.12
   3   2   8  242.66   12.18
   3   2   8  221.04   10.72
   3   2   8  215.07   11.72
  -3  -2  -8  218.35    8.79
  -3  -2  -8  230.38   10.82
   3   2   9   80.24    7.70
   3   2   9   90.50    9.20
   3   2   9   79.20    7.47
   3   2   9   88.71    7.26
  -3  -2  -9   89.14    9.52
   3   2   9   85.90    8.09
  -3  -2  -9   78.30    5.36
   3   2  10   25.46    5.08
   3   2  10   20.59    5.71
   3   2  10   22.16    4.99
   3   2  10   30.82    5.39
  -3  -2 -10   30.51    6.67
   3   2  10   20.93    5.14
   3   2  11   37.61    6.39
   3   2  11   34.59    7.46
   3   2  11   38.00    6.12
   3   2  11   36.30    5.90
  -3  -2 -11   47.45    8.36
   3   2  11   38.63    6.86
   3   2  12    3.15    4.08
  -3  -2 -12    9.64    6.37
   3   2  12   10.64    5.49
   3   3  -9   65.67    9.91
  -3  -3   8   96.64   10.40
   3   3  -8  103.74    8.39
   3   3  -8   96.36   10.37
  -3  -3   8  104.88   10.64
  -3  -3   7    6.59    4.00
   3   3  -7   10.44    5.01
   3   3  -7    3.69    2.82
   3   3  -7   -0.42    3.15
  -3  -3   7   -1.90    4.27
   3   3  -6  113.46    8.11
   3   3  -6  128.73    9.22
  -3  -3   6  127.96   10.12
  -3  -3   6  132.40   10.76
  -3  -3   5  329.32   14.85
   3   3  -5  319.63   14.08
  -3  -3   5  343.61   15.30
   3   3  -5  313.52   13.17
  -3  -3   5  333.78   15.82
   3   3  -5  314.61   10.98
  -3  -3   4  199.33   10.61
   3   3  -4  187.64    9.69
   3   3  -4  203.45   10.45
  -3  -3   4  193.80   10.64
   3   3  -4  182.56    7.91
  -3  -3   4  199.26   11.38
   3   3  -4  176.04    7.95
   3   3  -4  166.73    4.57
  -3  -3   3  199.74   10.12
   3   3  -3  189.09    9.32
  -3  -3   3  201.82    9.39
   3   3  -3  214.59   10.31
   3   3  -3  199.89    8.31
   3   3  -3  200.53    7.38
  -3  -3   3  190.62   10.71
   3   3  -3  190.81    8.31
  -3  -3   2  971.19   24.51
   3   3  -2  959.82   23.20
  -3  -3   2  975.27   24.53
   3   3  -2  944.21   19.97
   3   3  -2  980.73   18.40
  -3  -3   2  982.56   25.70
   3   3  -2  974.31   21.90
   3   3  -1  574.40    9.79
   3   3  -1  651.78   11.46
  -3  -3   1  666.50   18.84
   3   3  -1  656.16   20.41
   3   3  -1  652.48   17.12
  -3  -3   1  668.31   19.15
   3   3  -1  657.35   16.84
   3   3  -1  639.80   13.18
   3   3  -1  573.94   10.05
   3   3  -1  629.68   11.44
  -3  -3   1  672.72   19.57
   3   3  -1  641.59   16.29
  -3  -3   0    8.35    3.03
   3   3   0    5.72    1.48
  -3  -3   0    6.49    2.73
  -3  -3   0    4.24    1.61
   3   3   0    2.33    1.68
  -3  -3   0    4.49    1.98
   3   3   0    7.99    2.03
   3   3   0    6.03    0.85
   3   3   0    6.07    1.01
   3   3   0    6.76    2.20
  -3  -3  -1  656.87   13.98
   3   3   1  633.41   16.14
  -3  -3  -1  680.86   16.62
   3   3   1  678.00   20.02
  -3  -3  -1  639.78   20.63
   3   3   1  638.40   13.24
   3   3   1  696.29   20.21
  -3  -3  -1  681.71   19.69
   3   3   1  662.13   16.68
   3   3   2  554.57   13.09
   3   3   2  588.33   19.31
  -3  -3  -2  580.52   14.68
   3   3   2  570.50   14.41
  -3  -3  -2  622.30   19.35
  -3  -3  -2  599.67   13.71
  -3  -3  -2  557.66   10.27
  -3  -3  -2  600.80   18.97
   3   3   2  575.92   15.26
  -3  -3  -3   56.90    5.99
  -3  -3  -3   48.91    3.75
  -3  -3  -3   47.69    3.57
   3   3   3   46.29    3.48
   3   3   3   47.42    3.77
  -3  -3  -3   46.45    2.27
  -3  -3  -3   47.60    2.79
   3   3   3   52.29    5.84
  -3  -3  -3   51.14    5.75
   3   3   3   47.22    3.99
  -3  -3  -4  278.59    9.89
   3   3   4  282.59   13.46
   3   3   4  268.41   12.75
  -3  -3  -4  292.71   13.88
  -3  -3  -4  255.63    8.34
   3   3   4  272.32    8.28
   3   3   4  263.23    9.72
   3   3   4  279.55   12.90
  -3  -3  -4  269.57    7.73
  -3  -3  -4  262.89    8.44
   3   3   4  283.02    7.33
   3   3   4  270.64    9.74
  -3  -3  -5  458.32   18.13
   3   3   5  401.84    8.63
   3   3   5  445.77   16.82
  -3  -3  -5  393.41   10.30
   3   3   5  426.92   10.26
   3   3   5  407.29   13.38
   3   3   5  439.00   17.03
   3   3   5  406.35   12.77
  -3  -3  -5  398.87   11.40
  -3  -3  -5  412.45   12.24
   3   3   5  417.00   14.17
   3   3   5  404.94   12.47
  -3  -3  -6  538.75   20.44
   3   3   6  491.05   18.44
   3   3   6  480.62   10.23
   3   3   6  466.00   18.34
   3   3   6  476.46   14.79
  -3  -3  -6  453.53   13.83
   3   3   6  472.78   15.65
   3   3   6  475.59   15.99
   3   3   6  474.71   13.89
  -3  -3  -7   24.09    2.71
   3   3   7   22.10    2.97
   3   3   7   22.31    4.17
   3   3   7   20.32    4.99
   3   3   7   25.53    4.19
   3   3   7   16.28    4.14
  -3  -3  -7   27.07    5.25
   3   3   7   20.76    3.79
   3   3   8  355.52   12.04
  -3  -3  -8  394.34   12.17
   3   3   8  363.88   15.27
  -3  -3  -8  402.63   19.07
   3   3   8  365.51   17.47
   3   3   8  359.55   14.48
   3   3   8  378.22   16.95
   3   3   8  363.97   15.17
   3   3   9   58.60    7.78
   3   3   9   68.54    6.93
   3   3   9   62.60    7.51
   3   3   9   66.71    7.18
  -3  -3  -9   72.33    8.92
   3   3   9   53.72    6.52
   3   3  10   10.06    4.70
   3   3  10    1.54    3.22
   3   3  10   -0.23    3.70
  -3  -3 -10   -2.54    3.98
   3   3  10   -0.98    3.38
   3   3  10   -0.67    3.65
   3   3  11   45.77    7.23
   3   3  11   24.77    6.80
   3   3  11   33.39    6.47
   3   3  11   32.69    6.21
  -3  -3 -11   25.29    7.44
   3   3  11   23.44    5.78
   3   3  12   16.76    5.29
   3   3  12   27.44    5.82
  -3  -3 -12   22.84    7.68
   3   3  12   10.48    5.22
   3   4  -8   89.68    8.42
  -3  -4   8  110.60   11.69
   3   4  -8   87.32   10.73
   3   4  -7  123.14    8.98
   3   4  -7  104.80    8.72
   3   4  -7  106.36    9.72
   3   4  -7  133.60   11.95
  -3  -4   7  108.60   10.74
  -3  -4   6   10.81    4.54
   3   4  -6   15.34    3.35
   3   4  -6   10.74    3.57
   3   4  -6   16.85    4.27
  -3  -4   6   10.54    4.95
  -3  -4   5  973.25   28.89
   3   4  -5  941.55   23.44
   3   4  -5  933.08   26.18
   3   4  -5  912.92   27.92
  -3  -4   5  915.46   29.33
   3   4  -4  158.59    5.13
   3   4  -4  177.48    8.12
  -3  -4   4  165.85   10.74
   3   4  -4  169.81    9.83
   3   4  -4  168.90   10.67
   3   4  -4  166.62    7.87
  -3  -4   4  187.65   11.73
   3   4  -3  107.38    3.83
   3   4  -3  119.31    5.84
  -3  -4   3  122.69    8.99
   3   4  -3  103.73    7.58
   3   4  -3  115.81    8.55
   3   4  -3  112.63    6.48
   3   4  -3  113.39    5.76
  -3  -4   3  118.89    9.07
   3   4  -2  698.46   13.52
   3   4  -2  690.19   14.80
  -3  -4   2  681.36   21.68
   3   4  -2  639.23   19.20
   3   4  -2  638.69   15.86
   3   4  -2  666.43   14.77
   3   4  -2  620.51   12.50
  -3  -4   2  654.50   21.58
   3   4  -1  166.13    5.51
  -3  -4   1  146.92    9.65
   3   4  -1  163.30    5.43
   3   4  -1  155.36    8.34
  -3  -4   1  157.88    9.85
   3   4  -1  163.67    6.15
   3   4  -1  156.50    5.43
  -3  -4   1  157.62    9.90
   3   4   0  577.37   12.90
  -3  -4   0  586.63   20.65
   3   4   0  560.04   16.50
   3   4   0  575.36   12.07
  -3  -4   0  568.39   18.74
  -3  -4   0  601.79   19.75
   3   4   1  392.27   10.60
  -3  -4  -1  406.59   17.35
  -3  -4  -1  381.68   14.27
   3   4   1  384.51   12.78
  -3  -4  -1  394.27   15.89
   3   4   2 1270.54   25.45
  -3  -4  -2 1327.68   26.55
  -3  -4  -2 1347.32   27.82
  -3  -4  -2 1306.64   33.09
   3   4   2 1276.12   27.10
  -3  -4  -2 1292.74   33.06
  -3  -4  -3   79.41    5.19
  -3  -4  -3   81.50    5.26
   3   4   3   76.04    4.95
   3   4   3   74.40    5.03
  -3  -4  -3   70.26    2.46
  -3  -4  -3   77.01    7.64
  -3  -4  -3   83.66    7.81
  -3  -4  -4   56.37    6.73
  -3  -4  -4   51.15    4.06
   3   4   4   46.57    4.46
   3   4   4   49.57    3.92
   3   4   4   50.20    6.25
  -3  -4  -4   50.55    2.92
   3   4   4   51.45    6.03
   3   4   5  312.94   14.78
  -3  -4  -5  336.25   16.09
   3   4   5  291.55    9.20
   3   4   5  332.81   15.51
  -3  -4  -5  302.55    9.37
   3   4   5  296.38   11.82
   3   4   6   33.75    4.62
   3   4   6   34.38    2.73
   3   4   6   34.87    5.58
   3   4   6   25.97    3.83
   3   4   6   35.31    5.91
  -3  -4  -6   21.13    2.90
  -3  -4  -6   28.84    5.49
   3   4   6   30.65    4.53
  -3  -4  -7  126.44   10.98
   3   4   7  109.18    9.49
   3   4   7  107.77    3.84
   3   4   7  102.55    9.22
   3   4   7  117.78    8.07
   3   4   7   97.78    7.59
   3   4   7  121.57    8.52
   3   4   8   25.10    4.56
   3   4   8   18.02    4.84
   3   4   8   21.92    4.26
   3   4   8   22.71    5.60
  -3  -4  -8   18.91    4.97
   3   4   8   24.53    4.53
   3   4   9   27.50    5.44
   3   4   9   31.87    5.27
   3   4   9   36.39    6.67
  -3  -4  -9   42.66    7.60
   3   4   9   35.43    5.44
   3   4   9   39.44    7.06
   3   4  10   93.79    9.25
   3   4  10  101.03   10.70
   3   4  10  102.58   10.66
   3   4  10   86.80    8.58
  -3  -4 -10  110.26   11.76
   3   4  10   96.29    8.91
   3   4  11    3.11    4.41
   3   4  11    4.66    4.50
   3   4  11   -0.28    3.61
   3   4  11    0.47    4.14
  -3  -4 -11    2.30    4.69
   3   4  11    4.83    4.40
   3   4  12   21.37    5.67
  -3  -5   8   16.71    5.81
   3   5  -8   14.59    5.75
   3   5  -7   99.39    9.28
   3   5  -7  101.27   11.15
  -3  -5   7  112.57   11.59
   3   5  -7   92.67    9.84
  -3  -5   6   87.93    9.68
  -3  -5   6   90.62    9.92
   3   5  -6   72.73    7.84
   3   5  -6   74.90    8.56
   3   5  -6   94.90    7.42
  -3  -5   5    4.25    4.11
  -3  -5   5    3.52    4.18
   3   5  -5   -2.79    3.41
   3   5  -5    3.98    3.59
   3   5  -5    3.92    2.35
   3   5  -4  354.62   15.60
   3   5  -4  372.50   12.97
  -3  -5   4  375.28   17.95
   3   5  -4  376.05   17.51
  -3  -5   4  345.55   17.36
   3   5  -3  414.58   12.76
  -3  -5   3  426.36   18.70
   3   5  -3  402.04   16.05
   3   5  -3  370.52   10.18
   3   5  -3  377.30   12.45
  -3  -5   3  397.50   17.82
  -3  -5   2   24.26    5.12
   3   5  -2   20.93    2.73
   3   5  -2   19.67    2.50
  -3  -5   2   27.06    5.43
   3   5  -2   22.33    2.86
   3   5  -2   18.08    2.86
   3   5  -2   26.32    3.13
   3   5  -2   19.71    4.02
   3   5  -1  754.20   17.45
  -3  -5   1  698.33   24.89
   3   5  -1  684.99   21.24
   3   5  -1  748.41   17.75
  -3  -5   1  758.57   24.87
  -3  -5   0  644.63   23.62
   3   5   0  595.92   18.86
   3   5   0  640.61   16.96
  -3  -5   0  606.43   11.85
   3   5   0  641.49   16.00
  -3  -5   0  624.86   21.99
   3   5   1    1.09    1.59
   3   5   1    0.12    2.42
  -3  -5  -1   -0.83    3.69
  -3  -5  -1    2.75    0.88
   3   5   1    2.40    1.35
  -3  -5  -1    3.23    1.03
  -3  -5  -1   -2.62    3.21
   3   5   2   18.73    3.06
  -3  -5  -2   27.11    5.44
  -3  -5  -2   17.75    2.24
   3   5   2   20.13    3.52
   3   5   2   18.48    2.21
  -3  -5  -2   18.79    2.37
  -3  -5  -2   19.24    5.00
   3   5   3  761.47   20.38
  -3  -5  -3  836.84   26.64
  -3  -5  -3  799.07   15.88
   3   5   3  760.86   14.93
  -3  -5  -3  827.31   26.82
   3   5   3  779.08   20.27
   3   5   4  117.30    7.52
  -3  -5  -4  123.22   10.09
   3   5   4  121.52    6.91
   3   5   4  104.20    8.86
   3   5   4  127.70    9.97
   3   5   5   60.38    5.84
   3   5   5   67.59    4.89
   3   5   5   71.68    7.60
   3   5   5   78.29    8.12
  -3  -5  -5   69.96    8.07
   3   5   6  162.59   11.11
  -3  -5  -6  146.89   11.55
   3   5   6  148.36    9.28
   3   5   6  165.84   12.00
   3   5   6  144.96    6.67
   3   5   7   47.80    5.91
   3   5   7   46.27    6.47
   3   5   7   33.46    5.13
   3   5   7   45.39    6.98
   3   5   7   39.35    3.10
  -3  -5  -7   30.75    5.85
   3   5   7   38.59    5.42
   3   5   8    1.63    3.84
   3   5   8    0.04    3.49
   3   5   8   -4.22    3.60
   3   5   8   -2.69    3.85
  -3  -5  -8    0.26    4.38
   3   5   8   -1.69    2.84
   3   5   9    5.38    4.25
   3   5   9   -1.39    4.19
   3   5   9   18.00    4.75
   3   5   9   13.59    5.96
  -3  -5  -9   10.39    4.69
   3   5   9    9.40    3.76
   3   5  10   78.08    8.73
   3   5  10   68.81    9.29
   3   5  10   80.68    8.64
   3   5  10   79.51    9.75
  -3  -5 -10   63.67   10.05
   3   5  10   70.37    7.68
   3   5  11    1.57    4.53
   3   5  11   -1.62    4.46
   3   5  11    4.66    4.06
   3   5  11  -13.68    6.44
  -3  -5 -11   -2.69    5.10
   3   5  11   -0.59    3.55
  -3  -6   7   23.81    7.15
   3   6  -7   17.50    5.95
   3   6  -7   30.25    6.49
  -3  -6   6   88.16   10.40
  -3  -6   6  110.51   11.85
   3   6  -6  114.34   10.32
   3   6  -6   99.68   10.50
   3   6  -5   15.74    4.99
  -3  -6   5    4.39    4.45
   3   6  -5    9.87    4.85
  -3  -6   5   18.79    6.11
  -3  -6   4   89.37    9.36
   3   6  -4   95.64    7.06
  -3  -6   4  102.65   10.45
   3   6  -4   80.28    8.21
   3   6  -4   93.81    9.61
  -3  -6   3  419.48   20.57
   3   6  -3  417.53   14.47
   3   6  -3  377.38   17.13
  -3  -6   3  388.92   18.90
  -3  -6   2   37.41    6.43
   3   6  -2   37.06    4.05
  -3  -6   2   36.84    6.86
   3   6  -2   31.84    5.71
   3   6  -2   32.87    4.01
  -3  -6   1   19.11    5.17
  -3  -6   1   12.35    4.37
   3   6  -1   17.54    3.07
   3   6  -1   16.82    4.41
   3   6  -1   17.83    2.98
  -3  -6   1   17.99    2.30
   3   6   0  274.94   11.15
  -3  -6   0  284.89   16.60
   3   6   0  243.46   12.84
  -3  -6   0  290.87    8.38
  -3  -6   0  282.25   15.59
   3   6   1  148.61    8.20
  -3  -6  -1  149.97    5.97
   3   6   1  134.79    9.22
  -3  -6  -1  133.08   11.37
   3   6   1  143.97    7.40
  -3  -6  -1  138.85    5.24
  -3  -6  -1  142.55    5.85
  -3  -6  -1  148.64   11.15
   3   6   2   31.98    4.23
  -3  -6  -2   21.62    5.36
  -3  -6  -2   30.63    3.19
   3   6   2   25.71    4.60
  -3  -6  -2   30.88    2.42
  -3  -6  -2   37.77    3.79
  -3  -6  -2   27.94    6.12
   3   6   2   29.45    3.26
   3   6   3  240.39   11.73
  -3  -6  -3  287.82   15.47
   3   6   3  232.90   11.24
  -3  -6  -3  284.25    8.63
   3   6   3  246.01   13.56
  -3  -6  -3  289.48   15.84
   3   6   3  250.31    8.04
   3   6   4   89.21    7.22
   3   6   4   99.64    7.22
  -3  -6  -4  110.66   10.07
   3   6   4  105.01    9.36
  -3  -6  -4  107.79   10.19
  -3  -6  -5   24.41    5.84
   3   6   5   23.04    4.35
   3   6   5   26.33    5.24
   3   6   5   17.03    3.33
   3   6   5   36.79    5.93
   3   6   6   24.22    5.00
   3   6   6   22.83    3.47
   3   6   6   24.84    5.49
   3   6   6   20.96    5.26
  -3  -6  -6   29.94    6.04
   3   6   7  115.87    9.32
   3   6   7  103.48    9.57
  -3  -6  -7  120.11   11.60
   3   6   7  111.17    6.34
   3   6   7  135.45   11.65
   3   6   7  105.44    9.14
   3   6   7  103.68    8.57
   3   6   8   21.26    5.35
   3   6   8   40.26    6.60
   3   6   8   27.73    5.79
   3   6   8   41.54    7.68
  -3  -6  -8   31.18    6.63
   3   6   8   27.94    5.17
   3   6   9    3.28    4.31
   3   6   9    7.03    4.07
   3   6   9    2.32    3.41
   3   6   9   14.40    6.34
  -3  -6  -9   -2.49    4.81
   3   6   9    5.36    3.48
   3   6  10    9.03    4.54
   3   6  10    7.67    4.57
   3   6  10   14.54    5.25
   3   6  10    4.63    4.83
  -3  -6 -10   12.85    5.81
   3   6  10    6.45    3.95
   3   6  11   -0.46    4.88
   3   6  11   14.59    5.80
   3   6  11    6.12    6.50
  -3  -7   6   82.88   10.62
   3   7  -6   96.67   10.28
  -3  -7   5   50.60    8.19
  -3  -7   5   47.31    8.91
   3   7  -5   53.93    8.07
  -3  -7   4    2.87    4.00
  -3  -7   4   -2.16    5.15
   3   7  -4    2.08    4.20
  -3  -7   3  129.46   12.78
   3   7  -3  137.58   11.32
  -3  -7   3  139.62   12.09
   3   7  -2  284.07   12.22
  -3  -7   2  253.36   17.04
   3   7  -2  279.82   15.58
  -3  -7   2  292.92   10.57
  -3  -7   2  272.46   16.59
  -3  -7   1   12.90    5.54
   3   7  -1    6.91    3.07
  -3  -7   1    0.69    3.86
   3   7  -1   -0.67    3.83
  -3  -7   1   11.22    2.52
   3   7   0  155.57    9.18
  -3  -7   0  136.71   12.35
   3   7   0  129.92   10.17
  -3  -7   0  148.19    7.03
  -3  -7   0  159.50    7.10
  -3  -7   0  150.87   12.12
   3   7   1  338.12   14.17
   3   7   1  327.35   16.01
  -3  -7  -1  373.54   19.71
  -3  -7  -1  353.36   10.54
  -3  -7  -1  356.54   11.51
  -3  -7  -1  340.30   17.99
   3   7   2   82.18    6.95
  -3  -7  -2   78.16    5.60
  -3  -7  -2   61.58    8.57
   3   7   2   84.79    8.07
  -3  -7  -2   74.62    4.45
  -3  -7  -2   84.32    5.88
   3   7   2   79.21    8.20
   3   7   2   74.81    5.59
  -3  -7  -2   96.22    9.78
   3   7   3    3.73    3.33
  -3  -7  -3    6.62    3.38
  -3  -7  -3   10.39    4.91
  -3  -7  -3    6.89    2.36
   3   7   3    9.72    4.10
   3   7   3   12.81    4.42
  -3  -7  -3    8.25    2.04
  -3  -7  -3    7.59    2.59
  -3  -7  -3    0.95    3.74
   3   7   4  125.89    9.15
  -3  -7  -4  139.81   11.50
  -3  -7  -4  146.82    7.58
   3   7   4  133.18    9.56
   3   7   4  123.33   10.36
  -3  -7  -4  153.90   12.37
  -3  -7  -5   28.26    6.43
   3   7   5   24.65    5.04
   3   7   5   19.40    4.86
   3   7   5   17.46    3.95
   3   7   5   18.47    4.71
  -3  -7  -5   25.70    6.61
  -3  -7  -6   41.21    7.06
   3   7   6   46.22    6.99
   3   7   6   36.49    4.80
   3   7   6   23.57    5.35
   3   7   6   38.53    6.71
   3   7   7   23.92    5.47
   3   7   7   22.53    5.25
   3   7   7   24.74    3.89
   3   7   7   28.58    6.32
  -3  -7  -7   24.26    6.29
   3   7   8    7.56    4.09
   3   7   8    2.92    4.25
   3   7   8   -0.96    4.50
   3   7   8    3.02    4.62
   3   7   8    9.70    4.45
  -3  -7  -8   11.09    5.26
   3   7   9    3.68    4.69
   3   7   9    2.37    3.72
   3   7   9   -5.46    4.79
   3   7   9    2.09    5.35
   3   7   9    2.87    3.62
  -3  -7  -9    2.15    4.36
   3   7  10   -1.11    4.43
   3   7  10    3.38    4.59
   3   7  10    8.64    5.61
   3   7  10    4.61    5.43
  -3  -7 -10   -6.59    6.62
   3   7  11   16.46    5.81
  -3  -8   5   52.31    8.75
  -3  -8   4   24.08    6.48
   3   8  -4   22.58    6.48
  -3  -8   3   -1.22    4.49
  -3  -8   3    2.42    4.79
   3   8  -3    0.41    4.65
  -3  -8   2   98.43   10.73
  -3  -8   2   97.09   11.50
   3   8  -2   76.05    9.16
  -3  -8   1   68.39    9.21
   3   8  -1   77.59    7.12
  -3  -8   1   71.44   10.11
   3   8  -1   79.90    9.27
  -3  -8   0   -0.37    4.21
   3   8   0    2.48    3.22
  -3  -8   0   -7.52    5.34
   3   8   0    1.07    3.60
   3   8   1  115.15    9.04
  -3  -8  -1  113.21   11.58
   3   8   1  110.38   10.48
   3   8   1  110.63    9.88
  -3  -8  -1  113.63    6.96
  -3  -8  -1  105.96   10.62
   3   8   2  169.19   11.05
  -3  -8  -2  175.67   14.11
   3   8   2  152.14   11.56
   3   8   2  165.81   12.09
  -3  -8  -2  177.10    9.26
  -3  -8  -2  184.98   13.76
  -3  -8  -3    1.70    4.59
   3   8   3   11.78    4.25
   3   8   3    7.01    4.28
  -3  -8  -3    9.64    3.27
   3   8   3    9.87    3.96
  -3  -8  -3    7.78    5.05
   3   8   4   55.71    7.23
  -3  -8  -4   64.26    8.61
  -3  -8  -4   70.85    9.64
   3   8   4   50.15    7.21
   3   8   4   55.19    7.11
   3   8   4   46.67    7.27
  -3  -8  -4   59.84    6.34
  -3  -8  -4   66.40    9.37
  -3  -8  -5   11.40    5.05
   3   8   5    2.73    3.44
   3   8   5   14.05    4.76
   3   8   5    5.76    4.03
   3   8   5   12.19    5.11
  -3  -8  -5    5.73    4.50
  -3  -8  -6    5.15    4.38
   3   8   6    6.10    4.46
   3   8   6    2.86    3.88
   3   8   6    2.95    3.06
   3   8   6   -0.55    3.94
  -3  -8  -6    2.43    4.02
  -3  -8  -7   14.56    5.45
   3   8   7   13.10    5.77
   3   8   7    4.38    3.07
   3   8   7   -2.12    4.30
   3   8   7    3.45    4.04
  -3  -8  -8    5.79    5.88
   3   8   8    0.84    4.05
   3   8   8    1.97    3.65
   3   8   8   -6.63    5.64
   3   8   8    5.05    4.78
   3   8   8    2.89    3.94
   3   8   9   16.92    5.78
   3   8   9   22.56    6.01
   3   8   9   28.78    7.07
   3   8   9   32.26    7.85
  -3  -8  -9   21.77    7.45
  -3  -9   3   13.49    5.87
  -3  -9   2   11.24    5.10
  -3  -9   2   28.98    7.32
   3   9  -2   26.12    6.54
  -3  -9   1   33.19    7.30
  -3  -9   1   34.91    7.50
   3   9  -1   25.95    6.49
   3   9  -1   32.81    6.30
  -3  -9   0   44.42    8.04
   3   9   0   50.74    6.78
  -3  -9   0   40.65    8.60
   3   9   0   37.27    7.23
   3   9   0   38.41    6.42
  -3  -9  -1    1.34    4.09
   3   9   1    9.92    4.15
  -3  -9  -1   13.45    6.02
   3   9   1   15.31    5.77
   3   9   1    6.36    4.19
   3   9   2   10.36    4.57
  -3  -9  -2   21.47    6.53
   3   9   2   25.34    6.45
   3   9   2   17.11    5.00
  -3  -9  -2   18.20    5.97
   3   9   3   22.33    5.54
  -3  -9  -3   21.33    6.66
   3   9   3   10.49    4.39
   3   9   3    7.42    4.02
  -3  -9  -3   19.84    6.29
   3   9   4    7.33    4.42
  -3  -9  -4   -0.35    4.89
   3   9   4    4.69    3.63
   3   9   4   13.25    5.36
   3   9   4   17.17    5.83
  -3  -9  -4   14.03    5.68
   3   9   5    6.09    4.59
  -3  -9  -5    2.25    4.07
  -3  -9  -5   -3.53    5.91
   3   9   5    5.13    4.24
   3   9   5    1.55    3.68
   3   9   5    4.34    3.82
  -3  -9  -5  -10.59    5.99
  -3  -9  -6   30.22    7.30
   3   9   6   26.26    6.25
   3   9   6   22.42    5.13
   3   9   6   20.21    6.31
  -3  -9  -6   28.58    7.40
   3   9   7    8.39    5.93
   3   9   7    4.85    4.66
  -3  -9  -7    8.63    5.24
  -3  -9  -7   13.83    6.19
  -3  -9  -8    2.12    5.30
  -3 -10   1   51.20    8.79
  -3 -10   0    0.48    4.74
   3  10   1   -2.20    4.27
   3  10   1    4.46    4.60
  -3 -10  -2    4.49    5.61
   3  10   2   -1.36    4.15
   3  10   2   -1.79    4.99
   3  10   2   -4.38    4.05
  -3 -10  -2   -3.00    4.51
  -3 -10  -3   46.17    9.05
   3  10   3   35.10    6.58
   3  10   3   41.18    7.64
   3  10   3   40.72    7.35
  -3 -10  -3   45.47    8.03
   3  10   4    0.24    4.09
  -3 -10  -4   -3.63    5.18
   3  10   4   -5.48    4.88
   3  10   4   -1.80    4.30
  -3 -10  -4   -1.17    4.77
   3  10   5    6.43    4.46
   3  10   5    1.90    3.98
   3  10   5    0.92    4.52
  -3 -10  -5    5.40    4.69
   3  10   6   -1.79    5.10
  -3 -10  -6    6.03    5.28
   3  10   6    0.69    3.78
  -3 -10  -6   -1.35    5.26
  -3 -11  -2  -15.28    5.90
  -4   8   4   18.56    5.88
  -4   8   4   13.55    5.52
  -4   8   3   -1.09    4.26
   4  -8  -3   10.43    4.73
  -4   8   3    7.16    5.13
  -4   8   2   12.41    5.79
   4  -8  -2   -2.11    5.05
   4  -8  -1   -8.51    4.77
   4  -8   0   59.15    8.94
  -4   8  -1   -5.28    4.71
   4  -8   1   15.66    6.52
  -4   8  -2   10.00    5.34
  -4   7   6    6.46    4.85
  -4   7   5    3.62    5.40
  -4   7   5   -0.93    4.22
   4  -7  -5   -4.75    4.55
  -4   7   5    3.95    4.48
  -4   7   4    8.84    4.56
  -4   7   4    4.19    5.82
   4  -7  -4   -3.66    4.54
  -4   7   4    4.64    4.30
  -4   7   4   -0.46    4.33
   4  -7  -3   25.29    5.76
  -4   7   3   21.08    5.72
  -4   7   3   20.78    6.85
  -4   7   3   16.78    5.08
  -4   7   3   20.61    5.75
   4  -7  -3   14.82    6.88
   4  -7  -3   18.41    7.40
  -4   7   2   15.75    5.29
   4  -7  -2   17.50    6.30
   4  -7  -2   31.10    8.17
   4  -7  -2   11.81    4.79
  -4   7   1    6.41    4.77
   4  -7  -1    6.56    4.58
   4  -7  -1    1.90    4.70
   4  -7  -1    3.10    5.34
  -4   7   0   24.52    6.17
   4  -7   0   30.63    6.48
  -4   7   0   31.70    6.70
   4  -7   0   31.22    7.74
   4  -7   0   18.72    6.87
  -4   7  -1   54.27    8.14
   4  -7   1   51.85    8.32
  -4   7  -1   60.79    8.33
   4  -7   1   49.56    8.84
   4  -7   1   58.22    9.34
   4  -7   2    1.11    4.98
  -4   7  -2   -4.46    5.10
  -4   7  -2    5.36    4.62
   4  -7   2   -2.43    4.91
   4  -7   2    2.76    5.84
  -4   7  -3   25.77    7.16
  -4   7  -3   35.61    7.67
   4  -7   3   26.67    6.77
   4  -7   3   28.58    7.62
   4  -7   3   44.27    8.44
  -4   7  -4  103.24   11.70
  -4   6   7   -1.20    4.68
  -4   6   7  -10.98    5.38
   4  -6  -7    0.53    4.30
  -4   6   6   -3.27    5.15
   4  -6  -6    7.54    4.43
  -4   6   6    7.89    5.11
  -4   6   6   13.87    5.27
   4  -6  -6    0.37    4.58
  -4   6   5   26.39    7.29
   4  -6  -5   22.06    5.81
  -4   6   5   20.41    5.77
  -4   6   5   31.69    6.11
   4  -6  -5   18.16    4.98
  -4   6   4   -4.60    4.84
   4  -6  -4    3.41    4.21
  -4   6   4    1.73    3.14
  -4   6   4   -9.59    4.76
  -4   6   4   -2.33    4.00
   4  -6  -4   -1.60    3.12
   4  -6  -4    1.04    4.56
  -4   6   3   51.06    8.67
  -4   6   3   50.44    6.88
  -4   6   3   38.64    6.18
   4  -6  -3   47.18    8.79
   4  -6  -3   48.94    7.28
  -4   6   3   44.89    6.51
  -4   6   2   87.29    8.74
   4  -6  -2   93.63    9.74
  -4   6   2   90.17    8.14
   4  -6  -2   78.26   10.92
   4  -6  -2   81.77   10.40
  -4   6   1   -1.24    3.89
  -4   6   1    2.12    2.62
   4  -6  -1   -0.10    4.04
   4  -6  -1    1.01    4.85
   4  -6  -1   -5.76    4.54
  -4   6   0    1.68    4.24
  -4   6   0    6.92    3.72
   4  -6   0    1.60    4.18
   4  -6   0    1.70    4.04
   4  -6   0    1.01    4.85
  -4   6  -1  180.34   13.00
  -4   6  -1  197.84   13.22
   4  -6   1  175.59   14.35
   4  -6   1  191.92   15.00
   4  -6   1  208.28   14.46
  -4   6  -2   28.61    6.05
   4  -6   2   28.70    6.24
  -4   6  -2   22.31    5.44
   4  -6   2   19.97    6.11
   4  -6   2   18.66    6.13
   4  -6   3    0.51    4.20
  -4   6  -3   -1.48    3.84
  -4   6  -3    0.52    4.21
   4  -6   3    0.45    5.31
   4  -6   3   -7.48    5.99
  -4   6  -4  181.88   13.75
  -4   6  -4  163.29   13.22
   4  -6   4  143.41   13.91
   4  -6   4  168.94   13.73
   4  -6   4  160.62   14.43
  -4   6  -5   47.61    8.26
  -4   6  -5   51.17    8.99
  -4   6  -5   46.04    7.86
   4  -6   5   42.23    7.72
   4  -6   5   38.69    8.27
   4  -6   5   44.79    8.33
  -4   6  -6   -0.32    4.57
  -4   6  -6    1.69    4.55
  -4   6  -7   22.50    6.52
  -4   5   8   -2.74    4.71
  -4   5   7    3.73    4.10
  -4   5   7   -0.51    4.56
   4  -5  -7    1.22    4.04
  -4   5   7    0.59    3.99
  -4   5   6   -3.62    4.72
  -4   5   6    2.10    4.53
   4  -5  -6    6.78    3.73
  -4   5   6    8.49    4.20
  -4   5   5   14.77    3.62
  -4   5   5    6.64    4.58
  -4   5   5   10.84    4.78
   4  -5  -5   13.81    4.13
  -4   5   5    8.58    3.99
  -4   5   4   30.32    4.99
  -4   5   4   33.92    6.90
  -4   5   4   31.60    5.85
   4  -5  -4   33.69    5.02
  -4   5   4   35.05    5.52
  -4   5   3    6.41    3.68
  -4   5   3    7.92    4.48
   4  -5  -3   14.97    4.88
  -4   5   3   10.13    3.99
   4  -5  -3    5.87    2.69
  -4   5   3    5.87    3.50
   4  -5  -3   13.83    5.10
  -4   5   2  117.27    9.27
   4  -5  -2  143.75    7.87
  -4   5   2  142.11    9.84
  -4   5   2  135.17    9.38
   4  -5  -2  158.98   13.55
   4  -5  -2  162.64   11.81
   4  -5  -1  370.13   18.12
  -4   5   1  350.03   16.20
   4  -5  -1  368.69   11.58
  -4   5   1  362.15   14.91
   4  -5  -1  349.80   20.14
  -4   5   1  395.01   16.04
   4  -5  -1  399.65   20.84
  -4   5   0   -1.46    3.61
   4  -5   0   -8.36    4.32
   4  -5   0    0.34    1.50
  -4   5   0   -0.14    2.75
  -4   5   0   -1.71    2.19
   4  -5   0   -0.99    4.08
   4  -5   0    3.48    4.67
  -4   5  -1  191.46   12.32
   4  -5   1  193.14    8.12
  -4   5  -1  198.40    8.80
   4  -5   1  203.84   15.06
  -4   5  -1  209.29   12.38
   4  -5   1  212.44   15.05
   4  -5   1  214.48   14.00
  -4   5  -2  199.37   12.74
   4  -5   2  197.57    8.85
  -4   5  -2  205.72   12.59
   4  -5   2  186.92   14.69
   4  -5   2  222.77   15.66
   4  -5   2  229.97   14.70
  -4   5  -3    6.53    4.17
   4  -5   3   10.14    2.76
  -4   5  -3   13.65    4.14
   4  -5   3   19.08    6.21
   4  -5   3   18.23    6.18
   4  -5   3   10.60    5.14
  -4   5  -4   78.21    8.49
   4  -5   4   75.42    5.64
  -4   5  -4   69.56    9.39
  -4   5  -4   62.29    7.78
   4  -5   4   65.65    9.08
   4  -5   4   62.21    9.33
   4  -5   4   81.03    9.78
  -4   5  -5  194.22   13.46
   4  -5   5  178.57    9.85
  -4   5  -5  169.96   14.16
  -4   5  -5  183.48   13.58
   4  -5   5  194.98   14.61
   4  -5   5  191.12   15.09
   4  -5   5  158.38   13.70
  -4   5  -6  145.14   11.98
  -4   5  -6  139.25   13.21
  -4   5  -6  148.71   12.74
   4  -5   6  149.21   13.28
   4  -5   6  138.88   13.02
   4  -5   6  117.09   12.42
   4  -5   6  147.56    9.94
  -4   5  -7   42.33    7.31
  -4   5  -7   59.10    9.37
  -4   5  -7   55.15    8.72
   4  -5   7   54.00    9.50
   4  -5   7   49.82    8.72
   4  -5   7   49.87    9.08
  -4   5  -8   16.30    5.65
   4  -4  -8    5.27    4.60
  -4   4   8    6.76    4.27
  -4   4   7   21.38    5.24
  -4   4   7    5.78    4.47
   4  -4  -7    6.23    3.95
  -4   4   7   15.52    5.26
  -4   4   6   11.67    5.08
   4  -4  -6   13.21    4.43
  -4   4   6    5.20    3.54
  -4   4   6    5.18    3.35
  -4   4   5   17.80    4.74
   4  -4  -5   31.18    5.43
  -4   4   5   23.87    5.67
  -4   4   5   17.56    4.11
  -4   4   5   19.40    3.45
   4  -4  -4   95.12    7.66
  -4   4   4   97.81    9.24
  -4   4   4   83.51    8.24
  -4   4   4   95.09    7.71
  -4   4   4  104.50    7.25
  -4   4   3   20.19    3.95
  -4   4   3   17.65    5.15
   4  -4  -3   23.31    3.89
  -4   4   3   13.92    3.97
  -4   4   3   19.69    3.86
   4  -4  -2    7.40    1.64
  -4   4   2    8.62    3.09
   4  -4  -2    5.66    2.31
  -4   4   2    8.72    2.83
   4  -4  -2    5.63    4.71
  -4   4   2   13.88    3.68
  -4   4   1  165.77   10.06
   4  -4  -1  159.20    7.26
   4  -4  -1  153.49    5.45
   4  -4  -1  161.39   11.24
  -4   4   1  170.30    9.51
   4  -4  -1  143.08   12.39
  -4   4   1  178.67    9.48
   4  -4  -1  160.04   12.98
   4  -4  -1  154.06    7.67
  -4   4   0  211.22   11.45
   4  -4   0  226.78   13.39
   4  -4   0  196.94    6.24
  -4   4   0  195.26    9.40
   4  -4   0  213.73   14.92
   4  -4   0  207.38    6.93
  -4   4   0  206.38   10.66
   4  -4   0  199.85    9.13
   4  -4   0  201.26   13.93
   4  -4   0  204.61    7.59
  -4   4   0  198.59    8.70
  -4   4  -1   24.27    4.81
   4  -4   1   17.29    1.58
   4  -4   1   20.02    2.32
   4  -4   1   15.25    4.00
  -4   4  -1   18.64    4.02
  -4   4  -1   22.59    3.20
   4  -4   1   26.28    3.04
   4  -4   1   20.11    6.00
   4  -4   1   25.93    6.45
   4  -4   1   22.54    3.66
  -4   4  -2  330.02   15.23
   4  -4   2  343.23    9.60
   4  -4   2  323.94   10.32
  -4   4  -2  350.34   15.12
   4  -4   2  311.77   18.17
   4  -4   2  350.80    9.77
   4  -4   2  359.06   18.62
   4  -4   2  354.06   13.57
   4  -4   2  369.32   17.86
  -4   4  -3  484.46   19.06
   4  -4   3  487.42   13.76
  -4   4  -3  491.26   16.44
  -4   4  -3  496.07   22.49
  -4   4  -3  524.45   19.26
   4  -4   3  477.23   22.35
   4  -4   3  480.94   21.82
   4  -4   3  513.91   22.04
   4  -4   3  497.76   17.60
   4  -4   4    0.77    3.95
  -4   4  -4   -0.83    3.25
   4  -4   4    3.77    2.49
  -4   4  -4    5.43    3.75
  -4   4  -4   -2.29    5.01
   4  -4   4   -0.24    4.20
   4  -4   4    2.99    4.42
   4  -4   4   -2.31    3.13
  -4   4  -5  165.33   11.36
   4  -4   5  143.44    8.59
  -4   4  -5  162.49   12.93
  -4   4  -5  148.72   11.14
   4  -4   5  142.15   12.27
   4  -4   5  159.73   12.87
   4  -4   5  140.92   11.82
   4  -4   5  149.14   10.74
  -4   4  -6  195.18   12.75
  -4   4  -6  229.51   15.53
  -4   4  -6  216.95   14.03
   4  -4   6  237.02   16.13
   4  -4   6  218.88   15.33
   4  -4   6  206.51   14.61
   4  -4   6  222.37   11.79
   4  -4   6  246.90   14.42
  -4   4  -7   25.27    5.56
   4  -4   7   31.38    5.44
  -4   4  -7   27.75    6.30
  -4   4  -7   18.49    5.51
   4  -4   7   18.61    6.06
   4  -4   7   31.30    6.17
   4  -4   7   28.18    7.03
   4  -4   7   18.88    5.28
   4  -4   8   29.66    5.74
  -4   4  -8   24.41    5.85
  -4   4  -8   34.82    7.02
   4  -4   8   29.51    7.66
  -4   4  -8   20.19    5.89
  -4   4  -8   18.34    5.62
   4  -4   8   23.65    6.28
   4  -4   8   35.19    7.18
   4  -4   8   32.41    7.12
  -4   4  -9   78.04    8.64
   4  -4   9   94.36    9.85
   4  -3  -8    5.57    4.70
  -4   3   8   -4.02    5.11
  -4   3   8   10.42    5.08
  -4   3   7   54.80    8.39
  -4   3   7   51.26    6.83
   4  -3  -7   61.10    8.10
  -4   3   7   56.87    6.20
  -4   3   6   28.30    4.68
   4  -3  -6   44.06    6.42
  -4   3   6   42.37    7.05
  -4   3   6   32.32    5.26
  -4   3   5    3.57    2.32
  -4   3   5    2.57    2.89
   4  -3  -5    1.95    3.28
  -4   3   5    0.07    3.62
  -4   3   5    1.70    2.70
   4  -3  -4  161.59    9.55
  -4   3   4  143.41    9.90
  -4   3   4  158.73   10.83
  -4   3   4  147.85    8.95
  -4   3   4  152.62    7.99
  -4   3   3  103.81    9.08
   4  -3  -3  107.95    5.24
   4  -3  -3  105.54    4.68
  -4   3   3  109.13    8.51
  -4   3   3  108.45    7.16
   4  -3  -3  106.89    7.31
  -4   3   3  117.99    7.26
   4  -3  -2    1.10    0.60
   4  -3  -2    0.65    0.94
   4  -3  -2    1.12    0.92
   4  -3  -2    2.89    2.14
  -4   3   2    4.79    3.06
  -4   3   2   -0.76    1.86
  -4   3   2    1.80    2.31
  -4   3   1  199.64   10.08
   4  -3  -1  207.55    6.47
  -4   3   1  196.89   10.01
  -4   3   1  219.44    9.22
  -4   3   1  187.31    8.29
   4  -3  -1  197.84   13.51
   4  -3  -1  206.92    6.89
   4  -3  -1  203.60    8.93
   4  -3  -1  204.10    8.22
  -4   3   0  789.31   22.41
   4  -3   0  826.16   25.53
   4  -3   0  833.55   15.78
  -4   3   0  798.56   20.91
   4  -3   0  778.75   28.51
   4  -3   0  809.30   20.16
  -4   3   0  827.06   20.99
   4  -3   0  820.52   28.20
   4  -3   0  788.04   18.54
   4  -3   0  809.64   18.43
   4  -3   0  811.83   17.16
  -4   3  -1  104.06    7.64
   4  -3   1  101.33    3.88
   4  -3   1  102.80    8.75
   4  -3   1  109.56    4.73
   4  -3   1  102.97   10.20
  -4   3  -1  105.08    6.93
   4  -3   1  106.30    5.67
   4  -3   1  107.68    9.83
   4  -3   1  114.72    4.72
   4  -3   1  103.48    6.16
  -4   3  -1  102.99    6.36
   4  -3   1  103.18    4.83
  -4   3  -2  241.74   11.82
   4  -3   2  227.56    8.04
  -4   3  -2  231.23   10.91
   4  -3   2  239.20    7.75
   4  -3   2  236.02   14.76
   4  -3   2  246.28   14.05
   4  -3   2  241.70   10.34
   4  -3   2  247.41   13.77
  -4   3  -3  648.68   20.93
   4  -3   3  700.29   17.20
  -4   3  -3  668.44   17.44
  -4   3  -3  708.32   25.28
  -4   3  -3  657.82   20.54
   4  -3   3  645.02   12.47
   4  -3   3  682.30   25.41
  -4   3  -3  655.79   16.83
   4  -3   3  673.40   23.99
   4  -3   3  673.97   19.85
   4  -3   3  700.75   24.99
  -4   3  -4   95.82    7.74
   4  -3   4   99.86    6.46
  -4   3  -4  107.84    6.66
  -4   3  -4   89.66    8.96
  -4   3  -4  110.37    8.33
  -4   3  -4   96.59    5.95
   4  -3   4   96.85    8.99
   4  -3   4  106.69    9.68
   4  -3   4   91.23    9.30
   4  -3   4  101.03    7.66
   4  -3   5   53.31    7.93
  -4   3  -5   53.22    6.21
   4  -3   5   45.00    4.91
  -4   3  -5   47.18    6.75
  -4   3  -5   42.08    5.98
   4  -3   5   33.43    5.83
   4  -3   5   44.19    6.84
   4  -3   5   42.95    5.75
  -4   3  -6  108.87    8.94
   4  -3   6  115.76    8.43
  -4   3  -6  137.28   11.11
  -4   3  -6  135.83   10.53
   4  -3   6  147.07   12.34
   4  -3   6  127.05   10.71
   4  -3   6  114.74   10.07
   4  -3   6  113.86    9.62
  -4   3  -7  274.55   14.17
  -4   3  -7  254.29   15.62
  -4   3  -7  290.58   15.93
   4  -3   7  292.65   17.46
   4  -3   7  264.01   15.94
   4  -3   7  249.57   15.19
   4  -3   7  264.00   13.75
   4  -3   7  278.22   15.60
  -4   3  -8    6.63    4.70
   4  -3   8   -2.25    3.18
  -4   3  -8   -0.24    3.16
   4  -3   8   -3.24    4.63
  -4   3  -8    2.27    3.86
   4  -3   8    0.46    4.58
   4  -3   8   -0.82    3.69
   4  -3   8    3.81    4.22
   4  -3   9   29.89    6.54
  -4   3  -9   27.62    5.50
   4  -3   9   42.16    7.82
  -4   3  -9   31.60    6.58
  -4   3  -9   45.83    7.82
   4  -3   9   27.55    6.58
   4  -3   9   39.01    7.73
   4  -3  10   72.83    9.26
  -4   2   8   -2.06    4.90
  -4   2   8   -0.15    3.59
  -4   2   7   10.14    2.85
   4  -2  -7    2.65    4.19
  -4   2   7   13.87    5.02
  -4   2   7    4.82    3.48
  -4   2   6  195.35   13.07
  -4   2   6  174.86    9.09
  -4   2   6  159.42   10.45
   4  -2  -6  181.62   12.06
  -4   2   5    4.09    1.76
  -4   2   5    3.36    2.30
   4  -2  -5    3.91    3.07
  -4   2   5    3.65    3.53
  -4   2   5    2.22    2.58
  -4   2   4    5.98    2.14
  -4   2   4    0.31    2.13
  -4   2   4    8.74    3.23
   4  -2  -4    7.30    2.12
   4  -2  -4    5.67    1.77
   4  -2  -4    5.46    2.21
   4  -2  -4    7.96    3.35
  -4   2   4    8.12    3.60
  -4   2   4    6.42    2.63
   4  -2  -3  727.70   19.49
  -4   2   3  712.02   21.41
   4  -2  -3  766.34   18.94
   4  -2  -3  734.04   15.71
  -4   2   3  788.02   23.39
  -4   2   3  748.86   19.51
  -4   2   3  755.10   21.29
   4  -2  -3  767.15   21.17
  -4   2   3  759.74   19.14
   4  -2  -2   95.70    3.45
  -4   2   2  113.60    7.87
  -4   2   2  111.25    6.08
   4  -2  -2  110.35    3.86
  -4   2   2  107.37    6.80
   4  -2  -2  104.57    6.56
  -4   2   2  106.51    6.60
   4  -2  -1    4.29    1.78
  -4   2   1    2.72    1.62
   4  -2  -1    4.01    1.78
  -4   2   1    5.92    1.62
  -4   2   1    1.92    2.18
  -4   2   1    2.28    1.61
  -4   2   1    2.16    2.04
   4  -2  -1    5.77    3.56
   4  -2  -1    1.15    1.18
  -4   2   0  693.59   19.28
  -4   2   0  680.90   18.66
   4  -2   0  713.84   18.18
  -4   2   0  716.95   16.85
  -4   2   0  675.83   15.01
   4  -2   0  702.73   24.46
   4  -2   0  701.98   17.48
   4  -2   0  713.78   16.12
  -4   2   0  689.96   15.87
  -4   2  -1  822.25   22.05
   4  -2   1  866.71   18.95
   4  -2   1  878.27   28.75
   4  -2   1  852.49   19.19
  -4   2  -1  854.61   20.05
   4  -2   1  828.87   24.94
   4  -2   1  837.68   26.28
   4  -2   1  863.47   18.57
   4  -2   1  833.46   19.41
  -4   2  -1  835.48   16.50
  -4   2  -2   59.54    5.61
   4  -2   2   50.82    3.99
   4  -2   2   54.42    3.49
  -4   2  -2   47.77    3.00
   4  -2   2   44.68    3.32
  -4   2  -2   45.03    3.01
   4  -2   2   44.86    5.88
   4  -2   2   46.75    6.50
   4  -2   2   53.75    6.26
   4  -2   2   42.50    4.17
  -4   2  -2   45.46    2.14
  -4   2  -2   43.11    4.39
  -4   2  -3  526.63   17.23
   4  -2   3  498.56   10.06
   4  -2   3  519.54   14.78
  -4   2  -3  513.98   12.99
  -4   2  -3  526.31   19.85
   4  -2   3  508.61   11.32
   4  -2   3  482.74   19.47
  -4   2  -3  486.87   11.85
   4  -2   3  521.55   18.79
   4  -2   3  518.19   16.11
   4  -2   3  558.11   20.69
  -4   2  -4 1083.46   27.72
   4  -2   4 1145.67   26.03
  -4   2  -4 1116.28   23.87
  -4   2  -4 1195.39   31.46
   4  -2   4 1089.72   18.39
   4  -2   4 1124.74   19.73
   4  -2   4 1142.08   31.13
  -4   2  -4 1081.12   22.02
   4  -2   4 1131.95   29.90
   4  -2   4 1147.01   33.00
   4  -2   4 1165.82   28.02
   4  -2   4 1094.17   18.51
   4  -2   5   62.67    7.94
   4  -2   5   61.60    5.73
  -4   2  -5   62.65    6.97
  -4   2  -5   62.84    4.52
   4  -2   5   77.08    7.39
   4  -2   5   64.44    7.22
   4  -2   5   59.20    6.17
   4  -2   5   60.55    3.01
  -4   2  -5   63.46    6.04
   4  -2   6  400.41   15.61
   4  -2   6  373.17   16.29
  -4   2  -6  382.02   17.21
  -4   2  -6  397.70   11.39
   4  -2   6  396.96   18.98
   4  -2   6  363.41   16.80
   4  -2   6  378.07   16.64
  -4   2  -6  370.06    8.74
   4  -2   6  380.79   16.45
  -4   2  -6  350.48   14.80
   4  -2   7  276.40   14.42
   4  -2   7  255.17   13.28
  -4   2  -7  256.99   14.44
  -4   2  -7  260.51   10.43
   4  -2   7  239.32   15.06
   4  -2   7  266.44   14.84
   4  -2   7  246.92   13.85
   4  -2   7  268.43   14.50
  -4   2  -7  262.76   12.86
  -4   2  -8   64.80    6.93
   4  -2   8   59.16    7.30
   4  -2   8   56.68    6.99
  -4   2  -8   40.15    6.37
   4  -2   8   57.80    8.10
   4  -2   8   69.30    8.12
   4  -2   8   53.57    7.30
   4  -2   8   51.86    7.31
  -4   2  -9    0.82    3.00
   4  -2   9   -0.52    3.96
   4  -2   9    2.63    3.93
  -4   2  -9    4.07    4.21
   4  -2   9    0.14    4.24
   4  -2   9    3.55    4.47
   4  -2  10   40.61    7.50
   4  -2  10   48.85    8.07
   4  -2  10   50.26    7.82
  -4   2 -10   43.76    7.85
   4  -2  10   42.28    8.30
  -4   1   9   17.52    6.14
   4  -1  -8   12.50    5.17
  -4   1   8   -0.32    4.27
  -4   1   8   11.46    4.81
   4  -1  -7   77.17    8.91
  -4   1   7   74.52    8.65
  -4   1   7   66.64    7.39
  -4   1   6   47.64    4.26
  -4   1   6   48.34    6.69
   4  -1  -6   49.29    6.76
  -4   1   6   51.95    7.01
  -4   1   6   50.77    6.25
  -4   1   5   69.88    4.89
  -4   1   5   66.18    7.49
   4  -1  -5   60.27    6.69
  -4   1   5   72.11    6.56
  -4   1   5   83.72    8.32
  -4   1   5   73.73    4.55
  -4   1   4   19.76    2.81
   4  -1  -4   24.64    3.11
  -4   1   4   21.81    4.26
   4  -1  -4   27.33    3.32
  -4   1   4   21.07    2.95
   4  -1  -4   29.27    4.44
   4  -1  -4   22.30    3.84
  -4   1   4   17.28    4.08
  -4   1   4   28.16    3.97
   4  -1  -4   23.34    2.23
   4  -1  -3  151.72    7.36
  -4   1   3  157.20    7.46
   4  -1  -3  169.18    8.81
   4  -1  -3  162.33    6.55
   4  -1  -3  159.94    9.01
  -4   1   3  161.20    7.81
  -4   1   3  157.09    9.64
  -4   1   3  165.71    9.17
   4  -1  -3  172.76    9.37
  -4   1   3  160.13    7.29
   4  -1  -2  597.32   16.24
   4  -1  -2  583.94   12.37
  -4   1   2  571.38   18.49
  -4   1   2  573.30   14.79
   4  -1  -2  609.00   12.95
  -4   1   2  592.32   17.19
  -4   1   2  580.52   15.77
   4  -1  -1  335.33   11.78
  -4   1   1  327.42   12.71
  -4   1   1  331.48    7.66
  -4   1   1  322.66    9.20
   4  -1  -1  343.61   12.39
   4  -1  -1  334.76    9.29
  -4   1   1  333.05   11.27
  -4   1   1  339.02   11.56
  -4   1   0  555.55   15.03
   4  -1   0  514.74   18.98
   4  -1   0  544.48   15.31
  -4   1   0  517.78   10.97
   4  -1   0  533.19   19.25
   4  -1   0  546.51   15.33
   4  -1   0  519.43   13.13
  -4   1   0  537.81   13.84
  -4   1   0  545.85   15.64
  -4   1  -1  355.10   11.69
   4  -1   1  340.73   14.07
   4  -1   1  353.19   10.96
   4  -1   1  334.51   15.80
  -4   1  -1  304.26    6.50
   4  -1   1  358.35   14.48
   4  -1   1  337.09   11.10
   4  -1   1  341.71   10.63
  -4   1  -1  336.79    9.45
  -4   1  -1  342.55   12.07
  -4   1  -2  939.77   22.30
   4  -1   2  927.70   25.83
   4  -1   2  941.38   24.49
  -4   1  -2  945.34   16.22
   4  -1   2  955.99   22.18
   4  -1   2  911.81   22.14
  -4   1  -2  959.20   26.99
   4  -1   2  928.49   19.81
   4  -1   2  898.87   26.59
   4  -1   2  927.62   24.43
  -4   1  -2  959.15   27.21
  -4   1  -2  952.47   18.00
   4  -1   2  943.13   21.71
  -4   1  -2  937.93   22.99
   4  -1   3   99.57    5.42
  -4   1  -3   91.75    4.25
   4  -1   3  107.42    6.46
  -4   1  -3  105.67    7.69
   4  -1   3   96.84    4.65
   4  -1   3   97.03    7.53
  -4   1  -3   88.57    3.16
   4  -1   3   91.70    6.74
  -4   1  -3   96.23    3.96
   4  -1   3   92.18    6.26
   4  -1   3   93.27    7.96
  -4   1  -3   90.83    6.39
   4  -1   4  822.68   22.27
   4  -1   4  788.47   17.63
   4  -1   4  857.75   21.79
  -4   1  -4  831.22   23.57
   4  -1   4  813.47   16.57
  -4   1  -4  822.82   18.30
   4  -1   4  805.80   23.21
  -4   1  -4  803.91   15.99
   4  -1   4  798.42   22.37
  -4   1  -4  833.61   16.08
   4  -1   4  847.55   26.22
   4  -1   4  836.98   22.13
  -4   1  -4  823.63   21.80
   4  -1   5  775.98   17.59
   4  -1   5  775.03   22.56
  -4   1  -5  809.83   19.74
  -4   1  -5  797.10   23.49
   4  -1   5  816.94   22.36
  -4   1  -5  826.07   19.31
   4  -1   5  816.67   17.25
  -4   1  -5  754.78   17.19
   4  -1   5  757.06   22.82
   4  -1   5  786.63   22.69
   4  -1   5  797.02   26.19
  -4   1  -5  809.66   17.15
   4  -1   5  836.39   23.24
  -4   1  -5  790.08   21.71
  -4   1  -6   16.79    3.09
  -4   1  -6   18.48    3.76
  -4   1  -6   16.37    2.21
   4  -1   6   17.40    3.76
   4  -1   6   19.10    4.04
  -4   1  -6   15.63    4.02
   4  -1   6   21.36    2.68
  -4   1  -6   16.20    2.67
   4  -1   6   16.90    2.03
   4  -1   6   14.56    3.99
   4  -1   6   20.95    4.13
   4  -1   6   13.15    3.68
   4  -1   6   24.23    5.24
   4  -1   7  219.75   12.39
  -4   1  -7  228.70   12.90
   4  -1   7  240.44   12.90
  -4   1  -7  234.80   11.36
   4  -1   7  229.61    7.17
   4  -1   7  199.19   12.81
   4  -1   7  244.64   10.45
   4  -1   7  230.58   12.66
   4  -1   7  225.87   12.43
   4  -1   7  244.68   13.16
  -4   1  -7  219.44   11.03
   4  -1   8  210.18   12.52
  -4   1  -8  216.36   13.06
   4  -1   8  191.49   12.38
  -4   1  -8  200.37   11.54
   4  -1   8  200.67   12.86
   4  -1   8  201.92   10.43
   4  -1   8  211.46   12.55
   4  -1   8  219.61   13.47
  -4   1  -8  207.90   10.84
  -4   1  -9   38.79    5.09
   4  -1   9   38.19    6.30
   4  -1   9   44.76    6.88
  -4   1  -9   37.32    6.42
   4  -1   9   37.00    6.79
   4  -1   9   31.52    4.98
  -4   1  -9   43.37    6.27
   4  -1   9   50.46    7.63
   4  -1  10   61.26    7.94
   4  -1  10   82.05    9.64
  -4   1 -10   50.75    7.86
   4  -1  10   55.93    6.63
   4  -1  10   61.90    8.64
   4  -1  11   24.74    5.36
   4   0  -8   63.12    8.75
  -4   0   8   64.24    8.43
  -4   0   8   52.43    7.29
  -4   0   7    7.70    4.27
   4   0  -7    2.84    2.80
   4   0  -7    7.02    4.57
  -4   0   7    5.90    3.97
  -4   0   7    6.94    3.75
  -4   0   6   49.56    6.98
  -4   0   6   38.89    3.19
   4   0  -6   45.70    6.61
   4   0  -6   40.15    5.22
  -4   0   6   25.21    5.14
  -4   0   6   42.77    5.83
  -4   0   5  231.36    7.65
   4   0  -5  230.73   11.21
  -4   0   5  243.99   13.42
  -4   0   5  237.49   11.65
   4   0  -5  248.58    9.63
  -4   0   5  243.94   13.22
   4   0  -5  233.21   12.89
   4   0  -4  242.03    8.91
  -4   0   4  264.90    7.78
   4   0  -4  252.13   10.33
   4   0  -4  243.53   11.20
  -4   0   4  264.98   13.30
  -4   0   4  269.55   11.34
  -4   0   4  282.70   13.38
  -4   0   4  260.35    9.20
   4   0  -3   99.30    5.58
  -4   0   3  100.28    4.50
   4   0  -3   99.46    5.75
   4   0  -3  104.47    7.05
  -4   0   3  107.50    7.95
  -4   0   3   92.26    5.92
   4   0  -3  113.65    6.45
  -4   0   3  104.73    7.49
  -4   0   3   90.68    5.47
   4   0  -2  401.10   12.25
  -4   0   2  391.95   10.64
   4   0  -2  406.69   11.31
   4   0  -2  408.36   13.91
  -4   0   2  426.71   15.34
  -4   0   2  392.59   11.62
   4   0  -2  387.79   11.48
  -4   0   2  426.19   14.44
  -4   0   2  398.79   12.22
   4   0  -1  928.68   21.07
  -4   0   1  904.99   18.29
   4   0  -1  898.02   22.24
  -4   0   1  913.80   18.25
   4   0  -1  891.05   18.07
   4   0  -1  959.37   23.58
  -4   0   1  903.97   21.88
  -4   0   1  896.96   20.70
   4   0   0   45.76    4.11
  -4   0   0   45.83    3.32
   4   0   0   39.85    4.58
   4   0   0   48.87    4.38
   4   0   0   50.63    4.64
  -4   0   0   45.27    2.43
   4   0   0   53.38    4.63
   4   0   0   44.43    4.92
  -4   0   0   47.46    4.14
  -4   0   0   44.81    4.02
   4   0   1  593.17   15.90
  -4   0  -1  568.58   13.97
   4   0   1  567.10   16.38
  -4   0  -1  577.29   15.81
   4   0   1  581.80   16.05
   4   0   1  597.70   15.59
   4   0   1  569.90   19.26
   4   0   1  584.24   16.59
   4   0   1  583.98   16.42
  -4   0  -1  585.79   14.58
   4   0   1  584.59   14.93
  -4   0  -1  566.57   15.52
  -4   0  -2 2204.21   39.46
   4   0   2 2174.64   40.12
   4   0   2 2129.30   40.44
  -4   0  -2 2193.66   44.55
   4   0   2 2217.79   43.97
  -4   0  -2 2230.02   40.69
   4   0   2 2223.37   39.45
   4   0   2 2186.58   43.65
   4   0   2 2141.72   40.62
   4   0   2 2135.12   42.16
  -4   0  -2 2279.58   45.20
  -4   0  -2 2245.68   38.56
   4   0   2 2227.60   40.42
  -4   0  -2 2197.51   41.03
   4   0   3   50.04    5.58
  -4   0  -3   51.77    4.28
   4   0   3   47.98    4.28
   4   0   3   43.36    4.30
  -4   0  -3   46.20    4.01
   4   0   3   48.76    4.79
  -4   0  -3   49.57    4.93
  -4   0  -3   51.89    5.58
   4   0   3   45.40    4.32
  -4   0  -3   49.45    3.65
   4   0   3   48.17    4.56
  -4   0  -3   50.68    4.83
   4   0   3   47.68    4.70
   4   0   3   49.08    4.59
  -4   0  -3   54.65    5.01
   4   0   4   56.44    4.75
  -4   0  -4   62.18    4.52
  -4   0  -4   71.87    5.26
  -4   0  -4   54.87    5.18
   4   0   4   61.14    5.23
   4   0   4   58.40    5.54
  -4   0  -4   70.68    6.34
   4   0   4   54.13    4.97
   4   0   4   60.37    5.10
  -4   0  -4   63.34    5.56
  -4   0  -4   63.33    4.34
   4   0   4   71.45    5.73
   4   0   4   62.95    6.58
  -4   0  -4   57.46    5.04
   4   0   5  684.39   18.20
  -4   0  -5  702.86   20.32
  -4   0  -5  721.00   17.83
   4   0   5  701.80   20.88
  -4   0  -5  714.16   19.86
  -4   0  -5  668.21   16.96
   4   0   5  677.72   19.68
   4   0   5  739.30   19.27
   4   0   5  694.32   15.25
  -4   0  -5  666.00   15.11
   4   0   5  693.69   19.64
   4   0   5  695.33   19.51
   4   0   5  679.02   22.63
  -4   0  -5  708.15   18.34
   4   0   5  701.34   20.54
  -4   0  -5  672.30   18.85
   4   0   6  284.11   11.08
   4   0   6  297.14   12.86
  -4   0  -6  295.37   13.01
   4   0   6  289.15   13.37
  -4   0  -6  279.69   12.62
   4   0   6  307.63   10.90
   4   0   6  302.14    9.94
  -4   0  -6  269.89    9.60
  -4   0  -6  286.88    9.87
   4   0   6  274.20   13.88
   4   0   6  290.24   12.55
   4   0   6  273.35   12.18
   4   0   6  304.57   13.44
  -4   0  -6  305.79   11.96
   4   0   7   51.47    5.94
   4   0   7   50.36    6.03
  -4   0  -7   55.24    6.05
  -4   0  -7   49.41    3.83
   4   0   7   55.19    4.50
   4   0   7   48.25    4.42
   4   0   7   43.48    5.80
   4   0   7   49.67    5.85
   4   0   7   44.89    5.91
   4   0   7   48.54    5.77
  -4   0  -7   47.99    4.41
  -4   0  -7   56.72    6.30
  -4   0  -7   59.50    5.51
   4   0   8  307.72   14.61
  -4   0  -8  320.21   15.17
   4   0   8  313.40   15.85
  -4   0  -8  313.95   15.56
   4   0   8  309.80   14.74
   4   0   8  327.59   11.46
   4   0   8  288.55   12.07
   4   0   8  325.60   15.78
  -4   0  -8  302.54   12.54
  -4   0  -9   89.09    8.67
   4   0   9   95.39    8.69
   4   0   9   90.40    9.17
   4   0   9   77.30    7.79
   4   0   9   92.38    7.38
  -4   0  -9   85.15    8.85
   4   0   9   83.32    8.89
  -4   0  -9   85.79    6.89
   4   0  10    2.56    3.75
   4   0  10    1.24    3.84
  -4   0 -10    3.84    3.44
   4   0  10    3.05    3.23
  -4   0 -10    1.01    4.22
   4   0  10    4.11    4.35
   4   0  11    9.18    4.75
  -4   0 -11    1.90    4.23
   4   0  11    9.43    4.15
   4   0  11    6.09    4.74
   4   0  11    9.58    5.10
   4   0  12   14.52    4.75
  -4  -1   8   38.03    7.57
   4   1  -8   37.25    7.21
  -4  -1   8   25.24    6.28
   4   1  -7  124.06    8.85
  -4  -1   7  119.97   10.66
  -4  -1   7  131.04   10.46
  -4  -1   7  119.99   10.97
   4   1  -7  127.34   11.40
  -4  -1   6    2.44    4.04
   4   1  -6    4.08    4.07
   4   1  -6    3.66    2.93
  -4  -1   6    5.05    3.48
  -4  -1   6    8.31    3.71
   4   1  -5  117.80    7.99
  -4  -1   5  127.95    9.84
  -4  -1   5  110.36    8.20
  -4  -1   5  117.60    3.89
  -4  -1   5  130.13    9.88
   4   1  -4  115.30    7.79
  -4  -1   4  123.39    7.77
  -4  -1   4  121.78    9.17
   4   1  -4  120.11    6.05
   4   1  -3  164.18    8.37
   4   1  -3  169.81    8.93
  -4  -1   3  167.43    8.41
  -4  -1   3  158.42    9.63
  -4  -1   3  162.28    7.49
   4   1  -3  167.09    7.30
  -4  -1   2   80.24    2.33
  -4  -1   2   95.29    5.02
   4   1  -2   85.20    5.70
   4   1  -2   90.70    6.26
  -4  -1   2   87.72    3.22
  -4  -1   2   92.02    5.49
   4   1  -2   91.84    5.25
  -4  -1   2   91.49    6.84
  -4  -1   2   81.09    5.24
   4   1  -2   86.70    5.24
  -4  -1   1  796.69   13.92
  -4  -1   1  811.80   16.68
   4   1  -1  801.01   20.35
   4   1  -1  775.18   19.54
  -4  -1   1  790.26   17.09
  -4  -1   1  813.82   17.62
   4   1  -1  794.60   16.83
  -4  -1   1  825.48   21.42
  -4  -1   1  811.97   19.17
   4   1  -1  798.86   18.97
  -4  -1   0 3243.04   50.15
   4   1   0 3152.58   54.67
   4   1   0 3116.19   55.08
   4   1   0 3248.40   56.67
   4   1   0 3093.16   48.92
   4   1   0 3161.15   54.70
  -4  -1   0 3193.35   48.98
   4   1   0 3302.98   57.78
  -4  -1   0 3236.94   55.95
  -4  -1   0 3199.78   54.45
   4   1   0 3214.47   54.31
   4   1   1  719.68   15.96
   4   1   1  712.35   16.41
  -4  -1  -1  752.11   16.50
  -4  -1  -1  720.03   18.24
   4   1   1  717.16   18.27
   4   1   1  755.86   21.27
   4   1   1  773.18   19.26
   4   1   1  725.89   20.01
   4   1   1  725.36   16.59
  -4  -1  -1  723.07   15.24
   4   1   1  763.27   20.61
  -4  -1  -1  750.46   18.79
  -4  -1  -1  704.25   18.05
   4   1   1  746.90   18.38
  -4  -1  -2  491.86   12.61
   4   1   2  499.10   12.63
  -4  -1  -2  511.16   15.35
   4   1   2  541.46   18.11
   4   1   2  508.28   14.25
   4   1   2  511.03   13.96
  -4  -1  -2  517.45   14.23
   4   1   2  499.82   12.67
   4   1   2  485.47   13.01
   4   1   2  521.22   17.14
  -4  -1  -2  503.15   15.40
  -4  -1  -2  515.14   14.54
  -4  -1  -2  502.90   14.60
   4   1   2  493.93   14.46
  -4  -1  -3 1690.55   31.98
   4   1   3 1654.29   32.21
   4   1   3 1655.99   35.56
  -4  -1  -3 1689.15   33.17
   4   1   3 1642.27   38.16
   4   1   3 1669.37   36.79
  -4  -1  -3 1714.69   32.21
   4   1   3 1725.40   32.55
  -4  -1  -3 1640.89   35.70
   4   1   3 1698.47   31.63
   4   1   3 1701.70   31.31
  -4  -1  -3 1716.19   33.41
  -4  -1  -3 1695.02   33.58
   4   1   3 1750.26   34.37
  -4  -1  -3 1667.93   33.35
   4   1   4   97.83    6.08
   4   1   4  103.00    7.39
  -4  -1  -4   88.67    5.78
   4   1   4  109.33    7.78
  -4  -1  -4   78.52    6.33
  -4  -1  -4   97.91    5.40
   4   1   4   84.93    5.22
  -4  -1  -4  100.53    6.74
   4   1   4   92.66    3.53
   4   1   4   92.94    5.51
   4   1   4   98.85    5.68
  -4  -1  -4   98.75    6.05
  -4  -1  -4   96.34    6.35
   4   1   4   97.19    6.71
   4   1   4   93.48    7.17
  -4  -1  -4   98.57    6.16
   4   1   5  397.94   13.79
   4   1   5  436.57   15.38
  -4  -1  -5  400.25   13.68
  -4  -1  -5  424.29   16.04
   4   1   5  422.04   15.90
  -4  -1  -5  388.34   11.33
  -4  -1  -5  417.49   14.41
   4   1   5  419.00   15.46
   4   1   5  405.44   10.31
   4   1   5  402.15   12.94
   4   1   5  404.85   13.21
   4   1   5  394.34   15.27
   4   1   5  399.06   14.69
  -4  -1  -5  387.68   13.22
   4   1   6  837.86   22.89
  -4  -1  -6  850.07   22.85
   4   1   6  858.04   25.36
  -4  -1  -6  891.74   25.98
  -4  -1  -6  845.89   18.36
   4   1   6  944.88   24.45
   4   1   6  845.40   18.97
   4   1   6  849.72   23.66
   4   1   6  900.07   22.25
   4   1   6  846.88   22.06
   4   1   6  871.28   24.32
  -4  -1  -6  864.32   21.68
  -4  -1  -7   61.80    6.23
   4   1   7   52.33    5.87
   4   1   7   58.69    6.65
   4   1   7   70.15    5.09
   4   1   7   58.10    5.54
   4   1   7   59.83    5.60
  -4  -1  -7   58.47    3.56
   4   1   7   54.06    6.27
  -4  -1  -7   59.90    6.89
  -4  -1  -7   54.76    5.19
  -4  -1  -8   70.98    7.15
   4   1   8   64.06    6.74
   4   1   8   78.40    8.34
   4   1   8   71.39    6.35
   4   1   8   78.61    6.49
   4   1   8   71.98    5.83
  -4  -1  -8   58.39    7.16
   4   1   8   73.12    7.53
  -4  -1  -8   74.20    6.00
  -4  -1  -9  176.82   11.29
   4   1   9  163.03   12.39
  -4  -1  -9  170.19   12.81
   4   1   9  163.61    9.80
   4   1   9  155.90    9.16
   4   1   9  154.53    9.26
   4   1   9  160.97   10.91
   4   1   9  144.53   11.05
  -4  -1  -9  154.63    8.70
   4   1  10   49.07    6.74
   4   1  10   56.78    8.08
  -4  -1 -10   45.32    7.01
   4   1  10   54.24    6.38
   4   1  10   57.06    5.97
  -4  -1 -10   53.47    8.23
   4   1  10   38.52    6.69
   4   1  11   20.87    5.57
   4   1  11    9.72    5.62
  -4  -1 -11   13.83    5.17
   4   1  11    7.68    3.80
  -4  -1 -11   24.01    6.55
   4   1  11   23.38    6.29
   4   1  12    8.33    4.48
  -4  -1 -12   -3.01    5.53
  -4  -2   8    6.60    4.83
   4   2  -8    4.40    4.36
  -4  -2   8   10.89    4.73
  -4  -2   7  103.07   10.36
   4   2  -7   87.36    7.74
   4   2  -7  102.98   10.60
  -4  -2   7  106.32    9.79
   4   2  -6   22.42    5.55
  -4  -2   6   18.68    5.29
   4   2  -6   19.18    4.35
  -4  -2   6   24.67    5.03
   4   2  -5   22.61    4.17
  -4  -2   5   20.23    4.41
  -4  -2   5   22.73    5.10
  -4  -2   4  537.98   16.98
   4   2  -4  510.49   17.23
  -4  -2   4  521.14   17.83
  -4  -2   4  559.86   20.11
  -4  -2   3  283.20   11.06
   4   2  -3  271.12   11.70
  -4  -2   3  267.40   11.51
  -4  -2   3  259.55   12.92
   4   2  -3  255.23    9.66
  -4  -2   2   21.25    3.99
  -4  -2   2   23.12    3.15
   4   2  -2   16.30    3.35
   4   2  -2   22.47    3.68
  -4  -2   2   21.99    2.69
  -4  -2   2   19.43    3.10
   4   2  -2   20.93    2.91
   4   2  -2   23.67    2.94
  -4  -2   1  511.10   14.12
   4   2  -1  475.40   15.05
  -4  -2   1  487.43   14.62
   4   2  -1  480.43   12.97
  -4  -2   1  502.73   16.69
  -4  -2   1  507.24   14.72
   4   2  -1  489.45   14.11
  -4  -2   0  132.82    3.80
  -4  -2   0  141.05    6.87
   4   2   0  134.42    5.06
   4   2   0  126.29    7.07
   4   2   0  148.78    5.73
   4   2   0  141.59    5.17
  -4  -2   0  148.72    8.46
  -4  -2   0  133.18    6.95
   4   2   0  133.42    6.81
   4   2   1  650.21   12.42
  -4  -2  -1  647.12   13.31
  -4  -2  -1  675.27   18.64
  -4  -2  -1  658.46   17.23
   4   2   1  648.08   17.09
   4   2   1  691.75   20.99
   4   2   1  701.31   16.02
   4   2   1  656.51   13.73
   4   2   1  655.20   13.54
   4   2   1  674.12   12.52
   4   2   1  672.55   20.33
  -4  -2  -1  687.10   19.19
  -4  -2  -1  634.85   17.09
   4   2   1  644.80   16.96
  -4  -2  -2   92.89    4.58
   4   2   2   94.39    4.72
  -4  -2  -2   90.29    5.07
   4   2   2  102.37    7.96
  -4  -2  -2   95.96    5.59
   4   2   2   85.55    5.54
   4   2   2   97.26    4.07
   4   2   2   98.20    3.83
   4   2   2   96.74    7.50
  -4  -2  -2   95.48    5.19
  -4  -2  -2  101.37    6.75
  -4  -2  -2   93.82    5.87
   4   2   2   86.20    5.51
  -4  -2  -3 2009.88   36.04
   4   2   3 2019.31   36.26
   4   2   3 1947.44   44.78
  -4  -2  -3 1998.12   36.53
   4   2   3 2008.12   36.81
  -4  -2  -3 2037.97   35.46
   4   2   3 2001.81   33.31
   4   2   3 1981.13   33.67
  -4  -2  -3 1996.22   35.50
  -4  -2  -3 2038.26   40.99
  -4  -2  -3 2015.57   38.21
   4   2   4  528.03   16.24
   4   2   4  500.48   14.45
  -4  -2  -4  499.19   13.60
   4   2   4  488.48   18.96
   4   2   4  529.52   18.68
  -4  -2  -4  471.21   13.00
  -4  -2  -4  527.43   18.32
   4   2   4  492.25   13.37
  -4  -2  -4  494.10   14.23
   4   2   4  506.23   11.48
   4   2   4  488.95   12.21
  -4  -2  -4  497.48   14.23
  -4  -2  -4  489.42   13.59
  -4  -2  -4  526.49   17.69
   4   2   4  511.78   16.24
  -4  -2  -4  510.40   15.05
  -4  -2  -5    7.33    3.56
   4   2   5    7.03    2.64
  -4  -2  -5    4.41    2.14
   4   2   5    2.22    2.86
  -4  -2  -5    3.06    1.40
  -4  -2  -5    4.80    2.17
   4   2   5    5.33    1.69
   4   2   5    6.32    2.49
   4   2   5    6.75    1.62
   4   2   5   -0.98    3.12
  -4  -2  -5    4.61    1.81
  -4  -2  -5    5.04    1.80
   4   2   5    7.55    3.26
   4   2   6  586.83   20.88
  -4  -2  -6  630.66   22.35
   4   2   6  647.32   21.48
  -4  -2  -6  575.33   17.15
   4   2   6  589.07   15.12
   4   2   6  614.77   16.90
  -4  -2  -6  553.28   13.28
   4   2   6  566.49   17.74
   4   2   6  591.00   19.15
  -4  -2  -6  576.06   16.77
   4   2   7  145.46   10.45
  -4  -2  -7  141.32   10.95
  -4  -2  -7  132.04    5.02
   4   2   7  141.33    7.37
   4   2   7  157.14   10.12
   4   2   7  132.98    7.17
   4   2   7  146.74    9.53
   4   2   7  132.03    8.63
  -4  -2  -7  137.78    7.71
   4   2   8   84.08    5.95
   4   2   8   63.34    7.58
   4   2   8   70.53    5.83
   4   2   8   75.49    7.12
   4   2   8   84.10    7.70
   4   2   8   77.29    7.21
  -4  -2  -8   77.80    8.79
  -4  -2  -8   75.70    5.89
   4   2   9  168.48   11.08
  -4  -2  -9  177.14   13.71
   4   2   9  163.91   12.47
   4   2   9  177.85   11.10
   4   2   9  155.04    9.35
   4   2   9  179.98   11.95
  -4  -2  -9  165.50    8.76
   4   2  10   73.08    7.95
   4   2  10   69.37    9.22
   4   2  10   70.89    6.94
   4   2  10   74.38    7.42
  -4  -2 -10   68.03    9.54
   4   2  10   60.40    7.72
   4   2  11    5.91    4.42
   4   2  11    1.86    4.20
   4   2  11   11.40    4.63
   4   2  11   11.58    3.96
  -4  -2 -11    5.37    4.41
   4   2  11    8.97    4.84
   4   2  12   10.87    4.55
  -4  -2 -12   17.79    6.94
   4   2  12   11.45    5.57
   4   3  -8   -2.66    5.23
  -4  -3   8    5.61    4.70
  -4  -3   7   61.31    8.84
   4   3  -7   56.37    8.53
   4   3  -7   64.23    7.11
  -4  -3   7   76.68    8.97
   4   3  -6  160.08   10.43
  -4  -3   6  153.53   11.48
  -4  -3   6  163.40   12.55
  -4  -3   5   95.29    9.42
  -4  -3   5   84.06    7.58
   4   3  -5   87.28    7.50
  -4  -3   5   87.36    8.26
  -4  -3   4  159.24    9.70
   4   3  -4  160.35    9.68
   4   3  -4  144.79    7.13
  -4  -3   4  164.77   11.35
  -4  -3   3  377.63   14.47
   4   3  -3  372.71   14.54
  -4  -3   3  389.47   13.23
   4   3  -3  374.63   10.81
  -4  -3   3  398.04   16.80
  -4  -3   2  158.97    8.91
   4   3  -2  166.84    9.10
  -4  -3   2  174.51    9.17
   4   3  -2  157.17    5.53
  -4  -3   2  161.29   10.14
  -4  -3   1   23.85    4.26
  -4  -3   1   18.44    3.23
   4   3  -1   19.52    3.51
  -4  -3   1   22.58    3.68
   4   3  -1   20.37    2.96
   4   3  -1   23.54    1.54
   4   3   0  831.23   14.25
  -4  -3   0  899.01   23.41
   4   3   0  846.36   21.47
  -4  -3   0  842.37   22.02
   4   3   0  880.13   19.69
  -4  -3   0  888.12   24.47
  -4  -3  -1 1051.28   19.37
   4   3   1 1033.36   18.98
  -4  -3  -1 1062.78   27.98
   4   3   1 1020.06   23.72
   4   3   1  995.29   21.64
  -4  -3  -1 1042.28   26.93
  -4  -3  -2   39.97    4.18
  -4  -3  -2   33.43    2.84
  -4  -3  -2   30.44    3.34
   4   3   2   33.46    3.73
   4   3   2   33.60    2.91
  -4  -3  -2   39.72    5.22
   4   3   3  923.42   20.63
  -4  -3  -3  987.91   18.60
  -4  -3  -3  995.99   21.91
   4   3   3  940.98   21.60
  -4  -3  -3 1002.71   27.95
  -4  -3  -3  964.90   18.61
  -4  -3  -3  995.76   21.11
  -4  -3  -3  967.56   26.94
  -4  -3  -3 1019.92   23.66
  -4  -3  -4  330.07   11.11
   4   3   4  292.78   10.61
   4   3   4  317.37   11.06
  -4  -3  -4  314.11    9.43
   4   3   4  331.86   15.71
  -4  -3  -4  309.43   10.32
  -4  -3  -4  325.89   15.26
   4   3   4  318.47   10.40
  -4  -3  -4  319.94    9.44
  -4  -3  -4  298.61    9.32
  -4  -3  -4  325.31   14.94
  -4  -3  -4  309.32   11.68
   4   3   5  307.92   15.03
  -4  -3  -5  329.14   16.01
  -4  -3  -5  284.90    9.54
   4   3   5  308.07    9.84
   4   3   5  305.55   11.56
  -4  -3  -5  302.84   10.02
   4   3   5  318.96   15.11
   4   3   5  312.48   10.38
  -4  -3  -5  307.23   10.45
   4   3   5  332.21   10.48
   4   3   5  295.32   12.75
  -4  -3  -5  299.45   11.58
   4   3   6  269.55   11.70
   4   3   6  274.34   14.51
  -4  -3  -6  275.77    8.84
   4   3   6  275.86    8.79
   4   3   6  280.64    8.81
   4   3   6  300.20   15.15
  -4  -3  -6  266.56   10.24
   4   3   6  279.05   10.41
   4   3   6  284.12   12.85
  -4  -3  -6  264.84   10.95
   4   3   7  111.15    8.06
   4   3   7  113.33    9.68
  -4  -3  -7  109.05   10.14
   4   3   7   99.74    5.04
  -4  -3  -7   99.66    4.48
   4   3   7  101.61    9.18
   4   3   7  113.05    6.99
   4   3   7   95.66    8.02
  -4  -3  -7  104.92    6.89
   4   3   8  140.48   11.16
  -4  -3  -8  146.20   12.18
   4   3   8  123.14   10.09
   4   3   8  124.20    8.01
   4   3   8  139.73    9.46
   4   3   8  129.48    9.58
  -4  -3  -8  135.30    7.87
   4   3   9   33.75    5.45
   4   3   9   43.55    7.14
   4   3   9   38.66    5.16
   4   3   9   35.91    6.12
  -4  -3  -9   37.36    7.29
   4   3   9   37.43    5.85
   4   3  10    7.56    4.40
   4   3  10   12.31    5.60
   4   3  10   21.07    4.74
   4   3  10   10.62    4.21
  -4  -3 -10   24.81    7.39
   4   3  10    9.14    4.22
   4   3  11   73.41    8.59
   4   3  11   67.26    9.67
   4   3  11   58.21    7.33
   4   3  11   56.61    7.37
  -4  -3 -11   52.06    9.20
   4   3  11   61.28    8.24
   4   3  12    2.39    3.75
   4   3  12   13.20    5.26
  -4  -3 -12    7.57    6.93
   4   3  12    3.88    4.80
  -4  -4   7   19.46    6.37
   4   4  -7   10.82    5.30
   4   4  -7   27.91    5.34
  -4  -4   6   13.37    4.39
  -4  -4   6   25.13    5.41
   4   4  -6   28.04    5.32
  -4  -4   5  139.26   10.59
   4   4  -5  142.76   10.08
  -4  -4   5  139.78   11.55
  -4  -4   4    7.08    3.99
  -4  -4   4    2.73    3.19
   4   4  -4    2.85    3.24
   4   4  -3  115.62    5.52
  -4  -4   3  121.90    8.93
   4   4  -3  116.38    8.41
   4   4  -3  107.70    5.41
  -4  -4   3  119.29    9.72
   4   4  -2  724.22   14.56
  -4  -4   2  716.45   22.59
   4   4  -2  701.85   21.34
   4   4  -2  709.80   16.95
   4   4  -2  703.76   14.54
  -4  -4   2  721.71   24.04
  -4  -4   1  194.18   11.12
   4   4  -1  190.55   10.03
   4   4  -1  193.83    6.59
  -4  -4   1  195.74   11.79
   4   4   0  349.97    7.87
  -4  -4   0  361.43   15.80
   4   4   0  326.51   12.86
   4   4   0  343.07    7.70
   4   4   0  363.81   12.99
  -4  -4   0  361.26   15.86
   4   4   1  369.90    9.58
  -4  -4  -1  385.99   17.10
   4   4   1  378.44   13.50
  -4  -4  -1  389.90   16.36
  -4  -4  -2  453.99   12.55
   4   4   2  428.05   11.72
   4   4   2  426.35   14.11
   4   4   3   43.43    3.84
  -4  -4  -3   45.34    2.44
   4   4   3   42.49    4.29
  -4  -4  -3   40.21    2.33
  -4  -4  -3   46.18    6.07
  -4  -4  -3   48.96    4.08
   4   4   4  694.60   16.07
  -4  -4  -4  673.93   17.72
  -4  -4  -4  711.61   24.81
   4   4   4  664.30   17.77
   4   4   4  660.39   17.31
  -4  -4  -4  658.64   13.22
  -4  -4  -4  690.79   14.95
  -4  -4  -4  701.59   24.33
   4   4   5  507.08   16.08
   4   4   5  535.40   21.57
  -4  -4  -5  518.85   14.64
  -4  -4  -5  570.36   22.55
   4   4   5  527.01   14.38
   4   4   5  577.47   21.56
  -4  -4  -5  509.33   12.66
  -4  -4  -5  500.68   13.78
   4   4   5  532.96   11.15
  -4  -4  -5  570.84   22.22
  -4  -4  -6    7.77    4.52
   4   4   6    4.18    2.75
   4   4   6    2.57    0.63
   4   4   6    1.31    3.86
  -4  -4  -6    3.53    1.56
   4   4   6    6.86    2.00
   4   4   6   -2.88    2.57
   4   4   6    2.08    3.59
  -4  -4  -6    3.54    1.64
   4   4   6    7.61    3.57
   4   4   7  498.53   17.79
   4   4   7  506.78   21.47
  -4  -4  -7  545.99   23.37
   4   4   7  495.76   12.16
   4   4   7  519.99   21.94
   4   4   7  496.56   16.54
   4   4   7  458.26   18.01
   4   4   8   46.86    6.05
   4   4   8   52.63    7.81
   4   4   8   46.21    5.38
   4   4   8   36.98    6.61
   4   4   8   48.03    6.42
  -4  -4  -8   51.94    8.16
   4   4   9   34.91    5.85
   4   4   9   26.11    6.39
   4   4   9   30.08    4.93
   4   4   9   32.71    5.99
   4   4   9   33.59    5.99
  -4  -4  -9   51.76    8.18
   4   4  10   12.74    5.00
   4   4  10   15.27    6.81
   4   4  10    8.38    3.76
   4   4  10    9.01    3.78
   4   4  10   14.52    5.07
  -4  -4 -10   12.12    6.05
   4   4  11    4.94    5.21
   4   4  11   20.10    7.04
   4   4  11    4.30    3.52
   4   4  11   22.52    6.29
  -4  -4 -11   13.44    6.22
   4   4  11    8.90    4.74
   4   4  12   10.17    5.24
   4   4  12   -2.01    4.34
   4   4  12    8.47    5.22
   4   5  -7    6.87    6.07
   4   5  -7    0.99    3.58
  -4  -5   6  160.39   12.88
   4   5  -6  160.62   11.55
  -4  -5   6  134.31   12.66
  -4  -5   5   29.66    6.78
  -4  -5   5   37.36    6.81
   4   5  -5   26.78    5.19
  -4  -5   4  101.14   10.14
  -4  -5   4   87.83    8.94
   4   5  -4   88.23    8.39
  -4  -5   3   47.55    6.93
   4   5  -3   45.92    3.67
  -4  -5   3   45.36    6.69
   4   5  -3   44.84    5.87
   4   5  -2  103.63    4.79
   4   5  -2  111.29    8.61
   4   5  -2  101.78    5.83
  -4  -5   2  120.18   10.30
   4   5  -1  374.57    8.66
   4   5  -1  372.02    9.39
  -4  -5   1  356.45   17.22
   4   5  -1  395.81   15.69
   4   5  -1  390.44   10.78
  -4  -5   1  420.58   18.77
  -4  -5   0   19.77    4.56
   4   5   0   15.38    2.05
  -4  -5   0   21.49    5.52
   4   5   0    8.67    3.18
   4   5   0   14.15    1.66
   4   5   1   91.87    4.92
  -4  -5  -1  106.10    9.79
   4   5   1   88.36    6.97
  -4  -5  -1  100.92    9.37
   4   5   2  614.66   15.75
   4   5   2  582.53   18.24
  -4  -5  -2  640.90   24.51
  -4  -5  -2  594.22   22.84
  -4  -5  -3   15.99    2.99
   4   5   3   13.56    2.73
   4   5   3   13.71    3.10
  -4  -5  -3   13.07    1.36
  -4  -5  -3   18.78    5.32
  -4  -5  -4   33.45    6.43
   4   5   4   24.52    3.66
   4   5   4   27.31    1.87
   4   5   4   29.16    3.94
  -4  -5  -4   28.92    2.60
  -4  -5  -4   22.99    5.74
   4   5   5  310.77   12.72
   4   5   5  313.13   17.20
  -4  -5  -5  346.46   18.02
   4   5   5  325.35   11.68
   4   5   5  320.69   16.52
  -4  -5  -5  306.87    8.45
  -4  -5  -5  306.08   10.21
  -4  -5  -5  353.37   18.09
   4   5   6  150.65    9.34
   4   5   6  143.12   11.60
  -4  -5  -6  151.24   12.40
   4   5   6  143.49    7.23
   4   5   6  171.85   12.63
  -4  -5  -6  140.48    6.47
   4   5   7   36.18    5.50
   4   5   7   32.30    6.25
   4   5   7   33.02    3.36
   4   5   7   26.60    4.33
   4   5   7   47.14    7.64
   4   5   7   33.09    5.55
  -4  -5  -7   36.31    7.08
   4   5   8  127.57   11.55
  -4  -5  -8  128.70   12.42
   4   5   8  132.56   11.99
   4   5   8  128.77    9.23
   4   5   8  132.11    9.89
   4   5   8  119.06    9.48
   4   5   9   58.03    7.41
   4   5   9   49.65    8.19
   4   5   9   43.92    5.99
   4   5   9   44.37    7.87
   4   5   9   41.81    6.51
  -4  -5  -9   50.86    8.86
   4   5  10    6.80    4.11
   4   5  10   12.89    5.92
   4   5  10    9.43    3.83
   4   5  10    6.53    4.70
   4   5  10    5.08    3.96
  -4  -5 -10    9.55    5.76
   4   5  11   13.20    4.92
   4   5  11   15.09    6.17
   4   5  11    8.83    4.87
   4   5  11   16.90    5.91
   4   5  11    8.81    4.40
  -4  -5 -11    6.52    4.72
   4   6  -7   23.77    5.95
  -4  -6   6    0.40    5.03
  -4  -6   6    3.28    4.78
   4   6  -6   -1.61    4.05
  -4  -6   5  114.68   11.94
  -4  -6   5  101.30   10.81
   4   6  -5   95.48    9.67
  -4  -6   4  130.69   11.89
   4   6  -4  148.80   11.39
  -4  -6   4  144.58   12.74
  -4  -6   3   14.92    5.01
  -4  -6   3   13.66    5.54
   4   6  -3   18.65    4.74
  -4  -6   2   19.78    5.53
  -4  -6   2   28.36    6.41
   4   6  -2   27.30    5.19
  -4  -6   1  283.07   16.75
   4   6  -1  268.82   13.87
   4   6  -1  293.52    9.24
  -4  -6   1  290.56   16.83
  -4  -6   0  104.45   10.12
   4   6   0   92.06    5.45
  -4  -6   0   90.92    9.84
   4   6   0   84.67    7.65
   4   6   1   12.66    2.65
  -4  -6  -1    0.79    4.35
   4   6   1    9.91    3.25
  -4  -6  -1    4.59    3.95
   4   6   2  432.46   13.97
  -4  -6  -2  435.66   21.00
   4   6   2  416.17   16.25
   4   6   2  405.23   12.44
  -4  -6  -2  452.73   20.82
   4   6   3  111.65    7.36
  -4  -6  -3  127.53    5.41
   4   6   3  101.31    7.79
   4   6   3  113.61    5.26
  -4  -6  -3  105.43    4.07
  -4  -6  -3  120.40    5.27
  -4  -6  -3  130.91   11.52
   4   6   4   43.72    5.08
  -4  -6  -4   40.68    6.97
   4   6   4   33.15    4.58
   4   6   4   42.53    6.87
  -4  -6  -4   40.56    7.30
  -4  -6  -5   83.88    9.61
   4   6   5   54.69    5.95
   4   6   5   61.47    5.87
   4   6   5   59.45    8.37
   4   6   5   62.45    7.92
  -4  -6  -5   72.89    9.19
  -4  -6  -6  105.88   11.06
   4   6   6  107.56   10.72
   4   6   6  113.45    7.14
   4   6   6  105.24    8.57
   4   6   6  116.44   10.79
  -4  -6  -7   17.19    6.05
   4   6   7   14.44    4.33
   4   6   7   11.30    4.96
   4   6   7    8.19    2.47
   4   6   7    7.07    3.58
   4   6   7   21.27    6.10
   4   6   7   11.94    4.33
   4   6   8   26.16    5.33
   4   6   8   27.20    6.46
   4   6   8   23.83    4.82
   4   6   8   30.95    7.02
   4   6   8   29.99    5.85
  -4  -6  -8   31.51    7.39
   4   6   9   52.80    7.58
   4   6   9   53.36    8.66
   4   6   9   48.42    6.95
   4   6   9   43.79    7.75
   4   6   9   34.66    6.45
  -4  -6  -9   53.95    9.43
   4   6  10    2.63    3.74
   4   6  10    3.26    5.17
   4   6  10    5.62    4.52
   4   6  10    1.02    5.04
   4   6  10    5.56    4.19
  -4  -6 -10    0.60    4.76
   4   6  11   -5.07    5.66
   4   6  11    3.29    3.98
   4   6  11    5.06    5.65
   4   6  11    1.05    4.38
  -4  -7   5    9.86    5.84
   4   7  -5   21.43    6.81
  -4  -7   4   44.17    8.06
  -4  -7   4   48.18    8.69
   4   7  -4   57.57    8.27
  -4  -7   3    8.22    4.97
  -4  -7   3   26.51    7.03
   4   7  -3   17.09    5.72
  -4  -7   2   21.29    6.09
  -4  -7   2   27.33    7.02
   4   7  -2   23.60    5.48
  -4  -7   1  122.32   11.81
  -4  -7   1  115.19   11.88
   4   7  -1  102.42    9.56
  -4  -7   0   80.87    9.96
   4   7   0   53.52    5.10
  -4  -7   0   66.18    9.33
   4   7   0   61.46    7.55
   4   7   1  312.63   12.53
  -4  -7  -1  336.60   19.27
   4   7   1  309.19   15.52
  -4  -7  -1  336.98   18.77
   4   7   2   66.19    5.97
  -4  -7  -2   65.58    8.98
   4   7   2   69.51    7.39
  -4  -7  -2   78.73    9.73
   4   7   3  115.81    8.09
  -4  -7  -3  126.46   12.17
   4   7   3  132.10    9.58
  -4  -7  -3  125.15    5.86
  -4  -7  -3  119.94   11.50
   4   7   4  141.98    9.52
   4   7   4  137.90    9.51
  -4  -7  -4  161.82   13.15
   4   7   4  118.81   10.84
  -4  -7  -4  150.38    8.02
  -4  -7  -4  137.95   12.36
  -4  -7  -5   35.24    7.26
   4   7   5   23.46    5.08
   4   7   5   28.21    6.35
   4   7   5   25.39    4.40
   4   7   5   45.42    7.51
  -4  -7  -5   51.79    8.43
  -4  -7  -6   77.00    9.67
   4   7   6   65.66    7.31
   4   7   6   68.96    6.42
   4   7   6   73.83    9.03
   4   7   6   63.94    8.52
  -4  -7  -6   77.61    9.80
  -4  -7  -7   32.19    7.44
   4   7   7   20.46    5.13
   4   7   7   36.21    7.01
   4   7   7   16.57    3.37
   4   7   7   23.30    6.18
  -4  -7  -8    8.84    5.53
   4   7   8   11.50    4.97
   4   7   8    8.15    4.72
   4   7   8   10.78    4.98
   4   7   8    8.76    5.40
   4   7   8    2.45    3.70
   4   7   9   21.35    6.14
   4   7   9    4.88    4.81
   4   7   9   18.90    5.54
   4   7   9   10.66    6.90
   4   7   9    7.98    4.92
  -4  -7  -9   22.75    6.66
   4   7  10   29.81    7.08
   4   7  10   27.71    6.20
   4   7  10   42.97    8.92
   4   7  10   25.14    6.55
   4   7  11   -8.09    5.50
  -4  -8   4   10.17    6.44
  -4  -8   3   83.79   10.76
  -4  -8   3   89.67   11.94
   4   8  -3   97.80   10.33
  -4  -8   2   12.54    5.72
  -4  -8   2    9.92    5.68
   4   8  -2    8.08    4.29
  -4  -8   1   -4.58    4.91
  -4  -8   1   -2.31    4.53
   4   8  -1   -0.20    4.35
  -4  -8   0   61.69    9.45
  -4  -8   0   68.17    9.96
   4   8   0   57.45    8.02
  -4  -8  -1   -2.16    5.34
   4   8   1    1.93    2.76
  -4  -8  -1    3.32    4.15
   4   8   1    4.03    4.01
   4   8   2   43.44    5.64
  -4  -8  -2   50.95    8.55
   4   8   2   45.87    6.88
  -4  -8  -2   55.05    8.66
   4   8   3   22.95    4.83
  -4  -8  -3   25.27    6.81
   4   8   3   28.31    5.96
   4   8   3   15.52    4.94
  -4  -8  -3   28.17    7.20
   4   8   4   63.54    7.10
  -4  -8  -4   50.76    8.13
   4   8   4   49.06    6.70
   4   8   4   64.87    8.69
  -4  -8  -4   75.35   10.00
   4   8   5   40.06    6.30
  -4  -8  -5   43.81    8.24
   4   8   5   45.86    7.32
   4   8   5   41.73    6.28
   4   8   5   32.20    6.73
  -4  -8  -5   43.71    8.49
  -4  -8  -6   11.37    5.71
   4   8   6   -3.70    3.67
   4   8   6   22.87    6.30
   4   8   6    0.52    3.03
   4   8   6   14.33    5.58
  -4  -8  -6    7.84    5.96
  -4  -8  -7   35.84    7.87
   4   8   7   23.99    5.70
   4   8   7   26.34    6.30
   4   8   7   30.37    5.05
   4   8   7   38.29    7.67
  -4  -8  -7   42.57    8.91
  -4  -8  -8   11.63    5.86
   4   8   8   13.81    5.18
   4   8   8   12.31    5.12
   4   8   8   15.24    6.13
   4   8   8    7.54    4.99
   4   8   8   11.30    5.46
   4   8   9   -1.14    4.62
   4   8   9    0.21    4.40
   4   8   9    5.90    4.88
   4   8   9   -0.83    4.97
   4   8  10    6.95    5.40
  -4  -9   3    3.03    4.91
  -4  -9   2   31.11    7.84
  -4  -9   1   -0.85    5.16
  -4  -9   1   11.50    6.61
   4   9  -1   12.25    5.73
  -4  -9   0    1.99    4.78
  -4  -9   0    2.71    5.06
   4   9   0   13.27    6.07
  -4  -9  -1   72.82   10.51
  -4  -9  -1   48.96    8.76
   4   9   1   51.64    7.91
   4   9   1   57.75    8.41
   4   9   2    9.82    3.92
  -4  -9  -2   15.68    6.16
   4   9   2   19.04    6.04
   4   9   2    5.04    3.99
  -4  -9  -2    9.24    5.76
   4   9   3   11.49    4.26
  -4  -9  -3   -0.42    5.18
   4   9   3    3.20    4.37
   4   9   3   -1.07    4.10
  -4  -9  -3   -0.39    4.68
   4   9   4   13.81    4.39
  -4  -9  -4   12.28    5.76
   4   9   4   11.15    4.08
   4   9   4   25.37    6.52
  -4  -9  -4    5.98    4.57
   4   9   5   30.48    6.22
  -4  -9  -5   34.61    8.11
   4   9   5   35.04    6.68
   4   9   5   41.37    6.77
   4   9   5   14.75    5.63
  -4  -9  -5   22.61    6.85
   4   9   6   -5.53    4.69
  -4  -9  -6    8.36    5.78
   4   9   6   -0.10    4.30
   4   9   6    2.66    3.91
   4   9   6    6.92    4.86
  -4  -9  -6   -1.88    5.67
  -4  -9  -7    1.03    4.72
   4   9   7   -2.03    4.60
   4   9   7    6.49    3.97
   4   9   7    4.01    5.13
  -4  -9  -7    9.08    7.25
   4   9   8   13.48    5.41
  -4 -10   0    3.27    5.39
   4  10   0    5.19    4.43
  -4 -10  -1   25.20    7.39
   4  10   1   17.69    5.82
  -4 -10  -2   -1.08    5.22
   4  10   2   11.54    6.09
   4  10   2   15.07    5.90
   4  10   3   11.97    4.48
   4  10   3   -7.48    5.25
   4  10   3    6.75    5.22
  -4 -10  -3   -1.00    4.99
   4  10   4   16.24    5.43
   4  10   4   -2.32    4.87
   4  10   4    2.07    4.46
  -4 -10  -4   14.23    6.36
   4  10   5   18.14    5.60
   4  10   5   31.20    7.05
   4  10   5   27.04    6.81
  -4 -10  -5   40.88    8.68
   4  10   6  -13.07    5.47
   4  10   6    6.65    4.52
  -5   7   3    8.70    5.37
   5  -7  -3   -0.91    5.24
  -5   7   2   -8.69    4.99
   5  -7  -2    1.63    4.31
  -5   7   1   40.19    7.31
   5  -7  -1   35.16    7.72
  -5   7   0    8.14    5.54
   5  -7   0   11.25    5.50
   5  -7   1    8.85    5.32
  -5   7  -1   -4.26    4.09
  -5   7  -2   11.94    5.20
  -5   7  -3   17.51    6.13
  -5   6   6  -15.16    7.38
  -5   6   5   -0.66    5.18
  -5   6   5   -0.78    4.68
   5  -6  -5    3.40    4.17
  -5   6   4   14.85    4.70
  -5   6   4   14.90    6.54
   5  -6  -4   25.21    6.92
  -5   6   4   27.85    6.57
  -5   6   3   20.63    5.30
  -5   6   3   18.44    6.86
  -5   6   3    4.36    3.98
   5  -6  -3   20.81    8.66
   5  -6  -3   -0.07    6.03
   5  -6  -3   11.27    5.06
  -5   6   2    6.53    4.30
   5  -6  -2    9.74    5.00
  -5   6   2   10.11    4.15
   5  -6  -2   13.47    7.78
   5  -6  -2    5.63    5.43
   5  -6  -1   38.31    7.73
  -5   6   1   25.12    6.41
   5  -6  -1   30.35    8.06
   5  -6  -1   27.97    7.35
  -5   6   0   28.86    6.03
  -5   6   0   33.62    6.04
   5  -6   0   39.54    8.25
   5  -6   0   41.50    8.56
   5  -6   0   28.41    6.63
  -5   6  -1   25.68    6.09
  -5   6  -1   24.76    5.40
   5  -6   1   18.35    6.45
   5  -6   1   14.45    6.48
   5  -6   1   22.63    6.38
  -5   6  -2   29.70    6.84
   5  -6   2   24.95    6.55
  -5   6  -2   23.86    5.97
   5  -6   2   36.34    8.00
   5  -6   2   36.53    7.95
  -5   6  -3   52.63    8.13
   5  -6   3   57.80    9.11
  -5   6  -3   51.02    7.85
   5  -6   3   51.62    9.08
   5  -6   3   48.46    9.13
  -5   6  -4   36.81    7.63
  -5   6  -4   44.58    7.73
   5  -6   4   25.14    7.42
   5  -6   4   41.62    8.69
   5  -6   4   54.43    9.04
  -5   6  -5   -8.21    5.73
  -5   5   6   20.88    6.02
   5  -5  -6   24.83    5.80
  -5   5   6   28.91    6.16
  -5   5   5    2.03    4.49
  -5   5   5   13.01    5.75
   5  -5  -5   -0.84    3.10
  -5   5   5    2.19    3.28
  -5   5   4    8.94    3.77
  -5   5   4    4.76    4.74
   5  -5  -4   10.72    4.93
  -5   5   4   17.19    5.92
   5  -5  -4    7.66    3.66
  -5   5   4    6.93    3.20
   5  -5  -4   -0.15    5.46
  -5   5   3   38.98    5.96
  -5   5   3   46.72    8.13
   5  -5  -3   41.31    7.33
  -5   5   3   33.44    6.18
   5  -5  -3   46.14    5.56
  -5   5   3   42.94    5.81
   5  -5  -3   48.73    9.20
  -5   5   2    4.79    4.00
   5  -5  -2    8.21    4.47
  -5   5   2   -1.25    3.57
  -5   5   2    0.53    2.80
   5  -5  -2   -7.89    6.28
   5  -5  -2    8.57    5.72
  -5   5   1    3.73    3.25
  -5   5   1    1.23    2.77
  -5   5   1   -1.43    2.72
   5  -5  -1   -2.50    5.75
   5  -5  -1    1.57    3.74
   5  -5  -1   -0.35    4.59
  -5   5   0   79.77    8.62
   5  -5   0   90.34   10.16
  -5   5   0   79.00    7.56
  -5   5   0   69.59    6.65
   5  -5   0   81.15   10.69
   5  -5   0  100.01   11.64
  -5   5  -1   46.50    7.19
  -5   5  -1   30.16    5.34
   5  -5   1   48.56    8.91
   5  -5   1   24.91    6.52
   5  -5   1   48.64    7.57
  -5   5  -2   39.20    6.63
  -5   5  -2   42.07    6.52
   5  -5   2   40.02    7.47
   5  -5   2   42.56    8.08
   5  -5   2   52.16    8.70
   5  -5   3   64.06    8.97
  -5   5  -3   59.63    7.82
  -5   5  -3   53.37    7.49
   5  -5   3   58.30    9.27
   5  -5   3   67.61    9.99
  -5   5  -4  110.93   10.49
   5  -5   4   99.00   11.15
  -5   5  -4  114.91   10.46
   5  -5   4  119.28   12.42
   5  -5   4  118.03   13.00
  -5   5  -5   30.13    6.72
  -5   5  -5   16.37    6.49
  -5   5  -5   16.70    5.30
   5  -5   5   24.67    6.90
   5  -5   5   24.53    6.83
   5  -5   5   27.51    7.10
  -5   5  -6   -0.59    4.00
  -5   5  -6    3.02    5.18
  -5   5  -6    4.02    4.18
   5  -5   6    3.00    5.50
   5  -5   6    7.06    5.28
   5  -5   6   -0.52    5.08
   5  -4  -7    4.66    4.69
  -5   4   7   -1.47    3.77
  -5   4   6    1.31    3.46
   5  -4  -6    2.31    3.80
  -5   4   6   -1.00    3.47
  -5   4   5   61.42    7.74
   5  -4  -5   59.97    7.28
  -5   4   5   77.12    9.34
  -5   4   5   67.66    7.27
  -5   4   4    3.52    2.89
  -5   4   4    2.28    3.90
   5  -4  -4    0.19    2.88
  -5   4   4    2.43    3.57
  -5   4   4   -2.97    3.24
  -5   4   3   54.77    6.22
  -5   4   3   46.80    7.46
   5  -4  -3   42.58    5.24
  -5   4   3   38.22    6.26
  -5   4   3   51.91    5.66
   5  -4  -3   45.79    9.03
   5  -4  -2  281.54   11.69
   5  -4  -2  273.02   16.05
  -5   4   2  246.60   13.85
  -5   4   2  274.98   11.94
   5  -4  -2  258.28   17.58
  -5   4   2  270.08   13.46
  -5   4   1   10.03    3.87
  -5   4   1    5.97    2.64
  -5   4   1    9.04    3.90
   5  -4  -1   -0.15    1.65
  -5   4   1    6.07    2.64
   5  -4  -1    2.87    5.12
   5  -4  -1    6.27    5.16
   5  -4  -1    7.29    4.73
  -5   4   0   31.30    5.37
  -5   4   0   28.81    4.38
  -5   4   0   27.96    4.39
   5  -4   0   26.14    2.81
  -5   4   0   20.95    3.32
   5  -4   0   33.98    7.85
   5  -4   0   32.62    7.21
   5  -4   0   23.67    3.34
   5  -4   0   29.42    6.11
  -5   4  -1  151.29   10.55
   5  -4   1  164.00   14.18
  -5   4  -1  163.35   10.09
   5  -4   1  139.86   12.60
   5  -4   1  164.36    8.73
   5  -4   1  154.56   12.20
  -5   4  -2   78.17    8.10
  -5   4  -2   72.72    7.30
   5  -4   2   76.16    9.77
   5  -4   2   73.32    9.83
   5  -4   2   77.21    6.57
   5  -4   2   85.61    9.60
  -5   4  -3    6.48    4.30
   5  -4   3    0.82    1.55
  -5   4  -3    5.16    3.54
   5  -4   3   -2.23    4.81
   5  -4   3    7.51    5.53
   5  -4   3    8.71    4.71
   5  -4   3    2.19    2.81
  -5   4  -4   85.18    8.78
   5  -4   4   81.13    5.90
   5  -4   4   98.18   10.68
  -5   4  -4   73.56    7.91
   5  -4   4   78.62    9.65
   5  -4   4   82.71   10.58
   5  -4   4   73.77    7.42
  -5   4  -5  182.98   12.73
   5  -4   5  162.77    9.28
  -5   4  -5  153.96   13.78
  -5   4  -5  170.12   12.24
   5  -4   5  172.96   14.59
   5  -4   5  189.51   14.97
   5  -4   5  167.10   13.79
   5  -4   5  156.54   11.31
  -5   4  -6   -0.28    3.64
   5  -4   6    3.35    2.75
  -5   4  -6    0.96    4.48
  -5   4  -6    5.31    4.15
   5  -4   6    2.60    4.43
   5  -4   6   -0.25    5.33
   5  -4   6    5.55    5.35
   5  -4   6    0.17    4.24
  -5   4  -7   28.86    6.40
   5  -4   7   21.56    4.59
  -5   4  -7   16.16    6.14
  -5   4  -7   27.71    6.36
   5  -4   7   11.41    5.70
   5  -4   7   33.19    7.55
   5  -4   7   25.79    7.00
   5  -4   7   22.84    5.72
  -5   4  -8   92.64   10.10
   5  -4   8   91.33    8.94
  -5   4  -9   25.48    6.25
  -5   3   8   11.84    5.01
   5  -3  -7   -3.53    4.39
  -5   3   7    3.38    4.10
   5  -3  -6    2.10    3.50
  -5   3   6    0.95    3.40
  -5   3   5   68.92    7.00
   5  -3  -5   85.01    8.42
  -5   3   5   82.12    9.28
  -5   3   5   86.40    7.79
  -5   3   4   27.33    4.27
  -5   3   4   28.85    5.41
   5  -3  -4   26.06    4.75
  -5   3   4   31.51    6.29
  -5   3   4   29.57    4.65
  -5   3   3   -2.22    3.58
   5  -3  -3   -4.63    2.74
  -5   3   3    0.87    3.20
  -5   3   3   -0.43    2.15
  -5   3   3    1.31    2.69
  -5   3   2  150.33   10.54
  -5   3   2  172.17    8.48
   5  -3  -2  169.72   13.73
   5  -3  -2  172.65    9.09
  -5   3   2  170.94   10.08
   5  -3  -1  165.93    6.78
  -5   3   1  168.01   10.31
  -5   3   1  169.41    7.91
  -5   3   1  164.49    7.65
   5  -3  -1  157.17   12.55
   5  -3  -1  164.51    6.51
   5  -3  -1  167.58    8.17
  -5   3   1  165.49   10.02
   5  -3   0   16.14    2.81
  -5   3   0   11.12    3.91
   5  -3   0   15.70    2.19
   5  -3   0   13.34    2.46
  -5   3   0    7.69    2.64
  -5   3   0   13.67    2.40
   5  -3   0    3.73    4.26
   5  -3   0   22.47    5.67
   5  -3   0   17.66    5.37
   5  -3   0   13.56    2.34
  -5   3  -1  101.98    8.30
   5  -3   1  102.62    9.63
   5  -3   1   97.12    5.08
   5  -3   1  110.07    6.09
   5  -3   1   98.78    6.29
  -5   3  -1  110.56    7.43
  -5   3  -1   95.68    5.12
   5  -3   1   94.25   10.21
   5  -3   1  104.56    5.60
   5  -3   1  100.34   10.23
   5  -3   1  110.62    6.76
   5  -3   1  108.85    4.82
  -5   3  -2  298.90   14.31
   5  -3   2  311.70   10.39
  -5   3  -2  312.96   13.27
   5  -3   2  288.28   10.12
   5  -3   2  315.56   18.24
   5  -3   2  327.44   17.55
   5  -3   2  296.81   12.28
   5  -3   2  308.85   16.65
  -5   3  -3   43.32    6.03
   5  -3   3   41.02    4.13
  -5   3  -3   41.03    5.40
   5  -3   3   36.02    6.61
   5  -3   3   36.75    6.74
   5  -3   3   36.52    7.02
   5  -3   3   33.72    4.71
  -5   3  -4    8.35    4.07
   5  -3   4    2.14    2.06
  -5   3  -4    7.55    4.83
  -5   3  -4    4.60    3.40
   5  -3   4   -5.51    4.93
   5  -3   4    3.08    3.63
   5  -3   4    4.30    4.19
   5  -3   4    8.52    3.46
  -5   3  -5  451.16   18.99
   5  -3   5  473.98   16.49
  -5   3  -5  479.19   22.39
  -5   3  -5  460.87   19.05
   5  -3   5  438.30   21.43
   5  -3   5  517.11   23.70
   5  -3   5  466.37   21.11
   5  -3   5  475.66   18.89
   5  -3   6   97.48    7.84
  -5   3  -6  109.25   11.07
  -5   3  -6  107.19    9.54
   5  -3   6  108.62   10.49
   5  -3   6   97.97    9.15
   5  -3   6  100.51   10.47
   5  -3   6  104.82   11.39
  -5   3  -6   96.90    9.15
  -5   3  -7    8.37    3.94
   5  -3   7    5.66    3.50
  -5   3  -7    9.75    5.02
  -5   3  -7    9.80    4.70
   5  -3   7    4.02    4.38
   5  -3   7    7.54    5.68
   5  -3   7    2.71    4.34
   5  -3   7    6.90    4.44
   5  -3   8  118.41   10.16
  -5   3  -8  137.82   12.98
  -5   3  -8  174.86   13.49
   5  -3   8  127.93   12.66
   5  -3   8  134.78   12.86
   5  -3   8  147.97   13.10
   5  -3   8  152.42   12.54
  -5   3  -8  120.20   10.53
  -5   3  -9   36.89    6.71
   5  -3   9   42.35    6.85
   5  -3   9   40.93    8.45
  -5   2   8   41.80    6.74
   5  -2  -7   26.40    6.03
  -5   2   7   29.20    6.47
  -5   2   7   27.06    5.37
   5  -2  -6   -2.38    3.76
  -5   2   6    6.04    4.29
  -5   2   6    4.09    3.39
  -5   2   5   57.47    5.39
   5  -2  -5   62.57    7.24
  -5   2   5   50.92    7.28
  -5   2   5   40.38    5.64
  -5   2   4   90.50    7.07
  -5   2   4  107.12    9.52
  -5   2   4   82.82    6.79
  -5   2   4  102.35    8.43
   5  -2  -4   98.14    8.32
  -5   2   4   88.84    6.30
  -5   2   3   28.69    4.04
  -5   2   3   36.20    5.14
  -5   2   3   34.94    4.78
   5  -2  -3   38.50    5.12
  -5   2   3   35.81    5.75
  -5   2   3   27.58    3.75
  -5   2   2   15.59    3.38
  -5   2   2   24.03    3.97
   5  -2  -2   19.94    3.64
  -5   2   2   18.53    4.30
  -5   2   2   18.77    2.88
   5  -2  -2   10.77    4.78
   5  -2  -2   18.06    2.10
  -5   2   1  391.61   15.99
  -5   2   1  437.08   11.38
  -5   2   1  420.96   11.90
   5  -2  -1  419.24   19.97
   5  -2  -1  435.46   11.63
  -5   2   1  453.44   14.34
   5  -2  -1  431.27   14.17
  -5   2   1  423.78   15.39
  -5   2   0   87.33    5.33
  -5   2   0   81.46    4.18
   5  -2   0   93.45    9.93
   5  -2   0   82.15    6.13
   5  -2   0   92.10    9.38
   5  -2   0   87.69    5.28
  -5   2   0   90.94    5.49
  -5   2   0   89.98    7.15
   5  -2   1  129.50   10.26
   5  -2   1  130.17    6.91
   5  -2   1  119.41    7.48
   5  -2   1  119.74    6.91
  -5   2  -1  128.72    7.13
  -5   2  -1  118.75    4.34
   5  -2   1  127.25   10.25
   5  -2   1  115.05    6.79
   5  -2   1  120.77    6.82
  -5   2  -1  123.70    5.61
  -5   2  -1  125.42    8.49
   5  -2   2  131.39   10.30
   5  -2   2  143.88    7.38
   5  -2   2  137.40    7.16
   5  -2   2  126.69    6.56
  -5   2  -2  141.86    7.90
   5  -2   2  135.14   11.36
  -5   2  -2  118.87    4.07
  -5   2  -2  130.12    4.14
   5  -2   2  123.71    9.93
   5  -2   2  126.34    7.60
  -5   2  -2  140.99    4.99
  -5   2  -2  133.95    8.89
   5  -2   3  379.45    9.94
   5  -2   3  410.03   13.43
  -5   2  -3  378.85    9.78
  -5   2  -3  402.44   19.23
   5  -2   3  392.33   10.99
   5  -2   3  378.28   18.35
  -5   2  -3  350.18    8.02
   5  -2   3  384.46   17.08
   5  -2   3  394.62   14.54
   5  -2   3  368.20   17.59
  -5   2  -3  373.96   15.38
  -5   2  -4    9.10    1.99
   5  -2   4   13.72    3.11
  -5   2  -4    5.04    3.77
   5  -2   4   11.18    1.36
   5  -2   4   10.07    1.63
   5  -2   4    4.43    4.08
   5  -2   4    7.31    4.06
  -5   2  -4    8.99    3.50
   5  -2   4   16.96    5.29
   5  -2   4    5.44    2.88
  -5   2  -5   -0.43    3.50
   5  -2   5    2.77    2.66
   5  -2   5    3.40    4.15
  -5   2  -5    1.46    3.26
   5  -2   5    2.32    0.87
   5  -2   5    2.32    3.49
   5  -2   5    4.64    3.84
   5  -2   5    4.44    3.25
   5  -2   6  470.81   17.86
  -5   2  -6  495.85   21.31
   5  -2   6  438.59   19.72
   5  -2   6  454.66   22.20
   5  -2   6  495.64   20.29
   5  -2   6  508.25   19.74
  -5   2  -6  441.56   18.19
  -5   2  -7   49.00    6.36
   5  -2   7   46.64    6.24
  -5   2  -7   46.43    7.25
   5  -2   7   44.41    6.78
   5  -2   7   55.95    8.76
   5  -2   7   52.46    7.23
   5  -2   7   67.33    8.03
  -5   2  -8    2.30    3.51
   5  -2   8    6.69    3.90
  -5   2  -8   13.47    5.47
   5  -2   8   -5.88    5.09
   5  -2   8    9.77    5.15
   5  -2   8   11.68    5.68
   5  -2   8    4.23    4.02
   5  -2   9  174.35   12.91
  -5   2  -9  184.83   14.15
   5  -2   9  159.33   13.84
   5  -2   9  197.86   14.57
   5  -2   9  192.07   13.89
   5  -2   9  193.49   14.40
  -5   2  -9  163.49   11.47
   5  -2  10   59.35    8.37
   5  -2  10   66.79   10.21
  -5   1   8    2.43    3.89
   5  -1  -7   98.43   10.73
  -5   1   7   90.79   10.50
  -5   1   7   80.97    8.68
  -5   1   6   84.22    8.91
   5  -1  -6   75.65    8.65
  -5   1   6   79.83    9.51
  -5   1   6   63.86    7.02
  -5   1   5   -1.55    1.95
  -5   1   5   -0.69    3.67
   5  -1  -5    2.28    3.54
  -5   1   5   -2.44    3.98
  -5   1   5   -0.26    2.66
  -5   1   4  244.05    9.64
  -5   1   4  263.34   14.65
  -5   1   4  271.69   11.89
  -5   1   4  281.54   13.94
   5  -1  -4  264.19   13.69
  -5   1   4  258.62   10.57
  -5   1   3  134.49    7.43
  -5   1   3  157.49   10.68
  -5   1   3  149.92    7.93
   5  -1  -3  150.45    5.77
  -5   1   3  153.81    9.69
   5  -1  -3  155.59    9.81
  -5   1   3  137.25    7.73
  -5   1   2    7.67    2.83
  -5   1   2    8.15    2.99
  -5   1   2    7.94    2.20
  -5   1   2    7.43    3.31
  -5   1   2    4.32    1.69
   5  -1  -2    5.30    1.63
  -5   1   1  301.06   11.10
  -5   1   1  293.30    9.04
   5  -1  -1  290.71   15.47
   5  -1  -1  308.19    9.83
  -5   1   1  304.19   11.78
  -5   1   1  302.01   12.15
  -5   1   0  392.21   13.14
  -5   1   0  413.62   10.77
  -5   1   0  393.16    9.10
   5  -1   0  396.87   17.28
   5  -1   0  398.30   14.40
   5  -1   0  375.55   11.85
  -5   1   0  396.71   12.78
  -5   1   0  397.67   14.39
   5  -1   1  451.04   19.98
   5  -1   1  396.21   16.63
   5  -1   1  406.39   14.38
   5  -1   1  404.56   12.92
  -5   1  -1  407.49   12.10
  -5   1  -1  425.55   15.08
   5  -1   2  331.54   15.63
   5  -1   2  342.76   12.95
   5  -1   2  336.53   13.68
   5  -1   2  342.72   11.60
   5  -1   2  364.04   17.01
   5  -1   2  303.28   13.86
   5  -1   2  347.58   12.94
  -5   1  -2  334.48    9.91
   5  -1   2  340.06   12.40
  -5   1  -2  327.23   13.36
   5  -1   3  307.78   15.41
   5  -1   3  321.81   12.16
  -5   1  -3  313.84    8.01
   5  -1   3  316.59   12.59
  -5   1  -3  316.16   15.89
   5  -1   3  308.22   10.39
   5  -1   3  302.61   14.85
   5  -1   3  295.28   13.52
  -5   1  -3  318.47    8.90
   5  -1   3  321.06   12.66
  -5   1  -3  304.42   13.21
   5  -1   4  257.92    9.65
  -5   1  -4  263.83    8.64
   5  -1   4  268.51   11.95
  -5   1  -4  267.11   14.14
   5  -1   4  251.29    8.76
   5  -1   4  269.14   13.57
   5  -1   4  239.83   12.18
  -5   1  -4  270.20    7.75
   5  -1   4  242.57   11.64
   5  -1   4  269.87   15.02
  -5   1  -4  266.80   12.45
   5  -1   5   98.50    5.48
   5  -1   5   99.30    8.10
  -5   1  -5   84.33    5.39
   5  -1   5   95.25    7.52
  -5   1  -5  103.99    8.85
   5  -1   5   93.38    4.82
   5  -1   5   85.80    5.62
   5  -1   5   90.65    9.10
   5  -1   5   94.58    8.08
  -5   1  -5   85.39    4.00
   5  -1   5   95.64    7.96
  -5   1  -5  102.15    4.60
   5  -1   5   91.70    7.75
  -5   1  -5   92.33    7.68
   5  -1   6   41.55    6.72
   5  -1   6   51.78    6.38
   5  -1   6   57.03    6.46
  -5   1  -6   52.82    6.76
   5  -1   6   49.04    3.71
   5  -1   6   55.26    6.43
  -5   1  -6   46.97    3.44
  -5   1  -6   52.37    5.97
   5  -1   6   49.42    6.35
   5  -1   6   45.18    6.06
   5  -1   7  318.24   15.60
   5  -1   7  299.28   15.10
  -5   1  -7  321.93   16.19
  -5   1  -7  313.15   12.30
   5  -1   7  325.43   17.86
   5  -1   7  279.36   14.87
   5  -1   7  321.80   15.66
   5  -1   7  315.41   15.89
  -5   1  -7  315.20   14.42
  -5   1  -8   27.62    4.70
   5  -1   8   26.80    5.87
   5  -1   8   31.44    5.94
  -5   1  -8   29.18    5.93
   5  -1   8   23.48    5.40
   5  -1   8   29.67    5.62
   5  -1   8   23.58    5.53
   5  -1   8   35.00    6.39
  -5   1  -9   34.05    5.34
   5  -1   9   34.29    6.69
   5  -1   9   41.39    7.34
  -5   1  -9   25.10    5.42
   5  -1   9   30.69    6.42
   5  -1   9   34.88    7.00
   5  -1  10   89.05    9.74
   5  -1  10   81.79    9.57
   5  -1  10   87.37    9.98
  -5   1 -10   93.91   10.29
   5  -1  10   83.86   10.48
  -5   1 -10   97.42    8.61
  -5   0   8    0.65    3.66
  -5   0   7    9.80    4.95
   5   0  -7    3.86    4.33
   5   0  -7   11.29    4.03
  -5   0   7   -2.52    4.47
  -5   0   7    8.89    4.43
   5   0  -6   95.01    8.35
  -5   0   6  111.84   10.62
   5   0  -6  112.71   10.53
  -5   0   6   87.88    8.30
  -5   0   6  121.48   10.66
  -5   0   5   30.94    6.12
   5   0  -5   25.30    5.49
   5   0  -5   13.76    4.14
  -5   0   5   20.88    5.16
  -5   0   5   19.23    4.07
  -5   0   4   82.17    4.08
   5   0  -4   86.87    7.51
  -5   0   4   88.98    8.74
  -5   0   4   73.18    6.34
  -5   0   4   95.64    8.36
  -5   0   4   87.40    5.99
  -5   0   3  280.05    8.49
   5   0  -3  277.32   10.73
  -5   0   3  284.40    8.48
   5   0  -3  284.62   13.08
  -5   0   3  288.00   11.32
  -5   0   3  266.77   13.14
  -5   0   3  292.20   11.28
  -5   0   2  301.44    9.85
  -5   0   2  312.05    9.24
   5   0  -2  324.45   10.50
   5   0  -2  314.52   13.47
  -5   0   2  322.69   10.81
  -5   0   2  308.80   13.29
  -5   0   2  308.64   11.87
  -5   0   1    2.79    2.26
  -5   0   1    9.74    3.10
  -5   0   1    7.65    1.77
   5   0  -1    3.13    2.85
   5   0  -1    1.69    2.57
  -5   0   1    6.38    1.06
  -5   0   1    7.61    1.80
   5   0  -1    2.70    3.11
  -5   0   0  318.16   10.13
   5   0   0  283.90   13.21
   5   0   0  326.69   13.15
  -5   0   0  322.95    7.98
   5   0   0  334.43   14.22
  -5   0   0  316.34   11.80
   5   0   0  332.24   11.23
  -5   0   0  323.60   12.25
  -5   0  -1  789.13   18.80
   5   0   1  795.95   22.05
   5   0   1  764.44   21.71
   5   0   1  819.91   26.18
   5   0   1  813.65   22.28
   5   0   1  821.56   22.88
  -5   0  -1  782.58   19.67
   5   0   1  799.51   19.92
  -5   0  -1  804.48   21.35
  -5   0  -2    7.59    2.10
  -5   0  -2    5.19    2.80
   5   0   2    9.22    3.32
  -5   0  -2    7.68    2.11
  -5   0  -2    5.89    1.09
   5   0   2    7.84    2.49
   5   0   2    6.68    1.99
   5   0   2    4.21    2.73
   5   0   2    5.65    2.35
   5   0   2    6.81    2.39
   5   0   2    4.27    2.18
   5   0   3  135.30    8.06
   5   0   3  150.52   10.10
  -5   0  -3  146.93    5.18
   5   0   3  158.01    9.74
   5   0   3  143.38    8.93
  -5   0  -3  158.02   10.10
   5   0   3  152.10    7.59
   5   0   3  147.15    8.94
   5   0   3  144.68    8.22
  -5   0  -3  148.48    6.92
   5   0   3  142.10    8.30
  -5   0  -3  140.38    8.56
   5   0   4  727.96   20.95
   5   0   4  707.44   20.97
  -5   0  -4  732.12   16.40
   5   0   4  747.39   22.10
  -5   0  -4  734.57   22.87
   5   0   4  718.45   21.03
   5   0   4  702.81   20.27
  -5   0  -4  752.92   17.85
   5   0   4  715.57   21.06
  -5   0  -4  729.29   21.11
   5   0   4  736.78   24.65
   5   0   5   90.09    6.41
   5   0   5  109.34    7.90
  -5   0  -5   98.31    5.73
  -5   0  -5  105.91    8.24
   5   0   5   97.29    7.80
   5   0   5   97.68    7.23
   5   0   5   98.38    7.24
   5   0   5   95.41    8.97
  -5   0  -5   97.15    5.80
   5   0   5   92.18    7.41
  -5   0  -5   91.01    7.26
  -5   0  -6   16.56    3.68
  -5   0  -6   22.23    3.80
   5   0   6   18.27    4.04
   5   0   6   20.34    4.97
   5   0   6   23.23    4.53
  -5   0  -6   17.62    4.08
   5   0   6   23.22    3.44
   5   0   6   22.67    3.65
   5   0   6   24.61    4.38
   5   0   6   19.95    4.07
   5   0   6   28.73    5.00
  -5   0  -6   24.63    3.34
   5   0   7  299.48   14.44
  -5   0  -7  303.46   14.77
   5   0   7  303.46   15.21
  -5   0  -7  323.96   14.15
   5   0   7  308.71   11.61
   5   0   7  321.76   10.93
   5   0   7  278.51   15.53
   5   0   7  293.74   13.91
   5   0   7  294.32   14.01
  -5   0  -7  300.28   12.35
   5   0   7  318.27   15.36
  -5   0  -7  277.79   13.10
   5   0   8  168.12   11.38
  -5   0  -8  150.92   10.97
   5   0   8  169.00   11.89
  -5   0  -8  163.26   10.91
   5   0   8  143.81   10.96
   5   0   8  157.44    7.91
   5   0   8  160.69    8.42
   5   0   8  141.48   10.14
   5   0   8  166.39   11.77
  -5   0  -8  146.87    9.49
  -5   0  -9   -4.31    3.15
   5   0   9   -1.26    4.63
   5   0   9  -10.27    5.00
  -5   0  -9    0.01    3.57
   5   0   9   -2.67    3.40
   5   0   9    2.54    2.48
   5   0   9   -5.77    4.81
  -5   0  -9    0.32    3.16
  -5   0 -10   18.38    3.91
   5   0  10   26.60    6.11
   5   0  10   34.47    7.02
   5   0  10   32.09    6.53
  -5   0 -10   23.97    6.06
   5   0  10   21.27    5.71
  -5  -1   8    2.17    4.31
  -5  -1   7    0.17    4.64
   5   1  -7    8.23    5.31
   5   1  -7    5.02    3.74
  -5  -1   7    4.48    3.85
   5   1  -6  111.90    9.03
  -5  -1   6  118.55    9.62
  -5  -1   6  124.24   11.02
   5   1  -6  104.30   10.36
   5   1  -5  194.13   11.44
  -5  -1   5  202.71   11.62
  -5  -1   5  196.37   13.01
  -5  -1   4    5.31    3.50
   5   1  -4    2.88    3.01
  -5  -1   4   -1.13    2.47
   5   1  -3  176.24    9.55
   5   1  -3  185.44   10.53
  -5  -1   3  181.25    9.30
  -5  -1   3  190.71   11.35
  -5  -1   3  182.58    8.90
  -5  -1   2  606.50   10.84
   5   1  -2  636.89   18.63
   5   1  -2  662.86   20.07
  -5  -1   2  677.07   17.52
   5   1  -2  641.84   16.42
  -5  -1   2  666.54   20.87
  -5  -1   2  645.11   18.23
  -5  -1   1   20.31    3.83
  -5  -1   1   23.47    3.49
  -5  -1   1   23.27    1.83
  -5  -1   1   24.67    2.41
   5   1  -1   21.23    3.95
   5   1  -1   23.27    3.92
  -5  -1   1   19.41    2.39
  -5  -1   1   19.54    2.59
   5   1  -1   20.29    2.39
   5   1  -1   20.10    3.91
  -5  -1   0   59.32    3.38
  -5  -1   0   64.25    3.34
   5   1   0   56.48    4.98
   5   1   0   52.72    5.41
   5   1   0   61.73    3.19
   5   1   0   61.41    5.32
  -5  -1   0   63.10    5.69
  -5  -1   0   62.34    5.32
  -5  -1  -1  399.62   11.01
   5   1   1  406.97   12.64
  -5  -1  -1  428.00   10.17
   5   1   1  387.55   14.07
   5   1   1  420.78   16.19
   5   1   1  396.39   12.53
  -5  -1  -1  412.26   14.18
  -5  -1  -1  405.88   14.09
  -5  -1  -2  212.85    8.25
   5   1   2  199.13    8.60
   5   1   2  203.47    8.33
  -5  -1  -2  219.98    8.78
   5   1   2  207.35    9.77
   5   1   2  208.69    9.87
   5   1   2  211.84    8.49
   5   1   2  232.18   12.05
  -5  -1  -2  223.78    9.84
   5   1   2  213.93    9.89
  -5  -1  -2  205.21    9.79
  -5  -1  -3   38.83    4.10
  -5  -1  -3   31.96    4.24
   5   1   3   36.79    4.02
   5   1   3   32.07    5.05
  -5  -1  -3   45.42    5.08
   5   1   3   38.17    4.23
   5   1   3   35.70    3.72
   5   1   3   35.03    3.95
  -5  -1  -3   34.54    4.67
   5   1   3   35.09    4.58
   5   1   3   32.92    5.11
   5   1   4  523.61   19.39
   5   1   4  535.93   16.61
   5   1   4  543.63   20.12
  -5  -1  -4  555.81   17.62
   5   1   4  520.47   18.90
   5   1   4  532.29   15.59
   5   1   4  544.60   15.63
  -5  -1  -4  532.14   17.57
  -5  -1  -4  546.78   16.43
   5   1   4  542.91   17.81
  -5  -1  -4  523.07   16.93
   5   1   5  486.02   16.39
  -5  -1  -5  495.12   16.68
   5   1   5  470.10   18.35
  -5  -1  -5  522.42   17.71
   5   1   5  478.64   10.24
   5   1   5  480.37   15.25
   5   1   5  484.18   15.42
  -5  -1  -5  481.49   16.02
   5   1   5  517.07   17.88
   5   1   5  469.77   18.96
  -5  -1  -5  486.96   16.44
  -5  -1  -6   15.17    3.49
  -5  -1  -6   16.46    4.07
   5   1   6   16.69    4.16
   5   1   6   20.88    4.66
  -5  -1  -6   17.59    3.74
   5   1   6   15.83    4.36
  -5  -1  -6   14.94    2.73
   5   1   6   19.22    2.38
   5   1   6   14.95    3.61
   5   1   6   14.65    3.39
   5   1   6   19.29    3.53
   5   1   6   22.90    4.51
  -5  -1  -6   15.89    3.53
  -5  -1  -7   76.28    7.60
   5   1   7   68.03    6.88
  -5  -1  -7   62.36    6.56
   5   1   7   68.41    7.43
   5   1   7   71.56    6.72
   5   1   7   69.52    4.79
   5   1   7   66.40    6.18
   5   1   7   73.60    7.39
   5   1   7   74.77    7.53
  -5  -1  -7   67.99    6.65
  -5  -1  -7   69.50    6.38
  -5  -1  -8   68.69    8.01
  -5  -1  -8   57.96    6.16
   5   1   8   62.48    6.97
   5   1   8   57.41    7.58
  -5  -1  -8   61.01    6.85
   5   1   8   72.01    6.40
   5   1   8   64.73    5.22
   5   1   8   53.11    6.37
   5   1   8   59.22    7.23
   5   1   9  145.59   10.81
  -5  -1  -9  154.38   11.20
   5   1   9  147.75   12.14
  -5  -1  -9  156.24   12.21
   5   1   9  141.73    9.80
   5   1   9  152.96    9.20
   5   1   9  137.07    8.29
   5   1   9  152.62   11.67
  -5  -1  -9  132.01    9.07
  -5  -1 -10   14.35    3.81
   5   1  10   11.63    5.01
   5   1  10   17.23    4.63
   5   1  10   22.28    5.92
  -5  -1 -10   17.05    5.33
   5   1  10   21.64    4.26
   5   1  10   12.11    5.54
  -5  -1 -10   10.66    4.41
  -5  -1 -11   48.45    7.80
   5   1  11   38.81    7.15
  -5  -1 -11   37.15    7.60
  -5  -2   7    5.76    4.72
   5   2  -7   -2.66    4.79
   5   2  -7   10.31    4.33
  -5  -2   7    4.04    3.96
  -5  -2   6   15.62    4.93
   5   2  -6    8.47    4.32
   5   2  -6   17.93    4.69
  -5  -2   6    7.92    3.63
   5   2  -5  119.48    9.28
  -5  -2   5   94.87    8.49
  -5  -2   5  126.21   10.94
   5   2  -4  275.40   13.51
  -5  -2   4  274.33   13.11
  -5  -2   4  287.14   15.23
  -5  -2   3   20.36    4.47
  -5  -2   3   27.74    3.81
   5   2  -3   29.02    4.81
  -5  -2   3   24.48    4.03
  -5  -2   2  427.93   13.25
   5   2  -2  379.98   15.82
   5   2  -2  407.72   15.52
  -5  -2   2  405.08   11.36
  -5  -2   2  398.44   16.54
  -5  -2   1  868.32   19.84
   5   2  -1  817.42   20.63
   5   2  -1  861.77   23.32
  -5  -2   1  799.49   20.83
   5   2  -1  826.86   18.99
   5   2  -1  871.39   21.18
  -5  -2   1  836.73   24.34
  -5  -2   1  860.75   22.29
  -5  -2   0   20.84    3.95
  -5  -2   0   14.36    2.99
  -5  -2   0   20.01    1.60
  -5  -2   0   23.57    2.94
   5   2   0   21.83    2.52
   5   2   0   23.00    4.17
   5   2   0   14.46    1.97
   5   2   0   24.62    2.76
  -5  -2  -1  533.63   12.35
   5   2   1  535.28   13.14
   5   2   1  556.51   12.54
  -5  -2  -1  576.72   15.80
   5   2   1  543.77   16.96
   5   2   1  595.39   16.80
   5   2   1  537.69   11.55
   5   2   1  547.51   12.49
  -5  -2  -1  576.42   18.36
  -5  -2  -1  547.13   16.92
  -5  -2  -2  652.89   15.38
   5   2   2  649.38   15.95
  -5  -2  -2  642.95   19.64
   5   2   2  674.22   18.85
   5   2   2  690.78   15.99
   5   2   2  630.56   11.87
   5   2   2  667.56   14.39
  -5  -2  -2  700.69   20.31
  -5  -2  -2  664.67   19.03
  -5  -2  -3   42.38    4.71
   5   2   3   48.95    4.17
  -5  -2  -3   47.82    3.99
  -5  -2  -3   39.41    4.38
   5   2   3   44.74    4.69
   5   2   3   36.01    1.79
   5   2   3   38.76    3.11
  -5  -2  -3   42.16    4.43
   5   2   3   35.32    2.95
  -5  -2  -3   56.51    5.57
  -5  -2  -4   55.26    5.37
   5   2   4   69.68    5.39
   5   2   4   67.51    6.51
  -5  -2  -4   68.82    5.48
   5   2   4   64.87    5.26
   5   2   4   69.40    7.18
   5   2   4   62.84    2.74
   5   2   4   69.32    4.42
   5   2   4   69.85    4.58
  -5  -2  -4   72.70    5.48
  -5  -2  -4   80.78    6.84
   5   2   4   66.23    6.14
   5   2   5  157.67    8.62
  -5  -2  -5  152.85    8.18
   5   2   5  143.90   10.25
  -5  -2  -5  145.65    7.26
  -5  -2  -5  153.82   10.33
   5   2   5  151.30    7.71
  -5  -2  -5  154.62    9.08
   5   2   5  152.31    5.33
   5   2   5  155.07    7.21
   5   2   5  145.04    7.23
  -5  -2  -5  143.29    7.98
  -5  -2  -5  160.10    9.86
   5   2   5  168.76   10.05
   5   2   5  154.65    9.88
  -5  -2  -5  159.48    9.04
   5   2   6  199.72   10.39
  -5  -2  -6  193.85    9.84
   5   2   6  191.37   12.21
  -5  -2  -6  201.43   12.38
  -5  -2  -6  189.02    8.10
   5   2   6  204.75   12.69
   5   2   6  197.09    7.21
   5   2   6  191.04   10.80
  -5  -2  -6  199.35   11.76
   5   2   6  202.09   11.41
  -5  -2  -6  186.81    9.99
  -5  -2  -7    0.25    3.47
  -5  -2  -7   -2.01    2.87
   5   2   7    0.85    3.07
  -5  -2  -7    0.80    2.54
   5   2   7    7.52    4.15
   5   2   7   -0.34    1.57
   5   2   7   -2.00    3.03
   5   2   7    1.30    3.08
   5   2   7    0.85    3.82
   5   2   8  202.38   11.79
  -5  -2  -8  208.18   11.72
   5   2   8  197.71   13.41
  -5  -2  -8  214.55   14.22
   5   2   8  185.41    9.84
   5   2   8  199.53   12.25
   5   2   8  191.83    9.04
   5   2   8  213.09   12.78
  -5  -2  -8  199.02   10.55
   5   2   9   70.06    7.62
   5   2   9   66.56    6.06
  -5  -2  -9   59.49    6.78
   5   2   9   65.55    8.79
   5   2   9   73.45    6.27
   5   2   9   54.77    6.48
   5   2   9   67.94    8.00
  -5  -2  -9   75.96    6.79
  -5  -2  -9   67.22    8.92
  -5  -2 -10   14.92    3.72
   5   2  10   26.56    5.61
  -5  -2 -10   22.94    5.39
   5   2  10   22.42    6.63
   5   2  10   19.54    4.09
   5   2  10   13.96    4.05
   5   2  10   17.66    5.52
  -5  -2 -10   14.04    6.18
   5   2  11    5.28    4.56
   5   2  11    8.45    5.40
  -5  -2 -11    5.69    4.67
   5   2  11    4.73    3.06
   5   2  11   11.57    5.50
  -5  -2 -11    8.33    5.69
  -5  -2 -12    8.71    6.24
   5   3  -7   48.24    7.05
  -5  -3   6   17.60    5.93
   5   3  -6    6.55    3.90
   5   3  -5  114.32    9.45
  -5  -3   5  121.91   11.04
  -5  -3   4  139.57    9.28
   5   3  -4  132.02    9.80
  -5  -3   4  149.68   11.55
  -5  -3   3   90.38    8.78
  -5  -3   3  105.58    7.53
   5   3  -3   90.73    7.77
  -5  -3   2   91.78    6.71
   5   3  -2  100.99    7.75
  -5  -3   2   89.24    6.37
   5   3  -2   90.86    4.25
  -5  -3   2  100.19    8.77
  -5  -3   1  429.19   14.60
   5   3  -1  393.40   10.36
   5   3  -1  420.82   15.78
  -5  -3   1  410.18   15.49
   5   3  -1  393.50   13.04
   5   3  -1  391.87    8.64
   5   3  -1  431.18   10.65
  -5  -3   1  431.50   17.33
  -5  -3   0  530.50   16.82
   5   3   0  496.68   16.94
  -5  -3   0  513.70   17.00
   5   3   0  524.71   14.21
  -5  -3   0  530.70   19.26
  -5  -3  -1   18.12    4.02
  -5  -3  -1   20.76    3.90
  -5  -3  -1   22.10    2.08
   5   3   1   18.96    2.03
  -5  -3  -1   25.67    4.33
   5   3   1   24.90    4.01
   5   3   1   21.18    2.52
   5   3   1   26.03    2.44
  -5  -3  -2  339.09   10.09
   5   3   2  350.64   10.36
  -5  -3  -2  395.62   16.45
   5   3   2  352.18   13.05
   5   3   2  349.24   10.01
   5   3   2  353.01    7.60
  -5  -3  -2  351.17   14.96
  -5  -3  -2  344.72   13.45
   5   3   3  258.69    9.58
  -5  -3  -3  290.71    9.68
   5   3   3  249.99   10.67
  -5  -3  -3  247.23    9.26
   5   3   3  263.25    6.42
  -5  -3  -3  268.16    9.44
  -5  -3  -3  277.48   13.30
  -5  -3  -3  279.30   11.93
  -5  -3  -4   58.71    5.65
   5   3   4   63.32    5.12
  -5  -3  -4   57.75    4.37
   5   3   4   60.05    5.14
   5   3   4   58.01    5.78
   5   3   4   62.54    3.89
  -5  -3  -4   59.39    4.49
  -5  -3  -4   64.17    6.83
   5   3   5  234.32   10.47
  -5  -3  -5  222.43    9.31
   5   3   5  230.48   13.90
  -5  -3  -5  233.60   13.80
   5   3   5  228.95    9.59
  -5  -3  -5  234.02   10.08
   5   3   5  240.39    8.22
  -5  -3  -5  237.35    9.63
  -5  -3  -5  229.16   13.17
   5   3   5  237.02   12.19
  -5  -3  -5  222.04   10.84
   5   3   5  237.05   11.24
   5   3   6  305.59   13.02
  -5  -3  -6  313.30   12.04
   5   3   6  317.08   16.53
  -5  -3  -6  285.84   10.46
  -5  -3  -6  353.12   17.55
   5   3   6  329.95   11.26
  -5  -3  -6  311.37   12.21
   5   3   6  343.97   17.20
   5   3   6  325.55   10.57
   5   3   6  312.28   12.22
  -5  -3  -6  328.89   16.55
   5   3   6  300.90   14.25
  -5  -3  -6  329.75   13.43
   5   3   7  161.03    9.91
  -5  -3  -7  148.11    8.79
   5   3   7  144.78   11.50
  -5  -3  -7  127.87   11.20
   5   3   7  162.06   12.20
   5   3   7  159.94    7.86
   5   3   7  164.00    7.91
   5   3   7  156.15   10.58
  -5  -3  -7  153.84    9.20
  -5  -3  -8   45.92    7.73
  -5  -3  -8   36.78    4.94
   5   3   8   45.47    6.05
  -5  -3  -8   43.81    5.62
   5   3   8   49.76    7.54
   5   3   8   44.47    4.12
   5   3   8   50.63    5.03
   5   3   8   42.45    7.05
   5   3   8   50.50    6.64
  -5  -3  -9   22.72    4.35
   5   3   9   32.68    5.73
   5   3   9   20.15    6.28
   5   3   9   22.84    4.03
   5   3   9   23.50    5.38
   5   3   9   25.15    5.58
  -5  -3  -9   19.13    6.21
  -5  -3 -10   65.96    6.46
   5   3  10   58.68    7.85
   5   3  10   60.52    8.98
   5   3  10   62.13    6.44
   5   3  10   65.05    8.23
   5   3  10   58.46    7.80
  -5  -3 -10   56.94    9.32
   5   3  11   -0.11    4.34
  -5  -3 -11    0.43    3.87
   5   3  11    2.23    5.20
   5   3  11   -1.34    3.24
   5   3  11    8.60    5.04
   5   3  11   -0.02    4.37
  -5  -3 -11   -1.03    5.96
  -5  -3 -12    1.04    5.78
   5   4  -7   49.41    7.29
  -5  -4   6   93.97   11.03
   5   4  -6   82.37    8.77
  -5  -4   5   71.96    9.30
  -5  -4   5   75.30    8.16
   5   4  -5   74.65    8.28
  -5  -4   4   76.56    8.97
  -5  -4   4   82.93    8.00
   5   4  -4   78.41    7.97
  -5  -4   3  380.93   16.17
   5   4  -3  354.89   16.03
  -5  -4   3  387.78   18.85
  -5  -4   2    8.62    3.69
  -5  -4   2    9.81    3.70
   5   4  -2    6.28    1.11
   5   4  -2    6.88    3.11
  -5  -4   1   60.46    7.27
  -5  -4   1   58.20    6.36
   5   4  -1   50.26    5.70
   5   4  -1   57.55    3.57
  -5  -4   0  568.24   20.09
   5   4   0  532.81   18.23
   5   4   0  542.84   10.94
  -5  -4   0  578.52   21.54
  -5  -4  -1   26.21    4.73
   5   4   1   24.15    2.24
  -5  -4  -1   19.08    4.23
   5   4   1   25.15    4.18
   5   4   1   19.99    3.02
  -5  -4  -2  185.68    7.46
   5   4   2  162.03    6.76
  -5  -4  -2  196.08   12.69
   5   4   2  172.63    9.30
  -5  -4  -2  167.56   11.32
   5   4   3  274.85    9.89
   5   4   3  293.46   11.88
  -5  -4  -3  262.40    9.94
  -5  -4  -3  299.03   15.22
   5   4   4  217.84    9.55
  -5  -4  -4  243.02    7.91
   5   4   4  208.72    9.83
  -5  -4  -4  235.18    7.88
  -5  -4  -4  256.93   14.35
  -5  -4  -5   42.48    7.24
   5   4   5   30.79    4.18
  -5  -4  -5   38.04    3.64
   5   4   5   44.38    7.23
   5   4   5   34.92    3.97
   5   4   5   43.54    4.53
  -5  -4  -5   39.88    3.44
  -5  -4  -5   31.33    3.45
  -5  -4  -5   32.47    5.88
   5   4   6    2.05    1.37
  -5  -4  -6    4.82    4.18
   5   4   6    0.77    2.68
   5   4   6    2.09    4.29
  -5  -4  -6    1.76    1.81
   5   4   6    5.36    2.32
   5   4   6    4.61    2.12
   5   4   6    4.29    3.64
  -5  -4  -6    3.38    1.58
  -5  -4  -6   -2.69    2.09
   5   4   6    5.89    3.97
  -5  -4  -6   -1.66    4.10
   5   4   7  182.01   13.65
  -5  -4  -7  183.24   14.04
   5   4   7  163.46    7.48
   5   4   7  167.10    6.10
   5   4   7  178.02   13.39
   5   4   7  171.26    8.88
   5   4   7  153.47    9.83
  -5  -4  -8   29.38    6.98
   5   4   8   29.43    5.16
   5   4   8   27.92    6.83
   5   4   8   23.15    4.01
   5   4   8   27.31    5.93
   5   4   8   31.58    5.79
   5   4   9    9.12    4.33
   5   4   9    9.18    5.32
   5   4   9   10.60    3.59
   5   4   9    8.27    4.32
   5   4   9    6.68    4.22
  -5  -4  -9    6.53    4.98
   5   4  10   89.96    9.37
   5   4  10  119.79   12.50
   5   4  10  116.45    9.05
   5   4  10  101.86   10.78
   5   4  10  107.09   10.36
  -5  -4 -10  133.79   13.58
   5   4  11   -1.52    4.71
   5   4  11    3.41    5.72
   5   4  11    5.58    3.71
   5   4  11    4.36    4.44
   5   4  11   -1.11    4.47
  -5  -4 -11    8.21    6.32
   5   4  12    3.03    4.19
  -5  -5   6   81.73    9.42
   5   5  -6   67.95    8.46
  -5  -5   5  133.02   12.75
  -5  -5   5  127.42   11.16
   5   5  -5  117.61   10.45
  -5  -5   4   79.31    9.75
  -5  -5   4   72.12    8.23
   5   5  -4   52.25    7.07
  -5  -5   3  224.74   13.60
   5   5  -3  221.96   13.16
  -5  -5   3  222.40   15.07
  -5  -5   2  122.07   10.08
   5   5  -2  126.24    9.73
  -5  -5   2  122.54   11.22
  -5  -5   1   77.02    8.83
  -5  -5   1   76.48    8.04
   5   5  -1   55.32    6.46
   5   5   0  210.40    5.52
  -5  -5   0  234.08   14.09
   5   5   0  227.17   12.04
  -5  -5   0  225.41   14.34
   5   5   1  280.47    8.33
  -5  -5  -1  287.93   16.05
   5   5   1  269.07   12.92
  -5  -5  -1  297.18   16.27
   5   5   2   69.65    4.54
  -5  -5  -2   81.50    9.02
   5   5   2   63.09    6.19
  -5  -5  -2   85.16    8.95
  -5  -5  -3  340.45   12.21
   5   5   3  345.41   13.82
   5   5   3  316.33   11.20
  -5  -5  -3  347.44   17.95
   5   5   4  122.19    7.32
  -5  -5  -4  127.09    4.79
   5   5   4  113.17    7.76
  -5  -5  -4  122.60    4.77
  -5  -5  -4  118.94   10.85
   5   5   5   34.76    4.64
  -5  -5  -5   23.97    5.74
   5   5   5   33.62    3.13
   5   5   5   33.19    7.24
   5   5   5   33.91    4.17
  -5  -5  -5   31.60    3.08
  -5  -5  -5   39.08    6.96
  -5  -5  -6   75.00    9.18
   5   5   6   58.61    6.18
   5   5   6   61.07    5.27
   5   5   6   53.77    7.96
   5   5   6   62.37    5.93
  -5  -5  -6   65.70    5.12
   5   5   6   61.69    8.38
  -5  -5  -6   50.88    7.71
  -5  -5  -7   34.04    6.85
   5   5   7   38.91    5.38
   5   5   7   32.80    7.14
   5   5   7   36.70    4.04
   5   5   7   30.89    4.50
   5   5   7   36.18    6.85
  -5  -5  -7   46.38    8.09
   5   5   7   24.18    5.38
  -5  -5  -8   19.09    6.76
   5   5   8   25.43    5.47
   5   5   8   18.20    6.32
   5   5   8   20.03    4.15
   5   5   8   29.92    7.27
   5   5   8   19.33    5.29
  -5  -5  -9   -1.94    5.24
   5   5   9   -0.14    3.73
   5   5   9    1.79    4.53
   5   5   9    2.63    3.31
   5   5   9   -4.77    4.98
   5   5   9   -0.05    4.15
   5   5  10    2.27    3.87
   5   5  10    1.85    5.37
   5   5  10    2.60    3.35
   5   5  10    9.77    5.15
   5   5  10    6.43    4.27
  -5  -5 -10   -5.24    5.03
   5   5  11   20.92    5.36
   5   5  11    6.55    5.49
   5   5  11   13.39    5.50
  -5  -5 -11   18.07    6.74
  -5  -6   5   51.02    9.01
  -5  -6   5   42.03    7.48
   5   6  -5   37.09    6.79
  -5  -6   4    4.96    4.44
  -5  -6   4    6.68    4.25
   5   6  -4    8.82    3.93
  -5  -6   3   68.63    9.16
  -5  -6   3   60.26    8.21
   5   6  -3   69.91    8.05
  -5  -6   2  179.16   13.37
   5   6  -2  175.51   12.02
  -5  -6   2  161.74   13.27
  -5  -6   1   84.86   10.29
  -5  -6   1  106.09   10.74
   5   6  -1   92.32    8.62
  -5  -6   0   37.38    6.95
  -5  -6   0   40.25    7.43
   5   6   0   31.60    5.69
   5   6   1  220.20    8.09
  -5  -6  -1  249.29   16.23
   5   6   1  213.57   12.22
  -5  -6  -1  255.21   16.31
   5   6   2   55.98    4.62
  -5  -6  -2   65.56    9.04
   5   6   2   56.42    6.52
  -5  -6  -2   62.20    8.72
   5   6   3    3.03    2.10
  -5  -6  -3    3.00    3.70
   5   6   3    3.40    2.94
  -5  -6  -3    0.23    4.61
   5   6   4  141.47    8.33
   5   6   4  125.46    8.64
  -5  -6  -4  123.35    4.55
  -5  -6  -4  139.82   12.44
   5   6   5   96.78    7.39
  -5  -6  -5  120.56   11.80
   5   6   5  110.98    7.87
   5   6   5  117.16   11.98
   5   6   5  110.92   10.60
  -5  -6  -5  106.13   11.11
  -5  -6  -6    4.24    4.18
   5   6   6   12.30    3.95
   5   6   6    5.77    4.35
   5   6   6    6.93    2.83
   5   6   6   11.66    5.59
  -5  -6  -6    7.88    5.21
  -5  -6  -7   51.73    8.36
   5   6   7   40.45    5.97
   5   6   7   56.62    8.88
   5   6   7   48.23    4.88
   5   6   7   49.40    6.22
   5   6   7   68.23    9.43
  -5  -6  -7   59.24    9.47
   5   6   7   45.27    6.91
  -5  -6  -8   36.71    8.26
   5   6   8   21.56    5.09
   5   6   8   21.70    6.29
   5   6   8   20.63    4.58
   5   6   8   24.49    6.30
   5   6   8   18.91    5.01
  -5  -6  -9   22.60    7.14
   5   6   9   18.11    5.80
   5   6   9   17.91    6.40
   5   6   9   20.59    5.26
   5   6   9   16.93    6.73
   5   6   9   11.66    5.10
  -5  -6 -10    5.85    6.20
   5   6  10   -6.13    4.43
   5   6  10    3.42    4.80
   5   6  10    3.51    3.85
   5   6  10    0.42    4.87
   5   6  10   -3.29    5.00
   5   6  11    5.46    4.57
   5   6  11   12.56    5.48
  -5  -7   4   62.86   10.40
  -5  -7   4   51.78    8.76
   5   7  -4   51.66    8.09
  -5  -7   3    1.61    5.51
  -5  -7   3    0.27    5.22
   5   7  -3    3.78    4.51
  -5  -7   2  174.43   14.70
   5   7  -2  150.84   12.00
  -5  -7   1   79.14   10.20
  -5  -7   1   67.25    9.32
   5   7  -1   67.07    8.11
  -5  -7   0    2.59    5.00
  -5  -7   0   -2.03    4.63
   5   7   0    1.37    3.91
  -5  -7  -1  130.98   12.54
  -5  -7  -1  141.47   13.16
   5   7   1  121.27   10.21
   5   7   2    2.73    2.06
  -5  -7  -2    9.23    4.76
   5   7   2   -1.03    3.77
  -5  -7  -2    0.37    4.69
  -5  -7  -3  110.09   11.45
   5   7   3  102.04    8.84
   5   7   3  101.89    7.26
  -5  -7  -3  120.34   12.14
   5   7   4   70.25    6.49
  -5  -7  -4   60.15    8.99
   5   7   4   69.66    7.36
  -5  -7  -4   62.27    9.29
   5   7   5   14.05    4.01
  -5  -7  -5   18.62    6.81
   5   7   5   20.45    7.19
   5   7   5    6.62    3.47
   5   7   5   12.73    5.15
  -5  -7  -5   17.51    6.09
  -5  -7  -6   95.61   10.92
   5   7   6   78.80    7.84
   5   7   6   79.65   10.38
   5   7   6   75.03    6.91
   5   7   6   77.95   10.30
  -5  -7  -6   69.66    9.68
  -5  -7  -7    6.93    6.18
   5   7   7    2.09    3.44
   5   7   7    0.33    5.01
   5   7   7    0.52    2.49
   5   7   7    3.20    5.02
  -5  -7  -7   -8.14    5.86
   5   7   8    6.83    4.75
  -5  -7  -8    6.02    5.08
   5   7   8    1.39    4.41
   5   7   8    2.95    4.07
   5   7   8   -2.86    4.81
  -5  -7  -8   -2.11    5.94
   5   7   8    7.06    4.86
  -5  -7  -9    1.59    5.35
   5   7   9    3.25    4.02
   5   7   9   -5.50    5.78
   5   7   9    1.45    3.74
   5   7   9   -5.36    5.89
   5   7   9    1.13    4.59
   5   7  10    0.40    4.71
   5   7  10    5.62    4.61
   5   7  10    3.77    4.89
  -5  -8   3   28.85    7.64
  -5  -8   2    5.50    5.65
  -5  -8   2   -5.43    6.15
   5   8  -2    6.59    4.71
  -5  -8   1   51.72    8.83
  -5  -8   1   78.35   10.63
   5   8  -1   77.16    9.49
  -5  -8   0   96.90   11.61
  -5  -8   0  101.37   12.15
   5   8   0  101.77   10.46
  -5  -8  -1    2.11    4.39
  -5  -8  -1   10.33    5.90
   5   8   1    9.87    4.64
   5   8   2  167.11    9.71
  -5  -8  -2  195.06   15.89
   5   8   2  178.97   12.79
  -5  -8  -2  187.24   15.48
   5   8   3   15.37    3.89
  -5  -8  -3   28.33    7.10
   5   8   3   20.80    4.98
  -5  -8  -3   31.22    7.54
   5   8   4    1.86    2.96
  -5  -8  -4    6.69    5.34
   5   8   4   -0.99    3.32
   5   8   4    2.17    4.11
  -5  -8  -4    4.72    5.38
   5   8   5    0.04    3.19
   5   8   5    4.91    4.68
   5   8   5   -0.46    3.45
   5   8   5    2.97    4.71
  -5  -8  -5   -7.10    5.87
   5   8   6    6.73    3.94
  -5  -8  -6   10.69    5.74
   5   8   6    6.01    4.71
   5   8   6   10.06    4.18
   5   8   6   16.51    5.87
  -5  -8  -6    6.31    5.67
  -5  -8  -7   -1.06    5.10
   5   8   7   -0.79    4.02
   5   8   7    8.72    5.57
   5   8   7    1.88    3.03
   5   8   7    2.25    5.49
  -5  -8  -7   -1.41    5.89
  -5  -8  -8    7.89    5.82
   5   8   8   11.03    5.05
   5   8   8    2.17    4.75
   5   8   8    4.98    5.52
   5   8   8   -6.92    4.64
   5   8   8    1.81    4.98
  -5  -8  -8   -4.19    5.26
   5   8   9   10.69    5.46
   5   8   9   23.64    7.42
   5   8   9   17.18    6.17
   5   8   9   21.98    6.81
   5   8  10   -0.02    6.06
  -5  -9   1    3.35    5.18
  -5  -9   0   54.22    9.98
  -5  -9   0   39.98    8.49
  -5  -9  -1   13.55    6.98
  -5  -9  -1    7.52    6.68
   5   9   1   14.92    6.26
  -5  -9  -2    2.29    5.39
  -5  -9  -2    2.91    5.20
   5   9   2    2.64    3.89
  -5  -9  -3   52.82    9.57
   5   9   3   52.74    8.04
   5   9   3   27.59    6.90
  -5  -9  -3   41.43    8.76
   5   9   4    2.32    3.36
  -5  -9  -4    0.53    4.66
   5   9   4    3.16    4.49
   5   9   4   11.58    5.45
  -5  -9  -4    6.34    5.29
   5   9   5    1.42    3.50
  -5  -9  -5   -3.91    6.45
   5   9   5    4.75    5.92
   5   9   5    2.95    4.02
   5   9   5    3.21    4.89
  -5  -9  -5    5.10    5.31
   5   9   6   31.07    6.35
   5   9   6   27.71    7.25
   5   9   6   17.42    5.15
   5   9   6   13.91    5.71
  -5  -9  -6   35.29    8.77
   5   9   7    3.39    4.70
   5   9   7    8.24    5.96
   5   9   8    4.77    4.99
   5   9   9   -8.27    6.34
   5  10   2    3.25    4.55
   5  10   4   11.95    5.45
   5  10   5   -1.04    4.13
   5  10   5    6.31    4.66
   5  10   5    7.51    5.18
   5  10   6   -4.41    4.39
   5  10   6    4.24    4.94
  -6   6   3    0.74    4.00
  -6   6   3    4.17    6.49
  -6   6   2    7.04    4.15
  -6   6   1    7.96    4.86
  -6   6   0   10.25    5.53
  -6   6  -3   20.98    5.58
  -6   6  -4    8.35    4.60
  -6   5   4   26.10    7.26
  -6   5   4   12.69    5.65
   6  -5  -3   31.42    7.31
  -6   5   3   22.51    5.36
  -6   5   3   30.47    7.18
  -6   5   3   27.29    6.51
   6  -5  -3   10.88    6.47
  -6   5   2    5.14    4.04
   6  -5  -2    8.47    4.71
  -6   5   2    6.01    4.46
   6  -5  -2    1.26    5.94
   6  -5  -2   -8.25    5.41
  -6   5   1   92.08    9.52
   6  -5  -1   81.23   11.43
   6  -5  -1   75.66   10.88
   6  -5  -1   94.08   10.70
  -6   5   0   21.35    6.01
   6  -5   0   18.78    6.37
   6  -5   0   30.94    7.95
   6  -5   0   25.18    7.22
  -6   5  -1   -2.64    3.67
   6  -5   1   -2.35    6.10
   6  -5   1    3.60    4.61
   6  -5   1   -6.17    5.21
  -6   5  -2   54.84    8.18
  -6   5  -2   51.29    7.25
   6  -5   2   46.21    8.24
   6  -5   2   58.56   10.06
   6  -5   2   64.54   10.26
  -6   5  -3   54.58    8.22
   6  -5   3   52.05    9.01
  -6   5  -3   50.21    7.07
   6  -5   3   54.03    9.27
   6  -5   3   57.20   10.23
  -6   5  -4    9.69    5.81
   6  -5   4   13.57    7.18
  -6   5  -4   10.43    5.14
   6  -5   4    7.92    6.09
   6  -5   4   12.65    6.72
   6  -5   4    8.22    4.10
  -6   5  -5   27.53    6.47
   6  -5   5   25.32    5.72
   6  -5   6  106.72   10.86
   6  -4  -6   -3.73    3.90
  -6   4   5   -1.31    4.17
   6  -4  -5    7.89    4.18
  -6   4   4    5.19    4.39
   6  -4  -4    9.41    3.79
  -6   4   4   -1.73    4.12
   6  -4  -4   12.78    7.01
  -6   4   3    7.18    3.83
  -6   4   3    5.49    4.95
   6  -4  -3    8.25    3.49
  -6   4   3    2.85    4.36
   6  -4  -3   13.40    6.41
  -6   4   2   31.43    5.75
  -6   4   2   30.62    5.95
   6  -4  -2   28.71    7.54
   6  -4  -2   23.30    6.78
   6  -4  -2   32.02    6.74
  -6   4   1    6.04    3.73
   6  -4  -1    3.02    5.47
   6  -4  -1   -1.78    5.96
   6  -4  -1    5.66    5.73
   6  -4   0  174.00   13.77
   6  -4   0  143.51   14.04
   6  -4   0  158.65   14.12
  -6   4   0  147.86   11.14
  -6   4  -1   53.40    7.20
   6  -4   1   50.74    8.71
  -6   4  -1   55.57    6.38
   6  -4   1   57.66    9.26
   6  -4   1   62.28    9.28
   6  -4   1   56.67    5.55
   6  -4   2   13.46    5.55
  -6   4  -2   12.01    4.81
  -6   4  -2    6.99    3.52
   6  -4   2   21.48    6.45
   6  -4   2   18.34    6.31
   6  -4   2   19.63    4.30
  -6   4  -3  192.23   12.61
   6  -4   3  220.99   17.03
   6  -4   3  175.93   14.75
   6  -4   3  203.37   11.74
   6  -4   3  193.42   15.22
  -6   4  -3  205.65   13.69
  -6   4  -4   84.50    9.32
   6  -4   4   78.76   10.56
  -6   4  -4   69.10    8.14
   6  -4   4   64.90    9.67
   6  -4   4   78.06   11.08
   6  -4   4   61.26    7.24
  -6   4  -5   -0.60    4.39
   6  -4   5    8.42    5.71
  -6   4  -5   -0.13    3.87
   6  -4   5   -1.28    5.90
   6  -4   5    7.06    6.24
   6  -4   5    1.18    3.69
  -6   4  -6   40.57    7.22
  -6   4  -6   40.38    8.47
  -6   4  -6   32.29    6.73
   6  -4   6   46.09    8.17
   6  -4   6   39.20    8.71
   6  -4   6   37.98    6.95
   6  -4   6   40.18    8.69
   6  -4   7  122.19   11.72
   6  -3  -6   22.15    6.02
   6  -3  -5    3.52    3.57
  -6   3   5    5.98    5.35
  -6   3   4    3.12    2.58
  -6   3   4    9.36    4.12
   6  -3  -4    0.69    3.22
  -6   3   4    0.14    3.69
   6  -3  -4   -7.54    6.54
  -6   3   3   46.24    6.03
  -6   3   3   60.99    7.73
   6  -3  -3   41.24    5.45
  -6   3   3   33.12    6.20
   6  -3  -3   49.87    8.67
  -6   3   2   17.76    4.28
   6  -3  -2   16.88    3.63
  -6   3   2   12.83    4.27
   6  -3  -2    7.64    4.42
  -6   3   1   -1.03    3.24
   6  -3  -1    1.85    2.06
   6  -3  -1    3.27    4.67
   6  -3  -1    2.95    4.69
   6  -3   0  113.36   11.07
   6  -3   0  116.68   12.35
   6  -3   0  114.88   11.41
   6  -3   0  116.24    6.74
   6  -3   0  119.58    6.75
  -6   3   0  114.20    9.40
   6  -3   1  143.20   12.29
   6  -3   1  158.31   14.18
  -6   3  -1  148.44    8.94
   6  -3   1  140.56   12.30
   6  -3   1  162.67    8.69
  -6   3  -1  134.21   10.29
  -6   3  -2   24.10    5.47
   6  -3   2   25.86    3.45
  -6   3  -2   27.32    4.53
   6  -3   2   19.05    5.74
   6  -3   2   33.83    7.46
   6  -3   2   21.96    6.01
   6  -3   2   24.58    4.07
   6  -3   3   53.46    7.89
  -6   3  -3   40.17    6.33
   6  -3   3   47.05    4.49
  -6   3  -3   44.59    5.85
   6  -3   3   46.50    8.11
   6  -3   3   50.03    7.90
   6  -3   3   50.15    5.90
   6  -3   4  199.43   10.02
  -6   3  -4  193.18   11.90
   6  -3   4  184.82   14.80
   6  -3   4  186.64   14.07
   6  -3   4  175.93   11.18
   6  -3   4  180.73   14.41
  -6   3  -4  196.18   12.86
  -6   3  -5   29.87    6.02
   6  -3   5   42.90    5.33
   6  -3   5   45.44    8.23
  -6   3  -5   41.42    7.99
  -6   3  -5   59.26    7.23
   6  -3   5   38.98    7.27
   6  -3   5   44.85    7.57
   6  -3   5   35.94    5.80
   6  -3   6   15.31    6.73
  -6   3  -6   12.10    5.04
   6  -3   6    8.96    3.89
  -6   3  -6    3.74    4.99
  -6   3  -6    6.88    4.36
   6  -3   6    9.28    4.62
   6  -3   6    4.29    5.22
   6  -3   6    3.35    3.48
   6  -3   7  122.48    9.73
  -6   3  -7  115.62   12.57
  -6   3  -7  134.21   11.72
   6  -3   7  115.81   11.48
   6  -3   7  113.05   10.71
   6  -3   7  113.22   11.78
   6  -3   7  132.30   13.41
  -6   3  -7  129.21   11.36
  -6   3  -8   33.78    6.92
   6  -3   8   32.35    5.94
   6  -3   8   30.30    7.36
   6  -3   9    4.65    4.51
   6  -2  -6   23.80    6.21
   6  -2  -5   11.12    4.14
  -6   2   5   15.45    6.13
  -6   2   5   18.70    4.42
  -6   2   4   24.26    4.23
   6  -2  -4   22.82    5.00
  -6   2   4   29.35    6.45
  -6   2   4   19.53    4.01
  -6   2   3  108.31    8.70
  -6   2   3  113.02   10.25
  -6   2   3  105.04    7.08
   6  -2  -3   82.08   10.26
  -6   2   3  110.44    8.72
   6  -2  -3  114.30    8.98
  -6   2   3  105.65    8.07
  -6   2   2   81.49    5.60
   6  -2  -2   67.99    9.33
  -6   2   2   84.45    7.20
   6  -2  -2   87.62    7.36
  -6   2   2   83.36    7.22
   6  -2  -1   91.44   10.03
   6  -2  -1  105.11    5.78
  -6   2   1   89.92    6.94
   6  -2  -1  110.98    7.50
  -6   2   1   92.80    7.86
  -6   2   0    7.00    3.17
  -6   2   0    5.80    2.46
   6  -2   0   -0.64    1.99
   6  -2   0    6.52    2.61
  -6   2   0    0.15    1.61
   6  -2   0   -2.01    5.16
   6  -2   0    5.08    2.41
   6  -2   1  236.70   14.89
   6  -2   1  226.55   10.30
   6  -2   1  229.10   16.09
  -6   2  -1  244.23   10.32
   6  -2   1  215.50   14.25
   6  -2   1  230.66   10.26
  -6   2  -1  225.20    8.85
  -6   2  -1  203.18   11.85
   6  -2   2  279.89   16.38
   6  -2   2  302.69   12.14
  -6   2  -2  294.42   12.37
   6  -2   2  324.84   18.60
   6  -2   2  290.94   16.07
   6  -2   2  307.94   12.79
  -6   2  -2  292.26    8.95
  -6   2  -2  294.65   14.42
  -6   2  -3    3.08    3.57
   6  -2   3   -5.95    2.75
   6  -2   3   -0.13    3.96
  -6   2  -3    3.64    2.61
   6  -2   3   -3.65    4.37
   6  -2   3    2.80    4.02
   6  -2   3   -2.14    2.59
   6  -2   4  373.95   14.47
   6  -2   4  326.81   18.38
   6  -2   4  340.34   17.33
   6  -2   4  375.26   15.80
   6  -2   4  364.95   19.76
  -6   2  -4  342.09   16.28
   6  -2   5  201.28   11.05
  -6   2  -5  164.31   13.41
   6  -2   5  199.60   13.91
   6  -2   5  199.44   13.32
   6  -2   5  162.43   13.84
   6  -2   5  191.07   11.78
  -6   2  -5  205.88   12.75
  -6   2  -6    7.51    4.19
   6  -2   6    1.53    4.52
   6  -2   6    3.18    3.42
  -6   2  -6    0.28    4.70
   6  -2   6   -1.36    4.10
   6  -2   6   -3.13    4.16
   6  -2   6   -3.57    4.18
  -6   2  -7   24.76    5.57
   6  -2   7   31.23    5.76
  -6   2  -7   39.08    7.37
   6  -2   7   43.22    7.40
   6  -2   7   30.34    6.67
   6  -2   7   33.30    6.48
   6  -2   7   22.83    6.62
  -6   2  -8  104.35    9.90
   6  -2   8  103.28    9.73
  -6   2  -8   97.85   11.23
   6  -2   8  119.20   11.28
   6  -2   8  105.36   12.32
   6  -2   8  139.05   12.03
   6  -2   8  103.66   11.10
  -6   2  -9   19.74    5.88
   6  -2   9   29.20    6.26
   6  -2   9   22.27    6.96
   6  -2   9   32.14    7.20
  -6   1   7   15.63    5.00
  -6   1   6   -5.67    4.20
   6  -1  -6   -2.68    4.55
  -6   1   6    4.72    4.09
  -6   1   5   37.96    6.58
   6  -1  -5   41.35    6.97
  -6   1   5   43.97    5.80
  -6   1   4   42.93    4.97
  -6   1   4   37.69    6.16
   6  -1  -4   33.48    5.92
  -6   1   4   40.16    5.13
  -6   1   3    9.93    3.41
  -6   1   3   15.63    4.07
  -6   1   3    5.23    2.45
   6  -1  -3   11.49    4.25
  -6   1   3   11.30    2.91
  -6   1   2  100.49    6.09
   6  -1  -2   94.42    9.79
   6  -1  -2  113.12    5.81
  -6   1   2  100.08    7.99
  -6   1   2   94.26    7.37
  -6   1   1  218.42    7.74
   6  -1  -1  224.33   14.15
   6  -1  -1  210.54    8.77
  -6   1   1  227.48   11.07
  -6   1   1  218.64   11.32
  -6   1   0    4.47    2.98
  -6   1   0    7.35    2.79
  -6   1   0    9.62    1.99
  -6   1   0    7.47    1.17
   6  -1   0   -0.44    4.01
   6  -1   0    8.72    4.06
   6  -1   0    8.83    2.44
  -6   1  -1   19.38    4.33
  -6   1  -1   17.99    3.01
   6  -1   1   18.87    5.65
   6  -1   1   15.37    4.24
   6  -1   1   15.60    3.31
   6  -1   2  444.17   19.94
   6  -1   2  476.22   16.78
   6  -1   2  473.90   18.31
   6  -1   2  482.53   21.49
   6  -1   2  460.33   18.54
   6  -1   2  477.08   17.18
   6  -1   2  467.30   15.79
  -6   1  -2  445.83   13.16
  -6   1  -2  427.22   17.09
   6  -1   3  123.40   10.62
   6  -1   3  109.64    7.98
   6  -1   3  115.70    8.13
   6  -1   3  111.11    9.89
   6  -1   3  113.91    8.99
   6  -1   3  114.05    8.05
  -6   1  -3  107.64    5.46
  -6   1  -3  114.73    8.79
  -6   1  -4    1.35    1.36
  -6   1  -4    2.39    3.31
   6  -1   4   -2.38    3.83
   6  -1   4    1.32    2.35
  -6   1  -4   -5.02    4.60
   6  -1   4   -1.37    3.24
   6  -1   4    3.17    3.75
   6  -1   4   -0.81    2.67
   6  -1   5  459.14   17.63
  -6   1  -5  419.70   20.04
   6  -1   5  416.39   18.55
   6  -1   5  425.41   18.01
   6  -1   5  449.98   18.00
   6  -1   5  462.14   22.10
  -6   1  -5  444.48   18.11
   6  -1   6  287.69   14.32
  -6   1  -6  288.73   16.60
   6  -1   6  268.37   14.90
   6  -1   6  270.97   14.49
   6  -1   6  293.98   18.09
   6  -1   6  293.83   15.02
  -6   1  -6  300.44   14.89
   6  -1   7    2.62    4.36
  -6   1  -7    3.54    3.20
   6  -1   7    0.09    3.99
   6  -1   7    8.81    4.15
  -6   1  -7   11.52    4.84
   6  -1   7    5.36    4.02
   6  -1   7    3.60    3.74
   6  -1   7    8.46    4.18
   6  -1   8   82.14    9.36
   6  -1   8   87.94    8.96
  -6   1  -8  109.63   10.73
   6  -1   8   88.10    9.05
   6  -1   8   71.87    9.53
   6  -1   8   95.33    9.47
   6  -1   8   97.88    9.99
  -6   1  -8   90.70    8.71
  -6   1  -9   57.69    7.40
   6  -1   9   73.19    9.03
   6  -1   9   64.34    8.55
  -6   1  -9   73.07    9.59
   6  -1   9   58.48    8.81
   6  -1   9   79.60    9.24
   6  -1   9   79.18    9.49
   6  -1   9   61.49    8.27
  -6   1 -10   -0.04    3.48
   6  -1  10   -0.43    4.77
  -6   0   7   21.49    5.51
  -6   0   6    3.88    4.95
   6   0  -6    4.26    4.46
  -6   0   6    5.50    3.89
  -6   0   5   26.78    6.38
   6   0  -5   39.45    6.89
   6   0  -5   26.46    5.61
  -6   0   5   29.63    5.16
  -6   0   4   69.65    7.96
   6   0  -4   87.16    8.47
   6   0  -4   83.32    8.59
  -6   0   4   76.95    6.75
  -6   0   4   77.28    6.41
  -6   0   3   22.82    4.16
  -6   0   3   15.66    4.38
   6   0  -3   22.90    4.78
  -6   0   3   24.58    3.87
  -6   0   2    1.98    2.52
  -6   0   2    9.56    3.58
  -6   0   2    1.61    1.60
   6   0  -2    4.86    3.52
  -6   0   2    5.76    2.15
   6   0  -2   -0.86    3.87
   6   0  -1  204.90   11.77
  -6   0   1  227.30    8.14
   6   0  -1  219.94   13.09
  -6   0   1  229.29   11.61
   6   0  -1  250.39   10.06
  -6   0   1  232.32   11.41
  -6   0   0  204.81    8.49
   6   0   0  194.65   11.26
   6   0   0  212.63   11.95
  -6   0   0  201.55   10.19
   6   0   0  215.24    9.60
  -6   0   0  194.57   10.55
  -6   0  -1    8.84    2.68
  -6   0  -1    7.68    3.22
   6   0   1    6.42    3.77
   6   0   1   14.80    3.81
   6   0   1   10.12    3.25
   6   0   2  201.13   12.48
   6   0   2  200.11   10.53
  -6   0  -2  208.59    9.25
   6   0   2  198.53   10.09
  -6   0  -2  193.57   10.75
   6   0   3  425.76   18.80
  -6   0  -3  383.42    8.53
   6   0   3  431.39   16.88
   6   0   3  439.07   17.46
   6   0   3  397.76   15.15
  -6   0  -3  436.33   13.49
   6   0   3  437.26   15.84
  -6   0  -3  421.61   16.40
  -6   0  -4   67.02    6.81
  -6   0  -4   77.94    4.15
   6   0   4   74.71    7.25
  -6   0  -4   69.23    7.95
   6   0   4   73.87    7.14
   6   0   4   67.29    7.95
   6   0   4   74.86    6.58
  -6   0  -4   78.66    5.43
   6   0   4   70.07    6.79
  -6   0  -5   59.65    6.63
   6   0   5   67.39    6.90
   6   0   5   68.35    7.18
  -6   0  -5   64.38    7.55
   6   0   5   64.01    6.36
  -6   0  -5   70.81    5.07
   6   0   5   61.99    6.60
   6   0   5   56.75    6.55
   6   0   5   61.67    8.16
   6   0   6  281.81   14.45
   6   0   6  272.37   14.37
  -6   0  -6  304.86   15.84
   6   0   6  316.40   14.13
   6   0   6  302.40   14.35
   6   0   6  286.66   13.92
   6   0   6  295.85   17.46
  -6   0  -6  311.40   11.17
   6   0   6  302.35   15.10
  -6   0  -6  288.60   14.07
   6   0   7   43.02    6.86
  -6   0  -7   59.61    6.82
   6   0   7   53.11    6.74
   6   0   7   51.05    6.81
  -6   0  -7   47.57    6.77
   6   0   7   50.39    5.20
   6   0   7   53.87    6.64
   6   0   7   49.28    6.55
   6   0   7   50.23    6.81
  -6   0  -8   21.26    5.26
   6   0   8   18.12    4.72
   6   0   8   18.17    5.33
  -6   0  -8    9.70    4.09
   6   0   8   14.28    4.69
   6   0   8   15.04    5.75
   6   0   8   22.30    5.50
   6   0   8   17.61    5.09
  -6   0  -9   75.62    7.90
   6   0   9   83.19    8.92
   6   0   9   83.20    9.61
  -6   0  -9   77.13    9.33
   6   0   9   77.77    9.30
   6   0   9   69.91    8.94
  -6   0 -10   50.40    6.94
   6   0  10   47.90    7.88
  -6   0 -10   55.55    8.25
   6   0  10   54.95    8.42
   6   1  -7   37.36    6.61
  -6  -1   7   41.82    7.15
  -6  -1   6   11.72    5.61
   6   1  -6   14.96    5.17
   6   1  -6   21.80    5.47
  -6  -1   6   15.05    4.82
  -6  -1   5   -3.40    3.92
   6   1  -5   -3.29    4.52
   6   1  -5   -3.13    3.21
  -6  -1   5   -3.92    3.54
  -6  -1   4   38.52    6.56
   6   1  -4   36.78    5.60
  -6  -1   4   41.02    5.44
   6   1  -3  170.46   11.11
  -6  -1   3  184.37    9.70
  -6  -1   3  176.81   11.92
  -6  -1   3  177.18    9.86
  -6  -1   2   19.49    4.01
  -6  -1   2   18.03    4.25
   6   1  -2   13.66    4.07
  -6  -1   2   21.31    3.22
   6   1  -2   15.11    3.69
  -6  -1   1   47.24    5.56
  -6  -1   1   52.19    5.98
   6   1  -1   50.85    5.96
   6   1  -1   48.84    3.75
   6   1  -1   44.35    5.47
  -6  -1   0  866.82   18.32
  -6  -1   0  888.37   16.04
   6   1   0  834.58   23.04
   6   1   0  871.71   25.23
   6   1   0  890.50   23.67
  -6  -1   0  920.06   25.02
  -6  -1   0  893.26   24.44
  -6  -1  -1   41.15    4.92
  -6  -1  -1   43.43    5.17
  -6  -1  -1   46.01    3.79
   6   1   1   48.06    4.62
  -6  -1  -1   45.43    2.47
   6   1   1   47.66    5.82
   6   1   1   49.36    6.43
   6   1   1   50.46    4.80
  -6  -1  -2    7.23    2.73
  -6  -1  -2    5.27    3.38
  -6  -1  -2    3.22    1.37
   6   1   2    3.34    1.93
   6   1   2    0.70    2.45
   6   1   2    6.95    3.17
   6   1   2    5.00    2.47
   6   1   2    4.70    3.17
   6   1   3  778.24   21.50
   6   1   3  739.64   25.21
   6   1   3  773.79   22.56
   6   1   3  772.55   21.70
   6   1   3  785.27   20.23
  -6  -1  -3  816.98   21.82
   6   1   3  775.48   22.70
  -6  -1  -3  770.30   22.92
  -6  -1  -4   60.43    5.44
  -6  -1  -4   53.25    5.88
   6   1   4   54.99    7.25
   6   1   4   53.14    5.60
   6   1   4   50.95    6.50
  -6  -1  -4   57.23    6.81
   6   1   4   60.00    5.29
   6   1   4   52.65    5.21
   6   1   4   60.32    6.34
  -6  -1  -5   15.55    4.06
   6   1   5    5.15    2.94
   6   1   5    9.10    3.95
   6   1   5   12.96    4.35
  -6  -1  -5    9.58    3.81
   6   1   5   11.45    3.16
   6   1   5   12.10    3.18
   6   1   5   16.80    4.25
  -6  -1  -5   13.62    3.20
   6   1   6  271.94   13.53
  -6  -1  -6  277.33   13.95
   6   1   6  261.00   14.42
   6   1   6  247.32   11.83
   6   1   6  273.32   12.44
  -6  -1  -6  278.77   12.28
   6   1   6  255.35   15.65
   6   1   6  271.62   14.16
  -6  -1  -6  266.76   13.26
   6   1   7  226.30   12.77
  -6  -1  -7  245.94   13.59
   6   1   7  231.28   14.11
  -6  -1  -7  233.47   12.91
   6   1   7  259.25   13.72
   6   1   7  226.10   11.81
   6   1   7  221.66   11.83
   6   1   7  210.89   13.99
  -6  -1  -7  255.68   12.24
   6   1   7  245.69   14.10
  -6  -1  -7  230.42   12.51
  -6  -1  -8   19.43    4.41
  -6  -1  -8   26.69    5.38
   6   1   8   26.92    5.35
   6   1   8   25.90    5.84
  -6  -1  -8   20.42    4.63
   6   1   8   37.35    5.40
   6   1   8   27.08    5.81
   6   1   8   27.24    6.22
  -6  -1  -8   23.63    4.36
  -6  -1  -9   54.24    6.90
  -6  -1  -9   57.30    7.66
   6   1   9   58.08    7.57
   6   1   9   70.35    8.80
  -6  -1  -9   77.05    8.64
   6   1   9   62.14    7.64
   6   1   9   59.60    8.34
  -6  -1 -10   54.43    6.86
   6   1  10   46.70    7.54
   6   1  10   52.02    8.19
  -6  -1 -10   55.05    7.99
   6   1  10   46.44    8.17
   6   2  -7    5.77    4.44
  -6  -2   7   12.01    5.16
  -6  -2   6   44.24    8.14
   6   2  -6   40.75    7.49
   6   2  -6   47.75    7.25
  -6  -2   6   37.42    6.14
  -6  -2   5   19.65    5.86
   6   2  -5   20.52    5.06
  -6  -2   5   13.43    4.35
  -6  -2   4   48.10    7.27
   6   2  -4   67.99    7.64
  -6  -2   4   68.36    7.10
  -6  -2   3   82.28    8.68
   6   2  -3   68.18    7.47
  -6  -2   2  116.66    6.62
   6   2  -2   93.05    8.12
   6   2  -2  102.05    7.72
  -6  -2   2  114.45    9.58
  -6  -2   2  120.88    8.30
  -6  -2   1    5.71    3.14
  -6  -2   1    4.64    3.67
  -6  -2   1    2.42    1.87
   6   2  -1    7.15    3.32
   6   2  -1    1.36    1.45
   6   2  -1    3.72    2.31
  -6  -2   0    7.55    3.29
  -6  -2   0    3.24    2.47
  -6  -2   0    8.77    1.31
  -6  -2   0    4.68    1.64
   6   2   0    4.30    1.51
   6   2   0    1.79    2.93
   6   2   0    4.43    1.52
   6   2   0    0.13    1.96
  -6  -2  -1  741.71   16.13
   6   2   1  735.55   16.79
  -6  -2  -1  766.62   17.88
   6   2   1  750.25   22.38
   6   2   1  699.95   13.84
   6   2   1  754.26   16.92
  -6  -2  -1  757.01   22.88
  -6  -2  -1  731.37   21.94
  -6  -2  -2   46.95    5.68
  -6  -2  -2   46.38    5.56
  -6  -2  -2   39.33    3.56
   6   2   2   46.82    4.17
  -6  -2  -2   54.74    4.84
   6   2   2   38.20    4.94
   6   2   2   44.45    3.62
   6   2   2   45.61    4.33
   6   2   3  144.59    7.86
   6   2   3  140.68    8.82
   6   2   3  145.44    7.13
   6   2   3  147.76    6.73
  -6  -2  -3  131.98    8.80
   6   2   3  141.41    9.43
  -6  -2  -3  135.42    8.87
   6   2   4  512.91   16.63
   6   2   4  513.27   20.00
   6   2   4  543.28   21.90
  -6  -2  -4  568.37   19.03
   6   2   4  505.00   17.25
   6   2   4  530.36   14.88
   6   2   4  516.84   14.68
  -6  -2  -4  517.71   18.72
  -6  -2  -4  557.92   18.68
   6   2   4  567.00   19.52
  -6  -2  -4  514.75   18.33
   6   2   5  205.90   13.01
   6   2   5  194.74   10.41
  -6  -2  -5  220.49   11.32
   6   2   5  191.67   12.82
   6   2   5  198.98   10.27
   6   2   5  206.68    9.01
   6   2   5  214.93    9.36
  -6  -2  -5  200.89   11.11
   6   2   5  222.61   12.29
  -6  -2  -5  210.34   11.44
  -6  -2  -6   40.82    5.33
   6   2   6   38.80    5.20
   6   2   6   28.67    5.77
  -6  -2  -6   30.45    4.60
   6   2   6   39.26    2.50
   6   2   6   36.38    5.92
   6   2   6   34.07    4.11
   6   2   6   50.32    6.36
  -6  -2  -6   43.99    5.76
   6   2   7   94.44    8.01
  -6  -2  -7   91.98    7.88
   6   2   7   93.57    9.39
  -6  -2  -7  105.13    9.65
   6   2   7  107.47    9.97
   6   2   7  104.56    8.98
  -6  -2  -7  105.21    8.80
   6   2   7  102.14    9.05
  -6  -2  -7   97.65    8.06
   6   2   8  204.47   12.57
  -6  -2  -8  193.27   11.92
   6   2   8  200.77   14.00
  -6  -2  -8  186.58   13.38
   6   2   8  205.70   13.26
   6   2   8  186.55   11.46
  -6  -2  -8  205.03   12.85
   6   2   8  193.84   13.11
  -6  -2  -8  176.17   10.99
  -6  -2  -9    6.30    3.42
  -6  -2  -9   11.40    5.27
   6   2   9   10.69    4.55
   6   2   9   10.22    4.55
  -6  -2  -9    8.28    4.04
   6   2   9   10.45    4.15
   6   2   9   10.87    4.44
  -6  -2  -9    2.85    4.26
  -6  -2 -10   22.68    6.56
  -6  -2 -10   20.59    4.53
   6   2  10   18.89    4.99
   6   2  10   15.51    5.48
  -6  -2 -10   16.55    4.89
   6   2  10   17.95    6.10
  -6  -2 -11   65.13    9.83
  -6  -2 -11   49.78    7.77
   6   3  -6   43.26    7.03
  -6  -3   5  101.60   11.07
   6   3  -5   81.72    8.94
  -6  -3   4    8.73    4.64
   6   3  -4    2.48    3.27
  -6  -3   3   56.38    7.78
  -6  -3   3   67.96    6.24
   6   3  -3   58.96    7.04
  -6  -3   2  187.15    9.58
   6   3  -2  175.29   11.27
  -6  -3   2  174.76   12.20
  -6  -3   1   56.76    7.10
  -6  -3   1   67.10    5.77
   6   3  -1   55.53    6.51
  -6  -3   0  128.31    7.68
   6   3   0  122.72    8.84
  -6  -3   0  125.43    8.42
   6   3   0  127.01    6.32
   6   3   0  119.98    3.85
  -6  -3   0  137.53   10.07
  -6  -3   0  124.89    8.83
  -6  -3  -1  152.75    5.57
  -6  -3  -1  162.22    8.89
   6   3   1  155.12    9.57
   6   3   1  159.48    7.09
   6   3   1  154.44    6.25
   6   3   1  131.55    3.80
  -6  -3  -1  157.44   10.73
  -6  -3  -1  147.80    9.51
  -6  -3  -2  286.10    9.41
   6   3   2  286.14    9.87
  -6  -3  -2  333.10   14.14
   6   3   2  291.80   13.07
   6   3   2  288.05    8.26
   6   3   2  287.72    8.13
   6   3   2  277.85    6.81
  -6  -3  -2  287.91   14.31
  -6  -3  -2  282.69   13.15
  -6  -3  -3    1.54    3.00
  -6  -3  -3   -0.25    2.97
  -6  -3  -3    4.73    1.86
   6   3   3    8.76    2.41
  -6  -3  -3   -1.99    3.46
   6   3   3    2.74    2.73
   6   3   3    3.59    1.09
   6   3   3    3.98    1.23
   6   3   4  109.45    7.10
  -6  -3  -4  121.94    7.75
   6   3   4  122.23    8.03
   6   3   4  113.33    4.50
   6   3   4  112.80    4.29
   6   3   4  116.85    5.03
  -6  -3  -4  127.19    7.95
  -6  -3  -4  106.73    8.89
  -6  -3  -4  106.67    8.14
   6   3   5  364.40   16.45
   6   3   5  361.41   14.11
  -6  -3  -5  394.52   14.19
   6   3   5  369.60   19.08
   6   3   5  365.55   14.04
   6   3   5  383.36    9.46
  -6  -3  -5  373.53   14.05
  -6  -3  -5  385.15   17.29
   6   3   5  392.17   16.81
  -6  -3  -5  364.61   15.48
  -6  -3  -6    3.64    2.99
   6   3   6   11.16    3.68
  -6  -3  -6   13.07    4.87
  -6  -3  -6    3.49    2.29
   6   3   6    4.61    4.24
   6   3   6    4.80    2.71
   6   3   6    6.37    1.64
   6   3   6    6.84    3.39
   6   3   6   10.17    3.93
  -6  -3  -6    6.40    3.59
  -6  -3  -7   28.88    5.01
   6   3   7   24.46    4.47
  -6  -3  -7   27.29    6.18
   6   3   7   24.99    4.83
  -6  -3  -7   26.11    4.42
   6   3   7   19.15    5.24
   6   3   7   26.97    3.00
   6   3   7   36.43    6.88
   6   3   7   29.11    5.73
  -6  -3  -7   24.78    5.11
  -6  -3  -8   83.58    7.55
  -6  -3  -8   91.51   10.14
   6   3   8   96.47    8.42
  -6  -3  -8   78.88    7.52
   6   3   8  120.42   11.65
   6   3   8   86.40    5.75
   6   3   8   78.36    9.43
   6   3   8   81.38    8.65
  -6  -3  -8   94.27    9.96
  -6  -3  -9   38.31    6.00
   6   3   9   39.29    6.48
  -6  -3  -9   36.93    5.78
   6   3   9   29.76    6.76
  -6  -3  -9   25.72    6.80
   6   3   9   29.69    6.28
   6   3   9   37.38    6.52
  -6  -3  -9   37.16    7.04
  -6  -3 -10    5.07    5.67
  -6  -3 -10    1.29    2.99
   6   3  10    4.08    3.65
  -6  -3 -10    3.20    4.00
   6   3  10    0.90    4.95
   6   3  10    0.15    3.48
   6   3  10   -2.86    4.35
  -6  -3 -11   44.47    8.65
  -6  -3 -11   38.32    6.57
   6   4  -6   -3.34    3.95
  -6  -4   5   48.63    8.42
   6   4  -5   40.26    6.80
  -6  -4   4   77.23    9.61
  -6  -4   4   87.18    8.26
   6   4  -4   81.98    9.07
  -6  -4   3   -1.46    2.71
   6   4  -3    7.80    4.26
  -6  -4   3    4.38    4.98
  -6  -4   2  148.72    9.74
   6   4  -2  141.79   10.71
  -6  -4   2  142.35   11.88
  -6  -4   1  224.40   11.90
   6   4  -1  217.04   12.42
  -6  -4   1  208.74   13.56
  -6  -4   0   10.96    3.02
   6   4   0   10.94    3.76
  -6  -4  -1   19.41    5.09
   6   4   1   14.78    1.81
  -6  -4  -1   14.53    4.27
   6   4   1   11.05    3.51
   6   4   1   13.83    2.60
  -6  -4  -2  362.59   11.16
   6   4   2  373.12   11.13
  -6  -4  -2  408.32   18.01
   6   4   2  369.52   15.37
   6   4   2  379.40   11.93
  -6  -4  -2  428.21   18.99
  -6  -4  -3  215.76    8.99
   6   4   3  206.60    8.79
  -6  -4  -3  199.47   13.27
   6   4   3  204.66   10.92
   6   4   3  209.79    8.46
  -6  -4  -3  217.51   13.42
  -6  -4  -4   56.52    6.44
   6   4   4   51.67    4.92
  -6  -4  -4   58.92    4.27
   6   4   4   58.39    5.94
  -6  -4  -4   49.69    7.10
   6   4   5  170.57   10.35
   6   4   5  163.72    9.16
  -6  -4  -5  183.78    8.49
   6   4   5  168.57   13.83
   6   4   5  173.22    9.54
   6   4   5  187.43    7.79
  -6  -4  -5  197.08   13.30
  -6  -4  -5  161.69   10.41
   6   4   6  211.16   11.12
  -6  -4  -6  209.24    9.76
   6   4   6  209.25   15.29
   6   4   6  200.61   10.01
  -6  -4  -6  200.19   14.55
   6   4   6  216.76    8.78
  -6  -4  -6  233.31   14.84
   6   4   6  211.82   10.68
   6   4   6  206.18   12.87
  -6  -4  -6  203.85   11.77
  -6  -4  -7   35.84    5.56
  -6  -4  -7   51.60    8.46
   6   4   7   45.84    5.85
  -6  -4  -7   33.78    4.52
   6   4   7   49.78    8.23
   6   4   7   38.98    4.58
   6   4   7   44.22    4.37
   6   4   7   47.67    7.70
   6   4   7   30.62    5.92
  -6  -4  -7   44.89    7.32
  -6  -4  -8   15.08    4.07
  -6  -4  -8   21.00    6.77
   6   4   8   20.37    4.87
  -6  -4  -8   23.81    4.42
   6   4   8   18.81    6.41
   6   4   8   25.90    3.83
   6   4   8   22.69    6.57
   6   4   8   24.12    5.58
  -6  -4  -8   12.18    5.66
  -6  -4  -9   95.34   11.62
  -6  -4  -9  104.43    8.80
   6   4   9   84.67    8.56
   6   4   9  107.42   11.72
   6   4   9  125.78   12.41
   6   4   9   93.37    9.72
  -6  -4  -9  113.61   11.89
  -6  -4 -10    0.76    5.58
   6   4  10    5.98    3.95
  -6  -4 -10   -3.32    3.83
   6   4  10    4.77    5.48
   6   4  10   -7.22    5.47
   6   4  10   -0.40    4.63
  -6  -4 -11    5.97    5.66
  -6  -4 -11    5.32    4.25
   6   4  11   -0.14    4.13
  -6  -5   5    7.11    4.47
   6   5  -5    7.31    5.19
  -6  -5   4   65.28    9.72
  -6  -5   4   64.27    8.03
   6   5  -4   69.97    8.81
  -6  -5   3    1.06    3.86
  -6  -5   3    9.02    4.28
   6   5  -3    0.28    3.67
  -6  -5   2    3.57    3.88
  -6  -5   2   10.17    4.06
   6   5  -2    8.09    3.80
  -6  -5   1  191.08   12.33
   6   5  -1  182.03   12.04
  -6  -5   1  164.04   13.00
  -6  -5   0  145.82   10.83
   6   5   0  121.56    9.59
  -6  -5   0  118.48   11.18
  -6  -5  -1    5.29    4.33
  -6  -5  -1    0.37    3.23
   6   5   1   -2.24    3.10
   6   5   2  119.29    5.90
  -6  -5  -2  123.00   10.93
   6   5   2  121.87    9.06
  -6  -5  -2  121.23   11.11
   6   5   3   51.07    4.46
  -6  -5  -3   49.63    8.04
   6   5   3   42.28    5.64
  -6  -5  -3   59.54    8.00
   6   5   4  112.77    7.13
   6   5   4  111.77    8.18
  -6  -5  -4  128.73   11.65
   6   5   5   32.26    4.68
   6   5   5   24.58    6.61
   6   5   5   30.62    4.79
   6   5   5   26.03    4.18
  -6  -5  -5   36.07    7.42
   6   5   6  149.20    9.55
  -6  -5  -6  163.38    7.93
   6   5   6  179.37   15.09
   6   5   6  156.72    9.29
  -6  -5  -6  151.93   13.38
   6   5   6  186.03   14.41
   6   5   6  159.11    8.75
  -6  -5  -6  153.94   13.02
   6   5   7  177.19   11.07
  -6  -5  -7  165.63    8.97
   6   5   7  169.12   14.73
  -6  -5  -7  175.36   14.38
   6   5   7  162.85    9.07
   6   5   7  180.06   14.72
   6   5   7  167.79    9.23
  -6  -5  -7  188.04   14.92
   6   5   7  155.00   11.89
  -6  -5  -8   17.42    6.41
   6   5   8   27.18    5.08
  -6  -5  -8   28.68    4.60
   6   5   8   43.94    8.43
   6   5   8   27.47    4.37
   6   5   8   32.50    7.60
   6   5   8   29.30    5.99
  -6  -5  -8   31.12    7.84
  -6  -5  -9   49.81    9.14
   6   5   9   31.04    5.93
  -6  -5  -9   29.06    5.08
   6   5   9   26.75    7.73
   6   5   9   31.05    5.18
   6   5   9   36.77    7.64
   6   5   9   32.85    7.24
  -6  -5  -9   24.60    7.00
  -6  -5 -10    4.94    5.69
   6   5  10    3.62    4.61
  -6  -5 -10    6.37    3.60
   6   5  10   -0.38    5.56
   6   5  10    7.72    5.61
   6   5  10    6.41    4.72
  -6  -5 -10    0.24    4.79
  -6  -5 -11    1.11    3.87
   6   5  11   -2.99    4.71
  -6  -6   4   23.12    6.48
  -6  -6   3   54.54    9.85
  -6  -6   3   62.46    8.47
   6   6  -3   31.67    6.17
  -6  -6   2    9.74    5.84
  -6  -6   2   12.26    5.23
   6   6  -2    6.44    4.97
  -6  -6   1   42.11    8.41
  -6  -6   1   45.45    7.33
   6   6  -1   38.41    6.43
  -6  -6   0   53.76    8.50
  -6  -6   0   55.90    8.26
   6   6   0   45.05    6.41
  -6  -6  -1   74.12    9.62
  -6  -6  -1   64.08    9.06
   6   6   1   73.54    7.87
  -6  -6  -2   20.43    6.31
  -6  -6  -2   31.65    7.12
   6   6   2   29.66    5.45
   6   6   3   90.35    6.03
  -6  -6  -3  103.26   11.19
   6   6   3   88.00    8.08
  -6  -6  -3   96.15   10.99
   6   6   4  105.26    7.17
  -6  -6  -4  101.87   11.21
   6   6   4  102.47    8.44
  -6  -6  -4  119.86   12.16
   6   6   5   -1.10    2.76
   6   6   5    3.21    2.95
  -6  -6  -5    4.02    4.21
   6   6   6   19.61    4.49
  -6  -6  -6   25.57    6.81
   6   6   6   16.34    6.75
   6   6   6    9.33    2.95
   6   6   6   11.90    4.28
  -6  -6  -6   20.26    6.40
  -6  -6  -7   25.64    6.89
   6   6   7   13.97    4.40
   6   6   7   15.63    5.74
   6   6   7   19.19    3.84
   6   6   7   15.52    3.71
   6   6   7   12.59    5.37
   6   6   7   15.24    5.28
  -6  -6  -7   10.51    5.57
  -6  -6  -8   27.38    7.23
   6   6   8   21.03    5.20
   6   6   8   29.36    7.81
   6   6   8   22.38    4.39
   6   6   8   27.08    7.41
   6   6   8   16.89    5.25
  -6  -6  -8   24.65    7.66
  -6  -6  -9   11.99    6.26
   6   6   9   10.03    4.62
   6   6   9   16.28    6.30
   6   6   9   20.83    5.12
   6   6   9   27.96    8.01
   6   6   9   13.63    5.56
  -6  -6  -9   22.35    7.59
   6   6  10   13.70    5.42
   6   6  10    3.37    5.65
   6   6  10   10.93    5.34
  -6  -6 -10   13.85    6.27
  -6  -7   3   25.42    6.39
  -6  -7   2   33.39    8.29
  -6  -7   2   51.67    8.55
   6   7  -2   51.80    8.40
  -6  -7   1    2.12    5.08
  -6  -7   1    0.02    4.82
   6   7  -1    2.76    4.38
  -6  -7   0   22.10    7.04
  -6  -7   0   21.36    6.47
   6   7   0   12.20    4.96
  -6  -7  -1  206.76   15.94
   6   7   1  162.49   11.96
  -6  -7  -1  196.43   15.84
  -6  -7  -2   13.21    5.77
  -6  -7  -2   10.81    5.66
   6   7   2   10.26    4.27
   6   7   3   22.73    3.60
  -6  -7  -3   17.22    6.72
   6   7   3   17.61    4.97
  -6  -7  -3   19.13    6.73
   6   7   4   63.98    6.07
  -6  -7  -4   53.85    9.07
   6   7   4   64.55    7.22
  -6  -7  -4   82.11   10.91
   6   7   5    9.54    3.32
   6   7   5    5.64    3.32
   6   7   5   15.07    5.86
  -6  -7  -5    6.01    5.35
   6   7   6    6.62    3.86
   6   7   6   -6.79    5.15
   6   7   6    2.62    3.07
   6   7   6    2.65    4.73
  -6  -7  -6    3.24    6.10
   6   7   7   34.47    6.11
  -6  -7  -7   27.32    7.64
   6   7   7   31.53    8.40
   6   7   7   20.01    4.63
   6   7   7   28.12    5.44
   6   7   7   34.24    8.31
  -6  -7  -7   20.63    6.94
  -6  -7  -8   61.27   10.28
   6   7   8   34.34    6.14
   6   7   8   55.14    9.79
   6   7   8   34.73    5.67
   6   7   8   46.62    8.76
   6   7   8   38.09    7.36
  -6  -7  -8   34.70    8.52
   6   7   9    1.37    4.18
   6   7   9   -3.95    4.95
   6   7   9    1.15    3.50
   6   7   9   -9.10    6.70
   6   7   9  -10.26    6.00
  -6  -7  -9   -3.85    6.53
  -6  -8   1   22.37    7.03
  -6  -8   0    7.57    5.93
  -6  -8   0   11.25    5.88
   6   8   0   11.62    5.08
  -6  -8  -1   10.42    5.47
  -6  -8  -1   13.63    6.72
   6   8   1   10.19    5.14
  -6  -8  -2   80.85   11.76
  -6  -8  -2   90.93   11.45
   6   8   2  107.22   10.35
  -6  -8  -3   -2.89    5.22
  -6  -8  -3    8.36    6.30
   6   8   3   -5.22    4.16
  -6  -8  -4    0.02    4.92
   6   8   4    0.94    4.07
  -6  -8  -4    5.02    5.78
   6   8   5   93.67    8.38
  -6  -8  -5  105.58   12.43
   6   8   5   95.38    9.01
   6   8   5   91.37   11.13
  -6  -8  -5   97.82   12.08
   6   8   6   -2.14    3.52
   6   8   6    5.65    6.15
   6   8   6   -8.52    4.40
   6   8   6   -1.29    4.98
  -6  -8  -6    9.44    5.86
   6   8   7    3.57    4.01
  -6  -8  -7    6.21    5.33
   6   8   7    5.07    6.28
   6   8   7    4.95    5.97
  -6  -8  -7    2.90    5.51
   6   8   8   10.79    5.11
   6   8   8   16.05    7.15
   6   8   8    3.90    3.87
   6   8   8    8.97    5.21
   6   8   9    5.40    4.20
  -6  -9  -2   -5.92    5.85
   6   9   2   -0.90    4.92
  -6  -9  -3    9.48    5.61
   6   9   3   15.68    5.67
  -6  -9  -4   -2.80    6.34
   6   9   4    4.94    4.73
   6   9   4   -8.09    5.26
   6   9   5   11.28    7.22
   6   9   5   10.95    4.43
   6   9   6   -5.26    6.38
   6   9   6   -4.56    4.65
   6   9   7    9.14    4.68
   6   9   7   -3.12    7.08
   6   9   8    9.72    5.61
  -7   4   2   71.37    8.43
   7  -4  -2   80.66   11.32
  -7   4   1    1.10    4.02
   7  -4  -1   -0.57    4.89
   7  -4  -1   -4.67    5.71
   7  -4  -1   -4.47    5.19
  -7   4   0    9.64    4.21
   7  -4   0    8.86    6.64
   7  -4   0   -5.84    6.00
   7  -4   0    9.72    5.52
  -7   4  -1   25.06    6.16
   7  -4   1   24.04    7.49
   7  -4   1   21.01    7.42
   7  -4   1   21.25    6.31
   7  -4   2   12.95    5.31
  -7   4  -2   18.80    5.77
   7  -4   2   21.64    7.61
   7  -4   2   22.15    7.11
  -7   4  -3   31.79    6.71
   7  -4   3   32.04    7.72
   7  -4   3   20.37    7.15
   7  -4   3   20.19    7.35
  -7   4  -4   -9.23    4.95
   7  -4   4   -3.29    4.41
   7  -4   4   -9.36    6.72
   7  -4   4   -0.25    3.69
  -7   4  -5   63.57    8.74
   7  -4   5   64.09    8.23
  -7   4  -6   27.59    7.03
   7  -3  -4   18.44    5.01
   7  -3  -4   38.81    9.40
  -7   3   3   23.38    5.40
   7  -3  -3   21.18    7.28
  -7   3   2   -3.98    3.88
   7  -3  -2    5.79    6.29
   7  -3  -2   -1.99    4.88
   7  -3  -1  109.30   12.02
   7  -3  -1   97.06   12.61
   7  -3  -1   96.68   11.20
  -7   3   1  106.43    9.59
   7  -3   0   50.20    8.85
  -7   3   0   40.09    6.52
   7  -3   0   43.39    8.44
   7  -3   0   26.66    6.82
   7  -3   1   -2.63    4.83
  -7   3  -1   -0.19    3.81
   7  -3   1   -7.22    5.92
   7  -3   1   -1.29    4.45
  -7   3  -2   68.35    8.45
   7  -3   2   55.19    9.34
   7  -3   2   57.23    9.73
   7  -3   2   57.26    8.78
   7  -3   2   67.30    6.54
   7  -3   3   42.36    7.92
  -7   3  -3   50.16    7.65
  -7   3  -3   51.94    6.64
   7  -3   3   49.81    8.30
   7  -3   3   44.02    8.68
   7  -3   3   61.51    6.74
  -7   3  -4   13.89    5.44
  -7   3  -4   13.63    4.36
   7  -3   4   19.13    6.55
   7  -3   4   15.23    5.76
   7  -3   4   15.83    6.38
   7  -3   4   18.30    4.47
  -7   3  -5   25.83    6.31
   7  -3   5   46.06    8.52
  -7   3  -5   28.58    5.80
   7  -3   5   15.67    5.47
   7  -3   5   40.25    8.58
   7  -3   5   29.84    5.73
   7  -3   6   69.46   10.45
  -7   3  -6   62.61    8.13
   7  -3   6   61.43    9.23
   7  -3   6   62.88    9.85
   7  -3   6   68.70    8.55
  -7   3  -7   38.42    7.10
   7  -2  -5    0.07    3.75
   7  -2  -5   -9.23    7.16
   7  -2  -4   19.67    5.09
   7  -2  -4   14.60    6.66
  -7   2   3   37.65    5.57
  -7   2   3   33.14    5.70
   7  -2  -3   22.20    5.12
   7  -2  -3   21.11    6.29
  -7   2   2   19.94    5.18
  -7   2   2   17.26    4.14
   7  -2  -2   17.59    4.24
   7  -2  -2    8.05    5.22
  -7   2   1   39.99    5.81
  -7   2   1   34.20    4.93
   7  -2  -1   32.68    4.86
   7  -2  -1   36.05    7.81
   7  -2  -1   36.93    7.22
  -7   2   0   59.21    7.22
   7  -2   0   62.59    9.89
   7  -2   0   66.31    8.99
   7  -2   0   67.83    6.26
  -7   2  -1   18.31    5.17
   7  -2   1   19.41    6.21
   7  -2   1   26.54    7.41
   7  -2   1   20.93    5.54
   7  -2   1   26.63    4.04
  -7   2  -2    5.14    4.08
   7  -2   2    6.44    4.50
   7  -2   2   -1.33    2.30
  -7   2  -2    2.18    2.50
   7  -2   2    2.66    4.78
   7  -2   2    0.43    4.10
   7  -2   2    5.34    3.04
   7  -2   3  104.73    7.68
  -7   2  -3  100.49    8.17
   7  -2   3  115.44   11.80
   7  -2   3  106.65   11.55
   7  -2   3   99.11   10.11
   7  -2   3   95.67    7.98
  -7   2  -3  102.74    9.51
  -7   2  -4   48.53    7.51
   7  -2   4   49.11    5.78
  -7   2  -4   48.69    6.32
   7  -2   4   52.11    7.59
   7  -2   4   35.70    7.39
   7  -2   4   45.69    6.44
   7  -2   4   27.60    6.11
  -7   2  -5   59.73    7.73
   7  -2   5   54.86    6.34
   7  -2   5   54.49    9.43
   7  -2   5   66.94    8.68
   7  -2   5   53.92    8.53
   7  -2   5   60.14    7.35
  -7   2  -6   70.67    8.69
   7  -2   6   94.25    8.56
   7  -2   6  103.77   12.15
  -7   2  -6   73.25   10.11
   7  -2   6   71.63    9.11
   7  -2   6   72.95    9.58
   7  -2   6   76.45    8.43
   7  -2   7   40.63    8.70
  -7   2  -7   46.12    7.31
   7  -2   7   60.75    7.69
  -7   2  -7   57.21    9.63
   7  -2   7   56.91    8.69
   7  -2   7   38.78    7.40
   7  -2   7   55.17    7.89
   7  -2   8   43.82    7.02
   7  -2   8   30.25    8.00
   7  -2   8   30.95    7.31
  -7   1   5    3.90    3.97
   7  -1  -5   11.98    5.22
  -7   1   4   11.67    4.47
   7  -1  -4   12.17    4.54
  -7   1   3   40.86    5.74
  -7   1   3   37.33    6.16
   7  -1  -3   37.58    6.09
   7  -1  -3   40.56    7.86
  -7   1   2   47.00    6.03
  -7   1   2   43.87    6.26
   7  -1  -2   39.69    5.72
   7  -1  -2   35.82    6.73
  -7   1   1   -3.88    3.24
  -7   1   1    1.45    2.87
   7  -1  -1    5.44    4.57
   7  -1   0  109.40   11.92
   7  -1   0   94.40    9.52
   7  -1   0  110.55    7.10
  -7   1   0  103.16    7.59
  -7   1   0  109.90    9.11
   7  -1   1  289.40   14.26
   7  -1   1  303.60   18.36
   7  -1   1  270.02   15.11
   7  -1   1  280.42   12.23
  -7   1  -1  278.88   11.74
  -7   1  -1  286.55   14.61
  -7   1  -2    2.91    3.65
  -7   1  -2    4.84    2.04
   7  -1   2    2.66    2.91
   7  -1   2    7.22    4.49
   7  -1   2    7.12    4.98
   7  -1   2    1.98    3.29
   7  -1   2    3.56    3.01
  -7   1  -3   15.41    4.74
   7  -1   3   14.85    3.78
   7  -1   3    7.04    4.43
   7  -1   3   15.88    4.54
   7  -1   3   12.94    3.83
   7  -1   3   15.40    5.34
   7  -1   4  183.26   11.16
   7  -1   4  192.05   13.41
   7  -1   4  170.64   11.86
   7  -1   4  156.62   10.69
   7  -1   4  168.44   13.81
  -7   1  -4  160.76   11.61
  -7   1  -5    4.92    4.12
   7  -1   5    0.79    2.88
  -7   1  -5   -6.63    4.93
   7  -1   5   -9.61    4.75
   7  -1   5    5.99    3.95
   7  -1   5   -5.94    6.10
   7  -1   5    7.65    3.96
  -7   1  -6   20.32    5.21
   7  -1   6   18.15    4.62
  -7   1  -6   10.10    5.29
   7  -1   6   13.09    5.36
   7  -1   6   14.14    4.69
   7  -1   6    5.39    3.91
   7  -1   6   19.79    5.32
   7  -1   7  111.72   12.74
   7  -1   7  114.65   10.02
  -7   1  -7  104.66   11.37
   7  -1   7  105.83   10.05
   7  -1   7   89.14    9.61
   7  -1   7  102.55   10.05
  -7   1  -7   99.85    9.85
  -7   1  -8   50.95    7.71
   7  -1   8   53.22    7.74
  -7   1  -8   48.74    8.50
   7  -1   8   35.07    6.66
   7  -1   8   37.05    7.06
   7  -1   8   63.36    8.64
   7  -1   8   57.61    9.71
  -7   1  -9   11.88    4.81
   7  -1   9   11.78    4.75
   7  -1   9    0.42    5.97
   7  -1   9   10.24    5.29
  -7   0   5   31.48    6.68
   7   0  -5   28.12    6.40
  -7   0   4   19.49    5.24
   7   0  -4   18.11    5.47
  -7   0   3   29.08    4.97
  -7   0   3   35.65    6.10
   7   0  -3   26.74    6.17
   7   0  -2  175.94   12.90
  -7   0   2  164.21   11.30
  -7   0   2  175.82   10.84
  -7   0   1   39.73    5.75
  -7   0   1   40.42    5.53
   7   0  -1   38.89    6.35
   7   0  -1   38.60    4.45
  -7   0   0    2.51    3.40
  -7   0   0    5.03    2.99
   7   0   0   -4.54    4.55
   7   0   0    6.91    3.95
   7   0   0   -0.48    2.29
   7   0   1  167.12   12.85
   7   0   1  154.19   10.32
  -7   0  -1  157.51    9.17
   7   0   1  158.20    9.18
  -7   0  -1  155.94   10.46
   7   0   2  142.25   10.64
   7   0   2  150.16   11.63
   7   0   2  138.96    9.47
  -7   0  -2  148.06    8.53
   7   0   2  148.37    9.30
  -7   0  -2  128.09    9.81
  -7   0  -3    1.29    2.45
  -7   0  -3   -1.38    3.15
   7   0   3    0.57    3.39
   7   0   3    0.39    2.74
   7   0   3    0.59    3.18
   7   0   3    0.53    3.08
   7   0   3    7.90    4.86
   7   0   4  140.89   12.31
   7   0   4  140.82   10.38
   7   0   4  170.90   11.55
   7   0   4  150.12   10.06
  -7   0  -4  177.86    8.53
   7   0   4  170.01   10.80
  -7   0  -4  176.99   11.58
   7   0   5  188.62   12.21
  -7   0  -5  164.93   12.99
   7   0   5  170.88   11.18
   7   0   5  161.62   10.60
   7   0   5  169.10   11.46
   7   0   5  174.44   14.21
  -7   0  -5  175.83   11.79
  -7   0  -6   10.61    4.39
   7   0   6    3.59    3.72
  -7   0  -6    6.14    4.02
   7   0   6    3.22    4.43
   7   0   6    6.25    3.63
   7   0   6   -0.55    3.24
   7   0   6    9.17    4.26
  -7   0  -7   13.14    4.07
   7   0   7    9.68    3.90
   7   0   7    8.22    4.83
   7   0   7   11.75    4.80
  -7   0  -7    1.65    3.91
   7   0   7    7.38    4.15
   7   0   7    9.49    3.92
   7   0   7    7.48    4.76
  -7   0  -8   63.27    7.83
   7   0   8   65.92    8.71
   7   0   8   62.33    8.13
  -7   0  -8   74.45    9.14
   7   0   8   67.45    8.16
   7   0   8   69.89    8.08
   7   0   8   82.16    9.25
   7   0   8   61.50    9.39
  -7   0  -9   25.73    5.70
   7   0   9   29.54    6.11
  -7   0  -9   29.79    6.59
   7   0   9   30.13    7.52
  -7   0 -10   -4.34    4.48
   7   1  -5   36.50    6.29
  -7  -1   4   50.17    7.89
   7   1  -4   46.34    7.48
  -7  -1   3   -4.52    3.35
  -7  -1   3   -3.77    4.27
   7   1  -3    4.02    4.13
  -7  -1   2   67.42    7.04
  -7  -1   2   78.35    8.32
   7   1  -2   84.36    8.52
  -7  -1   1   59.42    6.60
  -7  -1   1   49.56    6.56
   7   1  -1   59.75    7.32
   7   1  -1   56.37    6.38
  -7  -1   0   33.75    5.33
  -7  -1   0   34.67    5.28
   7   1   0   24.59    5.07
   7   1   0   23.64    5.88
   7   1   0   28.08    4.46
   7   1   0   33.58    4.58
  -7  -1  -1   50.63    5.83
  -7  -1  -1   44.64    6.00
   7   1   1   37.28    5.92
   7   1   1   44.97    6.59
   7   1   1   41.64    4.76
   7   1   1   43.12    5.39
   7   1   2  227.63   12.64
   7   1   2  220.15   12.37
   7   1   2  201.10    9.97
  -7  -1  -2  223.73   11.44
   7   1   2  218.25   11.71
  -7  -1  -2  230.47   12.66
   7   1   3  104.68    9.74
   7   1   3  102.49    7.94
   7   1   3  102.77    7.08
  -7  -1  -3  105.07    7.85
   7   1   3  106.33    8.48
  -7  -1  -3  104.66    8.61
  -7  -1  -4   11.43    3.40
  -7  -1  -4    1.27    3.70
   7   1   4   10.82    4.48
   7   1   4    6.86    3.77
   7   1   4    2.65    2.17
   7   1   4    6.24    2.92
   7   1   4    7.39    3.63
   7   1   5  143.11   10.06
   7   1   5  135.01   10.78
  -7  -1  -5  149.00   11.52
   7   1   5  137.55    8.93
   7   1   5  136.35    8.82
  -7  -1  -5  157.91    9.12
   7   1   5  148.72   10.64
  -7  -1  -5  154.22   10.70
   7   1   5  153.28   12.68
   7   1   6   92.27    8.57
   7   1   6  108.01   10.02
  -7  -1  -6   90.29    9.27
   7   1   6   92.43    7.69
   7   1   6   93.44    7.75
   7   1   6   76.91    9.64
  -7  -1  -6   80.84    6.62
   7   1   6   81.75    8.46
  -7  -1  -6   85.67    8.38
  -7  -1  -7   -0.24    3.44
   7   1   7    0.95    3.72
   7   1   7    3.00    4.40
   7   1   7   11.90    3.90
  -7  -1  -7    1.85    3.60
   7   1   7   -0.22    3.74
   7   1   7    6.93    3.55
   7   1   7   11.53    3.88
   7   1   7    7.84    4.32
  -7  -1  -8   14.54    4.70
   7   1   8    0.47    3.80
   7   1   8    9.79    4.31
  -7  -1  -8   11.41    4.78
   7   1   8   18.56    5.53
   7   1   8   12.50    4.25
   7   1   8    9.30    5.16
  -7  -1  -9   88.63    8.96
   7   1   9   86.20    9.50
   7   1   9   88.83   10.19
  -7  -1  -9   82.99    9.53
   7   1   9   91.90   10.00
   7   1   9   79.20    9.60
  -7  -1 -10    6.58    4.10
  -7  -1 -10   -3.52    4.75
   7   2  -5    5.79    4.79
  -7  -2   4   95.77   10.55
   7   2  -4   77.39    8.99
  -7  -2   3   44.36    7.18
   7   2  -3   48.73    7.18
  -7  -2   2   12.28    5.07
   7   2  -2    3.60    3.77
   7   2  -1  364.36   17.09
  -7  -2   1  388.40   17.81
  -7  -2   1  388.30   16.59
  -7  -2   0   42.14    5.65
  -7  -2   0   47.98    6.63
   7   2   0   48.87    6.38
   7   2   0   41.80    5.76
  -7  -2  -1    0.52    3.18
  -7  -2  -1    6.33    3.53
   7   2   1    0.11    3.06
   7   2   1    7.78    3.32
   7   2   1    6.03    1.94
  -7  -2  -2  142.43    6.45
   7   2   2  123.20    9.54
   7   2   2  139.99    8.28
   7   2   2  132.69    6.65
  -7  -2  -2  140.32    9.80
  -7  -2  -2  152.18   10.26
  -7  -2  -3   64.91    6.96
  -7  -2  -3   82.64    5.95
   7   2   3   68.18    6.96
   7   2   3   88.76    6.23
   7   2   3   85.74    5.61
  -7  -2  -3   80.80    7.39
   7   2   3   91.42    8.24
  -7  -2  -4   67.68    6.81
  -7  -2  -4   47.17    6.13
   7   2   4   53.95    5.68
   7   2   4   48.65    7.43
   7   2   4   59.71    6.48
   7   2   4   53.26    4.83
   7   2   4   64.59    7.86
   7   2   4   61.25    5.02
   7   2   4   62.21    7.20
  -7  -2  -5   19.46    4.19
  -7  -2  -5   20.45    5.08
   7   2   5   21.98    4.40
   7   2   5   23.90    5.70
  -7  -2  -5   24.64    5.11
   7   2   5   17.91    3.17
   7   2   5   21.82    5.55
   7   2   5   20.46    3.44
   7   2   5   29.59    5.96
   7   2   6  129.04    9.39
   7   2   6  124.20   11.12
  -7  -2  -6  121.68    9.82
   7   2   6  127.65    7.99
   7   2   6  113.46    7.67
  -7  -2  -6  125.25    9.44
   7   2   6  116.41   10.02
   7   2   6  117.21   11.11
  -7  -2  -6  109.46    9.43
  -7  -2  -7   32.76    5.66
   7   2   7   48.33    6.62
   7   2   7   53.33    8.20
  -7  -2  -7   39.65    6.16
   7   2   7   39.95    6.98
   7   2   7   41.68    7.13
   7   2   7   46.54    7.01
  -7  -2  -7   46.32    6.13
  -7  -2  -8    8.82    3.87
   7   2   8   16.32    4.58
   7   2   8   21.53    6.43
  -7  -2  -8   29.01    5.87
   7   2   8   20.48    5.37
   7   2   8   21.96    6.00
  -7  -2  -8   27.16    5.29
   7   2   8   18.60    5.70
  -7  -2  -9    2.87    3.82
   7   2   9   10.90    4.80
  -7  -2  -9   12.12    5.40
   7   2   9    3.28    4.50
  -7  -2  -9    3.72    3.89
   7   2   9   13.49    5.64
  -7  -2 -10   51.76    7.35
  -7  -2 -10   50.79    7.87
  -7  -3   4    1.64    4.21
   7   3  -4   -0.15    4.06
   7   3  -3  130.46   11.28
  -7  -3   3  158.13   12.97
  -7  -3   2    9.72    4.87
   7   3  -2    1.25    4.25
  -7  -3   1    3.21    3.88
  -7  -3   1    3.85    2.21
   7   3  -1    3.48    3.16
  -7  -3   0  386.41   13.25
   7   3   0  368.03   16.94
  -7  -3   0  385.47   17.96
  -7  -3   0  375.94   16.85
  -7  -3  -1   95.54    6.46
   7   3   1   98.45    8.88
   7   3   1   84.03    5.90
  -7  -3  -1   90.11    8.82
  -7  -3  -1   91.63    8.41
  -7  -3  -2   12.53    4.33
  -7  -3  -2   10.06    3.86
  -7  -3  -2    9.31    2.79
   7   3   2    9.17    3.72
   7   3   2   11.56    2.30
   7   3   3  179.97    9.07
  -7  -3  -3  201.64   11.43
   7   3   3  186.47   11.22
   7   3   3  185.98    7.02
  -7  -3  -3  188.93   12.18
  -7  -3  -3  183.40   11.61
   7   3   4  117.50    7.75
   7   3   4  112.69    8.77
   7   3   4  120.67    5.68
  -7  -3  -4  116.74    9.56
   7   3   4  119.82    9.78
  -7  -3  -4  131.10    9.92
  -7  -3  -5    6.78    3.93
   7   3   5    6.92    4.36
   7   3   5    7.91    3.29
   7   3   5   12.59    5.49
  -7  -3  -5    7.18    3.44
   7   3   5   10.14    3.88
   7   3   5    9.36    2.18
   7   3   5   16.09    4.91
  -7  -3  -5   12.39    4.19
   7   3   6   27.69    5.75
  -7  -3  -6   23.60    4.74
   7   3   6   33.64    5.38
   7   3   6   32.90    6.95
  -7  -3  -6   28.90    5.09
   7   3   6   30.48    4.86
   7   3   6   29.79    5.93
  -7  -3  -6   30.37    5.56
   7   3   7  126.76    9.91
  -7  -3  -7  144.64   10.22
   7   3   7  151.42   13.24
   7   3   7  136.75   12.75
   7   3   7  127.00   10.44
  -7  -3  -7  156.87   11.61
   7   3   7  136.56   11.23
  -7  -3  -7  127.15   10.21
  -7  -3  -8   10.41    3.89
   7   3   8    9.29    3.72
  -7  -3  -8   11.90    5.07
   7   3   8    7.77    4.67
  -7  -3  -8    7.12    3.68
   7   3   8    8.30    5.10
   7   3   8   15.15    5.53
  -7  -3  -8   15.74    5.13
  -7  -3  -9   -1.63    3.63
  -7  -3  -9    1.41    4.26
   7   3   9    5.91    4.23
   7   3   9   -4.24    4.32
  -7  -3  -9   -2.63    3.63
   7   3   9    6.11    4.91
   7   3   9   -3.04    4.54
  -7  -3  -9   -5.51    4.99
  -7  -3 -10   27.35    5.36
  -7  -3 -10   37.98    7.98
  -7  -3 -10   23.27    5.50
  -7  -3 -11   -4.58    4.88
   7   4  -4   -6.22    5.43
  -7  -4   3   81.98    9.74
   7   4  -3   83.71    9.43
  -7  -4   2   35.12    6.85
  -7  -4   2   43.75    5.67
   7   4  -2   51.51    7.24
  -7  -4   1   20.95    5.89
  -7  -4   1   12.75    3.71
   7   4  -1   11.17    4.81
  -7  -4   0   72.99    8.30
  -7  -4   0   79.36    6.97
   7   4   0   81.81    8.39
  -7  -4  -1  139.58    9.21
   7   4   1  109.86    9.38
  -7  -4  -1  121.85   10.84
  -7  -4  -2    8.14    4.58
  -7  -4  -2    4.36    3.32
   7   4   2   10.18    4.26
  -7  -4  -3   50.89    7.21
  -7  -4  -3   52.04    6.85
   7   4   3   37.98    4.10
  -7  -4  -3   54.66    7.25
   7   4   3   52.23    6.39
   7   4   4  114.11    7.56
  -7  -4  -4  123.50   10.80
   7   4   4  114.10    8.99
  -7  -4  -4  121.11   10.54
  -7  -4  -4  120.77    9.84
  -7  -4  -5   44.87    6.59
   7   4   5   39.79    5.38
   7   4   5   31.86    7.86
   7   4   5   34.43    5.03
   7   4   5   49.72    7.00
   7   4   5   41.58    6.67
  -7  -4  -5   50.71    7.22
  -7  -4  -6   11.91    4.49
   7   4   6    9.37    3.78
   7   4   6   16.31    3.98
   7   4   6   16.19    6.01
   7   4   6   14.69    3.86
   7   4   6   18.10    5.29
  -7  -4  -6   16.13    5.21
  -7  -4  -7   45.55    6.80
   7   4   7   55.10    6.66
   7   4   7   44.81    8.38
   7   4   7   50.37    5.71
   7   4   7   60.75    9.16
   7   4   7   55.47    8.11
  -7  -4  -7   57.97    7.96
  -7  -4  -8   26.75    5.91
   7   4   8   36.47    6.18
  -7  -4  -8   46.84    8.66
   7   4   8   46.09    8.11
  -7  -4  -8   46.46    6.03
   7   4   8   48.63    8.89
   7   4   8   50.53    7.15
  -7  -4  -8   42.85    7.68
  -7  -4  -9   -0.93    3.60
   7   4   9   -2.63    3.65
   7   4   9    3.88    5.03
  -7  -4  -9   -4.44    4.12
   7   4   9   10.43    6.35
   7   4   9    0.41    3.81
  -7  -4  -9   -0.92    4.79
  -7  -4 -10   12.24    5.84
   7   4  10   10.01    5.59
  -7  -4 -10   12.22    5.61
  -7  -5   3    5.24    3.42
   7   5  -3    6.58    5.18
  -7  -5   2  125.67    9.96
   7   5  -2  128.78   11.38
  -7  -5   2  116.83   12.08
  -7  -5   1    9.21    5.44
  -7  -5   1   10.55    4.04
   7   5  -1   21.76    5.66
  -7  -5   0    6.22    4.73
  -7  -5   0    1.22    2.94
   7   5   0   -4.91    4.31
  -7  -5  -1  153.42   11.12
   7   5   1  143.06   10.90
  -7  -5  -1  164.05   13.45
  -7  -5  -2  162.26   12.20
   7   5   2  155.71   11.06
  -7  -5  -2  157.67   12.92
  -7  -5  -3    5.76    4.50
  -7  -5  -3    9.22    3.91
   7   5   3    3.33    3.51
  -7  -5  -4   44.86    7.42
   7   5   4   50.16    5.28
  -7  -5  -4   44.12    7.94
   7   5   4   44.89    5.96
   7   5   5   79.13    6.90
   7   5   5   85.88    8.04
   7   5   5  101.62   12.59
  -7  -5  -5   94.06   10.38
   7   5   6   11.57    4.01
   7   5   6    3.34    4.85
   7   5   6   17.06    4.34
   7   5   6    9.94    5.22
  -7  -5  -6    7.13    4.14
   7   5   7    0.53    3.18
   7   5   7    4.89    5.52
   7   5   7   -0.67    2.62
   7   5   7    1.13    5.12
   7   5   7    6.23    4.68
  -7  -5  -7    6.37    4.89
   7   5   8   13.95    4.61
  -7  -5  -8   21.53    7.00
   7   5   8   10.58    5.57
   7   5   8   21.30    7.04
   7   5   8   10.14    4.74
  -7  -5  -8    9.99    5.90
  -7  -5  -9    6.19    5.10
   7   5   9    8.91    4.19
   7   5   9    6.80    5.13
   7   5   9    2.81    4.40
  -7  -5  -9   14.58    6.29
  -7  -5 -10    3.79    5.64
   7   5  10    2.52    4.86
  -7  -5 -10    2.32    5.08
  -7  -6   3   -7.44    4.67
  -7  -6   2   36.97    6.66
  -7  -6   1  107.20   12.11
  -7  -6   1  109.99   10.57
   7   6  -1  100.14   10.23
  -7  -6   0   11.60    6.01
  -7  -6   0   21.51    5.34
   7   6   0   23.31    5.73
  -7  -6  -1   34.66    7.44
  -7  -6  -1   32.54    6.30
   7   6   1   31.51    6.47
  -7  -6  -2   43.27    8.69
  -7  -6  -2   38.54    7.13
   7   6   2   29.80    5.77
  -7  -6  -3  116.15   12.32
  -7  -6  -3  131.37   12.46
   7   6   3  121.42   10.21
  -7  -6  -4   42.36    8.52
  -7  -6  -4   37.97    8.09
   7   6   4   26.65    5.61
   7   6   5   26.41    4.52
  -7  -6  -5   38.59    7.87
   7   6   5   24.61    4.91
  -7  -6  -5   46.33    8.83
   7   6   6   66.67    6.82
   7   6   6   67.32   11.47
   7   6   6   60.68    6.85
  -7  -6  -6   77.32   10.75
   7   6   7    2.09    3.04
   7   6   7    2.64    5.41
   7   6   7    7.84    3.70
   7   6   7    7.36    5.65
   7   6   7   -4.97    5.30
  -7  -6  -7    6.00    5.56
   7   6   8   14.08    4.33
  -7  -6  -8    9.82    5.83
   7   6   8    2.61    5.63
   7   6   8   -1.23    5.73
   7   6   8    9.83    4.78
  -7  -6  -8   12.07    6.84
   7   6   9   17.65    4.96
  -7  -6  -9   21.50    7.41
   7   6   9    6.88    5.50
  -7  -6  -9   15.11    6.68
  -7  -7   2   -3.93    5.67
  -7  -7   1   29.41    7.20
  -7  -7   0   48.93    8.99
  -7  -7   0   40.33    7.78
   7   7   0   49.44    8.13
  -7  -7  -1    5.30    5.10
   7   7   1   16.02    5.62
  -7  -7  -2    5.81    6.06
  -7  -7  -2    9.11    5.77
   7   7   2   -3.90    4.33
  -7  -7  -3   54.64    9.27
  -7  -7  -3   82.34   10.68
   7   7   3   73.24    8.67
  -7  -7  -4    0.66    5.71
  -7  -7  -4   -6.34    6.46
   7   7   4    3.15    4.02
  -7  -7  -5    4.41    5.54
   7   7   5   -0.74    3.48
  -7  -7  -5   -0.28    5.53
   7   7   6   52.68    6.55
   7   7   6   40.17    9.83
   7   7   6   42.22    6.39
   7   7   6   53.78    9.78
  -7  -7  -6   68.72   10.93
   7   7   7    5.99    3.64
   7   7   7   11.97    5.56
   7   7   7    4.71    3.66
   7   7   7    7.25    6.07
  -7  -7  -7    7.43    6.03
   7   7   8   -3.83    4.29
   7   7   9   -2.63    4.24
  -7  -8   0   71.96   10.36
  -7  -8  -1    0.14    5.26
  -7  -8  -2   30.80    7.64
   7   8   2   31.46    7.23
  -7  -8  -3    7.93    6.45
  -7  -8  -3   10.86    5.98
   7   8   3    3.56    4.29
  -7  -8  -4   18.78    7.06
  -7  -8  -4   25.33    8.07
   7   8   4   16.61    5.05
  -7  -8  -5   -8.34    5.69
   7   8   5   -1.44    4.30
  -7  -8  -6   -1.53    5.58
   7   8   6   -0.35    6.07
   7   8   6   -0.67    4.03
   7   8   7    1.55    3.53
   7   8   8    1.86    4.21
   7   9   5   -6.44    5.29
   7   9   6    6.87    4.81
  -8   3   1   10.98    5.20
   8  -3  -1   13.43    6.14
   8  -3   0    8.90    7.12
   8  -3   0    0.74    5.59
   8  -3   1   22.59    8.15
   8  -3   1   27.24    7.61
   8  -3   2   43.18    9.10
   8  -3   2   37.46    8.00
   8  -3   3   -0.17    4.54
   8  -3   3   16.20    7.06
   8  -3   4   25.52    7.36
   8  -3   4   38.59    9.04
   8  -3   5   31.75    6.12
  -8   2   2    9.11    4.21
   8  -2  -2    8.50    6.19
   8  -2  -2    1.38    4.85
  -8   2   1   34.19    6.37
   8  -2  -1   32.55    8.71
   8  -2  -1   45.30    8.32
  -8   2   0    7.43    3.87
   8  -2   0   13.59    5.80
   8  -2   0    8.59    5.37
  -8   2  -1   11.58    4.57
   8  -2   1    9.17    6.07
   8  -2   1   15.64    5.97
   8  -2   1   -0.71    4.55
  -8   2  -2   56.95    8.26
   8  -2   2   64.75    9.76
   8  -2   2   63.15    8.64
   8  -2   2   69.88   10.72
  -8   2  -3   32.10    6.44
   8  -2   3   23.55    6.73
   8  -2   3   28.33    6.34
   8  -2   3   39.50    8.00
   8  -2   3   39.46    5.95
   8  -2   4    3.59    5.10
   8  -2   4   -3.80    5.29
   8  -2   4    3.38    4.52
   8  -2   4   -0.57    3.31
  -8   2  -5   50.25    7.05
   8  -2   5   45.54    7.65
   8  -2   5   49.24    8.69
   8  -2   5   43.37    6.65
  -8   2  -6   41.71    6.90
   8  -2   6   33.06    7.45
   8  -2   6   30.58    7.14
   8  -2   6   23.51    5.82
  -8   1   3   30.40    6.19
   8  -1  -3   24.90    6.00
  -8   1   2    1.53    3.49
  -8   1   2    4.34    4.01
   8  -1  -2    5.94    3.52
  -8   1   1   17.60    4.99
   8  -1  -1   26.50    5.30
   8  -1  -1   25.31    7.13
   8  -1  -1   25.75    6.66
  -8   1   0   28.74    5.80
   8  -1   0   25.42    7.60
   8  -1   0   33.18    6.75
  -8   1  -1   17.16    4.92
   8  -1   1   23.23    7.38
   8  -1   1   14.21    5.79
   8  -1   1   16.75    5.21
  -8   1  -2   20.55    5.12
   8  -1   2   23.02    5.23
   8  -1   2   27.51    6.28
   8  -1   2   26.43    5.70
   8  -1   2   27.29    6.82
   8  -1   2   24.76    4.66
  -8   1  -3   80.01    8.95
   8  -1   3   96.49    8.60
   8  -1   3   84.45    9.04
   8  -1   3   78.47    9.74
   8  -1   3   87.78    8.12
   8  -1   3   94.97   11.34
  -8   1  -4   82.83    9.42
   8  -1   4  102.64   11.94
   8  -1   4   89.95    8.34
   8  -1   4   72.06    8.45
   8  -1   4   85.46   10.05
   8  -1   4  106.52    9.36
  -8   1  -5   47.20    7.29
   8  -1   5   38.82    6.20
   8  -1   5   34.86    6.22
   8  -1   5   38.91    7.39
   8  -1   5   41.17    6.76
   8  -1   5   31.94    7.03
   8  -1   6  112.48   10.05
   8  -1   6  104.14   12.50
   8  -1   6  106.42   10.50
   8  -1   6  110.02   10.48
   8  -1   6   89.68   10.26
   8  -1   7   17.14    7.17
   8  -1   7   19.82    5.34
  -8   1  -7    9.59    6.22
   8  -1   7   12.97    4.77
   8  -1   7   23.25    6.19
   8  -1   8    0.19    3.82
   8  -1   8    0.17    4.22
  -8   0   3   19.36    5.89
   8   0  -3    9.35    5.00
  -8   0   2   11.20    4.34
  -8   0   2   11.92    4.33
  -8   0   1   -0.10    3.60
  -8   0   1    4.99    3.72
   8   0  -1    1.14    5.00
  -8   0   0   73.36    8.21
   8   0   0   76.69   10.12
  -8   0   0   97.97    8.40
  -8   0  -1   18.44    4.97
  -8   0  -1   12.51    3.74
   8   0   1    7.49    5.07
   8   0   1    7.12    3.38
   8   0   1   18.29    4.19
   8   0   2    5.11    4.73
  -8   0  -2   -1.26    3.82
   8   0   2    9.01    4.59
   8   0   2    2.67    4.34
   8   0   2    4.78    3.21
   8   0   2    2.89    3.34
  -8   0  -3   80.03    8.69
   8   0   3   94.97    9.16
   8   0   3   98.99   11.59
   8   0   3   93.13    8.40
   8   0   3   79.08    8.61
   8   0   3   94.11    8.30
  -8   0  -4   58.16    7.72
   8   0   4   53.16    7.01
   8   0   4   41.94    5.87
   8   0   4   46.44    8.71
   8   0   4   43.66    6.73
   8   0   4   52.40    6.81
  -8   0  -5   46.00    7.04
   8   0   5   37.31    8.08
   8   0   5   43.97    6.58
   8   0   5   45.60    6.35
   8   0   5   41.29    6.49
   8   0   5   49.86    7.02
  -8   0  -6   31.62    6.38
   8   0   6   37.39    6.64
   8   0   6   47.16    9.16
   8   0   6   34.66    5.69
   8   0   6   22.58    5.37
   8   0   6   41.73    6.86
  -8   0  -7   79.57    9.24
   8   0   7   78.49    9.13
   8   0   7   97.40   12.21
  -8   0  -7   79.89   10.46
   8   0   7   82.96    8.71
   8   0   7   77.83    8.61
   8   0   7   73.50    9.19
   8   0   8   26.08    8.27
   8   0   8   22.46    5.62
  -8   0  -8   11.24    5.43
   8   0   8   13.40    5.01
   8   0   8   17.38    5.37
   8   0   9   15.14    5.56
  -8  -1   3   22.72    6.03
  -8  -1   2   42.92    6.77
  -8  -1   2   36.46    6.80
   8   1  -2   28.25    6.04
  -8  -1   1   14.52    4.94
  -8  -1   1    6.37    3.83
   8   1  -1    6.46    3.98
   8   1  -1   11.03    5.00
  -8  -1   0   81.75    8.45
  -8  -1   0   69.64    7.75
   8   1   0   75.17    8.66
   8   1   0   75.80    9.08
   8   1   0   75.24    6.98
  -8  -1  -1   66.71    7.81
  -8  -1  -1   66.83    7.04
   8   1   1   75.26    8.75
   8   1   1   80.75    8.70
   8   1   1   63.49    6.61
  -8  -1  -2   45.57    5.88
  -8  -1  -2   45.18    6.78
   8   1   2   38.55    6.07
   8   1   2   43.44    6.23
  -8  -1  -3   33.77    5.11
  -8  -1  -3   31.96    5.73
   8   1   3   28.10    6.24
   8   1   3   29.04    7.07
   8   1   3   41.27    5.82
   8   1   3   30.07    5.37
  -8  -1  -4   35.75    6.47
   8   1   4   40.60    7.95
   8   1   4   42.83    6.94
   8   1   4   33.77    4.88
   8   1   4   41.22    5.57
   8   1   4   41.17    6.20
  -8  -1  -5   98.21    9.58
   8   1   5   94.87    9.96
   8   1   5   98.62   11.43
   8   1   5   85.19    7.67
   8   1   5   93.02    7.64
   8   1   5   99.28    9.44
  -8  -1  -6    2.87    3.93
   8   1   6    8.18    4.76
  -8  -1  -6   -6.19    5.61
   8   1   6   -0.88    3.15
   8   1   6    0.90    5.47
   8   1   6    3.50    2.93
   8   1   6    8.66    4.38
  -8  -1  -7   56.55    7.81
   8   1   7   55.21    8.10
   8   1   7   48.99    7.57
  -8  -1  -7   49.12    8.20
   8   1   7   57.04    9.31
   8   1   7   64.68    7.24
   8   1   7   61.47    7.05
   8   1   7   51.55    7.73
  -8  -1  -8   58.34    8.20
   8   1   8   54.91    9.61
   8   1   8   71.78    8.92
   8   1   8   66.23    8.81
  -8  -1  -8   58.32    8.79
   8   1   8   69.51    7.87
  -8  -1  -9   -3.87    4.33
  -8  -2   2   43.06    7.39
   8   2  -2   44.47    6.99
  -8  -2   1   37.68    6.19
  -8  -2   1   23.40    5.67
   8   2  -1   27.25    5.80
  -8  -2   0   37.64    6.34
  -8  -2   0   40.06    6.58
   8   2   0   35.87    6.49
   8   2   1  139.80   11.16
  -8  -2  -1  131.95   10.41
   8   2   1  140.44   10.22
  -8  -2  -1  120.72   10.10
  -8  -2  -2   66.74    7.39
  -8  -2  -2   70.86    7.78
   8   2   2   71.27    7.85
   8   2   2   59.02    7.09
  -8  -2  -3   29.73    5.29
  -8  -2  -3   18.60    4.85
   8   2   3   22.50    4.71
   8   2   3   27.12    5.58
   8   2   4  123.09   11.89
   8   2   4   89.48   10.36
   8   2   4   86.78    8.42
  -8  -2  -4  114.04    9.12
   8   2   4   93.74    9.12
  -8  -2  -4  118.43   10.11
  -8  -2  -5   85.69    9.13
   8   2   5   74.72    7.62
   8   2   5  110.96   11.34
  -8  -2  -5   92.06    8.25
   8   2   5   87.26   10.39
   8   2   5  105.15    9.95
   8   2   6   17.72    5.55
  -8  -2  -6   33.42    6.41
   8   2   6   22.03    4.88
   8   2   6   25.43    6.28
   8   2   6   25.44    6.10
  -8  -2  -7    1.71    3.81
   8   2   7   -2.83    3.98
   8   2   7   -2.31    4.17
  -8  -2  -7    1.82    3.72
   8   2   7    1.47    4.66
   8   2   7   -5.19    5.04
   8   2   7   -0.68    4.15
  -8  -2  -8   78.64    8.74
   8   2   8   72.92    8.74
   8   2   8   84.10   10.29
  -8  -2  -8   80.69    9.51
  -8  -2  -9   26.20    6.60
  -8  -3   2   21.83    6.15
   8   3  -2    5.95    4.86
  -8  -3   1   34.23    6.59
   8   3  -1   39.08    6.63
  -8  -3   0    2.07    4.05
   8   3   0    0.02    4.20
  -8  -3  -1    5.65    4.20
  -8  -3  -1   -2.70    4.04
   8   3   1    0.70    4.32
   8   3   2   86.56    8.80
  -8  -3  -2  108.25    9.96
  -8  -3  -2  104.86    9.55
  -8  -3  -3   61.78    7.54
  -8  -3  -3   70.43    8.28
   8   3   3   57.18    7.25
   8   3   3   62.50    7.95
  -8  -3  -4    0.17    3.15
  -8  -3  -4    6.60    4.72
   8   3   4    5.27    3.39
   8   3   4    8.74    5.61
   8   3   4    9.70    4.56
   8   3   4    3.50    3.95
   8   3   4    6.04    4.70
  -8  -3  -5   66.30    7.94
  -8  -3  -5   70.07    8.22
   8   3   5   65.46    9.01
   8   3   5   57.63    6.40
   8   3   5   63.61    9.70
   8   3   5   62.99    7.33
   8   3   5   40.33    6.79
  -8  -3  -6   74.79    8.29
  -8  -3  -6   69.91    8.23
   8   3   6   63.84    7.29
   8   3   6   59.80    8.72
   8   3   6   70.33    9.96
   8   3   6   71.31    8.81
  -8  -3  -7    3.95    3.95
   8   3   7    1.75    3.59
   8   3   7    5.68    5.48
   8   3   7   -0.66    5.37
   8   3   7    5.88    5.23
  -8  -3  -7    5.70    3.88
  -8  -3  -8   -2.18    3.58
   8   3   8    2.64    3.39
   8   3   8    2.50    4.81
   8   3   8    2.31    4.78
   8   3   8    5.31    5.07
  -8  -3  -9   61.61    8.56
   8   3   9   57.55    8.24
  -8  -4   1   55.01    8.67
   8   4  -1   55.07    7.76
  -8  -4   0   51.46    8.11
   8   4   0   45.25    7.04
  -8  -4  -1    6.99    4.44
   8   4   1    3.84    4.17
  -8  -4  -2   31.89    6.38
   8   4   2   28.37    5.59
  -8  -4  -3   85.17    9.46
  -8  -4  -3   88.91    9.29
   8   4   3   83.13    8.67
  -8  -4  -4    8.64    3.87
  -8  -4  -4   22.00    5.34
   8   4   4   16.87    4.90
  -8  -4  -5   -1.24    3.97
  -8  -4  -5    6.97    4.84
   8   4   5    2.11    2.67
   8   4   5   -2.21    5.64
   8   4   5    1.37    3.69
   8   4   5    3.02    4.33
   8   4   5    7.07    4.51
  -8  -4  -6   90.54    9.76
  -8  -4  -6   99.02    9.68
   8   4   6  101.26    8.77
   8   4   6  102.00   12.48
   8   4   6   92.29    8.67
   8   4   6  103.76   10.81
  -8  -4  -7    1.86    3.93
   8   4   7    6.73    4.13
   8   4   7   11.66    6.35
   8   4   7    2.85    3.10
   8   4   7   -7.95    6.44
   8   4   7   -2.92    4.94
  -8  -4  -7    6.13    4.80
  -8  -4  -8    1.25    4.17
   8   4   8    1.80    3.53
   8   4   8   -0.57    5.69
  -8  -4  -8    0.24    4.24
  -8  -4  -9   19.09    5.75
   8   4   9   17.59    5.53
   8   4   9   16.11    6.80
  -8  -4  -9   24.44    6.50
  -8  -5   0   29.44    6.90
   8   5   0   42.22    7.56
  -8  -5  -1   23.20    6.55
   8   5   1   22.18    5.96
  -8  -5  -2    5.05    5.14
   8   5   2   -0.20    4.12
  -8  -5  -3   12.56    5.67
  -8  -5  -3   14.01    5.06
   8   5   3   13.40    5.01
  -8  -5  -4   98.39   11.00
  -8  -5  -4  108.02   10.91
   8   5   4  116.07   10.06
  -8  -5  -5    5.94    5.22
  -8  -5  -5    2.68    4.52
   8   5   5   10.30    6.56
   8   5   5    7.38    4.21
   8   5   6    7.45    3.42
   8   5   6   16.97    6.82
   8   5   6    9.44    4.00
   8   5   6   18.85    7.00
  -8  -5  -6   15.01    5.58
   8   5   7  114.83    9.54
   8   5   7  125.85   13.92
   8   5   7  117.97    9.67
   8   5   7  127.80   13.77
   8   5   7  115.63   11.79
  -8  -5  -7  114.82   12.01
   8   5   8    1.83    3.46
   8   5   8   -0.63    6.09
  -8  -5  -8    7.79    5.33
   8   5   9   -1.63    3.99
  -8  -5  -9    5.69    6.05
  -8  -6  -1   77.93   11.03
   8   6   1   57.22    8.18
  -8  -6  -2    2.77    5.85
  -8  -6  -2    4.73    4.21
   8   6   2    7.60    4.73
  -8  -6  -3    3.82    4.45
   8   6   3   -0.73    3.62
  -8  -6  -4   27.00    7.26
  -8  -6  -4   10.23    5.20
   8   6   4   13.51    5.02
  -8  -6  -5   15.52    6.74
  -8  -6  -5   31.34    7.81
   8   6   5   20.06    7.78
   8   6   5   15.11    4.87
  -8  -6  -6    4.16    4.84
   8   6   6    0.12    5.86
   8   6   6    1.51    3.75
   8   6   6   -0.30    5.24
  -8  -6  -6   10.99    5.98
   8   6   7   -2.80    3.52
   8   6   7   -0.47    5.59
  -8  -6  -7    0.62    5.32
   8   6   8   40.31    6.66
  -8  -6  -8   52.48    9.05
  -8  -7  -1   14.10    6.05
  -8  -7  -2   37.09    7.34
  -8  -7  -3    9.03    5.71
   8   7   3   -4.42    5.09
  -8  -7  -4   10.00    5.70
   8   7   4    3.88    4.84
  -8  -7  -5   17.04    6.61
   8   7   5   15.05    5.32
  -8  -7  -6    3.55    5.48
   8   7   6   -0.12    4.04
  -8  -8  -3   -2.68    6.06
  -8  -8  -4    1.99    5.48
   8   8   5   16.18    5.82
   8   8   6    5.20    4.78
   9  -1   0    8.52    6.11
   9  -1   1   36.85    8.18
   9  -1   2    8.98    4.97
   9  -1   3    5.17    4.76
   9  -1   4   26.03    6.80
   9  -1   4   17.03    4.55
   9  -1   5    2.13    4.43
   9  -1   5   10.43    5.02
   9   0   3   26.27    5.36
   9   0   4    2.84    3.86
   9   0   4    2.66    5.87
   9   0   4    3.77    3.61
   9   0   5   50.07    7.39
   9   0   5   41.28    6.87
   9   0   6   11.70    5.24
  -9  -1   1   15.01    5.10
  -9  -1   1    8.75    4.65
  -9  -1   0   30.04    6.40
  -9  -1   0   31.76    6.11
  -9  -1  -1   -5.49    5.13
  -9  -1  -2   17.41    5.34
   9   1   2   24.11    6.54
   9   1   2   23.82    5.28
   9   1   3   55.09    9.88
   9   1   3   56.20    8.67
   9   1   3   47.71    6.82
   9   1   4   27.57    7.84
   9   1   4   21.29    5.95
   9   1   4   24.20    5.42
   9   1   5    6.57    4.36
   9   1   5    6.72    5.39
   9   1   5    3.35    4.64
   9   1   6   38.28    7.71
   9   1   6   31.32    8.19
   9   1   7   19.18    7.98
  -9  -2   1   20.83    5.66
  -9  -2   1   27.92    6.13
  -9  -2   0   34.80    6.74
  -9  -2   0   23.13    5.98
  -9  -2  -1   12.17    5.05
  -9  -2  -1   30.63    6.38
   9   2   1   31.12    5.66
  -9  -2  -2   -0.94    4.10
  -9  -2  -2    0.84    3.62
   9   2   2   -2.60    3.78
   9   2   2   -2.69    3.65
  -9  -2  -3   15.33    4.47
  -9  -2  -3   19.59    5.94
   9   2   3   27.51    6.78
   9   2   3   19.21    5.07
   9   2   4   62.89    9.40
   9   2   4   56.85    9.15
   9   2   4   52.05    7.58
   9   2   5   -4.00    4.89
   9   2   5    4.18    5.06
   9   2   5   -6.09    4.88
   9   2   6   11.88    6.68
   9   2   6   18.04    6.07
  -9  -3   0   62.09    8.77
  -9  -3  -1   41.31    7.13
  -9  -3  -1   47.92    7.68
  -9  -3  -2   18.44    5.70
  -9  -3  -2    7.46    4.21
   9   3   2   12.23    4.88
   9   3   2   11.94    4.95
  -9  -3  -3   13.52    4.67
  -9  -3  -3    6.13    4.31
   9   3   3    7.07    4.73
   9   3   3   15.64    5.49
  -9  -3  -4   31.22    6.14
   9   3   4   18.02    6.13
   9   3   4   31.82    6.69
   9   3   4   39.57    8.44
   9   3   4   28.36    6.67
  -9  -3  -5   19.90    5.26
   9   3   5   14.68    6.63
   9   3   5    6.48    4.56
   9   3   5   21.87    7.00
   9   3   7   18.80    5.38
   9   3   8    8.10    4.13
  -9  -4  -1   37.41    7.92
  -9  -4  -2   28.61    6.33
  -9  -4  -3   10.92    4.84
   9   4   3   -2.95    4.67
   9   4   3    3.30    4.65
  -9  -4  -4   19.98    5.69
   9   4   4   10.21    7.28
   9   4   4   17.45    5.88
   9   4   4   17.50    5.91
  -9  -4  -5   38.63    7.12
   9   4   5   43.35    7.07
  -9  -4  -6   10.81    5.18
   9   4   6   12.16    5.07
  -9  -5  -3   12.54    6.35
  -9  -5  -4   10.62    6.05
   9   5   4    9.33    5.40
  -9  -5  -5   32.82    6.88
   9   5   5   16.63    5.24
  -9  -5  -6    2.31    4.99
   9   5   6    7.37    4.93
  -9  -5  -7    8.92    5.81
   9   6   5    0.05    4.41
   9   6   6   51.90    7.93
   0   0   0    0.00    0.00
TITL V323_10_ABS in P-1
REM P-1 (#2 in standard setting)
CELL 0.71073   6.892045   7.728117   8.920985  76.6458  73.8972  76.0445
ZERR    2.00   0.000179   0.000253   0.000244   0.0026   0.0023   0.0025
LATT  1
SFAC C H N O
UNIT 22.00 20.00 2.00 2.00
TREF
HKLF 4
END
_computing_structure_solution     'SHELXT 2018/2 (Sheldrick, 2018)'
;
_shelx_hkl_checksum              87814
_shelx_res_file
;
TITL v323_10_abs_a.res in P-1
    v323_10_abs.res
    created by SHELXL-2018/3 at 14:19:28 on 09-Jul-2020
REM Old TITL V323_10_ABS in P-1
REM SHELXT solution in P-1: R1 0.149, Rweak 0.013, Alpha 0.049
REM <I/s> 0.000 for 0 systematic absences, Orientation as input
REM Formula found by SHELXT: C8 N O2 Br
rem EQIV $2 1-X,-Y,1-Z
rem EQIV $3 1-X,1-Y,1-Z
rem HTAB N1 O2_$2
rem HTAB C5 Br1_$3
CELL 0.71073 6.892 7.7281 8.921 76.646 73.897 76.045
ZERR 2 0.0002 0.0003 0.0002 0.003 0.002 0.002
LATT 1
SFAC C H Br N O
UNIT 14 18 2 4 4
EQIV $1 1-X,-Y,2-Z
L.S. 8 0 0
PLAN  1
TEMP 21.9(10)
CONF
HTAB N1 O1
HTAB N1 Br1
HTAB N1 Br1_$1
BOND
list 4
MORE -1
BOND $H
fmap 2 53
acta
OMIT 0 58
OMIT 0 1 0
REM <olex2.extras>
REM <HklSrc "%.\\V323_10_ABS.hkl">
REM </olex2.extras>
WGHT    0.028400    0.094100
FVAR       0.96608
BR1   3    0.816002    0.100381    0.851824    11.00000    0.04293    0.05194 =
         0.04204    0.01167   -0.01413   -0.01063
O1    5    0.290259    0.058423    0.535013    11.00000    0.06878    0.04040 =
         0.05181   -0.00939   -0.01581   -0.01710
N1    4    0.360498    0.124311    0.796944    11.00000    0.04291    0.02956 =
         0.03179    0.00078   -0.01098   -0.00520
H1A   2    0.359266    0.044053    0.739309    11.00000    0.06196
H1B   2    0.281396    0.094558    0.888874    11.00000    0.05658
H1C   2    0.492208    0.108130    0.810724    11.00000    0.05163
C1    1    0.293735    0.310053    0.721272    11.00000    0.02508    0.02851 =
         0.03214    0.00042   -0.00493   -0.00792
O2    5    0.370436    0.252049    0.323718    11.00000    0.08692    0.07727 =
         0.03237   -0.00736   -0.01516   -0.02595
N2    4    0.315828    0.211642    0.467763    11.00000    0.03716    0.04958 =
         0.03639   -0.00783   -0.01273   -0.01093
C2    1    0.256836    0.447453    0.807836    11.00000    0.02963    0.03515 =
         0.04009   -0.00779   -0.00230   -0.00938
C3    1    0.199302    0.625148    0.731925    11.00000    0.03717    0.03123 =
         0.06731   -0.01158   -0.00448   -0.00993
AFIX  43
H3    2    0.168936    0.719362    0.788371    11.00000   -1.20000
AFIX   0
C4    1    0.186348    0.664540    0.575305    11.00000    0.04067    0.03102 =
         0.06895    0.01081   -0.01857   -0.01031
AFIX  43
H4    2    0.148182    0.784148    0.528182    11.00000   -1.20000
AFIX   0
C5    1    0.229126    0.529291    0.489229    11.00000    0.03553    0.03965 =
         0.04630    0.01164   -0.01675   -0.01401
AFIX  43
H5    2    0.224223    0.555655    0.383067    11.00000   -1.20000
AFIX   0
C6    1    0.279916    0.352185    0.563563    11.00000    0.02703    0.03268 =
         0.03533    0.00053   -0.00986   -0.00945
C7    1    0.279644    0.406124    0.976472    11.00000    0.05711    0.05525 =
         0.04016   -0.01765   -0.00648   -0.01217
AFIX 137
H7A   2    0.195481    0.320174    1.038442    11.00000   -1.50000
H7B   2    0.237042    0.515587    1.020032    11.00000   -1.50000
H7C   2    0.420924    0.356305    0.978274    11.00000   -1.50000
AFIX   0
HKLF 4
REM  v323_10_abs_a.res in P-1
REM wR2 = 0.0608, GooF = S = 1.109, Restrained GooF = 1.109 for all data
REM R1 = 0.0262 for 1986 Fo > 4sig(Fo) and 0.0342 for all 2299 data
REM 122 parameters refined using 0 restraints
END
WGHT      0.0284      0.0941
REM Highest difference peak  0.331,  deepest hole -0.387,  1-sigma level  0.072
Q1    1   0.2865  0.3565  0.3324  11.00000  0.05    0.33
;
_shelx_res_checksum              40154
loop_
_space_group_symop_operation_xyz
'x, y, z'
'-x, -y, -z'
loop_
_atom_site_type_symbol
_atom_site_label
_atom_site_fract_x
_atom_site_fract_y
_atom_site_fract_z
_atom_site_U_iso_or_equiv
_atom_site_adp_type
_atom_site_calc_flag
_atom_site_occupancy
_atom_site_disorder_assembly
_atom_site_disorder_group
Br Br1 0.81600(3) 0.10038(3) 0.85182(2) 0.04788(9) Uani d 1 . .
O O1 0.2903(3) 0.0584(2) 0.53501(18) 0.0519(4) Uani d 1 . .
N N1 0.3605(3) 0.1243(2) 0.7969(2) 0.0356(3) Uani d 1 . .
H H1A 0.359(4) 0.044(4) 0.739(3) 0.062(7) Uiso d 1 . .
H H1B 0.281(4) 0.095(3) 0.889(3) 0.057(7) Uiso d 1 . .
H H1C 0.492(4) 0.108(3) 0.811(3) 0.052(6) Uiso d 1 . .
C C1 0.2937(2) 0.3101(2) 0.7213(2) 0.0294(3) Uani d 1 . .
O O2 0.3704(3) 0.2520(2) 0.32372(17) 0.0638(5) Uani d 1 . .
N N2 0.3158(2) 0.2116(2) 0.46776(19) 0.0397(4) Uani d 1 . .
C C2 0.2568(3) 0.4475(2) 0.8078(2) 0.0354(4) Uani d 1 . .
C C3 0.1993(3) 0.6251(3) 0.7319(3) 0.0457(5) Uani d 1 . .
H H3 0.168936 0.719362 0.788371 0.055 Uiso calc 1 . .
C C4 0.1863(3) 0.6645(3) 0.5753(3) 0.0484(5) Uani d 1 . .
H H4 0.148182 0.784148 0.528182 0.058 Uiso calc 1 . .
C C5 0.2291(3) 0.5293(3) 0.4892(2) 0.0411(4) Uani d 1 . .
H H5 0.224223 0.555655 0.383067 0.049 Uiso calc 1 . .
C C6 0.2799(2) 0.3522(2) 0.5636(2) 0.0316(3) Uani d 1 . .
C C7 0.2796(4) 0.4061(3) 0.9765(2) 0.0500(5) Uani d 1 . .
H H7A 0.195481 0.320174 1.038442 0.075 Uiso calc 1 . .
H H7B 0.237042 0.515587 1.020032 0.075 Uiso calc 1 . .
H H7C 0.420924 0.356305 0.978274 0.075 Uiso calc 1 . .
loop_
_atom_site_aniso_label
_atom_site_aniso_U_11
_atom_site_aniso_U_22
_atom_site_aniso_U_33
_atom_site_aniso_U_12
_atom_site_aniso_U_13
_atom_site_aniso_U_23
Br1 0.04293(13) 0.05194(14) 0.04204(12) -0.01063(9) -0.01413(9) 0.01167(9)
O1 0.0688(10) 0.0404(8) 0.0518(8) -0.0171(7) -0.0158(7) -0.0094(7)
N1 0.0429(9) 0.0296(8) 0.0318(8) -0.0052(7) -0.0110(7) 0.0008(6)
C1 0.0251(7) 0.0285(8) 0.0321(8) -0.0079(6) -0.0049(6) 0.0004(6)
O2 0.0869(12) 0.0773(12) 0.0324(7) -0.0260(10) -0.0152(8) -0.0074(8)
N2 0.0372(8) 0.0496(10) 0.0364(8) -0.0109(7) -0.0127(6) -0.0078(7)
C2 0.0296(8) 0.0352(9) 0.0401(9) -0.0094(7) -0.0023(7) -0.0078(7)
C3 0.0372(10) 0.0312(9) 0.0673(14) -0.0099(8) -0.0045(9) -0.0116(9)
C4 0.0407(10) 0.0310(9) 0.0690(14) -0.0103(8) -0.0186(10) 0.0108(9)
C5 0.0355(9) 0.0397(10) 0.0463(10) -0.0140(8) -0.0167(8) 0.0116(8)
C6 0.0270(8) 0.0327(8) 0.0353(9) -0.0094(7) -0.0099(7) 0.0005(7)
C7 0.0571(13) 0.0552(13) 0.0402(10) -0.0122(10) -0.0065(9) -0.0177(10)
loop_
_atom_type_symbol
_atom_type_description
_atom_type_scat_dispersion_real
_atom_type_scat_dispersion_imag
_atom_type_scat_source
C C 0.0033 0.0016 'International Tables Vol C Tables 4.2.6.8 and 6.1.1.4'
H H 0.0000 0.0000 'International Tables Vol C Tables 4.2.6.8 and 6.1.1.4'
Br Br -0.2901 2.4595 'International Tables Vol C Tables 4.2.6.8 and 6.1.1.4'
N N 0.0061 0.0033 'International Tables Vol C Tables 4.2.6.8 and 6.1.1.4'
O O 0.0106 0.0060 'International Tables Vol C Tables 4.2.6.8 and 6.1.1.4'
loop_
_exptl_crystal_face_index_h
_exptl_crystal_face_index_k
_exptl_crystal_face_index_l
_exptl_crystal_face_perp_dist
-1 -4 5 0.1593
-5 -3 -2 0.1427
5 2 4 0.1656
-3 0 -5 0.1601
3 5 -5 0.1521
-1 5 1 0.0920
1 -5 -1 0.0920
loop_
_geom_angle_atom_site_label_1
_geom_angle_atom_site_label_2
_geom_angle_atom_site_label_3
_geom_angle_site_symmetry_1
_geom_angle_site_symmetry_3
_geom_angle
_geom_angle_publ_flag
H1A N1 H1B . . 105(2) ?
H1A N1 H1C . . 108(2) ?
H1B N1 H1C . . 108(2) ?
C1 N1 H1A . . 111.5(17) ?
C1 N1 H1B . . 112.9(17) ?
C1 N1 H1C . . 110.7(15) ?
C2 C1 N1 . . 118.04(15) ?
C2 C1 C6 . . 120.05(16) ?
C6 C1 N1 . . 121.77(16) ?
O1 N2 C6 . . 118.93(15) ?
O2 N2 O1 . . 122.57(17) ?
O2 N2 C6 . . 118.50(17) ?
C1 C2 C3 . . 117.32(17) ?
C1 C2 C7 . . 121.11(17) ?
C3 C2 C7 . . 121.57(18) ?
C2 C3 H3 . . 119.1 ?
C4 C3 C2 . . 121.83(19) ?
C4 C3 H3 . . 119.1 ?
C3 C4 H4 . . 119.7 ?
C5 C4 C3 . . 120.57(18) ?
C5 C4 H4 . . 119.7 ?
C4 C5 H5 . . 120.8 ?
C4 C5 C6 . . 118.49(18) ?
C6 C5 H5 . . 120.8 ?
C1 C6 N2 . . 122.02(15) ?
C5 C6 C1 . . 121.68(17) ?
C5 C6 N2 . . 116.30(16) ?
C2 C7 H7A . . 109.5 ?
C2 C7 H7B . . 109.5 ?
C2 C7 H7C . . 109.5 ?
H7A C7 H7B . . 109.5 ?
H7A C7 H7C . . 109.5 ?
H7B C7 H7C . . 109.5 ?
loop_
_geom_bond_atom_site_label_1
_geom_bond_atom_site_label_2
_geom_bond_site_symmetry_2
_geom_bond_distance
_geom_bond_publ_flag
O1 N2 . 1.228(2) ?
N1 H1A . 0.90(3) ?
N1 H1B . 0.86(3) ?
N1 H1C . 0.92(3) ?
N1 C1 . 1.461(2) ?
C1 C2 . 1.389(3) ?
C1 C6 . 1.394(2) ?
O2 N2 . 1.222(2) ?
N2 C6 . 1.467(2) ?
C2 C3 . 1.399(3) ?
C2 C7 . 1.508(3) ?
C3 H3 . 0.9300 ?
C3 C4 . 1.383(3) ?
C4 H4 . 0.9300 ?
C4 C5 . 1.366(3) ?
C5 H5 . 0.9300 ?
C5 C6 . 1.383(2) ?
C7 H7A . 0.9600 ?
C7 H7B . 0.9600 ?
C7 H7C . 0.9600 ?
loop_
_geom_hbond_atom_site_label_D
_geom_hbond_atom_site_label_H
_geom_hbond_atom_site_label_A
_geom_hbond_site_symmetry_A
_geom_hbond_distance_DH
_geom_hbond_distance_HA
_geom_hbond_distance_DA
_geom_hbond_angle_DHA
_geom_hbond_publ_flag
N1 H1A O1 . 0.90(3) 1.98(3) 2.693(2) 135(2) yes
N1 H1B Br1 2_657 0.86(3) 2.47(3) 3.2717(17) 155(2) yes
N1 H1C Br1 . 0.92(3) 2.34(3) 3.2650(18) 174(2) yes
loop_
_geom_torsion_atom_site_label_1
_geom_torsion_atom_site_label_2
_geom_torsion_atom_site_label_3
_geom_torsion_atom_site_label_4
_geom_torsion_site_symmetry_1
_geom_torsion_site_symmetry_2
_geom_torsion_site_symmetry_3
_geom_torsion_site_symmetry_4
_geom_torsion
_geom_torsion_publ_flag
O1 N2 C6 C1 . . . . 24.5(2) ?
O1 N2 C6 C5 . . . . -154.82(17) ?
N1 C1 C2 C3 . . . . 178.02(16) ?
N1 C1 C2 C7 . . . . -1.5(3) ?
N1 C1 C6 N2 . . . . 4.9(2) ?
N1 C1 C6 C5 . . . . -175.88(16) ?
C1 C2 C3 C4 . . . . -2.3(3) ?
O2 N2 C6 C1 . . . . -155.44(18) ?
O2 N2 C6 C5 . . . . 25.3(2) ?
C2 C1 C6 N2 . . . . -179.47(15) ?
C2 C1 C6 C5 . . . . -0.2(3) ?
C2 C3 C4 C5 . . . . 0.3(3) ?
C3 C4 C5 C6 . . . . 1.8(3) ?
C4 C5 C6 C1 . . . . -1.8(3) ?
C4 C5 C6 N2 . . . . 177.48(16) ?
C6 C1 C2 C3 . . . . 2.2(2) ?
C6 C1 C2 C7 . . . . -177.35(17) ?
C7 C2 C3 C4 . . . . 177.29(19) ?
