#------------------------------------------------------------------------------
#$Date: 2020-07-24 07:45:36 +0300 (Fri, 24 Jul 2020) $
#$Revision: 254539 $
#$URL: file:///home/coder/svn-repositories/cod/cif/2/02/22/2022209.cif $
#------------------------------------------------------------------------------
#
# This file is available in the Crystallography Open Database (COD),
# http://www.crystallography.net/. The original data for this entry
# were provided by IUCr Journals, http://journals.iucr.org/.
#
# The file may be used within the scientific community so long as
# proper attribution is given to the journal article from which the
# data were obtained.
#
data_2022209
loop_
_publ_author_name
'Cleetus, Annie'
'Rani, Gulshan'
'Dharma Rao, G. B.'
'Chopra, Deepak'
_publ_section_title
;
 Crystal structures of the anhydrous and two solvated forms of methyl
 4-(4-fluorophenyl)-6-methyl-2-oxo-1,2,3,4-tetrahydropyrimidine-5-carboxylate
;
_journal_coeditor_code           CU3165
_journal_issue                   8
_journal_name_full               'Acta Crystallographica Section C'
_journal_page_first
;
;
_journal_paper_doi               10.1107/S2053229620009560
_journal_volume                  76
_journal_year                    2020
_chemical_formula_iupac          'C13 H13 F N2 O3, 0.5C4 H8 O2'
_chemical_formula_moiety         'C13 H13 F N2 O3, 0.5(C4 H8 O2)'
_chemical_formula_sum            'C15 H17 F N2 O4'
_chemical_formula_weight         308.30
_chemical_name_systematic
;
Methyl
4-(4-fluorophenyl)-6-methyl-2-oxo-1,2,3,4-tetrahydropyrimidine-5-carboxylate
ethyl acetate hemisolvate
;
_space_group_crystal_system      triclinic
_space_group_IT_number           2
_space_group_name_Hall           '-P 1'
_space_group_name_H-M_alt        'P -1'
_atom_sites_solution_hydrogens   mixed
_audit_creation_method           SHELXL-2018/3
_cell_angle_alpha                82.389(2)
_cell_angle_beta                 79.380(2)
_cell_angle_gamma                65.898(2)
_cell_formula_units_Z            2
_cell_length_a                   7.3353(2)
_cell_length_b                   8.9091(2)
_cell_length_c                   12.5006(4)
_cell_measurement_reflns_used    3724
_cell_measurement_temperature    100(2)
_cell_measurement_theta_max      28.74
_cell_measurement_theta_min      2.51
_cell_volume                     731.44(4)
_computing_cell_refinement
;
SAINT (Bruker, 2012)
;
_computing_data_collection
;
APEX2 (Bruker, 2012)
;
_computing_data_reduction
;
SAINT (Bruker, 2012)
;
_computing_molecular_graphics
;
SHELXTL (Sheldrick, 2008)
;
_computing_publication_material
;
SHELXTL (Sheldrick, 2008), PLATON (Spek, 2020) and PARST
(Nardelli, 1995)
;
_computing_structure_refinement
;
SHELXL2018 (Sheldrick, 2015) and
WinGX (Farrugia (2012)
;
_computing_structure_solution
;
SHELXS97 (Sheldrick, 2008) and
SIR2014 (Burla <i>et al.</i>, 2015)
;
_diffrn_ambient_temperature      100(2)
_diffrn_measured_fraction_theta_full 0.998
_diffrn_measured_fraction_theta_max 0.995
_diffrn_measurement_device_type  'Bruker APEXII CCD'
_diffrn_measurement_method       '\f and \w scans'
_diffrn_radiation_type           MoK\a
_diffrn_radiation_wavelength     0.71073
_diffrn_reflns_av_R_equivalents  0.0338
_diffrn_reflns_av_unetI/netI     0.0352
_diffrn_reflns_limit_h_max       9
_diffrn_reflns_limit_h_min       -9
_diffrn_reflns_limit_k_max       11
_diffrn_reflns_limit_k_min       -11
_diffrn_reflns_limit_l_max       16
_diffrn_reflns_limit_l_min       -16
_diffrn_reflns_number            14325
_diffrn_reflns_theta_full        25.242
_diffrn_reflns_theta_max         27.877
_diffrn_reflns_theta_min         1.661
_exptl_absorpt_coefficient_mu    0.110
_exptl_absorpt_correction_T_max  0.7460
_exptl_absorpt_correction_T_min  0.7058
_exptl_absorpt_correction_type   multi-scan
_exptl_absorpt_process_details
;
(SADABS; Bruker, 2001)
;
_exptl_crystal_colour            colourless
_exptl_crystal_density_diffrn    1.400
_exptl_crystal_description       rod
_exptl_crystal_F_000             324
_exptl_crystal_size_max          0.430
_exptl_crystal_size_mid          0.360
_exptl_crystal_size_min          0.270
_refine_diff_density_max         0.652
_refine_diff_density_min         -0.341
_refine_ls_extinction_method     none
_refine_ls_goodness_of_fit_ref   1.052
_refine_ls_hydrogen_treatment    mixed
_refine_ls_matrix_type           full
_refine_ls_number_parameters     238
_refine_ls_number_reflns         3475
_refine_ls_number_restraints     118
_refine_ls_restrained_S_all      1.062
_refine_ls_R_factor_all          0.0716
_refine_ls_R_factor_gt           0.0526
_refine_ls_shift/su_max          0.000
_refine_ls_shift/su_mean         0.000
_refine_ls_structure_factor_coef Fsqd
_refine_ls_weighting_details
'w=1/[\s^2^(Fo^2^)+(0.0610P)^2^+0.4490P] where P=(Fo^2^+2Fc^2^)/3'
_refine_ls_weighting_scheme      calc
_refine_ls_wR_factor_gt          0.1282
_refine_ls_wR_factor_ref         0.1413
_reflns_number_gt                2647
_reflns_number_total             3475
_reflns_threshold_expression     'I > 2\s(I)'
_cod_data_source_file            cu3165sup1.cif
_cod_data_source_block           S2
_cod_database_code               2022209
_shelx_space_group_comment
;
The symmetry employed for this shelxl refinement is uniquely defined
by the following loop, which should always be used as a source of
symmetry information in preference to the above space-group names.
They are only intended as comments.
;
_shelx_estimated_absorpt_t_min   0.954
_shelx_estimated_absorpt_t_max   0.971
_shelx_hkl_file
;
  -1   0   0    0.32    0.13
  -1   0   0    0.04    0.17
  -1   0   0    1.10    0.25
  -1   0   0    0.55    0.20
   1   0   0    0.62    0.20
   1   0   0    0.24    0.18
   1   0   0    0.48    0.14
  -2   0   0  374.18    6.89
  -2   0   0  377.92    6.76
  -2   0   0  375.15    6.77
  -2   0   0  370.90    7.00
   2   0   0  375.52    6.89
   2   0   0  375.00    6.45
  -3   0   0   24.57    1.15
  -3   0   0   23.11    1.13
  -3   0   0   21.29    1.09
   3   0   0   22.90    0.92
   3   0   0   25.22    1.28
  -4   0   0    2.45    0.55
  -4   0   0    2.79    0.57
  -4   0   0    2.97    0.46
  -4   0   0    2.03    0.51
   4   0   0    1.80    0.37
   4   0   0    1.73    0.51
   4   0   0    2.29    0.50
   4   0   0    2.41    0.55
  -5   0   0   41.16    1.62
  -5   0   0   45.42    2.10
  -5   0   0   44.38    2.07
  -5   0   0   41.11    1.99
   5   0   0   41.07    1.89
   5   0   0   44.43    1.68
   5   0   0   43.36    2.20
  -6   0   0    5.04    0.71
  -6   0   0    6.92    1.13
  -6   0   0    7.56    1.16
   6   0   0    5.71    0.99
   6   0   0    4.52    0.68
  -7   0   0    2.64    0.59
  -7   0   0    3.95    1.06
   7   0   0    3.59    0.88
  -8   0   0    3.27    1.04
  -8   1   0   17.83    2.21
   7  -1   0    1.14    0.68
  -7   1   0    0.65    0.56
   6  -1   0    4.97    0.94
   6  -1   0    5.04    0.72
  -6   1   0    6.47    1.17
  -6   1   0    4.52    0.77
  -6   1   0    4.98    0.98
   5  -1   0    6.99    1.04
   5  -1   0    6.12    0.90
   5  -1   0    8.14    0.82
  -5   1   0    8.68    1.14
  -5   1   0    9.89    1.29
   4  -1   0    0.53    0.37
   4  -1   0   -0.17    0.14
   4  -1   0    0.01    0.27
   4  -1   0    0.07    0.21
   4  -1   0    0.22    0.34
  -4   1   0   -0.13    0.31
  -4   1   0    0.01    0.24
  -4   1   0    0.62    0.42
  -4   1   0    0.05    0.23
   3  -1   0  354.74    7.12
   3  -1   0  329.11    6.84
   3  -1   0  344.48    6.71
   3  -1   0  337.99    6.24
  -3   1   0  343.46    6.77
  -3   1   0  341.80    6.62
  -3   1   0  340.76    7.20
  -3   1   0  345.10    7.02
   2  -1   0   17.69    0.96
   2  -1   0   15.94    0.66
   2  -1   0   15.31    0.87
  -2   1   0   17.59    0.99
  -2   1   0   14.65    0.89
  -2   1   0   16.33    0.82
  -2   1   0   16.68    0.92
   1  -1   0  842.95   13.83
  -1   1   0  829.01   13.79
   0  -1   0   89.49    1.61
   0   1   0   88.51    1.63
   0   1   0   88.11    1.81
  -1  -1   0  280.94    4.89
   1   1   0  304.80    4.94
  -2  -1   0   57.60    1.10
  -2  -1   0   57.28    1.69
  -2  -1   0   56.43    1.10
  -2  -1   0   56.18    1.37
  -2  -1   0   56.44    1.57
   2   1   0   54.34    1.36
   2   1   0   58.27    1.60
   2   1   0   56.78    1.26
  -3  -1   0    9.83    0.65
  -3  -1   0   10.03    0.47
  -3  -1   0    9.86    0.47
  -3  -1   0    9.05    0.75
  -3  -1   0   10.16    0.77
   3   1   0   10.35    0.80
   3   1   0   10.17    0.57
   3   1   0   10.57    0.66
  -4  -1   0   63.10    1.63
  -4  -1   0   57.38    2.19
  -4  -1   0   61.08    2.01
  -4  -1   0   58.34    2.13
   4   1   0   60.73    1.80
  -5  -1   0   69.98    2.48
  -5  -1   0   70.97    2.69
  -5  -1   0   71.79    1.93
  -5  -1   0   71.34    2.65
   5   1   0   72.43    2.81
   5   1   0   69.24    2.39
   5   1   0   72.42    2.22
  -6  -1   0  313.98    7.10
  -6  -1   0  314.22    7.49
  -6  -1   0  325.05    7.47
  -6  -1   0  294.55    5.93
   6   1   0  306.20    7.66
   6   1   0  316.31    6.59
   6   1   0  316.39    6.94
  -7  -1   0   58.02    2.85
   7   1   0   58.16    2.31
  -8  -1   0   38.48    2.55
  -9  -1   0    2.03    0.94
   7  -2   0    0.65    0.55
  -7   2   0    0.02    0.56
   6  -2   0   31.62    1.46
   6  -2   0   30.92    2.09
  -6   2   0   36.31    2.13
   5  -2   0   49.56    2.41
   5  -2   0   45.84    2.16
   5  -2   0   45.72    1.64
  -5   2   0   41.23    2.12
  -5   2   0   47.27    2.47
  -5   2   0   43.13    2.48
   4  -2   0  181.99    3.84
   4  -2   0  179.12    4.57
   4  -2   0  175.34    4.80
   4  -2   0  181.95    4.51
  -4   2   0  180.24    4.57
  -4   2   0  180.30    5.15
  -4   2   0  185.97    5.05
   3  -2   0  226.03    4.93
   3  -2   0  216.98    5.22
   3  -2   0  229.94    5.23
   3  -2   0  214.74    4.94
   3  -2   0  223.84    4.25
  -3   2   0  223.52    4.75
  -3   2   0  215.92    5.41
  -3   2   0  220.84    4.89
  -3   2   0  218.80    5.33
   2  -2   0   22.58    0.71
   2  -2   0   21.01    1.09
   2  -2   0   21.91    1.00
   2  -2   0   22.45    1.16
   2  -2   0   21.83    1.15
  -2   2   0   21.94    1.15
  -2   2   0   22.42    1.23
  -2   2   0   21.63    1.27
  -2   2   0   23.06    1.01
  -2   2   0   22.03    1.22
   1  -2   0  325.96    6.20
   1  -2   0  322.56    6.04
  -1   2   0  327.83    6.35
  -1   2   0  326.52    5.77
  -1   2   0  333.57    6.10
   0  -2   0   41.77    1.04
   0  -2   0   42.29    1.23
   0   2   0   40.37    1.31
   0   2   0   39.63    1.07
  -1  -2   0   29.84    0.68
  -1  -2   0   30.88    0.68
   1   2   0   30.06    0.77
   1   2   0   31.06    0.77
  -2  -2   0   -0.02    0.19
  -2  -2   0   -0.05    0.18
  -2  -2   0   -0.09    0.12
   2   2   0   -0.03    0.17
   2   2   0    0.01    0.11
  -3  -2   0   86.61    2.38
  -3  -2   0   87.80    2.67
  -3  -2   0   90.87    2.03
   3   2   0   87.02    2.38
   3   2   0   88.98    1.89
   3   2   0   88.44    2.02
  -4  -2   0    9.11    1.04
  -4  -2   0   10.54    0.72
  -4  -2   0   11.11    1.05
   4   2   0   10.86    0.71
   4   2   0   10.97    0.65
   4   2   0   11.42    0.92
  -5  -2   0   31.37    1.45
  -5  -2   0   32.51    1.84
  -5  -2   0   30.93    1.67
   5   2   0   33.27    1.37
   5   2   0   33.29    1.77
  -6  -2   0   66.94    2.90
  -6  -2   0   62.72    2.71
   6   2   0   68.45    2.92
   6   2   0   67.88    2.29
  -7  -2   0  197.39    5.81
  -7  -2   0  202.73    5.94
   7   2   0  200.01    4.97
  -8  -2   0    8.73    1.45
  -9  -2   0    1.35    0.91
   7  -3   0    0.97    0.72
   6  -3   0    2.70    0.85
  -6   3   0    1.62    0.64
  -6   3   0    3.67    1.08
   5  -3   0   65.64    2.79
   5  -3   0   69.70    3.12
  -5   3   0   67.56    3.32
  -5   3   0   71.44    2.84
   4  -3   0    0.75    0.45
   4  -3   0    1.89    0.56
   4  -3   0    1.72    0.53
  -4   3   0    2.40    0.59
  -4   3   0    1.30    0.61
  -4   3   0    1.43    0.62
   3  -3   0   45.84    2.13
   3  -3   0   49.50    2.09
   3  -3   0   46.30    1.04
   3  -3   0   46.60    1.91
  -3   3   0   46.22    2.20
  -3   3   0   48.35    1.85
  -3   3   0   49.42    2.28
  -3   3   0   48.03    1.80
   2  -3   0   52.98    1.97
   2  -3   0   53.59    2.05
   2  -3   0   53.87    2.09
   2  -3   0   53.39    1.78
  -2   3   0   47.89    2.07
  -2   3   0   59.08    2.10
  -2   3   0   50.01    2.13
  -2   3   0   54.30    1.72
  -2   3   0   52.75    1.77
   1  -3   0   17.88    0.93
   1  -3   0   18.85    1.08
   1  -3   0   17.75    1.08
   1  -3   0   17.54    0.78
  -1   3   0   18.99    0.80
  -1   3   0   18.47    0.92
  -1   3   0   18.84    0.99
  -1   3   0   18.03    1.11
   0  -3   0  253.50    5.20
   0  -3   0  250.30    5.01
   0  -3   0  249.15    4.59
   0   3   0  254.23    4.75
   0   3   0  258.48    5.28
   0   3   0  257.49    5.06
  -1  -3   0  271.04    4.99
  -1  -3   0  262.13    4.96
  -1  -3   0  272.82    5.43
  -1  -3   0  274.52    4.45
   1   3   0  271.94    5.44
   1   3   0  267.40    5.43
   1   3   0  268.36    4.72
   1   3   0  274.41    4.72
  -2  -3   0   15.42    0.96
  -2  -3   0   14.02    0.57
  -2  -3   0   14.53    0.54
  -2  -3   0   15.11    0.73
  -2  -3   0   13.47    0.60
   2   3   0   14.24    0.59
   2   3   0   15.71    0.67
  -3  -3   0  322.76    6.22
  -3  -3   0  321.33    5.58
  -3  -3   0  321.72    6.81
   3   3   0  312.89    5.54
   3   3   0  318.11    6.08
  -4  -3   0    2.12    0.50
  -4  -3   0    1.98    0.34
  -4  -3   0    1.94    0.56
   4   3   0    2.33    0.32
   4   3   0    1.91    0.33
   4   3   0    2.14    0.49
  -5  -3   0    0.73    0.30
  -5  -3   0    0.79    0.45
  -5  -3   0    1.11    0.48
   5   3   0    1.29    0.33
   5   3   0    1.51    0.49
  -6  -3   0   26.25    1.84
  -6  -3   0   30.16    1.83
   6   3   0   30.07    1.42
   6   3   0   30.88    1.88
  -7  -3   0    1.53    0.74
  -7  -3   0    2.47    0.79
   7   3   0    1.35    0.71
   7   3   0    2.02    0.55
  -8  -3   0   -0.03    0.55
  -8  -3   0    2.49    0.86
  -9  -3   0   20.69    2.48
   6  -4   0    5.09    1.23
  -6   4   0    4.52    1.31
   5  -4   0   10.09    1.33
   5  -4   0   15.77    1.96
   5  -4   0   13.48    1.63
  -5   4   0   13.73    1.91
  -5   4   0   10.79    1.45
   4  -4   0    0.42    0.38
   4  -4   0   -0.03    0.37
   4  -4   0    0.30    0.37
  -4   4   0   -0.04    0.34
  -4   4   0    0.06    0.38
  -4   4   0    0.80    0.58
   3  -4   0   17.86    1.70
   3  -4   0   21.41    1.49
   3  -4   0   17.56    1.20
  -3   4   0   15.82    1.67
  -3   4   0   17.55    1.14
  -3   4   0   17.27    1.76
   2  -4   0    1.37    0.38
   2  -4   0    0.43    0.36
   2  -4   0    0.82    0.45
  -2   4   0    0.72    0.44
  -2   4   0    0.73    0.42
  -2   4   0    0.81    0.32
  -2   4   0    0.59    0.30
   1  -4   0    0.42    0.21
   1  -4   0    0.33    0.30
   1  -4   0    0.31    0.23
   1  -4   0    0.53    0.33
  -1   4   0    0.13    0.19
  -1   4   0    0.01    0.18
  -1   4   0    0.07    0.25
  -1   4   0    0.42    0.25
   0  -4   0   99.07    2.91
   0  -4   0   90.09    2.67
   0  -4   0  103.77    2.31
   0   4   0  105.03    2.81
   0   4   0  104.05    3.04
   0   4   0  100.50    2.48
   0   4   0   98.38    2.14
  -1  -4   0  432.33    7.40
  -1  -4   0  436.20    8.34
  -1  -4   0  444.06    7.93
  -1  -4   0  427.56    8.20
   1   4   0  429.38    8.41
   1   4   0  431.98    8.35
   1   4   0  426.78    7.41
   1   4   0  432.70    8.20
   1   4   0  425.24    7.47
  -2  -4   0  313.71    6.70
  -2  -4   0  314.30    5.82
  -2  -4   0  295.55    5.73
   2   4   0  314.78    5.80
   2   4   0  330.06    6.81
   2   4   0  315.44    5.64
   2   4   0  335.26    6.59
  -3  -4   0  319.23    5.66
  -3  -4   0  315.64    5.91
  -3  -4   0  314.21    6.21
  -3  -4   0  329.37    7.09
   3   4   0  326.38    6.07
   3   4   0  321.99    5.70
  -4  -4   0   83.53    3.13
  -4  -4   0   89.01    2.01
  -4  -4   0   88.88    2.69
   4   4   0   86.52    1.66
   4   4   0   84.27    1.97
   4   4   0   92.00    2.59
  -5  -4   0    1.36    0.57
  -5  -4   0    0.94    0.49
   5   4   0    0.47    0.34
   5   4   0    1.55    0.32
  -6  -4   0   87.39    3.23
  -6  -4   0   88.78    3.66
   6   4   0   86.99    3.22
   6   4   0   94.65    2.61
  -7  -4   0   -0.02    0.45
  -7  -4   0    1.34    0.70
   7   4   0    1.11    0.57
   7   4   0   -0.21    0.30
  -8  -4   0    2.39    0.93
  -8  -4   0    2.27    0.90
   8   4   0    3.68    1.02
   8   4   0    3.02    0.70
  -9  -4   0    0.23    0.77
  -9  -4   0   -0.26    0.56
   6  -5   0    2.50    1.06
  -6   5   0    6.55    1.56
   5  -5   0    0.54    0.47
   5  -5   0    0.22    0.49
   5  -5   0    1.45    0.78
  -5   5   0    0.29    0.55
  -5   5   0    0.57    0.66
   4  -5   0    1.62    0.76
   4  -5   0    2.31    0.80
   4  -5   0    1.45    0.55
  -4   5   0    0.59    0.58
  -4   5   0    0.84    0.53
   3  -5   0   22.13    1.68
   3  -5   0   16.04    1.70
   3  -5   0   15.79    1.23
  -3   5   0   16.79    2.05
  -3   5   0   15.91    1.67
  -3   5   0   18.54    1.91
   2  -5   0   22.45    1.61
   2  -5   0   23.91    1.65
   2  -5   0   23.30    1.31
  -2   5   0   23.05    1.68
  -2   5   0   24.36    1.69
   1  -5   0    1.53    0.35
   1  -5   0    2.32    0.59
   1  -5   0    2.22    0.60
  -1   5   0    1.72    0.37
  -1   5   0    2.70    0.55
  -1   5   0    1.37    0.50
   0  -5   0    0.28    0.28
   0  -5   0    0.15    0.31
   0   5   0    0.32    0.19
   0   5   0    0.20    0.19
   0   5   0    0.55    0.35
   0   5   0   -0.02    0.21
  -1  -5   0  220.90    4.16
  -1  -5   0  223.86    5.19
  -1  -5   0  214.92    5.16
   1   5   0  216.61    5.33
   1   5   0  225.05    4.21
   1   5   0  221.08    5.20
   1   5   0  220.80    5.16
   1   5   0  218.51    4.40
  -2  -5   0   44.94    1.55
  -2  -5   0   44.90    2.04
  -2  -5   0   47.28    1.85
  -2  -5   0   45.75    1.44
   2   5   0   46.25    1.40
   2   5   0   46.19    1.81
   2   5   0   46.66    2.07
   2   5   0   46.98    1.41
  -3  -5   0   44.11    1.57
  -3  -5   0   43.29    2.13
  -3  -5   0   46.52    1.40
   3   5   0   44.17    1.66
   3   5   0   45.18    1.42
   3   5   0   44.57    2.18
   3   5   0   45.86    1.48
  -4  -5   0    1.37    0.57
  -4  -5   0    1.59    0.48
  -4  -5   0    1.72    0.38
   4   5   0    1.65    0.56
   4   5   0    3.11    0.55
  -5  -5   0    6.35    0.95
  -5  -5   0    7.81    1.25
  -5  -5   0    8.29    0.91
   5   5   0    9.93    1.07
  -6  -5   0   15.04    1.50
  -6  -5   0   18.21    2.00
   6   5   0   15.32    1.53
  -7  -5   0   41.04    2.32
  -7  -5   0   40.14    2.67
   7   5   0   42.19    2.35
  -8  -5   0   20.61    2.29
  -8  -5   0   22.40    2.19
  -9  -5   0    7.19    1.58
  -9  -5   0    2.12    0.95
   5  -6   0    1.10    0.64
   5  -6   0    0.37    0.71
  -5   6   0    1.47    0.86
  -5   6   0    2.66    1.04
   4  -6   0    1.11    0.66
   4  -6   0    0.79    0.51
   4  -6   0    1.32    0.83
  -4   6   0    0.56    0.60
  -4   6   0    1.11    0.74
   3  -6   0    2.82    0.86
   3  -6   0    2.60    0.69
   3  -6   0    2.70    0.85
  -3   6   0    1.79    0.71
  -3   6   0    2.54    0.91
   2  -6   0  200.66    4.99
   2  -6   0  192.66    5.73
   2  -6   0  195.99    5.68
  -2   6   0  202.73    5.82
  -2   6   0  198.74    6.03
  -2   6   0  207.31    5.96
   1  -6   0    2.69    0.54
   1  -6   0    2.15    0.68
   1  -6   0    1.57    0.62
  -1   6   0    1.56    0.63
  -1   6   0    2.26    0.66
  -1   6   0    1.79    0.63
   0  -6   0   35.79    1.83
   0  -6   0   37.46    2.01
   0   6   0   33.71    1.92
   0   6   0   32.91    1.74
   0   6   0   35.20    1.98
  -1  -6   0   28.37    1.65
  -1  -6   0   27.94    1.62
   1   6   0   28.30    1.64
   1   6   0   26.59    1.40
   1   6   0   26.91    1.62
   1   6   0   28.59    1.71
  -2  -6   0    0.11    0.23
  -2  -6   0    0.13    0.31
  -2  -6   0    0.20    0.26
  -2  -6   0    0.17    0.32
   2   6   0    0.02    0.15
   2   6   0    0.14    0.31
   2   6   0    0.12    0.20
   2   6   0    0.25    0.29
   2   6   0   -0.33    0.22
  -3  -6   0   32.98    1.38
  -3  -6   0   33.75    1.34
  -3  -6   0   32.85    1.96
   3   6   0   33.77    1.99
   3   6   0   32.39    1.28
   3   6   0   31.47    1.57
  -4  -6   0   42.41    2.38
  -4  -6   0   46.28    1.83
   4   6   0   43.03    2.41
   4   6   0   46.22    1.80
   4   6   0   43.42    1.66
  -5  -6   0    1.26    0.37
  -5  -6   0    1.15    0.49
  -5  -6   0    0.37    0.37
   5   6   0    0.36    0.31
   5   6   0   -0.14    0.39
  -6  -6   0    9.92    1.08
  -6  -6   0   10.60    1.30
  -6  -6   0    8.93    1.43
   6   6   0   10.47    1.21
   6   6   0   13.15    1.76
  -7  -6   0   51.77    2.37
  -7  -6   0   53.06    3.17
  -7  -6   0   51.86    2.61
   7   6   0   49.90    2.55
  -8  -6   0    0.09    0.63
  -8  -6   0    0.28    0.63
   8   6   0    1.06    0.79
  -9  -6   0    1.34    0.78
  -9  -6   0    1.79    0.96
   9   6   0    1.95    1.14
   4  -7   0    7.99    1.43
   4  -7   0    7.36    1.55
  -4   7   0    6.73    1.39
  -4   7   0    6.08    1.48
   3  -7   0    0.38    0.39
   3  -7   0    0.35    0.60
   3  -7   0    0.58    0.60
  -3   7   0   -0.55    0.39
  -3   7   0   -1.19    0.36
   2  -7   0    5.78    1.16
   2  -7   0    6.59    1.23
   2  -7   0    8.63    1.14
  -2   7   0    7.42    1.41
  -2   7   0    5.33    1.16
   1  -7   0   51.60    2.57
   1  -7   0   50.37    2.00
   1  -7   0   47.89    2.64
  -1   7   0   46.53    2.70
  -1   7   0   47.58    2.63
  -1   7   0   52.37    2.68
   0  -7   0    0.57    0.47
   0  -7   0    0.44    0.45
   0   7   0    0.09    0.32
   0   7   0    0.50    0.52
   0   7   0   -0.11    0.29
  -1  -7   0   -0.09    0.30
  -1  -7   0    0.39    0.48
   1   7   0    0.09    0.34
   1   7   0   -0.23    0.38
   1   7   0    0.17    0.43
  -2  -7   0    0.20    0.35
  -2  -7   0    0.11    0.38
   2   7   0    0.21    0.36
   2   7   0    0.13    0.29
   2   7   0    0.23    0.36
  -3  -7   0    0.01    0.38
   3   7   0    0.40    0.39
   3   7   0    0.48    0.35
   3   7   0    0.71    0.51
  -4  -7   0  227.48    6.48
  -4  -7   0  220.57    5.06
   4   7   0  221.80    4.88
   4   7   0  208.82    6.30
   4   7   0  225.57    5.36
  -5  -7   0    9.72    1.10
  -5  -7   0    9.32    1.52
   5   7   0   10.35    1.07
   5   7   0    6.97    1.32
  -6  -7   0    2.26    0.69
  -6  -7   0    2.69    0.51
  -6  -7   0    2.89    0.99
   6   7   0    4.67    0.86
   6   7   0    3.04    1.01
  -7  -7   0    1.14    0.45
  -7  -7   0    0.18    0.54
  -7  -7   0    0.85    0.79
   7   7   0    0.15    0.53
  -8  -7   0   14.82    1.79
  -8  -7   0    9.80    1.76
  -8  -7   0    9.13    1.20
   8   7   0   15.19    2.31
  -9  -7   0   27.04    2.01
  -9  -7   0   31.19    2.84
  -9  -7   0   24.81    2.88
   9   7   0   37.64    3.84
   3  -8   0    0.66    0.79
   3  -8   0   -0.38    0.40
  -3   8   0    1.72    0.91
  -3   8   0    0.03    0.52
   2  -8   0   15.61    1.62
   2  -8   0   14.30    1.90
  -2   8   0   13.19    2.03
  -2   8   0   15.57    2.04
   1  -8   0   15.33    1.83
   1  -8   0   15.35    1.17
   1  -8   0   15.07    1.85
  -1   8   0   14.87    1.93
  -1   8   0   17.62    1.99
   0  -8   0    0.14    0.42
   0  -8   0    0.08    0.38
   0   8   0    0.08    0.39
   0   8   0    0.00    0.48
   0   8   0    0.08    0.42
  -1  -8   0   11.07    1.37
   1   8   0   11.09    1.43
   1   8   0    9.33    1.32
   1   8   0    9.77    1.53
  -2  -8   0   -0.30    0.36
  -2  -8   0    0.84    0.50
   2   8   0   -0.01    0.37
   2   8   0   -0.16    0.37
   2   8   0   -0.38    0.22
  -3  -8   0    6.21    1.16
   3   8   0    7.41    1.33
   3   8   0    7.07    1.22
   3   8   0    5.77    0.95
  -4  -8   0   16.03    2.00
   4   8   0   17.41    2.02
   4   8   0   13.75    1.72
   4   8   0   15.78    1.56
   4   8   0   14.03    0.99
  -5  -8   0   69.68    3.55
   5   8   0   63.25    2.36
   5   8   0   66.84    3.51
  -6  -8   0    0.11    0.60
   6   8   0   -0.05    0.53
  -7  -8   0    1.04    0.68
  -7  -8   0    0.84    0.59
  -7  -8   0    1.81    0.42
   7   8   0    1.05    0.79
  -8  -8   0    0.23    0.33
  -8  -8   0    0.02    0.67
  -8  -8   0    0.77    0.82
   8   8   0    0.27    0.69
   2  -9   0    2.41    0.78
   2  -9   0    3.26    1.09
  -2   9   0    2.09    0.99
  -2   9   0    2.11    0.98
   1  -9   0    0.09    0.63
   1  -9   0    0.56    0.44
  -1   9   0    1.22    0.83
  -1   9   0    0.24    0.68
   0  -9   0    3.40    0.96
   0   9   0    2.25    0.84
   0   9   0    3.88    1.10
  -1  -9   0    9.62    1.40
   1   9   0    7.40    1.43
   1   9   0    5.90    1.20
   2   9   0    1.32    0.67
   2   9   0    1.45    0.70
   2   9   0    0.76    0.54
  -3  -9   0    3.36    0.90
   3   9   0    2.90    0.85
   3   9   0    4.12    1.01
   3   9   0    2.45    0.81
  -4  -9   0    3.92    1.04
   4   9   0    4.34    0.96
   4   9   0    3.76    1.04
   4   9   0    7.95    1.55
  -5  -9   0   51.02    3.21
   5   9   0   50.73    3.21
  -6  -9   0    0.50    0.55
   6   9   0    0.39    0.64
  -7  -9   0    2.73    1.15
   7   9   0    2.21    0.97
  -8  -9   0    2.98    1.22
   8   9   0    2.43    1.18
   1 -10   0   12.73    1.56
   1 -10   0   13.13    1.98
  -1  10   0   13.27    2.10
  -1  10   0   14.46    2.18
   0 -10   0    5.77    1.31
   0 -10   0    6.43    1.02
   0  10   0    5.05    1.30
   0  10   0    4.46    1.25
   1  10   0   21.21    2.35
   1  10   0   22.60    2.58
   2  10   0    8.38    1.42
   2  10   0    5.40    1.29
  -3 -10   0    1.23    0.70
   3  10   0    1.56    0.80
   3  10   0    1.84    0.73
   3  10   0    1.04    0.69
  -4 -10   0    0.35    0.60
   4  10   0    0.59    0.69
   4  10   0    1.97    0.91
   4  10   0    1.09    0.72
  -5 -10   0   -0.27    0.68
   5  10   0    0.68    0.79
   5  10   0    0.04    0.56
  -6 -10   0    1.01    0.71
   6  10   0    0.87    0.83
  -7 -10   0    0.70    0.79
   7  10   0    0.79    0.78
   1  11   0    0.79    0.83
   1  11   0   -0.35    0.62
   2  11   0    0.72    0.68
   2  11   0   -0.57    0.48
   3  11   0    5.07    1.32
   3  11   0    7.61    1.57
  -4 -11   0   13.63    2.13
   4  11   0   13.99    2.04
   4  11   0   20.35    2.67
  -5 -11   0   17.03    2.36
   5  11   0   25.62    3.01
   5  11   0   21.33    2.50
  -6 -11   0   15.76    2.27
   6  11   0   20.60    3.00
   6  11   0   15.96    2.33
   5  11  -1   -0.46    0.61
   5  11  -1    1.21    0.91
  -5 -11   1    0.41    0.73
   4  11  -1   -0.51    0.59
   4  11  -1    0.23    0.69
  -4 -11   1   -0.19    0.59
   3  11  -1    1.02    0.72
   3  11  -1   -0.16    0.50
   2  11  -1    3.88    1.15
   2  11  -1    8.38    1.56
   1  11  -1    0.32    0.79
   1  11  -1    0.10    0.58
   7  10  -1    0.13    0.75
  -7 -10   1    0.95    0.90
   6  10  -1    0.02    0.49
   6  10  -1    0.29    0.75
  -6 -10   1    0.47    0.68
   5  10  -1    3.36    1.08
   5  10  -1    3.59    1.21
  -5 -10   1    3.18    1.15
   4  10  -1   10.68    1.89
   4  10  -1    6.18    1.36
  -4 -10   1    5.49    1.27
   3  10  -1    1.21    0.78
   3  10  -1    1.39    0.75
   3  10  -1    1.84    0.85
  -3 -10   1    0.64    0.64
   2  10  -1    0.08    0.50
   2  10  -1    1.40    0.74
   1  10  -1    4.85    1.25
   1  10  -1    6.07    1.35
   0  10  -1   -0.04    0.54
   0  10  -1   -0.02    0.61
   0 -10   1    0.12    0.63
   0 -10   1   -0.10    0.31
  -1  10  -1    0.38    0.70
  -1  10  -1    2.50    1.04
   1 -10   1    1.91    0.69
   1 -10   1    0.65    0.76
   8   9  -1    0.88    0.88
  -8  -9   1   -0.08    0.64
   7   9  -1    0.20    0.71
  -7  -9   1   -0.33    0.61
   6   9  -1    0.67    0.67
  -6  -9   1    0.16    0.65
   5   9  -1    3.54    1.02
   5   9  -1    4.61    1.36
  -5  -9   1    4.04    1.13
   4   9  -1    9.48    1.52
   4   9  -1    8.28    1.57
  -4  -9   1    7.64    1.47
   3   9  -1    0.76    0.49
   3   9  -1    0.34    0.53
   3   9  -1   -0.09    0.41
  -3  -9   1    0.96    0.74
   2   9  -1    6.88    1.20
   2   9  -1    6.24    1.19
   2   9  -1    7.16    1.40
  -2  -9   1    5.29    1.12
   1   9  -1   -0.03    0.40
   1   9  -1    0.54    0.52
  -1  -9   1    0.78    0.57
  -1  -9   1    0.21    0.45
   0   9  -1    2.37    0.89
   0   9  -1    1.05    0.67
   0  -9   1    1.95    0.81
   0  -9   1    1.08    0.65
  -1   9  -1    0.23    0.65
  -1   9  -1   -0.24    0.51
   1  -9   1    0.53    0.55
   1  -9   1   -0.42    0.32
   1  -9   1   -0.02    0.48
  -2   9  -1    2.73    1.06
  -2   9  -1    3.77    1.13
   2  -9   1    2.79    1.03
   2  -9   1    3.21    1.14
   2  -9   1    2.42    0.77
   8   8  -1    1.12    0.77
  -8  -8   1    0.34    0.70
  -8  -8   1    0.41    0.80
  -8  -8   1    1.34    0.43
   7   8  -1    3.16    1.12
  -7  -8   1    2.29    0.95
  -7  -8   1    2.92    0.92
   6   8  -1   19.54    2.40
  -6  -8   1   15.87    2.09
  -6  -8   1   20.49    1.89
   5   8  -1    1.18    0.43
   5   8  -1    1.59    0.77
  -5  -8   1    1.10    0.70
   4   8  -1    6.44    1.31
   4   8  -1    4.48    1.04
   4   8  -1    4.29    0.61
  -4  -8   1    4.74    1.12
   3   8  -1   12.52    1.45
   3   8  -1    9.12    1.41
   3   8  -1   12.46    1.59
  -3  -8   1   12.27    1.66
   2   8  -1    4.59    0.94
   2   8  -1    4.12    0.94
   2   8  -1    3.49    0.88
  -2  -8   1    2.80    0.78
  -2  -8   1    4.09    0.90
  -2  -8   1    4.63    0.88
   1   8  -1    1.86    0.77
   1   8  -1    1.92    0.81
  -1  -8   1    1.52    0.69
  -1  -8   1    2.93    0.81
   0   8  -1    0.33    0.48
   0   8  -1   -0.35    0.45
   0  -8   1    0.28    0.41
   0  -8   1    0.40    0.52
  -1   8  -1   -0.24    0.47
  -1   8  -1   -0.04    0.48
   1  -8   1    0.80    0.39
   1  -8   1   -0.08    0.50
   1  -8   1    0.55    0.57
  -2   8  -1    6.25    1.33
  -2   8  -1    7.21    1.44
   2  -8   1    6.38    1.32
   2  -8   1    4.04    1.17
   2  -8   1    6.03    1.00
  -3   8  -1    0.15    0.72
  -3   8  -1   -0.21    0.61
   3  -8   1    0.33    0.70
   3  -8   1    0.38    0.48
   3  -8   1   -1.00    0.48
   9   7  -1    8.24    1.67
  -9  -7   1    7.81    1.83
  -9  -7   1    8.41    1.26
  -9  -7   1    9.27    1.70
   8   7  -1   21.92    2.69
  -8  -7   1   22.33    1.54
  -8  -7   1   23.58    2.40
  -8  -7   1   20.55    2.54
   7   7  -1    2.56    1.01
  -7  -7   1    1.54    0.83
  -7  -7   1    2.09    0.51
  -7  -7   1    2.52    0.87
   6   7  -1   13.17    1.31
   6   7  -1   14.08    1.99
  -6  -7   1   10.05    1.61
  -6  -7   1   12.41    0.79
  -6  -7   1   15.60    1.59
   5   7  -1    8.56    1.40
   5   7  -1    9.46    1.00
  -5  -7   1   11.75    1.28
  -5  -7   1   11.34    1.71
   4   7  -1   55.88    1.86
   4   7  -1   59.12    3.04
  -4  -7   1   60.92    3.03
  -4  -7   1   60.15    2.26
   3   7  -1   22.53    1.75
   3   7  -1   24.56    1.50
   3   7  -1   26.64    1.84
  -3  -7   1   26.94    1.89
   2   7  -1   24.43    1.71
   2   7  -1   20.01    1.58
   2   7  -1   19.47    1.47
  -2  -7   1   20.57    1.36
  -2  -7   1   20.93    1.60
  -2  -7   1   21.20    1.53
   1   7  -1    3.20    0.75
   1   7  -1    4.25    0.90
   1   7  -1    2.52    0.70
  -1  -7   1    3.97    0.82
  -1  -7   1    3.42    0.85
  -1  -7   1    2.86    0.67
   0   7  -1   14.29    1.68
   0  -7   1   19.00    1.96
   0  -7   1   16.73    1.67
  -1   7  -1   15.11    1.83
   1  -7   1   14.74    1.00
   1  -7   1   15.50    1.79
   1  -7   1   13.89    1.79
  -2   7  -1    0.45    0.57
  -2   7  -1   -0.36    0.32
   2  -7   1    0.44    0.50
   2  -7   1    0.20    0.34
   2  -7   1    0.26    0.51
  -3   7  -1    0.10    0.55
  -3   7  -1    0.80    0.60
   3  -7   1    1.06    0.75
   3  -7   1    1.13    0.51
   3  -7   1    2.75    0.87
  -4   7  -1    0.75    0.79
  -4   7  -1    1.21    0.76
   4  -7   1    2.48    1.01
   4  -7   1    0.55    0.57
   4  -7   1    0.68    0.73
  -9  -6   1    1.24    0.93
  -9  -6   1    2.25    1.02
  -8  -6   1    3.26    1.06
  -8  -6   1    3.15    1.04
   7   6  -1   12.26    1.72
  -7  -6   1   11.77    1.26
  -7  -6   1   12.60    1.96
  -7  -6   1   10.05    1.39
   6   6  -1    5.83    0.94
  -6  -6   1    5.20    0.74
  -6  -6   1    5.08    1.13
  -6  -6   1    6.53    1.08
   5   6  -1   -0.18    0.26
  -5  -6   1    0.89    0.28
  -5  -6   1    1.01    0.51
  -5  -6   1    1.02    0.58
   4   6  -1    1.11    0.51
   4   6  -1    2.96    0.50
  -4  -6   1    2.61    0.76
  -4  -6   1    2.81    0.61
   3   6  -1  109.88    3.19
   3   6  -1  110.74    2.55
   3   6  -1  109.19    3.86
  -3  -6   1  110.48    3.84
  -3  -6   1  113.16    2.93
  -3  -6   1  113.84    3.02
  -3  -6   1  106.38    3.19
   2   6  -1   31.13    1.33
   2   6  -1   33.51    1.69
   2   6  -1   32.07    1.83
   2   6  -1   33.45    1.13
   2   6  -1   33.71    1.84
  -2  -6   1   32.00    1.51
  -2  -6   1   28.67    1.27
  -2  -6   1   32.17    1.67
  -2  -6   1   32.01    1.83
   1   6  -1    4.57    0.53
   1   6  -1    6.50    0.69
   1   6  -1    5.94    0.97
   1   6  -1    6.09    0.91
  -1  -6   1    5.22    0.86
  -1  -6   1    5.87    0.63
  -1  -6   1    5.25    0.86
  -1  -6   1    5.33    0.81
   0   6  -1   46.63    2.03
   0   6  -1   46.37    2.31
   0  -6   1   48.97    2.21
   0  -6   1   45.74    2.29
  -1   6  -1    0.37    0.45
   1  -6   1    0.21    0.42
   1  -6   1    0.75    0.32
   1  -6   1    0.21    0.35
  -2   6  -1   51.97    2.79
  -2   6  -1   56.66    2.87
   2  -6   1   53.05    2.74
   2  -6   1   54.31    2.16
   2  -6   1   54.68    2.68
  -3   6  -1   18.95    2.11
   3  -6   1   25.38    1.98
   3  -6   1   23.52    1.56
   3  -6   1   24.23    1.95
  -4   6  -1   -0.26    0.43
  -4   6  -1    0.32    0.59
   4  -6   1    0.04    0.54
   4  -6   1    0.14    0.41
   4  -6   1   -0.02    0.59
  -5   6  -1    5.25    1.35
  -5   6  -1    1.20    0.77
   5  -6   1    1.82    0.89
   5  -6   1    3.13    0.90
   5  -6   1    2.52    1.00
  -9  -5   1   -0.05    0.63
  -9  -5   1    0.97    0.87
  -8  -5   1    7.17    1.30
  -8  -5   1    7.53    1.59
   7   5  -1   60.09    2.79
  -7  -5   1   54.36    3.15
  -7  -5   1   60.66    2.86
   6   5  -1   47.86    2.24
  -6  -5   1   48.90    2.80
  -6  -5   1   49.12    2.35
   5   5  -1    0.69    0.34
  -5  -5   1   -0.10    0.34
  -5  -5   1    0.62    0.30
  -5  -5   1    0.60    0.43
   4   5  -1    4.62    0.62
  -4  -5   1    2.33    0.71
  -4  -5   1    2.99    0.41
  -4  -5   1    2.58    0.55
   3   5  -1    1.48    0.30
   3   5  -1    1.34    0.36
   3   5  -1    1.34    0.35
  -3  -5   1    1.09    0.33
  -3  -5   1    0.37    0.34
  -3  -5   1    1.33    0.39
  -3  -5   1    0.67    0.34
   2   5  -1   42.99    1.19
   2   5  -1   44.30    2.03
   2   5  -1   39.31    1.86
   2   5  -1   43.94    1.18
  -2  -5   1   42.90    1.49
  -2  -5   1   41.18    1.55
  -2  -5   1   44.76    1.78
  -2  -5   1   42.92    1.98
   1   5  -1  283.05    5.40
   1   5  -1  282.18    6.35
   1   5  -1  282.47    6.19
   1   5  -1  280.17    5.15
  -1  -5   1  274.68    6.17
  -1  -5   1  274.82    5.35
   0   5  -1   31.29    1.28
   0   5  -1   30.60    1.47
   0   5  -1   30.23    1.68
   0   5  -1   31.24    1.19
   0  -5   1   31.46    1.60
   0  -5   1   33.90    1.75
  -1   5  -1    3.38    0.59
  -1   5  -1    3.94    0.56
  -1   5  -1    4.02    0.79
   1  -5   1    3.99    0.77
   1  -5   1    5.27    1.00
  -2   5  -1   32.75    1.47
  -2   5  -1   32.45    2.00
   2  -5   1   31.26    1.88
   2  -5   1   32.14    1.49
   2  -5   1   31.39    1.92
  -3   5  -1    9.51    1.44
  -3   5  -1   11.08    1.71
   3  -5   1    9.96    1.39
   3  -5   1   11.43    1.47
   3  -5   1    9.25    1.09
  -4   5  -1    7.45    1.42
   4  -5   1   10.54    1.59
   4  -5   1   10.10    1.35
   4  -5   1    7.51    1.25
  -5   5  -1    3.00    1.01
  -5   5  -1    5.71    1.27
   5  -5   1    2.91    0.82
   5  -5   1    5.35    1.18
   5  -5   1    5.47    1.25
  -6   5  -1    1.45    0.99
   6  -5   1    1.77    0.91
   6  -5   1    3.79    1.04
  -9  -4   1    1.53    0.95
  -9  -4   1    3.79    1.21
   8   4  -1    7.76    1.07
  -8  -4   1    6.85    1.41
  -8  -4   1    7.30    1.35
   7   4  -1   50.33    2.64
   7   4  -1   49.94    2.95
  -7  -4   1   54.08    2.73
  -7  -4   1   55.60    3.05
   6   4  -1    0.36    0.35
  -6  -4   1    0.59    0.55
  -6  -4   1    0.33    0.43
   5   4  -1   20.61    1.31
  -5  -4   1   22.14    1.67
  -5  -4   1   20.83    1.42
   4   4  -1    3.48    0.54
   4   4  -1    2.97    0.45
  -4  -4   1    3.02    0.59
  -4  -4   1    3.81    0.77
  -4  -4   1    3.58    0.49
   3   4  -1   51.45    1.55
   3   4  -1   47.96    1.47
  -3  -4   1   48.30    1.31
  -3  -4   1   47.37    1.71
  -3  -4   1   48.57    1.48
  -3  -4   1   48.47    2.16
   2   4  -1   17.39    0.87
   2   4  -1   17.73    0.63
  -2  -4   1   17.53    0.89
  -2  -4   1   18.45    1.17
  -2  -4   1   17.48    0.85
  -2  -4   1   18.56    0.98
   1   4  -1  104.23    2.89
   1   4  -1  101.39    2.40
   1   4  -1  105.39    2.08
   1   4  -1   99.92    2.92
  -1  -4   1  101.39    2.39
  -1  -4   1  105.03    2.91
  -1  -4   1  102.47    2.82
   0   4  -1    4.70    0.50
   0   4  -1    5.48    0.54
   0   4  -1    5.31    0.74
   0   4  -1    5.73    0.67
   0  -4   1    3.88    0.66
   0  -4   1    5.29    0.52
   0  -4   1    4.88    0.61
   0  -4   1    4.39    0.65
  -1   4  -1   10.57    1.12
  -1   4  -1   10.20    0.73
  -1   4  -1   10.78    0.39
  -1   4  -1   11.54    0.72
  -1   4  -1   11.21    0.82
   1  -4   1    8.69    1.03
   1  -4   1   12.44    0.97
   1  -4   1   11.31    0.73
  -2   4  -1   23.63    1.19
  -2   4  -1   22.90    1.52
   2  -4   1   24.20    1.53
   2  -4   1   26.09    1.22
   2  -4   1   25.75    1.56
  -3   4  -1    2.74    0.78
  -3   4  -1    3.25    0.80
  -3   4  -1    2.75    0.61
   3  -4   1    3.04    0.77
   3  -4   1    3.09    0.61
   3  -4   1    2.13    0.65
  -4   4  -1    1.81    0.58
  -4   4  -1    2.28    0.74
   4  -4   1    2.38    0.74
   4  -4   1    2.71    0.69
   4  -4   1    2.18    0.75
  -5   4  -1   72.67    2.98
  -5   4  -1   70.29    3.54
   5  -4   1   68.11    3.11
   5  -4   1   70.37    3.04
   5  -4   1   70.18    3.36
  -6   4  -1    0.60    0.66
   6  -4   1    0.09    0.41
   6  -4   1   -0.61    0.46
  -9  -3   1    0.19    0.66
   8   3  -1   11.65    1.74
  -8  -3   1   10.76    1.67
  -8  -3   1    9.45    1.53
   7   3  -1   84.88    2.83
   7   3  -1   79.79    3.43
  -7  -3   1   82.17    3.68
  -7  -3   1   81.85    3.48
   6   3  -1    2.26    0.46
   6   3  -1    2.09    0.64
  -6  -3   1    2.06    0.71
  -6  -3   1    0.74    0.57
   5   3  -1  123.77    2.92
   5   3  -1  121.81    3.61
  -5  -3   1  121.29    3.69
  -5  -3   1  119.17    4.05
  -5  -3   1  119.50    3.16
   4   3  -1    0.27    0.12
   4   3  -1    0.07    0.19
   4   3  -1    0.40    0.29
  -4  -3   1    0.22    0.28
  -4  -3   1    0.05    0.26
  -4  -3   1    0.14    0.20
   3   3  -1    0.31    0.20
   3   3  -1    0.34    0.21
  -3  -3   1    0.62    0.34
  -3  -3   1    0.45    0.19
  -3  -3   1    0.44    0.29
   2   3  -1   69.91    1.80
   2   3  -1   71.21    1.59
  -2  -3   1   71.00    1.44
  -2  -3   1   69.59    2.28
  -2  -3   1   70.24    1.78
  -2  -3   1   68.76    1.89
   1   3  -1   81.84    2.27
   1   3  -1   83.25    1.45
   1   3  -1   80.58    2.25
   1   3  -1   79.96    1.45
  -1  -3   1   80.59    1.91
  -1  -3   1   80.89    2.27
  -1  -3   1   76.03    2.00
   0   3  -1  336.00    5.91
   0   3  -1  327.90    5.80
   0   3  -1  330.15    6.49
   0  -3   1  336.20    6.37
   0  -3   1  327.09    5.67
   0  -3   1  332.09    6.47
   0  -3   1  327.54    5.87
  -1   3  -1   19.88    0.90
  -1   3  -1   22.15    1.02
  -1   3  -1   20.75    1.18
  -1   3  -1   21.22    0.51
   1  -3   1   20.51    0.93
   1  -3   1   21.61    0.76
   1  -3   1   20.54    1.17
   1  -3   1   20.03    1.11
  -2   3  -1    1.84    0.47
  -2   3  -1    2.08    0.43
  -2   3  -1    1.15    0.40
   2  -3   1    2.62    0.57
   2  -3   1    1.32    0.44
   2  -3   1    2.06    0.44
   2  -3   1    2.67    0.45
  -3   3  -1   24.14    1.56
  -3   3  -1   24.29    1.58
  -3   3  -1   24.22    1.30
   3  -3   1   19.43    1.37
   3  -3   1   23.82    1.30
   3  -3   1   23.15    1.42
  -4   3  -1    0.87    0.43
  -4   3  -1    0.04    0.34
  -4   3  -1    0.29    0.47
   4  -3   1   -0.47    0.34
   4  -3   1   -0.06    0.21
   4  -3   1    0.32    0.41
  -5   3  -1    1.27    0.58
  -5   3  -1    1.46    0.73
   5  -3   1    0.10    0.45
   5  -3   1    1.02    0.58
   5  -3   1    0.31    0.36
  -6   3  -1   12.36    1.57
  -6   3  -1   11.08    1.79
   6  -3   1   14.90    1.86
   6  -3   1   15.21    1.70
  -7   3  -1    2.20    0.81
   7  -3   1    1.60    0.93
  -9  -2   1    5.84    1.42
  -8  -2   1    0.95    0.71
   7   2  -1    1.62    0.66
   7   2  -1    1.64    0.50
  -7  -2   1    0.33    0.47
  -7  -2   1    0.97    0.62
   6   2  -1   39.65    1.72
   6   2  -1   42.14    2.28
  -6  -2   1   43.21    2.39
  -6  -2   1   41.35    2.20
   5   2  -1    0.57    0.38
   5   2  -1    0.44    0.24
  -5  -2   1   -0.30    0.35
  -5  -2   1    1.12    0.52
  -5  -2   1    1.53    0.45
   4   2  -1   34.03    1.59
   4   2  -1   34.42    1.40
   4   2  -1   37.55    1.24
  -4  -2   1   37.50    1.44
  -4  -2   1   37.34    1.82
  -4  -2   1   35.40    1.63
   3   2  -1   60.99    1.72
   3   2  -1   59.19    1.85
   3   2  -1   61.47    1.35
  -3  -2   1   63.32    2.00
  -3  -2   1   61.00    1.74
  -3  -2   1   63.97    2.22
   2   2  -1    2.78    0.33
   2   2  -1    2.68    0.34
  -2  -2   1    2.42    0.48
  -2  -2   1    3.45    0.45
  -2  -2   1    2.24    0.33
   1   2  -1  140.04    2.84
  -1  -2   1  142.20    2.84
  -1  -2   1  145.76    2.83
  -1   2  -1  531.16    8.55
  -1   2  -1  544.76    9.63
  -1   2  -1  528.22    9.12
  -1   2  -1  533.10    9.27
   1  -2   1  514.02    9.15
   1  -2   1  551.27    9.52
  -2   2  -1   45.65    1.53
  -2   2  -1   47.22    1.83
  -2   2  -1   40.40    1.61
   2  -2   1   44.09    1.66
   2  -2   1   44.06    1.44
   2  -2   1   44.26    1.63
   2  -2   1   45.29    1.71
  -3   2  -1   43.59    1.98
  -3   2  -1   39.47    1.35
  -3   2  -1   37.77    1.81
  -3   2  -1   35.82    1.57
   3  -2   1   37.42    1.07
   3  -2   1   39.22    1.76
   3  -2   1   36.63    1.64
   3  -2   1   39.19    1.58
   3  -2   1   36.81    1.72
  -4   2  -1    1.99    0.53
  -4   2  -1    2.15    0.66
  -4   2  -1    2.21    0.68
   4  -2   1    2.82    0.62
   4  -2   1    1.32    0.54
   4  -2   1    2.38    0.55
  -5   2  -1   -0.07    0.40
  -5   2  -1    0.19    0.46
  -5   2  -1   -0.25    0.32
   5  -2   1   -0.53    0.32
   5  -2   1   -0.20    0.33
   5  -2   1    0.08    0.18
   5  -2   1   -0.11    0.31
  -6   2  -1    0.58    0.46
   6  -2   1    1.91    0.78
  -7   2  -1    1.98    0.81
   7  -2   1    1.73    0.78
  -8  -1   1    3.80    1.09
   7   1  -1   18.52    1.31
  -7  -1   1   17.13    1.85
  -7  -1   1   16.12    1.81
   6   1  -1   69.67    2.70
   6   1  -1   69.92    3.08
   6   1  -1   68.94    2.39
  -6  -1   1   70.99    2.81
  -6  -1   1   70.15    2.95
  -6  -1   1   69.68    2.99
   5   1  -1   22.91    1.16
  -5  -1   1   20.30    1.32
  -5  -1   1   20.65    0.84
  -5  -1   1   19.81    1.38
  -5  -1   1   21.07    1.51
   4   1  -1   37.23    1.72
   4   1  -1   35.28    1.30
  -4  -1   1   35.16    1.01
  -4  -1   1   34.63    0.99
  -4  -1   1   32.19    1.47
  -4  -1   1   36.28    1.77
  -4  -1   1   33.24    1.58
   3   1  -1   -0.16    0.17
   3   1  -1   -0.11    0.11
   3   1  -1   -0.19    0.18
  -3  -1   1    0.03    0.08
  -3  -1   1    0.04    0.09
  -3  -1   1    0.07    0.21
  -3  -1   1   -0.10    0.20
  -3  -1   1    0.21    0.21
   2   1  -1   58.30    1.27
   2   1  -1   61.63    1.65
   2   1  -1   58.43    1.55
   2   1  -1   60.00    1.24
  -2  -1   1   58.91    1.57
  -2  -1   1   57.92    1.82
  -2  -1   1   58.36    1.66
  -1  -1   1  349.57    5.95
   0   1  -1  454.66    7.51
   0  -1   1  449.30    7.55
  -1   1  -1   13.14    0.64
  -1   1  -1   13.50    0.70
  -1   1  -1   12.83    0.61
   1  -1   1   13.99    0.69
   1  -1   1   13.08    0.63
  -2   1  -1  518.83    9.28
  -2   1  -1  512.61    9.41
  -2   1  -1  522.46    9.08
   2  -1   1  510.31    9.22
   2  -1   1  507.18    8.54
   2  -1   1  507.55    9.16
  -3   1  -1   49.91    1.63
  -3   1  -1   49.34    1.77
  -3   1  -1   52.18    1.95
  -3   1  -1   45.41    1.93
   3  -1   1   46.64    1.79
   3  -1   1   47.39    1.88
   3  -1   1   50.95    1.73
   3  -1   1   47.94    1.39
   3  -1   1   46.12    1.64
  -4   1  -1   22.77    1.52
  -4   1  -1   25.24    1.41
  -4   1  -1   23.72    1.19
  -4   1  -1   23.20    1.44
   4  -1   1   23.86    1.30
   4  -1   1   23.13    1.46
   4  -1   1   25.46    1.28
   4  -1   1   25.37    1.08
   4  -1   1   23.53    1.39
  -5   1  -1    0.14    0.39
  -5   1  -1    0.23    0.37
   5  -1   1    0.53    0.45
   5  -1   1    0.36    0.26
   5  -1   1    0.22    0.28
  -6   1  -1    1.31    0.49
  -6   1  -1    1.53    0.64
  -6   1  -1    0.04    0.42
   6  -1   1    1.38    0.40
   6  -1   1    0.11    0.43
  -7   1  -1    0.87    0.62
   7  -1   1    0.24    0.35
   7  -1   1    0.16    0.46
  -8   1  -1    4.98    1.25
  -8   0   1    2.34    0.90
   7   0  -1    0.39    0.46
  -7   0   1    0.60    0.49
   6   0  -1    8.15    0.92
   6   0  -1    8.34    1.14
  -6   0   1    8.40    1.21
  -6   0   1    8.40    0.85
  -6   0   1   11.02    1.42
  -6   0   1    8.95    1.27
   5   0  -1   99.62    2.81
   5   0  -1  104.44    3.62
  -5   0   1  103.14    3.35
  -5   0   1  100.61    2.69
  -5   0   1   97.37    3.41
  -5   0   1  102.34    3.40
   4   0  -1   61.06    2.39
   4   0  -1   59.68    1.87
  -4   0   1   59.39    2.19
  -4   0   1   61.69    1.81
  -4   0   1   59.28    2.25
  -4   0   1   58.03    2.27
   3   0  -1   27.16    1.03
   3   0  -1   29.68    1.39
  -3   0   1   26.71    1.27
  -3   0   1   28.49    1.27
  -3   0   1   24.72    1.28
   2   0  -1    2.07    0.39
   2   0  -1    2.54    0.32
  -2   0   1    2.47    0.41
  -2   0   1    2.10    0.25
  -2   0   1    2.22    0.42
  -2   0   1    1.90    0.37
  -2   0   1    2.38    0.43
   1   0  -1  172.07    2.97
   1   0  -1  167.80    3.22
  -1   0   1  174.53    3.21
  -1   0   1  171.18    3.21
  -1   0   1  164.05    2.91
  -1   0   1  169.29    3.23
   0   0  -1  122.02    2.20
   0   0   1  120.19    2.19
  -1   0  -1   91.67    1.93
  -1   0  -1   90.39    1.91
  -1   0  -1   88.12    1.69
   1   0   1   90.52    1.68
   1   0   1   91.47    1.91
   1   0   1   85.75    1.89
  -2   0  -1   61.12    1.72
  -2   0  -1   62.37    1.81
   2   0   1   62.00    1.64
   2   0   1   65.26    1.49
   2   0   1   63.92    1.81
  -3   0  -1   45.03    1.65
  -3   0  -1   47.53    1.56
  -3   0  -1   42.80    1.58
   3   0   1   46.01    1.76
   3   0   1   48.96    1.40
   3   0   1   46.48    1.58
  -4   0  -1   37.02    1.40
  -4   0  -1   39.09    1.70
  -4   0  -1   36.79    1.53
  -4   0  -1   38.46    1.72
   4   0   1   36.85    1.35
   4   0   1   34.44    1.53
   4   0   1   35.80    1.76
   4   0   1   38.48    1.58
  -5   0  -1    2.88    0.60
  -5   0  -1    3.08    0.70
  -5   0  -1    2.23    0.65
  -5   0  -1    3.01    0.56
   5   0   1    1.65    0.49
   5   0   1    1.98    0.61
   5   0   1    2.22    0.45
   5   0   1    3.23    0.62
  -6   0  -1   21.15    1.27
  -6   0  -1   19.62    1.82
  -6   0  -1   24.46    1.67
   6   0   1   24.44    1.59
   6   0   1   22.37    1.27
  -7   0  -1   31.64    2.11
  -7   0  -1   34.03    1.68
   7   0   1   35.40    2.11
   7   0   1   32.97    1.77
  -8   0  -1   44.33    2.73
  -8   1   1   17.81    2.11
   7  -1  -1    8.09    1.40
  -7   1   1    5.75    1.21
   6  -1  -1    0.57    0.49
   6  -1  -1   -0.04    0.25
  -6   1   1   -0.09    0.39
  -6   1   1    0.30    0.46
  -6   1   1    0.25    0.32
   5  -1  -1    0.23    0.24
   5  -1  -1    0.15    0.35
  -5   1   1    0.21    0.34
  -5   1   1   -0.08    0.39
  -5   1   1   -0.41    0.27
   4  -1  -1   32.67    1.56
   4  -1  -1   35.11    1.38
   4  -1  -1   34.25    1.43
   4  -1  -1   31.12    1.78
  -4   1   1   36.36    1.83
  -4   1   1   35.60    1.72
  -4   1   1   34.42    1.65
  -4   1   1   34.63    1.43
  -4   1   1   35.42    1.94
   3  -1  -1   89.56    2.49
   3  -1  -1   82.12    2.71
   3  -1  -1   86.20    2.19
  -3   1   1   87.87    2.72
  -3   1   1   82.77    2.46
  -3   1   1   88.80    2.84
  -3   1   1   88.36    2.62
   2  -1  -1  119.39    3.01
   2  -1  -1  116.46    3.01
   2  -1  -1  121.26    2.54
  -2   1   1  121.03    3.07
  -2   1   1  118.37    3.01
  -2   1   1  118.88    2.74
  -2   1   1  122.60    3.07
  -2   1   1  122.12    2.94
   1  -1  -1  231.22    4.02
   1  -1  -1  236.13    4.46
   1  -1  -1  230.60    4.41
  -1   1   1  225.59    4.27
  -1   1   1  214.83    4.37
  -1   1   1  237.31    4.46
  -1   1   1  231.87    4.46
   0  -1  -1   12.41    0.51
   0  -1  -1   13.09    0.52
   0  -1  -1   13.34    0.37
   0  -1  -1   12.47    0.36
   0   1   1   11.91    0.38
   0   1   1   12.04    0.51
   0   1   1   11.91    0.50
  -1  -1  -1  130.83    2.65
  -1  -1  -1  145.01    2.40
   1   1   1  140.34    2.44
   1   1   1  140.50    2.44
   1   1   1  140.61    2.68
  -2  -1  -1  339.27    5.76
  -2  -1  -1  340.38    6.18
  -2  -1  -1  329.15    6.09
  -2  -1  -1  338.13    5.71
  -2  -1  -1  336.73    5.71
   2   1   1  336.01    5.78
   2   1   1  347.31    5.86
  -3  -1  -1    8.13    0.79
  -3  -1  -1    6.52    0.45
  -3  -1  -1    7.72    0.56
  -3  -1  -1    7.34    0.63
   3   1   1    7.66    0.52
   3   1   1    7.54    0.50
  -4  -1  -1    4.44    0.62
  -4  -1  -1    3.20    0.63
  -4  -1  -1    4.75    0.70
  -4  -1  -1    4.61    0.52
   4   1   1    3.35    0.52
   4   1   1    3.44    0.48
   4   1   1    4.24    0.72
  -5  -1  -1    0.86    0.32
  -5  -1  -1    0.32    0.33
  -5  -1  -1    0.74    0.38
  -5  -1  -1    0.48    0.48
   5   1   1    0.51    0.31
   5   1   1    0.55    0.27
   5   1   1   -0.19    0.30
  -6  -1  -1  170.68    4.91
  -6  -1  -1  163.08    4.69
  -6  -1  -1  167.57    4.56
  -6  -1  -1  166.12    3.80
   6   1   1  157.54    4.34
   6   1   1  174.45    5.15
   6   1   1  163.02    4.09
  -7  -1  -1    4.39    0.96
   7   1   1    4.04    0.72
  -8  -1  -1   -0.32    0.57
  -9  -1  -1   18.53    2.34
   7  -2  -1    2.81    0.92
  -7   2   1    3.55    1.03
   6  -2  -1   32.18    2.19
   6  -2  -1   33.75    1.56
  -6   2   1   33.56    2.04
   5  -2  -1    1.17    0.49
   5  -2  -1    1.46    0.40
   5  -2  -1    0.81    0.49
  -5   2   1    0.64    0.53
  -5   2   1   -0.10    0.44
  -5   2   1    0.91    0.47
   4  -2  -1    1.14    0.43
   4  -2  -1    1.23    0.52
   4  -2  -1    0.86    0.28
   4  -2  -1    1.05    0.41
  -4   2   1    1.09    0.59
  -4   2   1    0.70    0.37
  -4   2   1    1.16    0.46
  -4   2   1    0.14    0.37
  -4   2   1    0.76    0.40
   3  -2  -1   26.56    1.03
   3  -2  -1   27.13    1.33
   3  -2  -1   25.98    1.46
   3  -2  -1   26.60    1.51
   3  -2  -1   27.03    1.33
  -3   2   1   26.27    1.28
  -3   2   1   23.09    1.46
  -3   2   1   26.97    1.36
  -3   2   1   25.01    1.50
  -3   2   1   25.34    1.30
   2  -2  -1   25.51    1.12
   2  -2  -1   26.00    0.88
   2  -2  -1   26.36    1.30
   2  -2  -1   24.83    1.17
  -2   2   1   25.08    1.18
  -2   2   1   24.59    1.30
  -2   2   1   23.66    1.29
  -2   2   1   25.16    1.30
  -2   2   1   24.46    1.17
  -2   2   1   26.11    1.07
   1  -2  -1   26.84    0.72
   1  -2  -1   27.94    0.75
   1  -2  -1   27.74    1.12
  -1   2   1   26.62    0.87
  -1   2   1   26.56    1.19
  -1   2   1   27.92    1.14
  -1   2   1   27.36    1.15
  -1   2   1   26.53    1.18
   0  -2  -1   15.59    0.67
   0   2   1   14.91    0.43
   0   2   1   15.60    0.70
   0   2   1   16.11    0.78
   0   2   1   14.74    0.73
   0   2   1   14.78    0.43
  -1  -2  -1  363.98    6.25
  -1  -2  -1  363.67    6.27
   1   2   1  359.02    6.30
   1   2   1  373.05    6.08
   1   2   1  372.66    6.31
  -2  -2  -1    2.38    0.38
  -2  -2  -1    1.02    0.35
   2   2   1    1.26    0.15
   2   2   1    0.98    0.29
   2   2   1    0.99    0.15
   2   2   1    1.46    0.36
  -3  -2  -1  598.92    9.87
  -3  -2  -1  616.11   10.96
  -3  -2  -1  598.88   10.58
   3   2   1  578.78   10.60
   3   2   1  602.85   10.00
   3   2   1  592.79    9.83
  -4  -2  -1    6.30    0.84
  -4  -2  -1    6.77    0.54
  -4  -2  -1    7.04    0.36
  -4  -2  -1    7.52    0.36
  -4  -2  -1    8.44    0.93
   4   2   1    7.75    0.54
   4   2   1    5.69    0.77
   4   2   1    7.70    0.56
  -5  -2  -1   56.55    2.36
  -5  -2  -1   57.68    1.39
  -5  -2  -1   56.86    1.92
  -5  -2  -1   52.99    2.23
   5   2   1   56.05    1.86
   5   2   1   56.06    2.37
   5   2   1   55.83    1.83
  -6  -2  -1    1.39    0.54
  -6  -2  -1    0.58    0.48
   6   2   1    0.39    0.28
   6   2   1    0.16    0.30
  -7  -2  -1    0.30    0.46
  -7  -2  -1   -0.70    0.35
   7   2   1    0.23    0.31
  -8  -2  -1    2.13    0.84
  -9  -2  -1   12.95    1.96
   7  -3  -1    0.60    0.66
   6  -3  -1    4.12    1.11
  -6   3   1    2.53    0.78
  -6   3   1    5.18    1.28
   5  -3  -1    0.16    0.47
   5  -3  -1    0.23    0.35
   5  -3  -1    0.31    0.43
  -5   3   1    0.15    0.38
  -5   3   1    0.62    0.56
   4  -3  -1    0.29    0.19
   4  -3  -1    0.33    0.31
   4  -3  -1    0.12    0.31
   4  -3  -1    0.17    0.35
  -4   3   1    0.75    0.40
  -4   3   1    0.52    0.42
  -4   3   1   -0.27    0.38
  -4   3   1   -0.36    0.34
   3  -3  -1    0.13    0.23
   3  -3  -1    0.47    0.35
   3  -3  -1    0.18    0.31
   3  -3  -1    0.03    0.12
  -3   3   1   -0.57    0.27
  -3   3   1    0.00    0.26
  -3   3   1    0.01    0.28
  -3   3   1    0.55    0.31
  -3   3   1    0.24    0.33
   2  -3  -1  266.16    4.52
   2  -3  -1  267.98    5.90
   2  -3  -1  263.48    4.50
   2  -3  -1  262.32    5.48
   2  -3  -1  273.96    5.82
   2  -3  -1  260.39    5.75
  -2   3   1  267.67    5.79
  -2   3   1  253.48    6.01
  -2   3   1  257.39    5.83
  -2   3   1  263.52    5.21
  -2   3   1  264.42    5.64
  -2   3   1  258.62    5.99
   1  -3  -1    0.37    0.25
   1  -3  -1    0.10    0.15
   1  -3  -1   -0.24    0.16
   1  -3  -1    0.26    0.23
  -1   3   1    0.13    0.22
  -1   3   1   -0.31    0.19
  -1   3   1    0.01    0.18
  -1   3   1    0.12    0.24
  -1   3   1    0.32    0.17
  -1   3   1   -0.16    0.21
   0  -3  -1   91.19    2.31
   0  -3  -1   91.14    2.18
   0  -3  -1   88.05    2.44
   0   3   1   87.38    2.43
   0   3   1   88.07    2.42
   0   3   1   88.31    2.36
   0   3   1   93.88    2.27
   0   3   1   87.97    1.62
   0   3   1   85.09    2.46
  -1  -3  -1   10.66    0.53
  -1  -3  -1   12.41    0.82
  -1  -3  -1   11.10    0.58
   1   3   1   11.68    0.61
   1   3   1   12.14    0.83
   1   3   1   11.99    0.79
  -2  -3  -1   45.58    1.29
  -2  -3  -1   45.03    1.37
  -2  -3  -1   45.36    1.30
  -2  -3  -1   46.30    1.75
   2   3   1   46.58    1.77
   2   3   1   45.84    1.01
   2   3   1   45.65    1.36
  -3  -3  -1   12.22    0.95
  -3  -3  -1   11.99    0.76
   3   3   1   11.68    0.46
   3   3   1   11.07    0.76
   3   3   1   12.16    0.35
  -4  -3  -1   61.85    2.12
  -4  -3  -1   59.35    2.39
  -4  -3  -1   62.66    1.51
   4   3   1   61.12    1.64
   4   3   1   61.85    2.15
  -5  -3  -1   -0.02    0.30
  -5  -3  -1   -0.67    0.26
  -5  -3  -1    0.30    0.22
   5   3   1    0.39    0.31
   5   3   1    0.28    0.24
  -6  -3  -1   17.57    1.48
  -6  -3  -1   15.50    1.55
   6   3   1   18.52    1.10
   6   3   1   15.63    1.56
  -7  -3  -1   19.28    1.69
  -7  -3  -1   20.74    1.96
   7   3   1   17.62    1.21
   7   3   1   12.23    1.51
  -8  -3  -1   35.07    2.40
  -9  -3  -1    5.44    1.23
   6  -4  -1    1.64    0.85
  -6   4   1    1.59    0.96
   5  -4  -1   12.39    1.71
   5  -4  -1    9.13    1.34
  -5   4   1    9.09    1.52
   4  -4  -1    0.20    0.44
   4  -4  -1    0.33    0.40
   4  -4  -1    1.39    0.66
  -4   4   1    0.02    0.41
  -4   4   1    0.51    0.47
   3  -4  -1    5.98    0.84
   3  -4  -1    5.36    0.94
   3  -4  -1    4.58    0.87
  -3   4   1    4.86    0.94
  -3   4   1    5.66    0.99
  -3   4   1    5.05    0.96
  -3   4   1    6.19    0.79
   2  -4  -1    1.23    0.48
   2  -4  -1    1.13    0.38
   2  -4  -1    1.18    0.51
  -2   4   1    1.54    0.55
  -2   4   1    0.75    0.37
  -2   4   1    0.78    0.42
  -2   4   1    1.28    0.36
  -2   4   1    1.11    0.47
   1  -4  -1    3.87    0.54
   1  -4  -1    3.77    0.55
   1  -4  -1    3.73    0.67
   1  -4  -1    2.76    0.60
  -1   4   1    3.98    0.44
  -1   4   1    2.15    0.46
  -1   4   1    3.81    0.67
  -1   4   1    3.67    0.68
  -1   4   1    4.59    0.71
  -1   4   1    2.34    0.57
   0  -4  -1   28.62    1.43
   0  -4  -1   32.28    1.40
   0  -4  -1   28.94    1.16
   0   4   1   27.57    1.35
   0   4   1   30.11    0.72
   0   4   1   31.03    1.44
   0   4   1   30.34    1.27
   0   4   1   31.08    1.48
   0   4   1   28.22    1.46
  -1  -4  -1  198.38    4.59
  -1  -4  -1  202.50    4.12
  -1  -4  -1  204.32    3.85
   1   4   1  194.33    4.61
   1   4   1  196.11    4.03
   1   4   1  194.94    4.59
  -2  -4  -1   34.20    1.61
  -2  -4  -1   32.18    1.06
  -2  -4  -1   34.43    1.05
  -2  -4  -1   32.70    1.03
   2   4   1   33.01    1.19
   2   4   1   34.76    1.37
   2   4   1   35.15    1.64
  -3  -4  -1    0.33    0.31
  -3  -4  -1    0.41    0.21
  -3  -4  -1    0.12    0.16
  -3  -4  -1    0.10    0.22
   3   4   1    0.39    0.23
   3   4   1    0.47    0.13
   3   4   1    0.33    0.31
  -4  -4  -1   69.85    2.25
  -4  -4  -1   66.28    2.19
  -4  -4  -1   67.76    2.69
   4   4   1   68.03    2.25
   4   4   1   62.64    2.60
   4   4   1   68.93    1.61
  -5  -4  -1   22.63    1.39
  -5  -4  -1   22.97    1.63
   5   4   1   23.50    1.44
   5   4   1   23.20    1.02
  -6  -4  -1    3.10    0.75
  -6  -4  -1    2.20    0.69
   6   4   1    2.97    0.53
   6   4   1    2.92    0.74
  -7  -4  -1    1.42    0.70
  -7  -4  -1    3.01    0.86
   7   4   1    2.70    0.59
   7   4   1    1.57    0.69
  -8  -4  -1    1.21    0.64
  -8  -4  -1    0.17    0.50
   8   4   1    0.63    0.64
  -9  -4  -1    0.60    0.72
   6  -5  -1    8.43    1.61
  -6   5   1    5.83    1.51
   5  -5  -1    1.75    0.80
   5  -5  -1    1.28    0.65
  -5   5   1    0.53    0.69
   4  -5  -1    7.64    1.41
   4  -5  -1    6.71    1.08
  -4   5   1    7.79    1.20
  -4   5   1    7.80    1.37
   3  -5  -1    0.06    0.39
   3  -5  -1    0.02    0.28
   3  -5  -1   -0.09    0.36
  -3   5   1    0.41    0.52
  -3   5   1    0.15    0.43
   2  -5  -1   17.10    1.15
   2  -5  -1   18.98    1.80
   2  -5  -1   15.74    1.57
  -2   5   1   18.10    1.46
  -2   5   1   16.88    1.69
  -2   5   1   20.12    1.58
   1  -5  -1    1.79    0.55
   1  -5  -1    1.57    0.53
   1  -5  -1    1.43    0.39
  -1   5   1    1.32    0.53
  -1   5   1    0.72    0.44
  -1   5   1    0.84    0.40
  -1   5   1    1.00    0.48
   0  -5  -1   12.56    0.85
   0  -5  -1   11.12    1.21
   0  -5  -1   12.05    1.15
   0   5   1    9.66    1.10
   0   5   1    8.41    1.08
   0   5   1   10.46    0.93
   0   5   1   10.93    0.84
   0   5   1   12.59    1.03
   0   5   1   11.62    0.47
  -1  -5  -1  106.14    2.83
  -1  -5  -1  106.33    3.22
   1   5   1  103.49    3.27
   1   5   1  105.97    2.70
   1   5   1  103.31    3.09
   1   5   1  104.51    3.24
  -2  -5  -1  129.09    2.68
  -2  -5  -1  123.08    3.71
  -2  -5  -1  128.15    2.91
   2   5   1  121.95    3.73
   2   5   1  126.91    2.98
   2   5   1  125.67    3.38
  -3  -5  -1    0.15    0.28
  -3  -5  -1    0.21    0.17
  -3  -5  -1    0.42    0.26
   3   5   1    0.30    0.29
   3   5   1    0.27    0.26
   3   5   1    0.71    0.29
   3   5   1    0.66    0.20
  -4  -5  -1   54.05    2.51
  -4  -5  -1   50.26    1.79
  -4  -5  -1   48.52    1.83
   4   5   1   50.85    1.73
   4   5   1   50.80    1.89
   4   5   1   48.61    2.43
  -5  -5  -1    8.94    0.99
  -5  -5  -1    9.19    1.30
  -5  -5  -1    7.71    0.97
   5   5   1    8.43    1.02
   5   5   1    6.28    1.08
  -6  -5  -1    0.11    0.48
  -6  -5  -1   -0.33    0.33
   6   5   1   -0.36    0.32
   6   5   1    0.26    0.36
  -7  -5  -1   21.11    1.94
  -7  -5  -1   21.93    1.95
   7   5   1   18.71    1.86
   7   5   1   20.70    1.84
  -8  -5  -1    4.41    1.25
  -8  -5  -1    5.23    1.17
   8   5   1    5.53    0.84
   8   5   1    4.95    1.21
  -9  -5  -1    9.02    1.73
  -9  -5  -1   10.15    1.71
   9   5   1    9.56    1.80
   5  -6  -1    0.44    0.53
   5  -6  -1    0.34    0.67
  -5   6   1   -0.21    0.55
   4  -6  -1   -0.40    0.49
   4  -6  -1    0.08    0.43
  -4   6   1    0.46    0.59
  -4   6   1   -0.29    0.54
   3  -6  -1    0.98    0.51
   3  -6  -1    2.15    0.76
  -3   6   1    2.26    0.86
  -3   6   1    1.15    0.65
   2  -6  -1  213.56    5.39
   2  -6  -1  216.01    6.04
   2  -6  -1  222.41    6.18
  -2   6   1  235.50    6.44
  -2   6   1  216.05    6.38
  -2   6   1  211.29    6.00
   1  -6  -1    0.26    0.43
   1  -6  -1   -0.02    0.35
   1  -6  -1    0.75    0.34
  -1   6   1    0.09    0.34
  -1   6   1   -0.02    0.31
  -1   6   1   -0.09    0.38
  -1   6   1    0.75    0.45
   0  -6  -1   36.63    1.99
   0  -6  -1   35.47    1.80
   0   6   1   35.62    1.88
   0   6   1   32.97    1.86
   0   6   1   35.58    1.88
   0   6   1   36.26    2.03
  -1  -6  -1    0.17    0.26
   1   6   1   -0.06    0.29
   1   6   1    0.32    0.32
   1   6   1   -0.39    0.20
   1   6   1    0.38    0.31
  -2  -6  -1    6.00    0.72
  -2  -6  -1    5.78    0.96
   2   6   1    6.15    0.69
   2   6   1    6.05    0.86
   2   6   1    4.74    0.83
   2   6   1    5.35    0.92
  -3  -6  -1    4.67    0.60
  -3  -6  -1    4.54    0.90
   3   6   1    4.24    0.72
   3   6   1    6.01    0.72
   3   6   1    4.19    0.84
  -4  -6  -1   30.31    1.97
  -4  -6  -1   30.29    1.42
  -4  -6  -1   28.62    1.25
   4   6   1   29.58    1.41
   4   6   1   30.97    1.47
   4   6   1   28.13    1.90
  -5  -6  -1    4.02    0.64
  -5  -6  -1    5.44    1.10
  -5  -6  -1    4.00    0.74
   5   6   1    3.46    0.66
   5   6   1    2.94    0.82
  -6  -6  -1   26.73    1.52
  -6  -6  -1   23.43    1.99
  -6  -6  -1   28.47    1.71
   6   6   1   25.53    2.08
   6   6   1   23.07    1.59
  -7  -6  -1    3.90    0.82
  -7  -6  -1    2.56    0.92
  -7  -6  -1    2.31    0.73
   7   6   1    2.40    0.96
   7   6   1    2.53    0.77
  -8  -6  -1    7.93    1.32
  -8  -6  -1    5.27    1.28
  -8  -6  -1    6.29    1.11
   8   6   1    9.63    1.75
  -9  -6  -1    5.20    1.25
  -9  -6  -1    3.70    1.29
   9   6   1    5.60    1.49
   4  -7  -1   23.66    2.64
   4  -7  -1   16.43    1.98
  -4   7   1   19.23    2.48
  -4   7   1   18.02    2.28
   3  -7  -1    5.39    1.01
   3  -7  -1    5.38    1.23
  -3   7   1    3.58    1.13
  -3   7   1    4.46    1.11
   2  -7  -1   24.17    1.91
   2  -7  -1   26.50    1.67
  -2   7   1   25.59    1.97
  -2   7   1   26.32    2.55
   1  -7  -1   64.95    2.94
   1  -7  -1   64.23    2.43
  -1   7   1   66.91    3.11
  -1   7   1   64.47    3.20
  -1   7   1   67.72    3.09
   0  -7  -1   13.06    1.44
   0   7   1   15.21    1.34
   0   7   1   16.03    1.81
   0   7   1   10.23    1.27
   0   7   1   16.80    1.78
   1   7   1    3.56    0.86
   1   7   1    5.38    1.04
   1   7   1    4.86    0.90
   1   7   1    4.41    0.84
  -2  -7  -1    3.27    0.63
  -2  -7  -1    3.72    0.86
   2   7   1    3.23    0.77
   2   7   1    3.31    0.63
   2   7   1    2.49    0.72
   2   7   1    3.35    0.85
  -3  -7  -1    1.17    0.58
   3   7   1    2.38    0.71
   3   7   1    3.85    0.94
   3   7   1    1.60    0.53
  -4  -7  -1  154.41    5.17
   4   7   1  163.05    5.34
   4   7   1  170.64    4.46
   4   7   1  165.35    4.09
  -5  -7  -1    5.63    1.07
  -5  -7  -1    3.63    0.74
   5   7   1    5.80    1.20
   5   7   1    4.26    0.73
  -6  -7  -1   27.47    1.47
  -6  -7  -1   28.43    1.71
  -6  -7  -1   24.69    2.12
   6   7   1   24.57    2.60
   6   7   1   26.70    1.66
  -7  -7  -1    0.45    0.61
  -7  -7  -1    1.23    0.69
  -7  -7  -1    0.63    0.41
   7   7   1    0.34    0.58
  -8  -7  -1    0.41    0.38
  -8  -7  -1   -0.26    0.59
  -8  -7  -1    0.33    0.61
   8   7   1    0.29    0.57
  -9  -7  -1    3.91    1.00
  -9  -7  -1    5.07    1.23
  -9  -7  -1    5.47    1.44
   9   7   1    5.57    1.55
   3  -8  -1    3.65    1.13
   3  -8  -1    5.31    1.09
  -3   8   1    4.68    1.42
  -3   8   1    3.64    1.11
   2  -8  -1    2.63    0.91
   2  -8  -1    2.39    0.72
  -2   8   1    3.27    1.04
  -2   8   1    3.51    1.05
   1  -8  -1   12.65    1.32
   1  -8  -1    7.79    1.31
  -1   8   1   10.47    1.53
  -1   8   1   10.37    1.65
   0  -8  -1    2.61    0.79
   0   8   1    1.15    0.64
   0   8   1    0.16    0.57
   0   8   1    0.65    0.53
   1   8   1   10.58    1.38
   1   8   1    7.80    1.30
   1   8   1    9.96    1.39
   1   8   1    8.99    1.29
   2   8   1    5.12    1.09
   2   8   1    6.34    1.22
   2   8   1    4.57    0.97
  -3  -8  -1   19.38    2.02
   3   8   1   18.83    1.48
   3   8   1   13.34    1.65
   3   8   1   15.13    1.78
  -4  -8  -1   31.02    2.25
   4   8   1   30.41    2.25
   4   8   1   28.56    1.52
   4   8   1   30.42    1.82
  -5  -8  -1   39.41    2.68
   5   8   1   35.92    2.57
   5   8   1   38.90    1.87
  -6  -8  -1   11.55    1.81
   6   8   1   10.66    1.74
   6   8   1   12.92    1.82
  -7  -8  -1    0.67    0.73
  -7  -8  -1    0.10    0.27
   7   8   1    0.12    0.51
  -8  -8  -1    0.72    0.81
  -8  -8  -1    0.34    0.40
  -8  -8  -1    0.59    0.71
   8   8   1    0.13    0.61
  -9  -8  -1    1.05    0.84
  -9  -8  -1    0.04    0.39
  -9  -8  -1    0.03    0.81
   9   8   1    1.00    0.93
   2  -9  -1   16.51    1.84
   2  -9  -1   14.65    2.17
  -2   9   1   16.73    2.37
  -2   9   1   16.30    2.26
   1  -9  -1    3.38    0.78
   1  -9  -1    2.43    0.90
  -1   9   1    1.53    0.75
  -1   9   1    2.61    1.04
   0  -9  -1    0.45    0.55
   0   9   1    0.65    0.54
   0   9   1    0.55    0.55
  -1  -9  -1   11.13    1.46
   1   9   1   13.21    1.79
   1   9   1   12.78    1.72
   2   9   1    0.19    0.49
   2   9   1    0.16    0.47
   2   9   1    0.45    0.47
  -3  -9  -1    2.02    0.78
   3   9   1    1.71    0.66
   3   9   1    1.85    0.77
   3   9   1    3.13    1.00
  -4  -9  -1    4.84    1.28
   4   9   1    3.06    1.01
   4   9   1    4.73    0.96
   4   9   1    5.05    1.10
  -5  -9  -1   25.15    2.79
   5   9   1   24.03    2.66
  -6  -9  -1    0.03    0.68
   6   9   1    1.27    0.75
  -7  -9  -1    3.68    1.25
   7   9   1    4.26    1.34
  -8  -9  -1    0.49    0.70
   8   9   1    1.48    1.09
   1 -10  -1   13.35    1.99
   1 -10  -1   20.23    1.99
  -1  10   1   12.52    1.99
  -1  10   1   16.19    2.33
   0 -10  -1    4.86    0.94
   0 -10  -1    4.30    1.18
   0  10   1    1.24    0.72
   0  10   1    0.61    0.79
   1  10   1    7.03    1.38
   1  10   1    8.58    1.54
   2  10   1    6.84    1.37
   2  10   1    8.76    1.57
   2  10   1    5.57    1.27
   3  10   1    1.11    0.63
   3  10   1    1.09    0.73
   3  10   1    2.41    0.94
  -4 -10  -1   27.13    2.35
   4  10   1   21.42    2.18
   4  10   1   25.10    2.71
   4  10   1   21.18    2.42
  -5 -10  -1    1.84    1.05
   5  10   1    1.60    0.86
   5  10   1    2.31    1.03
  -6 -10  -1    1.17    0.82
   6  10   1   -0.72    0.64
  -7 -10  -1    0.44    0.76
   7  10   1    0.17    0.69
   1  11   1    0.19    0.58
   1  11   1    0.54    0.76
   2  11   1    5.24    1.36
   2  11   1    1.66    0.97
   3  11   1   15.36    2.09
   3  11   1   15.95    2.28
   3  11   1   14.97    2.15
   4  11   1    6.51    1.61
   4  11   1    6.11    1.30
   4  11   1    1.76    0.89
  -5 -11  -1   25.01    2.92
   5  11   1   27.88    3.10
   5  11   1   23.59    2.62
  -6 -11  -1    0.73    0.76
   6  11   1    1.39    1.05
   6  11   1   -0.31    0.64
   5  11  -2    5.66    1.52
   5  11  -2    4.62    1.36
  -5 -11   2    5.30    1.44
   4  11  -2    3.97    1.28
   4  11  -2    0.95    0.71
  -4 -11   2    1.36    0.84
   3  11  -2    0.44    0.67
   3  11  -2    0.36    0.67
   2  11  -2    2.47    0.98
   2  11  -2    0.87    0.69
   7  10  -2   -0.17    0.61
  -7 -10   2   -0.43    0.63
   6  10  -2    1.54    1.01
   6  10  -2    4.18    1.25
  -6 -10   2    2.98    1.13
   5  10  -2    7.08    1.53
   5  10  -2    6.47    1.36
  -5 -10   2    6.35    1.55
   4  10  -2    0.17    0.67
   4  10  -2    1.28    0.74
  -4 -10   2    1.20    0.75
   3  10  -2    0.92    0.69
   3  10  -2    0.72    0.59
   2  10  -2    1.78    0.81
   2  10  -2    0.85    0.61
   1  10  -2    3.02    1.09
   1  10  -2    2.15    0.92
  -1 -10   2    1.68    0.80
   0  10  -2    0.67    0.86
   0  10  -2    0.26    0.51
   0 -10   2   -0.28    0.65
   0 -10   2   -0.34    0.56
   7   9  -2    6.71    1.59
  -7  -9   2    8.17    1.80
   6   9  -2    1.69    0.93
  -6  -9   2    1.05    0.75
   5   9  -2    0.29    0.53
   5   9  -2    0.97    0.64
  -5  -9   2    0.88    0.69
   4   9  -2    2.62    0.95
   4   9  -2    2.61    0.90
  -4  -9   2    6.45    1.37
   3   9  -2   -0.51    0.36
   3   9  -2   -0.48    0.36
   3   9  -2    0.41    0.47
  -3  -9   2    0.01    0.52
   2   9  -2   27.97    2.08
   2   9  -2   28.20    2.65
  -2  -9   2   31.94    2.22
   1   9  -2   -0.33    0.46
   1   9  -2    0.36    0.54
  -1  -9   2   -0.03    0.48
  -1  -9   2    0.13    0.56
   0   9  -2   -0.21    0.51
   0   9  -2   -0.65    0.36
   0  -9   2    0.17    0.64
   0  -9   2    0.65    0.58
  -1   9  -2    0.73    0.67
  -1   9  -2    0.64    0.70
   1  -9   2   -0.21    0.31
   1  -9   2    0.71    0.65
   1  -9   2    0.36    0.64
  -2   9  -2   -0.06    0.57
  -2   9  -2   -0.27    0.58
   2  -9   2   -0.44    0.36
   2  -9   2    0.18    0.66
   2  -9   2    1.64    0.85
   8   8  -2   10.52    1.96
  -8  -8   2    8.97    1.84
  -8  -8   2    9.86    0.72
  -8  -8   2    9.40    1.64
   7   8  -2   19.93    2.58
  -7  -8   2   17.32    1.96
  -7  -8   2   14.64    2.10
   6   8  -2    9.50    1.67
  -6  -8   2    9.01    1.68
  -6  -8   2    9.54    1.32
   5   8  -2   14.01    0.98
   5   8  -2   12.29    1.80
  -5  -8   2   14.66    2.01
   4   8  -2    8.98    1.49
   4   8  -2    9.63    0.70
   4   8  -2    7.04    1.24
  -4  -8   2   10.37    1.61
   3   8  -2    8.38    1.39
   3   8  -2   11.12    1.39
   3   8  -2   10.82    1.53
  -3  -8   2   11.92    1.40
  -3  -8   2    8.59    1.35
   2   8  -2    1.19    0.55
   2   8  -2    0.17    0.38
   2   8  -2    1.09    0.55
  -2  -8   2    0.99    0.52
  -2  -8   2    0.48    0.40
  -2  -8   2    0.42    0.45
   1   8  -2    1.22    0.61
  -1  -8   2    2.59    0.84
  -1  -8   2    1.73    0.66
   0   8  -2   16.33    1.93
   0  -8   2   15.75    1.85
   0  -8   2   18.17    1.93
  -1   8  -2   -0.10    0.39
   1  -8   2    0.63    0.62
   1  -8   2    0.69    0.35
   1  -8   2   -0.26    0.51
  -2   8  -2   18.70    2.25
  -2   8  -2   18.13    2.35
   2  -8   2   17.74    1.39
   2  -8   2   15.74    2.07
   2  -8   2   22.06    2.47
  -3   8  -2    0.08    0.71
  -3   8  -2    1.44    0.87
   3  -8   2    0.12    0.69
   3  -8   2    0.74    0.55
   3  -8   2    0.11    0.71
  -8  -7   2    4.25    1.29
  -8  -7   2    2.54    0.63
  -8  -7   2    3.03    1.08
  -7  -7   2    1.96    0.80
  -7  -7   2    0.90    0.35
  -7  -7   2    1.42    0.78
   6   7  -2   24.15    1.50
  -6  -7   2   24.88    1.75
  -6  -7   2   26.48    2.24
  -6  -7   2   23.24    0.80
   5   7  -2   10.19    0.98
   5   7  -2    8.04    1.41
  -5  -7   2    7.51    1.05
  -5  -7   2    9.11    1.54
   4   7  -2   13.50    1.79
   4   7  -2   12.72    0.77
  -4  -7   2   14.19    1.38
  -4  -7   2   11.04    1.54
   3   7  -2   25.53    0.97
   3   7  -2   25.74    1.57
   3   7  -2   21.68    1.77
   3   7  -2   23.68    1.72
   3   7  -2   26.80    1.43
  -3  -7   2   23.15    1.36
  -3  -7   2   24.75    1.84
  -3  -7   2   23.79    1.53
   2   7  -2   33.17    2.00
   2   7  -2   32.43    1.99
  -2  -7   2   32.74    1.73
  -2  -7   2   31.76    1.86
  -2  -7   2   32.31    1.98
   1   7  -2    0.41    0.45
   1   7  -2    0.37    0.35
  -1  -7   2    0.81    0.47
  -1  -7   2   -0.46    0.27
  -1  -7   2    0.55    0.43
   0   7  -2   51.54    2.67
   0  -7   2   50.57    2.65
   0  -7   2   54.55    2.59
  -1   7  -2   17.47    1.92
   1  -7   2   17.47    1.83
   1  -7   2   18.17    1.05
   1  -7   2   20.11    2.11
  -2   7  -2    8.90    1.56
   2  -7   2    7.07    1.40
   2  -7   2    9.86    1.16
   2  -7   2   11.07    1.63
  -3   7  -2    3.18    1.04
   3  -7   2    2.91    0.74
   3  -7   2    1.44    0.73
   3  -7   2    2.50    0.89
  -4   7  -2    8.09    1.67
  -4   7  -2    8.16    1.60
   4  -7   2    8.81    1.65
   4  -7   2   10.53    1.49
   4  -7   2    9.21    1.79
  -9  -6   2    8.57    1.63
  -9  -6   2    3.72    1.26
  -8  -6   2   -0.48    0.57
  -8  -6   2    0.30    0.71
  -7  -6   2   -0.01    0.46
  -7  -6   2   -0.02    0.61
   6   6  -2    1.51    0.52
  -6  -6   2    1.07    0.37
  -6  -6   2    1.10    0.69
  -6  -6   2    1.70    0.71
   5   6  -2    6.62    0.83
  -5  -6   2    8.59    0.53
  -5  -6   2   11.24    1.67
  -5  -6   2    7.11    1.02
   4   6  -2   24.14    1.10
  -4  -6   2   22.81    1.76
  -4  -6   2   24.42    1.44
   3   6  -2    3.80    0.79
   3   6  -2    3.18    0.38
   3   6  -2    3.63    0.70
  -3  -6   2    3.28    0.83
  -3  -6   2    3.65    0.62
  -3  -6   2    2.92    0.63
  -3  -6   2    2.85    0.58
   2   6  -2    0.26    0.13
   2   6  -2   -0.01    0.25
   2   6  -2    0.19    0.25
   2   6  -2    0.00    0.34
  -2  -6   2    0.42    0.29
  -2  -6   2   -0.22    0.25
  -2  -6   2    0.16    0.34
  -2  -6   2    0.21    0.30
   1   6  -2    8.35    1.06
   1   6  -2    8.29    0.83
   1   6  -2    7.12    0.52
   1   6  -2    7.71    1.12
  -1  -6   2    6.21    0.91
  -1  -6   2    7.56    1.03
  -1  -6   2    8.93    1.14
  -1  -6   2    6.70    0.77
   0   6  -2    1.02    0.37
   0   6  -2    0.21    0.40
   0  -6   2    0.47    0.45
   0  -6   2    1.08    0.51
  -1   6  -2   39.12    2.27
   1  -6   2   36.56    2.20
   1  -6   2   38.20    2.13
  -2   6  -2   10.81    1.52
   2  -6   2   11.75    1.55
   2  -6   2   11.34    0.93
   2  -6   2   11.97    1.55
  -3   6  -2    2.04    0.87
   3  -6   2    1.89    0.57
   3  -6   2    2.45    0.87
   3  -6   2    2.79    0.92
  -4   6  -2    5.61    1.27
   4  -6   2    7.39    1.41
   4  -6   2    3.74    1.13
   4  -6   2    3.81    0.87
  -5   6  -2    1.10    0.79
  -5   6  -2    0.25    0.55
   5  -6   2   -0.16    0.60
   5  -6   2    1.18    0.77
   5  -6   2    0.57    0.58
  -9  -5   2    0.69    0.77
  -9  -5   2    1.12    0.93
  -8  -5   2    1.30    0.75
  -8  -5   2    0.84    0.87
   7   5  -2   29.37    1.95
  -7  -5   2   30.17    2.39
  -7  -5   2   25.57    1.94
   6   5  -2   16.83    1.32
  -6  -5   2   14.26    1.79
  -6  -5   2   14.62    1.55
   5   5  -2   24.39    1.36
  -5  -5   2   20.53    1.72
  -5  -5   2   23.92    1.54
   4   5  -2  111.68    2.82
  -4  -5   2  109.73    2.32
  -4  -5   2  109.17    3.26
  -4  -5   2  105.63    3.85
   3   5  -2   47.71    1.36
  -3  -5   2   47.05    1.85
  -3  -5   2   47.81    1.75
  -3  -5   2   48.68    2.33
  -3  -5   2   49.71    1.78
   2   5  -2   23.21    1.39
   2   5  -2   21.35    1.39
   2   5  -2   20.53    0.61
   2   5  -2   21.13    0.63
  -2  -5   2   21.89    1.11
  -2  -5   2   19.74    1.11
  -2  -5   2   20.00    1.37
  -2  -5   2   21.90    1.25
   1   5  -2   29.13    1.50
   1   5  -2   28.51    1.24
   1   5  -2   29.30    1.56
   1   5  -2   28.16    0.89
  -1  -5   2   27.72    1.23
  -1  -5   2   27.88    1.48
  -1  -5   2   29.27    1.54
  -1  -5   2   30.01    1.50
   0   5  -2   56.10    1.83
   0   5  -2   56.17    2.34
   0   5  -2   56.67    1.72
   0   5  -2   53.79    1.97
   0  -5   2   58.86    1.83
   0  -5   2   55.80    1.98
   0  -5   2   52.99    2.29
   0  -5   2   61.75    2.32
  -1   5  -2    6.39    0.75
  -1   5  -2    4.07    0.78
   1  -5   2    6.70    1.00
   1  -5   2    5.85    0.97
  -2   5  -2   67.33    2.94
  -2   5  -2   68.06    2.35
   2  -5   2   69.63    2.96
   2  -5   2   71.72    2.28
   2  -5   2   71.84    2.95
  -3   5  -2    2.20    0.60
  -3   5  -2    1.65    0.61
   3  -5   2    1.37    0.63
   3  -5   2    2.17    0.57
   3  -5   2    2.10    0.73
  -4   5  -2    0.41    0.54
   4  -5   2    1.24    0.67
   4  -5   2    2.11    0.76
   4  -5   2    0.80    0.50
  -5   5  -2    1.74    0.81
   5  -5   2    0.69    0.69
   5  -5   2    0.73    0.58
   5  -5   2    0.90    0.65
  -6   5  -2    1.50    0.84
   6  -5   2    2.44    1.06
   6  -5   2    2.09    0.82
  -9  -4   2    0.14    0.69
  -9  -4   2    0.44    0.91
  -8  -4   2    4.49    1.17
  -8  -4   2    3.02    0.97
   7   4  -2    3.87    0.94
  -7  -4   2    5.24    1.18
  -7  -4   2    3.80    0.92
   6   4  -2    0.42    0.39
  -6  -4   2    0.43    0.47
  -6  -4   2    0.77    0.50
   5   4  -2  109.18    3.32
  -5  -4   2  108.04    3.50
  -5  -4   2  114.27    4.07
   4   4  -2   30.66    1.35
  -4  -4   2   28.77    1.80
  -4  -4   2   29.21    1.31
  -4  -4   2   29.61    1.54
   3   4  -2   34.57    1.38
   3   4  -2   31.84    1.13
  -3  -4   2   32.20    1.31
  -3  -4   2   33.96    1.79
  -3  -4   2   33.11    1.34
  -3  -4   2   34.51    1.49
  -3  -4   2   32.15    0.87
   2   4  -2   25.37    1.19
   2   4  -2   27.08    0.68
  -2  -4   2   24.88    1.14
  -2  -4   2   22.97    1.38
  -2  -4   2   25.57    1.16
  -2  -4   2   27.12    1.21
   1   4  -2   21.01    1.17
   1   4  -2   20.18    0.98
   1   4  -2   19.50    1.11
   1   4  -2   20.59    0.55
  -1  -4   2   20.00    0.97
  -1  -4   2   21.05    1.11
  -1  -4   2   20.51    1.15
   0   4  -2   12.24    0.76
   0   4  -2   12.36    0.65
   0   4  -2   14.19    1.00
   0   4  -2   12.84    0.82
   0  -4   2   13.00    0.82
   0  -4   2   11.86    0.74
   0  -4   2   12.30    0.94
   0  -4   2   10.51    1.07
  -1   4  -2   24.86    1.45
  -1   4  -2   25.18    1.11
  -1   4  -2   23.58    1.16
  -1   4  -2   23.22    1.12
   1  -4   2   22.08    1.40
   1  -4   2   23.69    1.43
  -2   4  -2    5.92    0.75
  -2   4  -2    4.02    0.77
   2  -4   2    6.57    1.01
   2  -4   2    5.78    0.94
   2  -4   2    5.89    0.69
  -3   4  -2   21.22    1.30
  -3   4  -2   18.02    1.78
   3  -4   2   18.88    1.47
   3  -4   2   20.11    1.25
   3  -4   2   19.33    1.47
  -4   4  -2   13.07    1.66
  -4   4  -2   15.89    1.48
   4  -4   2   14.39    1.45
   4  -4   2   15.13    1.67
   4  -4   2   15.27    1.63
  -5   4  -2    7.37    1.17
  -5   4  -2    7.53    1.44
   5  -4   2    6.88    1.15
   5  -4   2    9.67    1.44
   5  -4   2    9.34    1.48
  -6   4  -2   -0.73    0.51
   6  -4   2    0.18    0.63
   6  -4   2   -0.33    0.36
  -9  -3   2    0.21    0.71
  -8  -3   2    4.03    1.18
  -8  -3   2    4.04    1.10
   7   3  -2    0.21    0.45
   7   3  -2    0.82    0.39
  -7  -3   2    0.69    0.61
  -7  -3   2    0.34    0.52
   6   3  -2   33.14    2.01
   6   3  -2   36.81    1.59
  -6  -3   2   35.90    2.29
  -6  -3   2   33.54    1.98
   5   3  -2   25.94    1.12
   5   3  -2   23.60    1.47
  -5  -3   2   25.44    1.36
  -5  -3   2   24.51    1.55
  -5  -3   2   26.57    1.83
   4   3  -2   60.39    2.07
   4   3  -2   60.36    1.39
  -4  -3   2   59.15    2.22
  -4  -3   2   59.24    2.01
  -4  -3   2   58.01    2.53
   3   3  -2    0.34    0.22
   3   3  -2    0.43    0.21
  -3  -3   2    0.00    0.18
  -3  -3   2    0.20    0.28
  -3  -3   2    0.02    0.26
   2   3  -2   39.61    1.02
   2   3  -2   38.68    1.41
  -2  -3   2   38.99    1.44
  -2  -3   2   38.97    1.40
  -2  -3   2   43.06    1.78
  -2  -3   2   41.86    1.41
   1   3  -2   77.08    2.05
   1   3  -2   75.00    2.18
   1   3  -2   78.81    2.18
  -1  -3   2   77.23    2.04
  -1  -3   2   81.27    2.30
  -1  -3   2   76.76    2.11
   0   3  -2    4.83    0.35
   0   3  -2    4.57    0.53
   0   3  -2    4.87    0.62
   0  -3   2    5.12    0.66
   0  -3   2    5.51    0.67
   0  -3   2    4.90    0.52
  -1   3  -2  178.40    3.77
  -1   3  -2  176.92    3.77
  -1   3  -2  174.50    4.19
   1  -3   2  172.05    4.18
   1  -3   2  173.67    3.57
   1  -3   2  169.41    4.15
  -2   3  -2  188.22    4.22
  -2   3  -2  185.53    4.72
  -2   3  -2  185.14    4.41
   2  -3   2  179.01    3.93
   2  -3   2  184.78    4.63
   2  -3   2  193.15    4.27
   2  -3   2  196.02    4.68
  -3   3  -2   66.79    2.71
  -3   3  -2   66.49    2.34
   3  -3   2   65.01    2.58
   3  -3   2   68.51    2.30
   3  -3   2   67.65    2.60
  -4   3  -2    2.29    0.72
  -4   3  -2    2.82    0.76
  -4   3  -2    1.05    0.50
   4  -3   2    2.03    0.57
   4  -3   2    1.32    0.53
   4  -3   2    1.92    0.64
  -5   3  -2   -0.04    0.37
  -5   3  -2    1.22    0.58
   5  -3   2    0.58    0.49
   5  -3   2    0.76    0.53
   5  -3   2    0.77    0.49
  -6   3  -2    0.19    0.50
  -6   3  -2    0.16    0.63
   6  -3   2    0.05    0.38
   6  -3   2    0.34    0.50
  -7   3  -2    1.67    0.71
   7  -3   2    3.11    1.04
  -8  -2   2    6.56    1.41
  -8  -2   2    6.65    1.38
   7   2  -2    8.57    1.42
   7   2  -2    7.98    1.02
  -7  -2   2    7.41    1.38
  -7  -2   2   11.22    1.52
   6   2  -2   42.01    1.77
   6   2  -2   40.24    2.27
  -6  -2   2   43.63    2.43
  -6  -2   2   41.00    2.23
  -6  -2   2   42.01    2.37
   5   2  -2    8.51    1.10
   5   2  -2    9.66    0.75
  -5  -2   2   10.89    1.36
  -5  -2   2   10.79    1.26
  -5  -2   2   11.40    1.17
   4   2  -2    1.84    0.32
   4   2  -2    1.83    0.48
  -4  -2   2    2.03    0.58
  -4  -2   2    2.58    0.53
  -4  -2   2    1.79    0.49
   3   2  -2   79.02    1.57
   3   2  -2   78.25    2.20
   3   2  -2   79.40    2.23
  -3  -2   2   78.96    2.70
  -3  -2   2   79.77    2.36
  -3  -2   2   81.47    2.26
   2   2  -2   13.21    0.63
   2   2  -2   13.06    0.74
  -2  -2   2   11.81    0.74
  -2  -2   2   14.13    0.94
  -2  -2   2   13.10    0.76
  -2  -2   2   13.08    0.73
   1   2  -2    1.14    0.30
  -1  -2   2    0.71    0.23
  -1  -2   2    1.30    0.32
  -1  -2   2    1.16    0.29
  -1  -2   2    0.86    0.27
   0   2  -2  234.70    4.53
   0   2  -2  234.44    4.47
   0   2  -2  232.14    4.02
   0  -2   2  240.36    4.65
   0  -2   2  234.11    4.45
  -1   2  -2  129.57    3.15
  -1   2  -2  135.17    2.95
  -1   2  -2  130.18    2.89
   1  -2   2  136.29    2.82
   1  -2   2  130.91    3.17
  -2   2  -2    0.42    0.25
  -2   2  -2    0.21    0.22
  -2   2  -2    0.81    0.34
   2  -2   2    0.46    0.32
   2  -2   2    0.51    0.23
   2  -2   2    0.41    0.24
   2  -2   2    1.04    0.36
  -3   2  -2  135.63    3.76
  -3   2  -2  133.80    3.51
  -3   2  -2  135.55    3.92
   3  -2   2  134.71    3.71
   3  -2   2  134.41    2.33
   3  -2   2  132.61    3.65
   3  -2   2  138.14    3.39
   3  -2   2  131.92    3.60
  -4   2  -2   -0.16    0.35
  -4   2  -2    1.19    0.55
  -4   2  -2    0.50    0.41
   4  -2   2    0.57    0.39
   4  -2   2    0.41    0.34
   4  -2   2    0.74    0.32
   4  -2   2    0.81    0.19
  -5   2  -2    0.50    0.45
  -5   2  -2    0.25    0.42
  -5   2  -2   -0.19    0.33
   5  -2   2    0.26    0.37
   5  -2   2    0.64    0.36
   5  -2   2    0.13    0.34
   5  -2   2    0.22    0.19
  -6   2  -2   -0.12    0.38
   6  -2   2   -0.28    0.40
   6  -2   2   -0.07    0.34
  -7   2  -2    0.04    0.48
   7  -2   2   -0.13    0.47
  -8   2  -2    8.52    1.50
  -8  -1   2    6.95    1.42
  -7  -1   2    4.72    1.13
  -7  -1   2    7.69    1.35
   6   1  -2    0.35    0.32
   6   1  -2   -0.19    0.26
  -6  -1   2    0.89    0.55
  -6  -1   2    0.43    0.47
  -6  -1   2    0.59    0.45
   5   1  -2    1.94    0.43
   5   1  -2    1.72    0.58
  -5  -1   2    2.10    0.62
  -5  -1   2    2.08    0.60
  -5  -1   2    2.09    0.68
   4   1  -2    0.84    0.24
   4   1  -2    1.99    0.52
  -4  -1   2    1.66    0.53
  -4  -1   2    1.47    0.46
  -4  -1   2    1.43    0.44
   3   1  -2  135.66    2.85
   3   1  -2  139.53    3.43
  -3  -1   2  137.74    3.42
  -3  -1   2  140.85    3.38
  -3  -1   2  136.42    3.72
   2   1  -2  533.61    9.40
   2   1  -2  542.81    9.50
  -2  -1   2  551.74    9.93
  -2  -1   2  537.82    9.49
  -2  -1   2  539.39    9.51
  -1  -1   2  901.56   14.83
   0   1  -2    1.69    0.22
   0   1  -2    1.86    0.31
   0   1  -2    2.54    0.34
   0  -1   2    2.28    0.32
   0  -1   2    2.46    0.34
   0  -1   2    2.04    0.33
  -1   1  -2  297.35    4.91
  -1   1  -2  306.17    5.56
  -1   1  -2  302.81    5.50
  -1   1  -2  308.23    5.45
   1  -1   2  295.32    5.41
   1  -1   2  302.06    5.59
  -2   1  -2  743.69   12.53
  -2   1  -2  722.38   12.66
  -2   1  -2  727.13   12.78
   2  -1   2  699.15   12.53
   2  -1   2  739.01   12.59
   2  -1   2  735.17   12.28
  -3   1  -2   43.83    1.86
  -3   1  -2   43.13    1.80
  -3   1  -2   43.31    1.70
   3  -1   2   43.20    1.23
   3  -1   2   43.10    1.60
   3  -1   2   42.30    1.76
   3  -1   2   42.89    1.64
   3  -1   2   42.72    1.69
  -4   1  -2    0.02    0.31
  -4   1  -2    0.34    0.35
  -4   1  -2    0.09    0.33
   4  -1   2    0.28    0.31
   4  -1   2    0.13    0.26
   4  -1   2   -0.07    0.14
   4  -1   2   -0.12    0.25
   4  -1   2   -0.12    0.22
  -5   1  -2   23.41    1.63
  -5   1  -2   22.47    1.52
   5  -1   2   23.39    1.40
   5  -1   2   20.89    1.04
   5  -1   2   21.92    1.41
   5  -1   2   20.73    1.42
  -6   1  -2   16.43    1.77
  -6   1  -2   16.83    1.25
  -6   1  -2   19.94    1.65
   6  -1   2   19.18    1.53
   6  -1   2   18.04    1.05
  -7   1  -2    3.76    1.00
   7  -1   2    2.50    0.82
   7  -1   2    2.63    0.54
  -8   1  -2    0.91    0.80
  -8   0   2    0.41    0.73
   7   0  -2    5.45    1.09
  -7   0   2    5.46    1.15
   6   0  -2   13.20    1.20
  -6   0   2   14.02    1.61
  -6   0   2   16.80    1.86
  -6   0   2   16.64    1.74
  -6   0   2   10.25    0.80
   5   0  -2    2.58    0.73
   5   0  -2    2.63    0.50
  -5   0   2    4.29    0.88
  -5   0   2    3.61    0.79
  -5   0   2    4.08    0.57
  -5   0   2    2.53    0.68
   4   0  -2   87.30    2.40
   4   0  -2   88.35    3.02
  -4   0   2   85.96    3.00
  -4   0   2   89.85    2.23
  -4   0   2   88.05    2.90
  -4   0   2   86.98    2.80
   3   0  -2   44.84    1.41
  -3   0   2   42.14    1.82
  -3   0   2   43.61    1.73
  -3   0   2   41.53    1.64
   2   0  -2   16.07    0.88
   2   0  -2   15.56    0.65
   2   0  -2   15.08    0.86
  -2   0   2   15.81    0.90
  -2   0   2   14.70    0.82
  -2   0   2   16.04    0.97
  -2   0   2   15.81    0.58
   1   0  -2  525.14    8.83
   1   0  -2  510.92    8.90
  -1   0   2  523.07    8.79
  -1   0   2  506.01    8.64
  -1   0   2  509.22    8.88
  -1   0   2  521.72    8.74
   0   0  -2   32.03    0.96
   0   0  -2   30.76    0.88
   0   0  -2   29.97    0.65
   0   0   2   32.12    0.97
  -1   0  -2  470.83    7.90
  -1   0  -2  462.35    7.59
  -1   0  -2  477.50    7.93
   1   0   2  460.93    7.85
   1   0   2  447.51    7.88
  -2   0  -2   15.29    0.83
  -2   0  -2   15.39    0.80
   2   0   2   15.28    0.60
   2   0   2   14.92    0.84
   2   0   2   14.27    0.72
  -3   0  -2    0.32    0.24
   3   0   2    0.50    0.25
   3   0   2    0.74    0.33
   3   0   2    0.94    0.25
   3   0   2    0.84    0.28
  -4   0  -2    0.00    0.27
  -4   0  -2   -0.07    0.27
  -4   0  -2   -0.04    0.16
  -4   0  -2   -0.01    0.20
   4   0   2    0.11    0.21
   4   0   2   -0.15    0.16
   4   0   2    0.12    0.18
   4   0   2    0.44    0.33
   4   0   2    0.02    0.23
  -5   0  -2   82.68    2.98
  -5   0  -2   82.35    2.88
  -5   0  -2   84.42    2.54
   5   0   2   82.92    3.33
   5   0   2   80.78    2.74
   5   0   2   81.34    2.76
   5   0   2   82.83    2.39
   5   0   2   89.57    3.23
  -6   0  -2    6.03    0.80
  -6   0  -2    6.69    1.12
  -6   0  -2    5.63    0.98
   6   0   2    7.02    0.80
   6   0   2    6.41    1.01
  -7   0  -2    7.77    1.31
  -7   0  -2    8.31    0.99
   7   0   2    7.85    0.92
   7   0   2    8.35    1.79
  -8   0  -2    1.96    0.81
   8  -1  -2    0.42    0.71
  -8   1   2    1.27    0.79
   7  -1  -2    1.43    0.71
  -7   1   2    0.86    0.68
   6  -1  -2    0.68    0.50
   6  -1  -2    0.22    0.30
  -6   1   2   -0.44    0.35
  -6   1   2    0.28    0.36
   5  -1  -2   74.68    2.40
  -5   1   2   74.32    2.84
  -5   1   2   78.69    3.16
  -5   1   2   70.86    2.96
   4  -1  -2   33.28    1.58
   4  -1  -2   32.60    1.38
   4  -1  -2   34.09    1.87
  -4   1   2   34.26    1.85
  -4   1   2   35.66    1.95
  -4   1   2   35.87    1.71
  -4   1   2   33.82    1.80
  -4   1   2   34.34    1.41
   3  -1  -2   48.15    2.01
   3  -1  -2   48.06    1.55
   3  -1  -2   48.62    1.76
  -3   1   2   47.02    1.74
  -3   1   2   47.62    1.98
  -3   1   2   47.93    1.99
  -3   1   2   51.16    2.02
   2  -1  -2   29.53    1.34
   2  -1  -2   29.23    1.02
  -2   1   2   28.23    1.29
  -2   1   2   29.11    1.14
  -2   1   2   28.67    1.34
  -2   1   2   29.97    1.35
   1  -1  -2   64.05    1.79
   1  -1  -2   63.70    1.81
   1  -1  -2   66.20    1.50
  -1   1   2   65.48    1.74
  -1   1   2   63.65    1.82
  -1   1   2   66.26    1.93
  -1   1   2   58.72    1.76
  -1   1   2   66.61    1.56
   0  -1  -2    4.39    0.37
   0  -1  -2    5.14    0.29
   0   1   2    4.25    0.41
   0   1   2    4.22    0.31
   0   1   2    5.19    0.42
  -1  -1  -2   48.28    1.31
  -1  -1  -2   48.42    1.08
  -1  -1  -2   47.25    1.11
  -1  -1  -2   47.90    1.07
   1   1   2   44.96    1.29
   1   1   2   47.76    1.10
   1   1   2   47.18    1.09
  -2  -1  -2   74.79    1.94
  -2  -1  -2   77.41    1.71
  -2  -1  -2   76.76    2.02
   2   1   2   77.86    1.72
   2   1   2   78.66    1.67
   2   1   2   77.21    2.06
  -3  -1  -2   23.77    1.09
  -3  -1  -2   21.51    1.09
  -3  -1  -2   23.70    0.90
   3   1   2   24.87    1.24
   3   1   2   24.59    0.94
   3   1   2   24.52    0.93
  -4  -1  -2    1.58    0.40
  -4  -1  -2    2.54    0.56
  -4  -1  -2    1.72    0.36
  -4  -1  -2    2.16    0.47
   4   1   2    1.38    0.45
   4   1   2    1.91    0.41
   4   1   2    1.78    0.33
  -5  -1  -2   11.01    0.81
  -5  -1  -2   10.94    0.97
  -5  -1  -2   11.02    1.21
  -5  -1  -2   12.26    0.96
   5   1   2   10.80    0.86
   5   1   2   10.16    0.78
   5   1   2   10.53    1.26
  -6  -1  -2   -0.33    0.34
  -6  -1  -2    0.53    0.45
  -6  -1  -2    0.14    0.28
   6   1   2    0.20    0.31
   6   1   2   -0.28    0.21
  -7  -1  -2    7.71    0.86
  -7  -1  -2    7.77    1.26
   7   1   2    8.93    1.04
  -8  -1  -2    6.88    1.31
  -9  -1  -2   28.28    2.75
   7  -2  -2   -0.36    0.54
  -7   2   2    0.00    0.48
   6  -2  -2    6.05    1.18
   6  -2  -2    6.35    0.83
  -6   2   2    8.70    1.32
   5  -2  -2    6.27    0.76
   5  -2  -2    7.08    1.19
  -5   2   2    5.25    1.10
  -5   2   2    5.88    1.10
  -5   2   2    6.68    0.99
   4  -2  -2   10.99    0.79
   4  -2  -2   10.43    1.14
  -4   2   2   11.33    1.28
  -4   2   2   11.38    1.35
  -4   2   2   12.68    1.20
  -4   2   2   12.58    1.18
  -4   2   2   10.09    1.26
   3  -2  -2   49.80    2.14
   3  -2  -2   45.81    1.52
   3  -2  -2   45.61    1.82
  -3   2   2   46.51    2.00
  -3   2   2   46.76    1.79
  -3   2   2   47.45    2.12
  -3   2   2   49.28    1.79
  -3   2   2   45.92    2.10
   2  -2  -2   35.42    1.39
   2  -2  -2   37.99    1.20
   2  -2  -2   35.49    1.58
  -2   2   2   34.25    1.60
  -2   2   2   36.73    1.59
  -2   2   2   38.73    1.33
  -2   2   2   33.33    1.55
  -2   2   2   37.01    1.46
   1  -2  -2   84.88    1.84
   1  -2  -2   83.70    2.33
   1  -2  -2   82.84    2.37
  -1   2   2   84.90    1.88
  -1   2   2   81.91    2.32
  -1   2   2   82.65    2.34
  -1   2   2   84.79    2.39
  -1   2   2   87.03    2.43
   0  -2  -2  154.15    3.27
   0  -2  -2  157.12    3.29
   0  -2  -2  159.13    2.80
   0   2   2  159.86    2.93
   0   2   2  157.10    3.32
   0   2   2  155.69    3.48
   0   2   2  152.74    3.30
   0   2   2  155.88    3.28
  -1  -2  -2   14.81    0.40
  -1  -2  -2   14.46    0.70
  -1  -2  -2   15.27    0.82
  -1  -2  -2   15.71    0.57
  -1  -2  -2   15.32    0.41
   1   2   2   14.43    0.57
   1   2   2   14.35    0.51
   1   2   2   14.91    0.83
   1   2   2   13.90    0.72
  -2  -2  -2  968.95   16.35
  -2  -2  -2  967.40   16.01
  -2  -2  -2 1000.00   16.52
   2   2   2  967.80   16.52
  -3  -2  -2    0.02    0.21
  -3  -2  -2    0.45    0.15
  -3  -2  -2    0.70    0.29
  -3  -2  -2    0.29    0.11
   3   2   2    0.00    0.21
   3   2   2    0.05    0.14
   3   2   2    0.35    0.26
   3   2   2    0.28    0.14
  -4  -2  -2    1.17    0.25
  -4  -2  -2    0.71    0.25
  -4  -2  -2    0.98    0.21
  -4  -2  -2    0.72    0.33
  -4  -2  -2    1.52    0.44
   4   2   2    0.68    0.33
   4   2   2    1.17    0.27
   4   2   2    0.79    0.24
  -5  -2  -2    1.75    0.51
  -5  -2  -2    1.20    0.36
  -5  -2  -2    1.15    0.47
   5   2   2    1.76    0.50
   5   2   2    1.06    0.31
   5   2   2    1.76    0.39
  -6  -2  -2   35.35    2.02
  -6  -2  -2   37.04    1.29
  -6  -2  -2   37.60    2.03
   6   2   2   34.68    1.56
   6   2   2   39.61    2.18
  -7  -2  -2    0.50    0.54
   7   2   2    0.09    0.28
  -8  -2  -2   35.65    2.36
  -9  -2  -2    0.05    0.58
   7  -3  -2    0.14    0.64
   6  -3  -2    0.92    0.62
  -6   3   2    0.78    0.79
   5  -3  -2    1.18    0.37
   5  -3  -2    0.99    0.65
  -5   3   2    0.90    0.49
  -5   3   2    0.17    0.47
   4  -3  -2   -0.23    0.28
   4  -3  -2   -0.25    0.24
   4  -3  -2   -0.04    0.17
  -4   3   2    0.37    0.33
  -4   3   2    0.50    0.42
  -4   3   2    0.23    0.37
  -4   3   2   -0.05    0.38
  -4   3   2   -0.70    0.35
   3  -3  -2    0.16    0.37
   3  -3  -2    0.06    0.17
   3  -3  -2    0.26    0.28
  -3   3   2    0.17    0.36
  -3   3   2    0.93    0.52
  -3   3   2    0.25    0.32
  -3   3   2    0.41    0.39
  -3   3   2    0.20    0.29
   2  -3  -2   51.32    1.86
   2  -3  -2   53.78    2.10
  -2   3   2   51.39    2.10
  -2   3   2   52.52    2.07
  -2   3   2   49.79    2.13
  -2   3   2   50.26    1.96
  -2   3   2   52.17    2.16
  -2   3   2   53.84    1.65
   1  -3  -2   17.15    0.56
   1  -3  -2   20.21    0.93
   1  -3  -2   15.19    0.97
   1  -3  -2   18.14    0.58
  -1   3   2   17.15    1.04
  -1   3   2   17.86    0.70
  -1   3   2   19.79    1.14
  -1   3   2   16.97    1.04
  -1   3   2   17.25    1.08
  -1   3   2   18.22    1.12
   0  -3  -2    9.00    0.65
   0   3   2   11.02    0.78
   0   3   2   10.05    0.73
   0   3   2   11.18    0.74
   0   3   2   11.57    0.84
   0   3   2   12.76    0.84
   0   3   2   10.86    0.52
  -1  -3  -2   48.76    1.47
   1   3   2   50.29    1.70
   1   3   2   48.74    1.53
   1   3   2   51.47    1.10
   1   3   2   48.10    1.77
   1   3   2   48.13    1.38
  -2  -3  -2  129.61    3.35
  -2  -3  -2  132.11    2.68
  -2  -3  -2  127.50    3.00
  -2  -3  -2  128.07    2.90
   2   3   2  129.34    2.31
   2   3   2  127.60    2.39
   2   3   2  129.43    3.37
   2   3   2  130.05    2.96
  -3  -3  -2   33.41    1.39
  -3  -3  -2   32.24    1.56
  -3  -3  -2   32.96    1.27
   3   3   2   33.13    1.00
   3   3   2   31.87    1.57
   3   3   2   31.23    1.34
  -4  -3  -2   35.11    1.55
  -4  -3  -2   37.22    0.94
  -4  -3  -2   38.84    1.84
   4   3   2   40.46    1.74
   4   3   2   36.25    1.79
   4   3   2   36.91    1.26
  -5  -3  -2   98.25    2.55
  -5  -3  -2   93.77    3.27
  -5  -3  -2   99.46    3.14
   5   3   2   98.70    3.25
   5   3   2   99.05    2.61
  -6  -3  -2    5.31    1.00
  -6  -3  -2    4.45    0.86
   6   3   2    5.97    0.74
   6   3   2    6.82    1.08
  -7  -3  -2    2.79    0.83
  -7  -3  -2    2.70    0.80
   7   3   2    2.40    0.56
   7   3   2    2.30    0.78
  -8  -3  -2    7.72    1.33
  -9  -3  -2    7.74    1.54
   6  -4  -2    1.18    0.84
  -6   4   2    2.33    1.05
   5  -4  -2    0.05    0.55
   5  -4  -2    1.06    0.58
  -5   4   2    1.66    0.80
   4  -4  -2    8.41    1.13
   4  -4  -2    7.19    1.22
  -4   4   2    6.98    1.26
  -4   4   2    6.76    1.11
   3  -4  -2   10.32    1.32
   3  -4  -2   14.03    1.12
  -3   4   2   12.70    1.34
  -3   4   2   13.33    1.40
  -3   4   2   11.06    1.38
  -3   4   2   11.08    1.39
   2  -4  -2    0.03    0.22
   2  -4  -2   -0.06    0.26
  -2   4   2    0.13    0.38
  -2   4   2    0.05    0.29
  -2   4   2   -0.03    0.24
  -2   4   2    0.04    0.34
  -2   4   2   -0.15    0.24
   1  -4  -2   11.27    0.80
   1  -4  -2   12.28    0.98
   1  -4  -2   12.08    0.94
  -1   4   2   12.31    1.02
  -1   4   2   12.01    0.59
  -1   4   2   13.05    1.02
  -1   4   2   14.74    1.07
  -1   4   2   14.92    1.05
  -1   4   2   14.21    1.11
   0  -4  -2   41.26    1.55
   0  -4  -2   42.49    1.64
   0   4   2   42.47    1.82
   0   4   2   42.23    1.76
   0   4   2   41.91    1.69
   0   4   2   42.11    1.18
   0   4   2   40.39    1.77
   0   4   2   40.77    1.59
  -1  -4  -2    0.26    0.20
  -1  -4  -2   -0.06    0.17
   1   4   2   -0.18    0.19
   1   4   2    0.14    0.25
   1   4   2    0.03    0.20
   1   4   2   -0.17    0.17
   1   4   2    0.01    0.07
   1   4   2    0.13    0.20
  -2  -4  -2    5.09    0.39
  -2  -4  -2    5.47    0.80
  -2  -4  -2    4.70    0.37
  -2  -4  -2    5.23    0.58
   2   4   2    5.20    0.21
   2   4   2    4.91    0.21
   2   4   2    5.23    0.63
   2   4   2    5.19    0.40
   2   4   2    6.52    0.75
   2   4   2    4.14    0.73
  -3  -4  -2   20.03    1.06
  -3  -4  -2   18.80    1.27
  -3  -4  -2   18.91    0.91
   3   4   2   19.99    0.65
   3   4   2   20.03    1.01
   3   4   2   19.90    1.06
   3   4   2   20.17    1.32
  -4  -4  -2  109.42    3.13
  -4  -4  -2  103.18    2.90
  -4  -4  -2  108.25    3.54
   4   4   2  110.28    3.60
   4   4   2  111.74    2.45
   4   4   2  106.50    3.09
  -5  -4  -2    0.58    0.45
  -5  -4  -2    0.12    0.30
   5   4   2    0.32    0.38
   5   4   2   -0.12    0.28
   5   4   2    0.23    0.20
  -6  -4  -2    1.09    0.55
  -6  -4  -2    2.77    0.74
   6   4   2    2.08    0.47
   6   4   2    2.96    0.82
   6   4   2    1.94    0.59
  -7  -4  -2    1.47    0.63
  -7  -4  -2    0.27    0.50
   7   4   2    0.82    0.36
   7   4   2    0.37    0.43
   7   4   2   -0.26    0.44
  -8  -4  -2    2.58    0.87
  -8  -4  -2    3.64    0.99
   8   4   2    3.38    0.99
   8   4   2    5.74    1.21
  -9  -4  -2    4.59    1.16
   6  -5  -2    0.67    0.75
  -6   5   2    0.37    0.80
   5  -5  -2    4.32    1.23
   5  -5  -2    5.98    1.10
  -5   5   2    6.14    1.34
   4  -5  -2    6.38    1.13
   4  -5  -2    8.08    1.42
  -4   5   2    6.92    1.31
  -4   5   2    7.69    1.31
   3  -5  -2   -0.03    0.30
   3  -5  -2   -0.33    0.36
  -3   5   2   -0.37    0.31
  -3   5   2   -0.26    0.28
   2  -5  -2   -0.12    0.32
   2  -5  -2    0.44    0.29
  -2   5   2    0.25    0.37
  -2   5   2    0.79    0.47
  -2   5   2    1.03    0.52
  -2   5   2    0.10    0.37
   1  -5  -2   -0.07    0.29
   1  -5  -2    0.13    0.25
  -1   5   2    0.24    0.35
  -1   5   2   -0.34    0.22
  -1   5   2    0.20    0.31
  -1   5   2   -0.13    0.32
   0  -5  -2    0.31    0.30
   0   5   2    0.40    0.31
   0   5   2    0.52    0.39
   0   5   2    0.96    0.44
   0   5   2    0.45    0.34
   0   5   2    0.25    0.15
  -1  -5  -2   25.92    1.14
  -1  -5  -2   25.32    1.23
   1   5   2   23.46    1.43
   1   5   2   26.09    1.44
   1   5   2   23.55    1.23
   1   5   2   26.08    1.27
   1   5   2   25.72    0.71
   1   5   2   24.98    1.49
  -2  -5  -2    0.76    0.39
  -2  -5  -2    1.52    0.33
  -2  -5  -2    0.34    0.22
  -2  -5  -2    1.27    0.25
   2   5   2    1.02    0.43
   2   5   2    0.52    0.31
   2   5   2    1.05    0.29
   2   5   2    0.74    0.27
  -3  -5  -2   10.17    0.67
  -3  -5  -2   10.12    0.70
  -3  -5  -2    9.95    0.53
  -3  -5  -2    9.94    1.19
  -3  -5  -2    9.44    0.73
   3   5   2   11.04    0.50
   3   5   2    9.96    1.21
   3   5   2    9.09    0.91
   3   5   2   10.01    0.79
  -4  -5  -2    9.75    1.23
  -4  -5  -2   10.63    0.86
  -4  -5  -2   11.75    0.85
   4   5   2   10.11    1.30
   4   5   2   11.56    0.92
   4   5   2   11.20    0.84
   4   5   2   10.66    0.61
  -5  -5  -2    0.05    0.37
  -5  -5  -2   -0.24    0.29
  -5  -5  -2    0.25    0.28
   5   5   2    0.51    0.48
   5   5   2   -0.15    0.29
   5   5   2   -0.02    0.17
  -6  -5  -2   14.17    1.67
  -6  -5  -2   13.24    1.36
  -6  -5  -2   14.00    1.47
   6   5   2   13.23    1.71
   6   5   2   13.49    0.91
   6   5   2   16.36    1.62
  -7  -5  -2    2.51    0.89
  -7  -5  -2    1.03    0.61
   7   5   2    1.35    0.66
   7   5   2    1.06    0.61
   7   5   2    1.53    0.45
  -8  -5  -2    0.34    0.59
  -8  -5  -2    1.37    0.80
   8   5   2    2.02    0.59
   8   5   2    1.62    0.81
   8   5   2    0.62    0.65
  -9  -5  -2   -0.25    0.56
  -9  -5  -2    0.27    0.67
   9   5   2    0.08    0.67
   5  -6  -2   -0.53    0.63
   5  -6  -2   -0.50    0.42
  -5   6   2   -0.02    0.58
   4  -6  -2    2.07    0.77
   4  -6  -2    1.07    0.72
  -4   6   2    1.65    0.76
  -4   6   2    2.73    0.93
   3  -6  -2   20.65    2.12
   3  -6  -2   19.14    1.50
  -3   6   2   22.32    2.33
  -3   6   2   19.56    2.04
   2  -6  -2    7.98    1.08
   2  -6  -2    9.59    1.36
  -2   6   2    7.44    1.27
  -2   6   2    8.22    1.26
  -2   6   2   11.35    1.78
   1  -6  -2   18.32    1.21
   1  -6  -2   20.90    1.52
  -1   6   2   19.47    1.47
  -1   6   2   21.05    1.66
  -1   6   2   21.16    1.58
  -1   6   2   19.77    1.52
   0  -6  -2   27.68    1.60
   0   6   2   29.28    1.75
   0   6   2   27.80    1.78
   0   6   2   26.81    1.62
   0   6   2   28.98    1.76
  -1  -6  -2   15.08    1.07
   1   6   2   14.60    1.19
   1   6   2   15.16    1.10
   1   6   2   14.76    1.50
   1   6   2   15.32    1.28
  -2  -6  -2    2.90    0.67
  -2  -6  -2    2.10    0.45
   2   6   2    2.39    0.59
   2   6   2    2.67    0.49
   2   6   2    1.99    0.56
   2   6   2    1.44    0.58
  -3  -6  -2   77.43    3.11
  -3  -6  -2   78.12    2.41
   3   6   2   75.92    2.65
   3   6   2   77.75    2.05
   3   6   2   76.33    2.43
   3   6   2   78.45    3.20
  -4  -6  -2    6.90    1.13
  -4  -6  -2   11.16    0.83
  -4  -6  -2   10.45    0.83
   4   6   2    8.69    0.97
   4   6   2   10.47    1.38
   4   6   2    8.43    0.96
  -5  -6  -2    4.32    0.96
  -5  -6  -2    5.99    0.84
  -5  -6  -2    6.11    0.87
   5   6   2    3.90    0.71
   5   6   2    4.71    0.97
  -6  -6  -2    0.94    0.44
  -6  -6  -2    1.43    0.53
  -6  -6  -2    0.34    0.54
   6   6   2   -0.34    0.34
   6   6   2    0.47    0.43
  -7  -6  -2    1.62    0.80
  -7  -6  -2    3.32    0.85
  -7  -6  -2    1.80    0.65
   7   6   2    1.95    0.70
   7   6   2    2.31    0.84
  -8  -6  -2    0.51    0.65
  -8  -6  -2    1.44    0.77
  -8  -6  -2    1.28    0.62
   8   6   2    1.60    0.82
  -9  -6  -2    1.53    0.83
  -9  -6  -2    1.01    0.68
  -9  -6  -2    1.01    0.76
   9   6   2   -0.07    0.68
   4  -7  -2    1.25    0.87
   4  -7  -2    1.06    0.64
  -4   7   2    1.08    0.85
  -4   7   2    0.13    0.70
   3  -7  -2    8.90    1.29
   3  -7  -2    8.93    1.58
  -3   7   2    7.90    1.50
  -3   7   2    6.48    1.33
   2  -7  -2   21.39    1.55
   2  -7  -2   24.00    2.33
  -2   7   2   23.02    2.38
  -2   7   2   19.53    2.11
   1  -7  -2    4.17    0.79
   1  -7  -2    3.44    0.91
  -1   7   2    3.42    0.90
  -1   7   2    3.68    0.95
  -1   7   2    3.81    0.97
   0  -7  -2   18.60    1.75
   0   7   2   15.22    1.57
   0   7   2   18.00    1.84
   0   7   2   17.31    1.47
   0   7   2   17.72    1.87
  -1  -7  -2    0.43    0.39
   1   7   2   -0.09    0.38
   1   7   2    1.58    0.64
   1   7   2    1.36    0.53
   1   7   2    1.13    0.55
  -2  -7  -2    0.07    0.32
   2   7   2   -0.13    0.32
   2   7   2    0.29    0.39
   2   7   2    0.76    0.50
   2   7   2    0.33    0.33
  -3  -7  -2    9.85    1.35
   3   7   2    8.42    1.26
   3   7   2    9.67    1.19
   3   7   2    9.61    1.38
  -4  -7  -2   22.09    1.81
   4   7   2   21.39    1.79
   4   7   2   21.33    1.30
   4   7   2   23.15    1.45
  -5  -7  -2    0.01    0.37
  -5  -7  -2   -0.11    0.20
   5   7   2    0.19    0.35
   5   7   2    0.02    0.30
  -6  -7  -2   17.39    2.06
  -6  -7  -2   17.92    1.59
  -6  -7  -2   13.94    1.14
   6   7   2   17.17    1.38
   6   7   2   11.76    1.71
  -7  -7  -2    0.67    0.61
  -7  -7  -2    0.15    0.63
  -7  -7  -2    0.89    0.47
   7   7   2    0.38    0.56
   7   7   2    1.35    0.71
  -8  -7  -2    0.82    0.52
  -8  -7  -2    2.39    0.83
  -8  -7  -2    1.78    0.88
   8   7   2    2.85    1.06
  -9  -7  -2    9.76    1.53
  -9  -7  -2    7.02    1.43
  -9  -7  -2    8.15    1.73
   9   7   2    7.08    1.70
   3  -8  -2   12.76    1.67
   3  -8  -2    9.48    1.65
  -3   8   2   10.08    1.72
  -3   8   2    7.44    1.57
   2  -8  -2   13.89    1.82
   2  -8  -2   12.55    1.59
  -2   8   2   10.86    1.71
  -2   8   2   11.36    1.83
   1  -8  -2   12.55    1.58
   1  -8  -2   10.01    1.20
  -1   8   2    9.57    1.53
  -1   8   2    9.45    1.56
   0  -8  -2   14.44    1.64
   0   8   2   15.41    1.72
   0   8   2   16.50    1.79
   0   8   2   16.89    1.97
   0   8   2   18.34    2.03
  -1  -8  -2   -0.23    0.25
   1   8   2    0.58    0.48
   1   8   2    0.13    0.41
   1   8   2    0.64    0.45
   1   8   2    0.57    0.50
   2   8   2    8.69    1.32
   2   8   2    8.99    1.36
   2   8   2    7.70    1.24
  -3  -8  -2    8.80    1.42
   3   8   2    7.73    1.19
   3   8   2    5.67    1.08
   3   8   2    6.36    1.18
  -4  -8  -2   25.72    2.08
   4   8   2   23.20    1.99
   4   8   2   26.14    1.70
  -5  -8  -2   21.33    2.35
   5   8   2   20.47    2.27
   5   8   2   16.29    1.28
  -6  -8  -2    3.78    1.15
   6   8   2    6.53    1.36
   6   8   2    5.56    0.95
  -7  -8  -2    1.26    0.79
  -7  -8  -2    0.40    0.38
   7   8   2    0.56    0.63
  -8  -8  -2    0.86    0.48
  -8  -8  -2    2.14    1.00
   8   8   2    2.68    1.13
  -9  -8  -2    5.82    1.32
  -9  -8  -2    2.91    0.85
  -9  -8  -2    2.53    1.10
   9   8   2    4.82    1.46
   2  -9  -2   14.04    1.71
   2  -9  -2   10.69    1.79
  -2   9   2   10.06    1.87
  -2   9   2    7.88    1.57
   1  -9  -2    1.01    0.69
   1  -9  -2    0.07    0.43
  -1   9   2    1.16    0.79
  -1   9   2   -0.24    0.62
   0  -9  -2    1.03    0.63
   0   9   2    0.07    0.46
   0   9   2    0.36    0.51
  -1  -9  -2   -0.17    0.34
   1   9   2    0.87    0.65
   1   9   2    1.95    0.78
   1   9   2    1.62    0.79
   2   9   2    3.63    0.98
   2   9   2    2.35    0.83
   2   9   2    1.51    0.72
   3   9   2   19.69    2.12
   3   9   2   17.84    2.12
   3   9   2   19.90    2.07
  -4  -9  -2    3.69    1.00
   4   9   2    3.83    1.11
   4   9   2    3.16    0.81
   4   9   2    1.98    0.82
  -5  -9  -2   -0.23    0.47
   5   9   2    0.99    0.72
  -6  -9  -2   35.78    2.82
   6   9   2   40.21    3.00
  -7  -9  -2    1.77    0.90
   7   9   2    3.53    1.27
  -8  -9  -2    0.40    0.86
  -8  -9  -2    0.42    0.37
   8   9   2    0.41    0.71
   1 -10  -2   16.42    2.19
   1 -10  -2   17.52    1.90
  -1  10   2   14.96    2.19
  -1  10   2   14.78    2.19
   0 -10  -2   19.37    1.55
   0 -10  -2   18.59    2.16
   0  10   2   11.46    1.96
   0  10   2   20.77    2.47
   1  10   2    4.03    1.15
   1  10   2    3.16    1.08
   2  10   2    3.88    1.06
   2  10   2    4.11    1.08
   2  10   2    5.06    1.27
   3  10   2    0.95    0.64
   3  10   2   -0.07    0.55
   3  10   2   -0.10    0.49
  -4 -10  -2   16.20    2.24
   4  10   2   14.91    1.78
   4  10   2   13.14    1.95
   4  10   2   11.63    1.79
  -5 -10  -2   15.24    2.19
   5  10   2   21.81    2.62
   5  10   2   20.99    2.48
  -6 -10  -2    1.25    0.94
   6  10   2    2.27    1.02
  -7 -10  -2    1.63    0.92
   7  10   2    1.92    0.95
   1  11   2    4.39    1.26
   1  11   2    5.73    1.47
   2  11   2    7.85    1.56
   2  11   2    9.93    1.78
   3  11   2    1.59    0.71
   3  11   2    0.96    0.88
   3  11   2    3.14    1.03
   4  11   2    4.68    1.47
   4  11   2    6.75    1.30
   4  11   2    8.62    1.67
  -5 -11  -2    9.33    1.80
   5  11   2   14.40    2.24
   5  11   2   10.19    1.88
  -6 -11  -2    0.70    0.84
   6  11   2   -0.50    0.66
   6  11   2    0.36    0.62
   4  11  -3   -0.22    0.64
   3  11  -3    0.57    0.76
   3  11  -3   -0.73    0.47
   2  11  -3    3.37    1.06
   2  11  -3    1.38    0.82
   6  10  -3    9.95    1.93
   6  10  -3    8.86    1.64
  -6 -10   3    7.65    1.65
   5  10  -3   42.74    2.89
   5  10  -3   38.94    3.02
  -5 -10   3   39.30    3.00
   4  10  -3    6.67    1.47
   4  10  -3    7.61    1.54
  -4 -10   3    6.65    1.44
   3  10  -3    3.75    1.06
   3  10  -3    2.49    0.83
  -3 -10   3    4.53    1.13
   2  10  -3    0.92    0.71
   2  10  -3    1.22    0.71
  -2 -10   3    0.79    0.79
   1  10  -3    0.23    0.58
   1  10  -3    0.66    0.69
  -1 -10   3    0.29    0.68
  -1 -10   3    0.09    0.63
   0  10  -3   -0.69    0.59
   0  10  -3    0.44    0.70
   0 -10   3    0.14    0.82
   0 -10   3    0.56    0.85
   7   9  -3    3.92    1.27
  -7  -9   3    7.57    1.78
   6   9  -3    0.68    0.68
  -6  -9   3    0.03    0.58
   5   9  -3    2.90    1.16
   5   9  -3    4.08    1.12
  -5  -9   3    0.64    0.65
   4   9  -3    9.73    1.55
   4   9  -3    9.83    1.72
  -4  -9   3   12.87    1.87
   3   9  -3    0.02    0.50
   3   9  -3   -0.07    0.41
   3   9  -3    0.35    0.57
  -3  -9   3    0.68    0.57
  -3  -9   3    0.30    0.55
   2   9  -3   10.62    1.57
   2   9  -3    9.01    1.48
  -2  -9   3    9.21    1.53
   1   9  -3    2.98    0.94
  -1  -9   3    5.47    1.15
  -1  -9   3    4.88    1.24
   0   9  -3    0.18    0.54
   0  -9   3    0.69    0.67
   0  -9   3    0.77    0.68
  -1   9  -3   42.70    3.00
   1  -9   3   43.86    2.00
   1  -9   3   44.79    2.90
   1  -9   3   45.08    3.07
  -2   9  -3   -0.40    0.52
  -2   9  -3    0.83    0.67
   2  -9   3    0.00    0.63
   2  -9   3    0.21    0.43
   2  -9   3    0.90    0.79
  -8  -8   3    1.23    0.95
  -8  -8   3    0.19    0.78
  -7  -8   3   10.97    1.95
  -7  -8   3   12.49    1.74
   6   8  -3   -0.21    0.55
  -6  -8   3    0.40    0.66
  -6  -8   3   -0.10    0.53
   5   8  -3   30.46    1.36
   5   8  -3   31.43    2.44
  -5  -8   3   29.73    2.39
  -5  -8   3   29.95    1.91
   4   8  -3    0.20    0.20
   4   8  -3   -0.20    0.37
   4   8  -3    0.19    0.47
  -4  -8   3    0.14    0.51
   3   8  -3    0.50    0.43
   3   8  -3    1.34    0.65
   3   8  -3    0.68    0.52
  -3  -8   3    1.35    0.57
  -3  -8   3    0.83    0.56
   2   8  -3    0.01    0.35
   2   8  -3    0.17    0.39
  -2  -8   3    0.25    0.46
  -2  -8   3    0.13    0.30
  -2  -8   3   -0.06    0.40
   1   8  -3   10.60    1.54
  -1  -8   3    8.86    1.48
  -1  -8   3    9.53    1.40
   0   8  -3   27.45    2.10
   0  -8   3   24.01    1.92
   0  -8   3   20.66    2.20
  -1   8  -3    6.11    1.30
   1  -8   3    5.41    1.26
   1  -8   3    7.70    0.88
   1  -8   3    7.37    1.42
  -2   8  -3   15.22    2.06
   2  -8   3   21.31    1.48
   2  -8   3   17.93    2.22
   2  -8   3   27.56    2.82
  -3   8  -3    0.05    0.62
   3  -8   3    0.30    0.75
   3  -8   3    0.18    0.39
   3  -8   3   -0.02    0.76
  -8  -7   3    0.50    0.35
  -8  -7   3    1.47    0.96
  -8  -7   3   -0.65    0.54
  -7  -7   3   -0.26    0.48
  -7  -7   3   -0.35    0.48
  -7  -7   3    0.47    0.24
  -6  -7   3    3.35    1.10
  -6  -7   3    3.44    0.92
   5   7  -3   33.11    1.49
  -5  -7   3   36.24    2.03
  -5  -7   3   35.15    2.48
   4   7  -3    0.08    0.41
   4   7  -3    0.47    0.23
  -4  -7   3   -0.09    0.40
  -4  -7   3    0.11    0.33
   3   7  -3    1.25    0.51
   3   7  -3    1.06    0.53
   3   7  -3    2.56    0.81
   3   7  -3    1.70    0.25
  -3  -7   3    2.31    0.59
  -3  -7   3    1.22    0.50
  -3  -7   3    1.55    0.53
  -3  -7   3    1.09    0.62
   2   7  -3    2.56    0.73
   2   7  -3    1.71    0.50
   2   7  -3    2.17    0.31
   2   7  -3    2.63    0.72
  -2  -7   3    1.86    0.62
  -2  -7   3    4.01    0.73
  -2  -7   3    2.61    0.71
   1   7  -3   47.00    2.46
  -1  -7   3   49.20    2.39
  -1  -7   3   46.34    2.45
   0   7  -3    3.79    0.88
   0  -7   3    4.56    0.95
   0  -7   3    2.70    0.80
  -1   7  -3   16.46    1.89
   1  -7   3   17.62    0.97
   1  -7   3   16.66    1.94
   1  -7   3   16.92    1.86
  -2   7  -3   13.86    1.84
   2  -7   3   11.49    1.70
   2  -7   3   12.52    1.27
   2  -7   3   10.20    1.60
  -3   7  -3    1.20    0.76
   3  -7   3    1.82    0.90
   3  -7   3    1.55    0.76
   3  -7   3    2.28    0.68
  -4   7  -3    9.88    1.74
   4  -7   3   11.84    1.93
   4  -7   3    9.11    1.39
   4  -7   3   11.65    1.83
  -8  -6   3    4.60    1.24
  -8  -6   3    5.50    1.27
  -7  -6   3    6.26    1.28
  -7  -6   3   10.35    1.78
   6   6  -3   21.14    1.42
  -6  -6   3   19.34    2.21
  -6  -6   3   21.21    1.10
  -6  -6   3   18.56    1.83
   5   6  -3   31.50    1.49
  -5  -6   3   34.55    1.95
  -5  -6   3   32.52    2.29
   4   6  -3  491.73    8.95
  -4  -6   3  505.56   10.08
  -4  -6   3  505.95   11.23
   3   6  -3    0.22    0.15
  -3  -6   3   -0.02    0.32
  -3  -6   3    0.40    0.41
  -3  -6   3    0.18    0.31
  -3  -6   3    0.37    0.42
   2   6  -3   10.00    0.39
   2   6  -3    9.28    1.19
   2   6  -3    9.69    1.21
   2   6  -3   10.22    1.03
  -2  -6   3   10.53    1.19
  -2  -6   3    9.92    1.06
  -2  -6   3   10.50    1.32
   1   6  -3    3.19    0.38
   1   6  -3    4.11    0.66
   1   6  -3    5.37    0.94
   1   6  -3    4.51    0.82
  -1  -6   3    2.75    0.73
  -1  -6   3    2.90    0.67
  -1  -6   3    4.08    0.66
  -1  -6   3    4.36    0.80
   0   6  -3    4.83    0.92
   0   6  -3    4.99    0.72
   0  -6   3    7.76    1.11
   0  -6   3    8.69    1.31
  -1   6  -3  131.41    4.38
  -1   6  -3  125.65    3.88
   1  -6   3  126.88    4.36
   1  -6   3  125.61    4.20
  -2   6  -3   23.26    1.83
   2  -6   3   18.97    2.00
   2  -6   3   21.80    1.73
   2  -6   3   21.66    1.26
  -3   6  -3    0.35    0.49
   3  -6   3    0.19    0.30
   3  -6   3    0.35    0.53
   3  -6   3   -0.37    0.49
  -4   6  -3    6.15    1.36
   4  -6   3    4.68    1.17
   4  -6   3    5.95    1.34
   4  -6   3    4.30    0.93
  -5   6  -3    5.98    1.41
   5  -6   3   11.09    1.78
   5  -6   3    6.46    1.22
   5  -6   3    3.66    1.13
  -8  -5   3    1.43    0.86
  -8  -5   3   -0.05    0.65
  -7  -5   3   18.73    2.00
  -7  -5   3   15.76    2.06
   6   5  -3   74.39    2.87
  -6  -5   3   80.21    3.73
  -6  -5   3   81.96    3.28
   5   5  -3   82.24    2.71
  -5  -5   3   85.99    3.10
  -5  -5   3   82.35    3.58
   4   5  -3    5.53    0.65
  -4  -5   3    5.98    1.04
  -4  -5   3    4.35    0.70
  -4  -5   3    5.71    0.87
   3   5  -3   50.48    1.36
  -3  -5   3   51.85    1.86
  -3  -5   3   48.38    1.97
  -3  -5   3   47.22    2.32
  -3  -5   3   51.31    1.94
   2   5  -3  102.95    3.21
   2   5  -3   96.99    2.87
  -2  -5   3  106.53    3.42
  -2  -5   3   98.72    2.99
  -2  -5   3  105.16    2.94
   1   5  -3    0.25    0.24
   1   5  -3    0.12    0.27
   1   5  -3    0.27    0.12
   1   5  -3    0.24    0.27
  -1  -5   3    0.25    0.37
  -1  -5   3    0.12    0.29
  -1  -5   3    0.77    0.46
  -1  -5   3    0.41    0.33
   0   5  -3   29.48    1.39
   0   5  -3   31.60    1.40
   0   5  -3   28.93    1.14
   0   5  -3   28.35    1.61
   0  -5   3   29.90    1.40
   0  -5   3   29.64    1.72
   0  -5   3   30.32    1.63
   0  -5   3   29.58    1.37
  -1   5  -3   12.50    0.95
  -1   5  -3   12.22    1.36
   1  -5   3   14.51    1.52
   1  -5   3   16.15    1.58
  -2   5  -3  242.32    5.55
  -2   5  -3  245.18    6.43
   2  -5   3  242.72    6.37
   2  -5   3  245.26    5.24
   2  -5   3  248.84    6.48
  -3   5  -3   56.92    2.36
  -3   5  -3   57.93    2.89
   3  -5   3   55.61    2.26
   3  -5   3   54.89    2.78
   3  -5   3   57.49    2.87
  -4   5  -3   10.06    1.58
   4  -5   3    9.05    1.22
   4  -5   3    7.66    1.38
   4  -5   3    8.85    1.52
  -5   5  -3    1.29    0.76
   5  -5   3    0.42    0.69
   5  -5   3    0.41    0.44
   5  -5   3    0.61    0.70
  -6   5  -3    3.33    1.18
   6  -5   3    2.32    0.97
   6  -5   3    3.96    1.00
  -9  -4   3   10.53    1.76
  -8  -4   3   10.39    1.57
  -8  -4   3   12.43    1.96
   7   4  -3   10.26    1.41
  -7  -4   3    6.93    1.35
  -7  -4   3    8.71    1.40
   6   4  -3    7.96    1.17
  -6  -4   3    8.05    1.44
  -6  -4   3    7.91    1.19
   5   4  -3   23.70    1.41
  -5  -4   3   25.00    1.59
  -5  -4   3   24.25    1.92
  -5  -4   3   24.45    1.63
   4   4  -3    6.69    0.75
  -4  -4   3    6.25    0.80
  -4  -4   3    4.37    0.93
  -4  -4   3    7.65    0.99
   3   4  -3   35.37    1.19
  -3  -4   3   34.66    1.51
  -3  -4   3   38.25    1.67
  -3  -4   3   35.48    1.54
  -3  -4   3   37.13    1.96
   2   4  -3    6.75    0.30
  -2  -4   3    6.41    0.75
  -2  -4   3    7.06    0.76
  -2  -4   3    7.34    0.94
   1   4  -3  152.75    3.59
   1   4  -3  156.30    3.81
  -1  -4   3  152.00    3.57
  -1  -4   3  147.42    3.80
  -1  -4   3  147.18    3.75
  -1  -4   3  143.72    3.70
   0   4  -3   42.10    1.58
   0   4  -3   44.90    1.31
   0   4  -3   39.94    1.75
   0   4  -3   42.29    1.61
   0  -4   3   44.56    1.59
   0  -4   3   46.29    1.92
   0  -4   3   41.02    1.56
   0  -4   3   44.12    1.85
  -1   4  -3    4.99    0.62
  -1   4  -3    5.32    0.69
  -1   4  -3    5.38    0.82
   1  -4   3    5.41    0.89
   1  -4   3    7.01    0.93
  -2   4  -3  128.99    4.01
  -2   4  -3  131.36    3.51
   2  -4   3  132.23    4.03
   2  -4   3  132.84    4.02
   2  -4   3  128.21    3.12
  -3   4  -3  195.71    4.94
  -3   4  -3  196.42    5.58
   3  -4   3  198.66    5.52
   3  -4   3  194.77    4.78
   3  -4   3  202.60    5.57
  -4   4  -3    8.91    1.18
  -4   4  -3    6.49    1.18
   4  -4   3    6.85    0.96
   4  -4   3    7.64    1.29
   4  -4   3    8.95    1.30
  -5   4  -3    0.96    0.61
  -5   4  -3    3.38    0.87
   5  -4   3    1.70    0.78
   5  -4   3    3.43    0.82
   5  -4   3    3.36    0.90
  -6   4  -3    8.51    1.39
  -6   4  -3   10.18    1.85
   6  -4   3   10.43    1.59
   6  -4   3    9.35    1.63
  -8  -3   3    0.84    0.71
  -8  -3   3   -0.67    0.42
   7   3  -3    1.67    0.49
   7   3  -3    0.31    0.57
  -7  -3   3    0.22    0.56
  -7  -3   3   -0.04    0.51
   6   3  -3   15.21    1.84
   6   3  -3   17.39    1.72
  -6  -3   3   16.97    1.74
  -6  -3   3   18.75    2.03
   5   3  -3    9.79    1.14
  -5  -3   3    8.14    1.10
  -5  -3   3    6.92    0.92
  -5  -3   3    8.51    1.29
   4   3  -3  145.24    3.67
  -4  -3   3  141.06    4.42
  -4  -3   3  142.08    3.93
  -4  -3   3  144.12    3.77
   3   3  -3   17.11    0.87
  -3  -3   3   17.24    1.09
  -3  -3   3   14.34    0.95
  -3  -3   3   17.91    1.30
   2   3  -3   -0.14    0.10
  -2  -3   3    0.05    0.20
  -2  -3   3    0.41    0.28
  -2  -3   3    0.26    0.25
  -2  -3   3    0.01    0.12
   1   3  -3   64.92    1.92
   1   3  -3   60.98    1.90
  -1  -3   3   65.86    1.91
  -1  -3   3   61.80    1.92
  -1  -3   3   66.05    1.99
  -1  -3   3   49.71    1.90
   0   3  -3    0.20    0.22
   0   3  -3    0.17    0.18
   0   3  -3    0.15    0.12
   0  -3   3    0.12    0.26
   0  -3   3    0.36    0.27
   0  -3   3    0.03    0.20
   0  -3   3    0.04    0.19
  -1   3  -3   38.26    1.37
  -1   3  -3   37.59    1.47
  -1   3  -3   37.05    1.60
   1  -3   3   38.15    1.66
   1  -3   3   34.64    1.64
  -2   3  -3  359.53    7.22
  -2   3  -3  359.64    7.29
  -2   3  -3  358.47    7.65
   2  -3   3  354.57    7.03
   2  -3   3  371.58    7.69
   2  -3   3  363.92    6.70
   2  -3   3  363.61    7.69
  -3   3  -3    2.14    0.63
  -3   3  -3    1.62    0.52
   3  -3   3    1.83    0.57
   3  -3   3    1.79    0.46
   3  -3   3    3.36    0.75
  -4   3  -3   19.12    1.56
  -4   3  -3   21.01    1.44
   4  -3   3   19.33    1.31
   4  -3   3   22.73    1.64
   4  -3   3   20.16    1.53
  -5   3  -3   45.43    2.67
  -5   3  -3   45.06    2.31
   5  -3   3   44.06    2.38
   5  -3   3   47.10    2.31
   5  -3   3   45.56    2.50
  -6   3  -3    1.58    1.00
  -6   3  -3    0.74    0.56
   6  -3   3    0.85    0.66
   6  -3   3    1.62    0.66
  -7   3  -3    1.13    0.67
   7  -3   3    0.07    0.62
  -8  -2   3   -0.33    0.60
  -8  -2   3    0.46    0.66
   7   2  -3   21.63    2.21
   7   2  -3   21.44    1.42
  -7  -2   3   19.27    1.99
  -7  -2   3   20.72    2.26
   6   2  -3    3.17    0.79
   6   2  -3    2.34    0.53
  -6  -2   3    2.79    0.82
  -6  -2   3    2.03    0.68
  -6  -2   3    3.61    0.90
   5   2  -3    0.54    0.28
   5   2  -3    0.76    0.41
  -5  -2   3    0.37    0.37
  -5  -2   3    0.18    0.41
  -5  -2   3    0.45    0.48
   4   2  -3   81.27    2.03
   4   2  -3   80.19    2.64
  -4  -2   3   80.08    3.08
  -4  -2   3   79.81    2.72
  -4  -2   3   78.98    2.61
   3   2  -3   44.90    1.01
   3   2  -3   45.04    1.62
  -3  -2   3   48.83    2.10
  -3  -2   3   46.13    1.79
  -3  -2   3   47.00    1.78
   2   2  -3   98.07    2.63
   2   2  -3  101.09    2.29
  -2  -2   3   96.64    2.61
  -2  -2   3  102.71    2.96
  -2  -2   3  102.22    2.69
  -2  -2   3   98.07    2.61
   1   2  -3  632.93   11.06
  -1  -2   3  642.33   11.18
  -1  -2   3  612.25   10.87
  -1  -2   3  627.67   11.03
  -1  -2   3  624.08   11.00
   0   2  -3  364.75    7.10
   0   2  -3  379.40    6.92
   0   2  -3  370.81    6.73
   0   2  -3  387.55    6.38
   0  -2   3  373.39    7.03
   0  -2   3  370.88    6.88
  -1   2  -3  112.12    2.60
  -1   2  -3  112.99    2.78
  -1   2  -3  113.16    2.81
   1  -2   3  113.48    2.98
   1  -2   3  109.42    2.91
   1  -2   3  118.31    2.51
  -2   2  -3  455.91    8.68
  -2   2  -3  465.12    8.69
  -2   2  -3  456.70    8.89
   2  -2   3  478.40    8.62
   2  -2   3  458.64    8.90
   2  -2   3  453.34    8.90
   2  -2   3  474.21    8.28
  -3   2  -3   25.54    1.51
  -3   2  -3   25.87    1.38
   3  -2   3   27.29    1.52
   3  -2   3   22.07    1.61
   3  -2   3   28.48    1.29
   3  -2   3   27.86    1.51
  -4   2  -3   62.72    2.70
  -4   2  -3   60.82    2.41
   4  -2   3   59.04    2.41
   4  -2   3   60.82    2.50
   4  -2   3   59.29    2.28
  -5   2  -3    6.33    1.16
  -5   2  -3    6.11    1.18
  -5   2  -3    5.67    0.97
   5  -2   3    6.05    1.05
   5  -2   3    5.38    0.93
   5  -2   3    5.61    0.90
  -6   2  -3   -0.01    0.49
   6  -2   3    0.25    0.46
   6  -2   3    0.30    0.48
  -7   2  -3    5.85    1.26
   7  -2   3    4.58    1.08
  -8  -1   3    9.37    1.49
  -7  -1   3   12.69    1.80
  -7  -1   3   10.33    1.49
   6   1  -3   43.59    1.89
   6   1  -3   44.11    2.49
  -6  -1   3   42.07    2.51
  -6  -1   3   43.84    2.33
  -6  -1   3   43.18    2.33
   5   1  -3   31.93    1.90
   5   1  -3   35.83    1.51
  -5  -1   3   31.77    1.81
  -5  -1   3   33.59    1.88
  -5  -1   3   27.33    1.89
   4   1  -3    1.28    0.45
   4   1  -3    1.13    0.32
  -4  -1   3    0.61    0.39
  -4  -1   3    1.05    0.47
  -4  -1   3    0.85    0.39
   3   1  -3  373.24    7.26
   3   1  -3  360.70    6.47
  -3  -1   3  368.31    7.31
  -3  -1   3  362.66    7.74
  -3  -1   3  363.44    7.24
   2   1  -3  144.92    2.61
   2   1  -3  143.95    3.40
   2   1  -3  140.99    3.20
  -2  -1   3  153.15    3.77
  -2  -1   3  145.05    3.42
  -2  -1   3  142.15    3.34
   1   1  -3    4.42    0.56
   1   1  -3    4.34    0.42
  -1  -1   3    2.82    0.46
  -1  -1   3    4.15    0.56
  -1  -1   3    3.69    0.49
  -1  -1   3    4.40    0.52
   0   1  -3   29.51    1.14
   0   1  -3   26.54    1.03
   0   1  -3   26.92    0.75
   0  -1   3   25.26    1.00
   0  -1   3   29.17    1.09
   0  -1   3   26.18    1.09
  -1   1  -3  171.02    3.50
  -1   1  -3  176.77    3.50
   1  -1   3  172.32    3.44
   1  -1   3  170.75    3.72
   1  -1   3  173.28    3.59
  -2   1  -3   40.99    1.52
  -2   1  -3   39.29    1.52
  -2   1  -3   40.55    1.51
   2  -1   3   42.87    1.56
   2  -1   3   41.27    1.51
   2  -1   3   41.04    1.33
   2  -1   3   39.97    1.54
  -3   1  -3  426.37    8.65
  -3   1  -3  436.99    8.72
  -3   1  -3  442.20    8.50
   3  -1   3  442.44    7.43
   3  -1   3  432.57    8.43
   3  -1   3  438.59    8.58
   3  -1   3  438.53    8.22
   3  -1   3  449.78    8.54
  -4   1  -3   58.02    2.51
  -4   1  -3   55.95    2.24
   4  -1   3   56.85    2.22
   4  -1   3   61.13    2.23
   4  -1   3   59.17    2.17
   4  -1   3   57.05    1.60
  -5   1  -3    6.15    1.04
  -5   1  -3    4.26    0.84
   5  -1   3    5.86    0.92
   5  -1   3    3.90    0.72
   5  -1   3    6.22    0.93
   5  -1   3    4.81    0.57
  -6   1  -3   40.56    2.30
  -6   1  -3   35.14    2.13
  -6   1  -3   33.96    1.77
   6  -1   3   35.17    2.06
   6  -1   3   39.41    2.08
   6  -1   3   39.74    1.51
  -7   1  -3    6.96    1.29
   7  -1   3    9.56    1.46
  -8   1  -3    9.36    1.57
  -8   0   3    1.01    0.86
   7   0  -3   11.71    1.56
  -7   0   3   10.98    1.97
  -7   0   3   11.83    1.69
   6   0  -3  125.73    3.63
  -6   0   3  126.94    4.45
  -6   0   3  126.71    4.55
  -6   0   3  126.78    4.28
   5   0  -3    3.58    0.82
   5   0  -3    2.96    0.56
  -5   0   3    2.33    0.73
  -5   0   3    3.31    0.46
  -5   0   3    2.78    0.74
  -5   0   3    1.75    0.65
   4   0  -3    3.27    0.51
  -4   0   3    4.13    0.85
  -4   0   3    3.88    0.73
  -4   0   3    4.66    0.49
  -4   0   3    3.63    0.72
   3   0  -3  159.06    4.08
   3   0  -3  163.17    3.48
  -3   0   3  159.37    3.11
  -3   0   3  167.65    4.39
  -3   0   3  162.07    4.11
  -3   0   3  158.71    3.87
   2   0  -3  115.21    2.43
   2   0  -3  114.40    2.93
  -2   0   3  111.62    2.17
  -2   0   3  116.08    3.19
  -2   0   3  114.67    2.78
  -2   0   3  111.25    2.95
   1   0  -3  441.71    8.02
   1   0  -3  452.71    7.55
   1   0  -3  454.76    8.20
  -1   0   3  466.68    8.24
  -1   0   3  455.08    7.97
  -1   0   3  459.52    8.44
   0   0  -3  992.87   16.01
   0   0  -3  960.92   16.17
  -1   0  -3   -0.17    0.16
  -1   0  -3   -0.06    0.16
  -1   0  -3    0.02    0.12
  -1   0  -3    0.18    0.21
   1   0   3   -0.08    0.19
   1   0   3    0.01    0.19
   1   0   3    0.14    0.21
  -2   0  -3   45.51    1.57
  -2   0  -3   48.51    1.56
   2   0   3   45.84    1.45
   2   0   3   46.59    1.18
   2   0   3   48.12    1.60
  -3   0  -3  400.97    7.84
  -3   0  -3  432.43    8.77
   3   0   3  409.45    7.68
   3   0   3  391.13    7.93
   3   0   3  417.68    7.69
   3   0   3  408.54    7.19
   3   0   3  397.38    7.60
  -4   0  -3    3.19    0.51
  -4   0  -3    2.56    0.59
  -4   0  -3    3.03    0.47
   4   0   3    2.38    0.38
   4   0   3    2.47    0.57
   4   0   3    2.54    0.52
   4   0   3    2.68    0.53
   4   0   3    2.52    0.51
   4   0   3    2.43    0.42
  -5   0  -3    0.87    0.40
  -5   0  -3    0.98    0.45
  -5   0  -3    1.03    0.51
   5   0   3    1.62    0.38
   5   0   3    0.82    0.40
   5   0   3    0.02    0.30
   5   0   3    1.64    0.44
  -6   0  -3    5.81    0.97
  -6   0  -3    6.72    0.89
  -6   0  -3    4.43    0.92
   6   0   3    6.52    1.02
   6   0   3    7.70    0.83
  -7   0  -3    0.97    0.47
  -7   0  -3    0.54    0.62
   7   0   3    0.34    0.31
  -8   0  -3   54.19    3.09
   8  -1  -3    6.24    1.33
  -8   1   3    6.63    1.49
   7  -1  -3    1.37    0.76
  -7   1   3    1.90    0.79
   6  -1  -3    6.33    0.86
  -6   1   3    8.09    1.30
  -6   1   3    7.96    1.29
  -6   1   3    7.80    0.88
   5  -1  -3    4.15    0.64
  -5   1   3    5.09    0.97
  -5   1   3    4.52    1.00
  -5   1   3    3.31    0.74
   4  -1  -3    3.48    0.55
   4  -1  -3    3.81    0.81
  -4   1   3    3.26    0.70
  -4   1   3    4.30    0.83
  -4   1   3    3.40    0.80
  -4   1   3    4.89    0.94
   3  -1  -3    1.39    0.45
   3  -1  -3    1.20    0.30
  -3   1   3    1.22    0.42
  -3   1   3    1.01    0.41
  -3   1   3    1.34    0.49
  -3   1   3    0.72    0.39
   2  -1  -3   24.39    1.27
   2  -1  -3   23.73    0.96
  -2   1   3   23.70    1.27
  -2   1   3   21.70    1.01
  -2   1   3   21.89    1.13
  -2   1   3   24.38    1.34
   1  -1  -3  131.84    3.13
   1  -1  -3  132.64    2.71
   1  -1  -3  134.96    3.18
  -1   1   3  134.17    2.80
  -1   1   3  136.91    2.92
  -1   1   3  131.27    3.34
  -1   1   3  133.18    3.19
  -1  -1  -3    8.83    0.51
  -1  -1  -3    9.04    0.62
  -1  -1  -3    8.03    0.43
  -1  -1  -3    9.30    0.53
   1   1   3    8.61    0.62
   1   1   3    8.33    0.44
   1   1   3    9.80    0.54
   1   1   3    8.76    0.53
   1   1   3    8.53    0.44
  -2  -1  -3    0.83    0.27
  -2  -1  -3    0.96    0.29
  -2  -1  -3    1.07    0.24
  -2  -1  -3    1.11    0.23
   2   1   3    0.72    0.29
   2   1   3    0.73    0.19
   2   1   3    0.65    0.21
  -3  -1  -3   68.32    2.12
  -3  -1  -3   68.49    1.81
  -3  -1  -3   68.61    1.98
   3   1   3   70.89    2.02
   3   1   3   67.06    1.82
   3   1   3   69.60    1.80
   3   1   3   71.28    2.28
  -4  -1  -3   91.68    2.42
  -4  -1  -3   95.07    2.88
  -4  -1  -3   94.98    2.66
   4   1   3   97.45    2.45
   4   1   3   91.81    2.51
   4   1   3   95.58    2.57
   4   1   3   92.04    2.99
   4   1   3   93.06    2.66
   4   1   3   95.11    2.68
  -5  -1  -3  270.29    5.58
  -5  -1  -3  273.90    5.96
  -5  -1  -3  279.08    6.00
  -5  -1  -3  278.25    6.40
   5   1   3  268.14    5.78
   5   1   3  269.72    5.61
   5   1   3  274.97    6.02
   5   1   3  271.07    5.68
   5   1   3  273.42    5.98
   5   1   3  277.39    6.63
  -6  -1  -3   21.00    1.57
  -6  -1  -3   21.75    1.25
   6   1   3   23.94    1.39
   6   1   3   20.88    1.21
  -7  -1  -3    7.10    1.20
  -7  -1  -3    5.26    0.76
   7   1   3    5.45    0.79
  -8  -1  -3    0.11    0.52
  -9  -1  -3    9.92    1.60
   7  -2  -3    1.24    0.79
  -7   2   3    0.66    0.66
   6  -2  -3    2.09    0.72
  -6   2   3    2.86    0.85
   5  -2  -3    0.34    0.26
  -5   2   3    0.56    0.47
  -5   2   3    0.75    0.59
  -5   2   3    0.24    0.39
   4  -2  -3    6.47    0.76
   4  -2  -3    5.60    0.85
  -4   2   3    6.75    0.94
  -4   2   3    5.90    1.03
  -4   2   3    6.37    1.04
  -4   2   3    6.76    0.90
  -4   2   3    6.19    1.02
   3  -2  -3   80.88    2.88
   3  -2  -3   79.25    2.23
   3  -2  -3   82.93    2.59
  -3   2   3   79.54    2.87
  -3   2   3   78.76    2.46
  -3   2   3   81.73    2.54
  -3   2   3   80.99    2.97
  -3   2   3   78.92    2.89
   2  -2  -3   22.51    0.96
   2  -2  -3   22.02    1.12
   2  -2  -3   21.54    1.26
  -2   2   3   22.02    1.24
  -2   2   3   21.21    1.13
  -2   2   3   23.04    1.35
  -2   2   3   20.80    1.29
  -2   2   3   20.83    1.00
   1  -2  -3   10.04    0.55
   1  -2  -3    9.87    0.77
  -1   2   3    9.66    0.78
  -1   2   3    9.86    0.77
  -1   2   3   10.26    0.84
  -1   2   3   10.33    0.57
  -1   2   3   10.88    0.77
  -1   2   3   10.31    0.75
   0  -2  -3   82.68    1.81
   0  -2  -3   83.91    2.22
   0  -2  -3   80.99    2.16
   0   2   3   84.27    2.42
   0   2   3   80.78    2.17
   0   2   3   86.68    2.28
  -1  -2  -3  195.73    3.60
  -1  -2  -3  201.52    4.11
  -1  -2  -3  201.92    4.35
  -1  -2  -3  199.30    3.61
  -1  -2  -3  202.08    3.81
   1   2   3  199.93    3.71
   1   2   3  201.62    3.81
   1   2   3  197.62    4.31
  -2  -2  -3   18.71    0.65
  -2  -2  -3   21.14    0.87
  -2  -2  -3   20.40    1.04
  -2  -2  -3   20.76    0.70
  -2  -2  -3   20.16    1.01
  -2  -2  -3   19.35    0.68
   2   2   3   19.51    0.72
   2   2   3   19.81    1.04
   2   2   3   20.25    0.67
   2   2   3   18.21    0.73
  -3  -2  -3    0.03    0.11
  -3  -2  -3   -0.01    0.11
  -3  -2  -3    0.03    0.24
  -3  -2  -3    0.06    0.22
   3   2   3   -0.07    0.18
   3   2   3    0.07    0.12
   3   2   3    0.13    0.16
   3   2   3   -0.02    0.12
  -4  -2  -3  153.13    3.87
  -4  -2  -3  152.95    3.26
  -4  -2  -3  153.42    3.20
  -4  -2  -3  153.61    3.92
   4   2   3  152.37    3.20
   4   2   3  158.68    3.44
   4   2   3  155.98    4.07
   4   2   3  144.27    3.90
  -5  -2  -3   27.04    1.53
  -5  -2  -3   27.17    1.57
  -5  -2  -3   28.00    1.26
  -5  -2  -3   25.93    1.09
   5   2   3   23.91    1.14
   5   2   3   27.76    1.26
   5   2   3   27.61    1.67
   5   2   3   25.78    1.50
  -6  -2  -3  279.47    5.52
  -6  -2  -3  277.28    6.61
  -6  -2  -3  277.13    6.79
   6   2   3  274.96    5.95
   6   2   3  277.43    7.04
   6   2   3  281.94    6.65
  -7  -2  -3    4.88    1.02
   7   2   3    5.09    0.76
  -8  -2  -3    0.25    0.51
  -9  -2  -3   -0.12    0.56
   7  -3  -3    2.06    0.85
   6  -3  -3    3.33    0.95
   5  -3  -3    0.72    0.61
   5  -3  -3    0.51    0.33
  -5   3   3    0.95    0.50
  -5   3   3    0.55    0.59
   4  -3  -3   13.69    0.88
   4  -3  -3   16.55    1.72
   4  -3  -3   15.19    1.24
  -4   3   3   16.22    1.42
  -4   3   3   15.16    1.37
  -4   3   3   15.14    1.45
  -4   3   3   16.71    1.82
  -4   3   3   15.75    1.69
   3  -3  -3   16.61    1.19
   3  -3  -3   16.77    0.89
  -3   3   3   17.49    1.40
  -3   3   3   16.46    1.29
  -3   3   3   18.28    1.45
  -3   3   3   19.31    1.14
  -3   3   3   17.03    1.23
   2  -3  -3    0.06    0.31
   2  -3  -3   -0.01    0.22
   2  -3  -3    0.00    0.13
  -2   3   3   -0.07    0.29
  -2   3   3    0.52    0.32
  -2   3   3    0.08    0.31
  -2   3   3    0.44    0.27
  -2   3   3    0.18    0.24
   1  -3  -3    8.27    0.65
   1  -3  -3    9.23    0.97
   1  -3  -3    7.01    0.45
  -1   3   3    5.63    0.72
  -1   3   3    7.46    0.89
  -1   3   3    9.24    0.97
  -1   3   3    8.16    0.96
  -1   3   3    7.21    0.47
  -1   3   3    9.00    0.92
   0  -3  -3   20.80    0.66
   0  -3  -3   21.37    1.08
   0  -3  -3   19.08    1.16
   0  -3  -3   19.23    0.63
   0   3   3   18.37    1.03
   0   3   3   19.61    1.06
   0   3   3   20.44    1.08
   0   3   3   19.34    1.09
   0   3   3   21.40    1.20
  -1  -3  -3   40.89    1.33
  -1  -3  -3   42.51    0.88
  -1  -3  -3   43.25    1.50
  -1  -3  -3   43.97    0.90
   1   3   3   42.29    1.17
   1   3   3   40.79    1.33
   1   3   3   43.30    1.55
   1   3   3   44.05    1.73
   1   3   3   41.32    1.54
  -2  -3  -3    4.90    0.57
  -2  -3  -3    4.37    0.60
  -2  -3  -3    5.64    0.74
  -2  -3  -3    5.69    0.51
  -2  -3  -3    4.95    0.33
   2   3   3    6.20    0.79
   2   3   3    5.56    0.76
   2   3   3    5.12    0.64
   2   3   3    4.49    0.32
   2   3   3    4.83    0.37
  -3  -3  -3   92.30    2.86
  -3  -3  -3   91.70    1.69
  -3  -3  -3   96.80    2.45
  -3  -3  -3   92.31    2.73
  -3  -3  -3   93.78    1.70
   3   3   3   94.93    2.69
   3   3   3   94.40    2.19
   3   3   3   93.14    2.88
  -4  -3  -3   56.47    2.28
  -4  -3  -3   62.30    1.32
  -4  -3  -3   63.68    2.15
  -4  -3  -3   61.12    1.33
  -4  -3  -3   59.48    1.31
  -4  -3  -3   59.78    1.31
   4   3   3   60.12    1.76
   4   3   3   63.90    2.41
   4   3   3   59.10    2.24
  -5  -3  -3   20.73    1.43
  -5  -3  -3   19.87    0.69
  -5  -3  -3   17.91    1.25
   5   3   3   21.74    1.08
   5   3   3   20.62    1.45
   5   3   3   20.65    1.43
  -6  -3  -3    4.09    0.84
  -6  -3  -3    3.79    0.83
   6   3   3    4.26    0.65
  -7  -3  -3   27.53    1.92
  -7  -3  -3   29.25    1.96
   7   3   3   30.19    2.11
   7   3   3   29.45    1.59
   7   3   3   29.86    2.01
  -8  -3  -3    1.79    0.76
  -9  -3  -3    0.71    0.89
   6  -4  -3    0.25    0.59
  -6   4   3    1.50    0.97
   5  -4  -3    6.78    1.30
  -5   4   3   10.03    1.65
   4  -4  -3    0.27    0.44
   4  -4  -3    1.23    0.54
  -4   4   3   -0.12    0.45
  -4   4   3    0.11    0.43
   3  -4  -3   23.56    1.50
   3  -4  -3   30.56    1.88
   3  -4  -3   24.48    0.95
  -3   4   3   24.54    1.69
  -3   4   3   24.42    1.78
  -3   4   3   24.28    1.78
  -3   4   3   25.59    1.63
   2  -4  -3    8.81    1.05
   2  -4  -3    6.39    0.40
  -2   4   3    6.01    0.93
  -2   4   3    5.65    0.90
  -2   4   3    6.64    1.01
  -2   4   3    6.81    1.03
   1  -4  -3   87.81    1.54
   1  -4  -3   83.51    2.46
   1  -4  -3   88.37    2.79
   1  -4  -3   79.79    1.51
  -1   4   3   92.65    4.22
  -1   4   3   81.89    2.84
  -1   4   3   82.38    2.79
  -1   4   3   79.95    2.85
  -1   4   3   84.06    2.95
  -1   4   3   87.31    1.91
   0  -4  -3   84.13    2.50
   0   4   3   85.11    2.60
   0   4   3   85.47    2.82
   0   4   3   86.64    2.74
   0   4   3   82.56    2.71
   0   4   3   85.00    2.61
  -1  -4  -3    0.57    0.27
   1   4   3    0.88    0.31
   1   4   3    1.01    0.23
   1   4   3    0.69    0.28
   1   4   3    1.32    0.40
   1   4   3    0.31    0.25
   1   4   3    0.49    0.29
  -2  -4  -3   78.78    2.70
  -2  -4  -3   80.95    1.77
  -2  -4  -3   81.41    2.29
  -2  -4  -3   79.80    1.87
   2   4   3   79.50    2.39
   2   4   3   79.31    1.89
   2   4   3   76.95    2.69
   2   4   3   78.22    2.36
   2   4   3   80.18    1.82
  -3  -4  -3   14.23    0.81
  -3  -4  -3   13.32    1.12
  -3  -4  -3   15.45    1.01
  -3  -4  -3   15.47    0.96
   3   4   3   15.21    0.99
   3   4   3   15.35    1.20
   3   4   3   15.39    0.94
   3   4   3   14.57    0.68
  -4  -4  -3    0.72    0.42
  -4  -4  -3   -0.07    0.23
  -4  -4  -3    0.63    0.31
   4   4   3    0.59    0.32
   4   4   3    0.88    0.41
   4   4   3    0.32    0.36
   4   4   3    0.55    0.23
  -5  -4  -3   15.03    1.18
  -5  -4  -3   16.34    1.42
  -5  -4  -3   11.90    1.34
   5   4   3   13.37    0.85
   5   4   3   16.19    1.51
   5   4   3   14.97    1.32
  -6  -4  -3    2.28    0.67
  -6  -4  -3    2.20    0.64
   6   4   3    1.31    0.38
   6   4   3    1.80    0.59
   6   4   3    0.24    0.43
  -7  -4  -3   28.73    1.89
  -7  -4  -3   29.93    2.07
   7   4   3   26.73    1.99
   7   4   3   26.74    2.01
   7   4   3   29.38    1.55
  -8  -4  -3    0.79    0.60
  -8  -4  -3    0.10    0.51
   8   4   3    0.86    0.61
  -9  -4  -3    1.04    0.77
   5  -5  -3   21.27    2.39
  -5   5   3   20.01    2.40
   4  -5  -3    1.32    0.58
   4  -5  -3    1.27    0.69
  -4   5   3    0.45    0.63
  -4   5   3    0.35    0.58
   3  -5  -3   18.61    1.89
   3  -5  -3   15.04    1.50
  -3   5   3   15.52    1.85
  -3   5   3   14.68    1.62
   2  -5  -3   10.21    1.14
   2  -5  -3    9.33    1.29
  -2   5   3    8.54    1.20
  -2   5   3   12.97    1.52
  -2   5   3    9.84    1.28
  -2   5   3   10.12    1.34
   1  -5  -3   27.78    1.62
   1  -5  -3   24.76    1.34
  -1   5   3   25.64    1.67
  -1   5   3   26.21    1.63
  -1   5   3   26.51    1.67
  -1   5   3   26.46    1.64
   0  -5  -3   17.96    1.18
   0   5   3   18.29    1.33
   0   5   3   20.73    1.40
   0   5   3   18.71    1.26
   0   5   3   19.98    1.39
  -1  -5  -3   50.90    1.81
  -1  -5  -3   49.31    1.78
   1   5   3   49.99    1.85
   1   5   3   51.98    1.96
   1   5   3   46.27    2.07
   1   5   3   51.28    1.41
   1   5   3   48.98    2.21
   1   5   3   49.20    2.08
  -2  -5  -3    1.24    0.30
  -2  -5  -3    1.38    0.48
  -2  -5  -3    1.08    0.35
   2   5   3    0.52    0.26
   2   5   3    1.12    0.44
   2   5   3    1.00    0.37
   2   5   3    0.93    0.21
   2   5   3    2.01    0.56
   2   5   3    1.04    0.34
  -3  -5  -3   36.95    1.78
  -3  -5  -3   36.66    1.61
  -3  -5  -3   35.88    1.25
  -3  -5  -3   35.35    1.93
   3   5   3   35.87    1.09
   3   5   3   35.39    1.62
   3   5   3   36.89    1.96
   3   5   3   36.06    1.00
   3   5   3   36.08    1.58
  -4  -5  -3   52.30    2.08
  -4  -5  -3   48.77    1.77
  -4  -5  -3   49.82    2.41
   4   5   3   50.85    1.50
   4   5   3   51.90    1.91
   4   5   3   49.34    2.02
   4   5   3   50.16    2.44
  -5  -5  -3    0.78    0.41
  -5  -5  -3    0.84    0.48
  -5  -5  -3    0.40    0.35
   5   5   3    0.23    0.20
   5   5   3    0.07    0.35
   5   5   3   -0.09    0.36
  -6  -5  -3   27.21    1.96
  -6  -5  -3   26.04    1.71
  -6  -5  -3   25.22    1.58
   6   5   3   27.30    1.97
   6   5   3   26.31    1.31
   6   5   3   28.23    1.81
  -7  -5  -3    0.78    0.56
  -7  -5  -3    1.76    0.73
   7   5   3    4.67    1.15
   7   5   3    3.61    0.64
   7   5   3    3.06    0.85
  -8  -5  -3    3.65    1.13
  -8  -5  -3    3.24    0.89
   8   5   3    3.31    1.09
   8   5   3    2.57    0.89
   8   5   3    2.31    0.84
  -9  -5  -3    2.88    1.00
   5  -6  -3   -0.28    0.55
  -5   6   3    1.60    0.84
   4  -6  -3    0.73    0.68
   4  -6  -3    2.01    0.81
  -4   6   3    1.92    0.86
  -4   6   3    0.12    0.59
   3  -6  -3   30.97    1.94
   3  -6  -3   31.64    2.21
  -3   6   3   30.60    2.15
  -3   6   3   32.61    2.37
   2  -6  -3   77.03    2.96
   2  -6  -3   77.88    3.28
  -2   6   3   83.06    3.37
  -2   6   3   77.60    3.29
  -2   6   3   80.35    3.54
   1  -6  -3   15.00    1.58
   1  -6  -3   14.60    1.10
  -1   6   3   13.43    1.53
  -1   6   3   16.66    1.77
  -1   6   3   15.26    1.62
  -1   6   3   10.40    1.34
   0  -6  -3   12.44    1.32
   0   6   3   11.87    1.39
   0   6   3   11.08    1.24
   0   6   3   11.83    1.36
   0   6   3    9.88    1.24
  -1  -6  -3   89.53    2.76
   1   6   3   82.26    3.06
   1   6   3   81.73    2.88
   1   6   3   86.13    2.80
   1   6   3   87.61    3.19
   1   6   3   83.27    3.17
  -2  -6  -3    0.77    0.30
   2   6   3    0.10    0.23
   2   6   3    0.63    0.39
   2   6   3    0.31    0.33
   2   6   3    0.44    0.38
  -3  -6  -3    7.09    1.08
   3   6   3    6.68    0.91
   3   6   3    7.58    0.94
   3   6   3    8.10    1.21
  -4  -6  -3    8.91    1.31
  -4  -6  -3    9.21    0.89
  -4  -6  -3    8.31    0.96
   4   6   3    8.73    1.33
   4   6   3    9.81    1.10
   4   6   3   10.07    1.09
  -5  -6  -3    0.18    0.48
  -5  -6  -3    0.27    0.34
  -5  -6  -3    0.21    0.27
   5   6   3    0.90    0.60
   5   6   3    0.42    0.35
  -6  -6  -3    0.12    0.37
  -6  -6  -3    0.72    0.46
  -6  -6  -3    1.18    0.63
   6   6   3    0.73    0.48
   6   6   3    0.77    0.61
  -7  -6  -3   18.10    2.12
  -7  -6  -3   19.02    1.83
  -7  -6  -3   20.65    1.65
   7   6   3   20.77    2.02
   7   6   3   17.59    2.09
  -8  -6  -3   11.32    1.84
  -8  -6  -3   12.27    1.72
  -8  -6  -3   11.17    1.56
   8   6   3   10.78    1.22
   8   6   3   13.53    2.05
  -9  -6  -3    0.44    0.74
  -9  -6  -3    0.72    0.66
  -9  -6  -3    0.49    0.82
   9   6   3    0.26    0.74
   4  -7  -3    0.65    0.74
   4  -7  -3   -0.37    0.41
  -4   7   3   -0.42    0.69
  -4   7   3    0.34    0.67
   3  -7  -3   12.42    1.55
   3  -7  -3   11.46    1.73
  -3   7   3    9.86    1.60
  -3   7   3    8.58    1.59
   2  -7  -3   21.75    1.63
   2  -7  -3   23.72    1.90
  -2   7   3   24.84    1.97
  -2   7   3   22.51    2.36
   1  -7  -3    0.32    0.51
   1  -7  -3    1.80    0.55
  -1   7   3    0.64    0.57
  -1   7   3    1.38    0.63
  -1   7   3    0.43    0.58
   0  -7  -3    6.56    1.07
   0   7   3    6.03    1.04
   0   7   3    5.99    1.09
   0   7   3    6.50    1.16
   0   7   3    6.30    1.03
  -1  -7  -3    1.38    0.47
   1   7   3    0.93    0.50
   1   7   3    1.32    0.57
   1   7   3    0.69    0.46
   1   7   3    0.42    0.39
  -2  -7  -3   23.75    1.31
   2   7   3   21.08    1.27
   2   7   3   20.62    1.55
   2   7   3   18.97    1.54
   2   7   3   23.97    1.76
  -3  -7  -3   65.38    3.05
   3   7   3   67.87    3.13
   3   7   3   67.73    2.72
   3   7   3   67.64    3.00
  -4  -7  -3    4.27    1.00
   4   7   3    4.12    0.95
   4   7   3    3.85    0.75
   4   7   3    2.77    0.67
  -5  -7  -3   10.45    1.14
  -5  -7  -3   11.57    1.67
   5   7   3   10.74    1.54
   5   7   3    9.05    1.13
  -6  -7  -3   14.48    1.46
  -6  -7  -3   11.24    1.73
  -6  -7  -3   13.76    1.42
   6   7   3   12.71    1.44
   6   7   3   15.58    2.05
  -7  -7  -3   29.60    2.38
  -7  -7  -3   29.93    1.90
  -7  -7  -3   29.45    1.92
   7   7   3   30.47    2.07
   7   7   3   31.38    2.51
  -8  -7  -3   -0.17    0.65
  -8  -7  -3   -0.01    0.60
  -8  -7  -3    0.00    0.41
   8   7   3   -0.03    0.59
  -9  -7  -3    4.61    1.23
  -9  -7  -3    4.28    1.02
  -9  -7  -3    4.66    1.43
   9   7   3    2.42    1.19
   3  -8  -3    0.22    0.73
   3  -8  -3    1.73    0.75
  -3   8   3    0.96    0.80
  -3   8   3    0.92    0.89
   2  -8  -3    0.28    0.57
   2  -8  -3   -0.25    0.36
  -2   8   3    0.64    0.70
  -2   8   3    0.81    0.66
   1  -8  -3    5.38    0.94
   1  -8  -3    8.84    1.43
  -1   8   3    6.04    1.35
  -1   8   3    6.73    1.29
   0  -8  -3   30.14    1.97
   0   8   3   33.77    2.23
   0   8   3   31.08    2.25
   0   8   3   32.03    2.24
   0   8   3   32.19    2.37
  -1  -8  -3    0.01    0.33
   1   8   3   -0.11    0.44
   1   8   3   -0.12    0.43
   1   8   3    0.04    0.44
   1   8   3   -0.15    0.37
   2   8   3    6.34    1.11
   2   8   3    6.78    1.20
   2   8   3    8.30    1.39
   3   8   3    5.17    1.11
   3   8   3    5.21    0.98
   3   8   3    5.15    1.12
  -4  -8  -3   76.00    3.61
   4   8   3   78.05    3.67
   4   8   3   82.99    3.11
  -5  -8  -3   17.29    2.06
   5   8   3   16.69    1.35
   5   8   3   12.54    1.84
  -6  -8  -3   21.37    2.42
  -6  -8  -3   22.21    1.46
   6   8   3   23.51    1.71
   6   8   3   22.50    2.52
  -7  -8  -3   -0.10    0.58
  -7  -8  -3    0.36    0.40
   7   8   3    1.13    0.78
  -8  -8  -3   31.40    3.20
  -8  -8  -3   27.10    1.91
   8   8   3   27.90    3.07
  -9  -8  -3    5.61    1.11
  -9  -8  -3    8.56    1.93
   9   8   3    5.84    1.61
   2  -9  -3   12.37    1.90
   2  -9  -3   10.30    1.46
  -2   9   3   12.41    1.98
  -2   9   3    7.16    1.53
   1  -9  -3    0.07    0.40
   1  -9  -3   -0.38    0.47
  -1   9   3   -0.40    0.54
  -1   9   3    0.75    0.68
   0  -9  -3    0.78    0.44
   0  -9  -3    1.78    0.71
   0   9   3    0.37    0.52
   0   9   3    0.65    0.59
   1   9   3   18.58    2.14
   1   9   3   17.86    2.17
   1   9   3   14.80    1.87
   2   9   3   15.27    1.85
   2   9   3   17.16    2.08
   2   9   3   15.11    1.89
   3   9   3   11.52    1.68
   3   9   3    9.62    1.42
   3   9   3    8.48    1.49
  -4  -9  -3    8.26    1.53
   4   9   3    5.00    1.11
   4   9   3    8.45    1.57
   4   9   3    7.06    1.19
  -5  -9  -3   12.86    1.96
   5   9   3   11.99    1.88
  -6  -9  -3    2.03    0.93
   6   9   3    4.60    1.26
  -7  -9  -3   -0.02    0.64
   7   9   3    0.13    0.65
  -8  -9  -3    2.78    0.68
  -8  -9  -3    2.34    1.08
   8   9   3    2.47    1.10
   1 -10  -3    1.74    0.70
   1 -10  -3    1.36    0.88
  -1  10   3    1.96    1.04
  -1  10   3    0.73    0.99
   0 -10  -3   18.77    2.50
   0 -10  -3   17.83    1.89
   0  10   3   16.77    2.20
   0  10   3   18.45    2.34
   1  10   3   27.48    2.79
   1  10   3   30.77    2.99
   2  10   3    1.13    0.82
   2  10   3    2.45    0.95
   2  10   3    1.32    0.83
   3  10   3    2.38    0.95
   3  10   3    4.01    1.11
   3  10   3    2.94    1.07
   4  10   3    5.86    1.17
   4  10   3    7.13    1.45
   4  10   3    6.25    1.44
  -5 -10  -3   25.07    2.82
   5  10   3   35.19    3.48
   5  10   3   26.98    2.79
  -6 -10  -3   -0.11    0.67
   6  10   3    0.00    0.67
  -7 -10  -3    8.96    1.85
   7  10   3    8.17    1.88
   1  11   3    0.33    0.71
   1  11   3    0.04    0.63
   2  11   3    0.59    0.76
   2  11   3   -0.49    0.60
   3  11   3    2.13    0.86
   3  11   3    2.05    0.96
   3  11   3    2.18    0.96
   4  11   3    4.47    1.14
   4  11   3    5.02    1.37
   4  11   3    3.52    1.32
   5  11   3    3.81    1.39
   5  11   3    1.35    0.80
  -6 -11  -3   12.03    2.10
   6  11   3    8.46    1.84
   6  11   3    7.41    1.68
   6  10  -4   14.76    2.09
   6  10  -4   18.99    2.76
  -6 -10   4   11.47    2.01
   5  10  -4    8.87    1.75
  -5 -10   4    4.10    1.29
   4  10  -4    2.76    1.01
   4  10  -4    4.67    1.34
  -4 -10   4    5.06    1.26
   3  10  -4   -0.03    0.58
   3  10  -4    0.14    0.47
  -3 -10   4   -0.40    0.58
   2  10  -4   -0.02    0.51
   2  10  -4    0.13    0.67
  -2 -10   4    0.69    0.73
   1  10  -4    0.25    0.55
   1  10  -4   -0.45    0.56
  -1 -10   4   -0.04    0.65
  -1 -10   4    0.97    0.77
   0  10  -4    0.65    0.68
   0  10  -4    0.46    0.66
   0 -10   4    0.27    0.69
   0 -10   4   -0.37    0.71
   7   9  -4    3.22    1.23
  -7  -9   4    2.76    1.04
   6   9  -4    1.83    1.03
  -6  -9   4   -0.13    0.59
   5   9  -4    0.80    0.80
   5   9  -4    1.54    0.76
  -5  -9   4    1.77    0.76
   4   9  -4   20.19    2.22
   4   9  -4   20.09    2.37
  -4  -9   4   18.87    2.33
   3   9  -4    3.71    1.01
   3   9  -4    0.85    0.87
   3   9  -4    1.90    0.71
  -3  -9   4    4.01    0.99
  -3  -9   4    3.18    0.94
   2   9  -4    5.06    1.11
  -2  -9   4    4.02    1.02
  -2  -9   4    3.54    1.11
   1   9  -4   26.83    2.20
  -1  -9   4   26.82    2.66
  -1  -9   4   24.23    2.40
   0   9  -4    2.45    0.97
   0  -9   4    2.52    0.95
   0  -9   4    4.26    1.08
  -1   9  -4   16.19    2.22
   1  -9   4   15.47    2.22
   1  -9   4   13.47    1.28
   1  -9   4   11.34    1.83
  -2   9  -4    7.13    1.54
   2  -9   4    9.77    1.31
   2  -9   4    6.74    1.54
   2  -9   4   12.35    2.06
  -7  -8   4    0.24    0.63
  -7  -8   4    0.04    0.57
  -6  -8   4    0.80    0.72
  -6  -8   4    0.11    0.71
   5   8  -4   -0.44    0.55
  -5  -8   4    1.24    0.66
  -5  -8   4    0.43    0.59
   4   8  -4   57.05    2.94
   4   8  -4   58.09    1.54
   4   8  -4   60.75    3.29
   4   8  -4   57.88    2.62
  -4  -8   4   61.42    3.29
  -4  -8   4   59.54    2.61
   3   8  -4    4.11    0.97
   3   8  -4    4.19    1.01
  -3  -8   4    3.45    0.94
  -3  -8   4    3.70    0.90
   2   8  -4    8.38    1.35
  -2  -8   4   10.18    1.35
  -2  -8   4    8.61    1.35
   1   8  -4    3.61    0.90
  -1  -8   4    3.29    0.83
  -1  -8   4    4.32    1.10
   0   8  -4    1.72    0.71
   0  -8   4    2.51    0.84
   0  -8   4    3.41    0.98
  -1   8  -4   13.62    1.87
   1  -8   4   13.05    1.85
   1  -8   4   13.53    1.93
   1  -8   4   13.69    0.94
  -2   8  -4    2.60    1.01
   2  -8   4    2.21    0.84
   2  -8   4    2.19    0.94
   2  -8   4    2.76    0.69
  -3   8  -4    0.04    0.64
   3  -8   4    0.48    0.79
   3  -8   4    0.79    0.51
   3  -8   4    0.57    0.73
  -8  -7   4    2.64    0.51
  -8  -7   4    1.21    0.84
  -8  -7   4    0.97    1.02
  -7  -7   4    0.60    0.76
  -7  -7   4    1.46    0.82
  -6  -7   4    3.20    0.88
  -6  -7   4    3.82    1.22
   5   7  -4   81.93    2.48
  -5  -7   4   78.96    3.87
  -5  -7   4   83.80    3.30
   4   7  -4   51.12    1.53
  -4  -7   4   53.58    2.39
  -4  -7   4   51.75    2.89
   3   7  -4   33.93    1.82
   3   7  -4   36.99    2.11
   3   7  -4   36.75    2.26
  -3  -7   4   31.57    1.76
  -3  -7   4   30.99    2.12
  -3  -7   4   31.49    1.85
  -3  -7   4   32.32    1.84
   2   7  -4   27.30    1.80
   2   7  -4   25.71    1.81
   2   7  -4   25.72    1.53
  -2  -7   4   26.48    1.69
  -2  -7   4   26.15    1.55
  -2  -7   4   28.36    1.81
   1   7  -4    6.99    1.10
   1   7  -4    6.24    0.94
  -1  -7   4    9.68    1.31
  -1  -7   4    8.39    1.24
  -1  -7   4    8.63    1.30
   0   7  -4    0.31    0.46
   0  -7   4    0.16    0.48
   0  -7   4    0.10    0.53
  -1   7  -4    3.20    0.90
   1  -7   4    3.40    0.90
   1  -7   4    3.94    0.98
   1  -7   4    3.17    0.50
  -2   7  -4    5.80    1.20
   2  -7   4    4.26    0.73
   2  -7   4    4.52    1.07
   2  -7   4    2.43    0.83
  -3   7  -4    0.91    0.68
   3  -7   4    1.47    0.78
   3  -7   4    2.05    0.95
   3  -7   4    2.68    0.78
  -4   7  -4    0.96    0.85
   4  -7   4    1.12    0.60
   4  -7   4    0.73    0.81
   4  -7   4    1.79    0.97
  -8  -6   4    6.92    1.60
  -8  -6   4    6.33    1.43
  -7  -6   4    0.52    0.61
  -7  -6   4    0.08    0.70
   6   6  -4    9.09    1.26
  -6  -6   4    7.08    0.58
  -6  -6   4    6.68    1.29
  -6  -6   4    7.24    1.22
   5   6  -4   74.39    2.43
  -5  -6   4   71.23    3.51
  -5  -6   4   73.80    3.01
   4   6  -4  226.71    4.64
  -4  -6   4  226.16    5.70
  -4  -6   4  226.29    6.52
   3   6  -4   36.65    1.97
   3   6  -4   33.80    0.96
  -3  -6   4   34.14    2.13
  -3  -6   4   33.79    1.71
  -3  -6   4   34.73    1.77
  -3  -6   4   32.45    1.76
   2   6  -4    1.00    0.49
   2   6  -4    0.94    0.45
  -2  -6   4    1.24    0.49
  -2  -6   4    1.48    0.52
  -2  -6   4    1.05    0.49
  -2  -6   4    0.90    0.42
   1   6  -4    0.16    0.14
   1   6  -4   -0.28    0.26
   1   6  -4    0.09    0.29
   1   6  -4   -0.19    0.26
  -1  -6   4    0.10    0.28
  -1  -6   4   -0.17    0.34
  -1  -6   4    0.02    0.27
  -1  -6   4    0.14    0.39
   0   6  -4    0.72    0.42
   0   6  -4    0.52    0.37
   0  -6   4    1.47    0.50
   0  -6   4    1.31    0.55
   0  -6   4    1.31    0.60
  -1   6  -4    7.80    1.17
  -1   6  -4    6.49    0.90
   1  -6   4    7.28    1.22
   1  -6   4    8.07    1.24
  -2   6  -4    3.39    0.90
   2  -6   4    2.15    0.72
   2  -6   4    4.00    0.98
   2  -6   4    4.50    0.69
  -3   6  -4   30.55    2.27
   3  -6   4   30.37    2.25
   3  -6   4   31.44    1.78
   3  -6   4   31.80    2.32
  -4   6  -4   16.11    2.14
   4  -6   4   14.61    2.03
   4  -6   4   15.60    2.06
   4  -6   4   14.81    1.65
  -5   6  -4    3.06    1.15
   5  -6   4    1.86    0.72
   5  -6   4    3.38    1.15
   5  -6   4    3.04    1.08
  -8  -5   4    3.04    1.15
  -8  -5   4    0.82    0.83
  -7  -5   4   41.41    2.92
  -7  -5   4   40.30    2.52
   6   5  -4   -0.04    0.33
  -6  -5   4    0.22    0.48
  -6  -5   4   -0.12    0.49
   5   5  -4    3.24    0.61
  -5  -5   4    3.58    1.04
  -5  -5   4    2.49    0.77
   4   5  -4    0.33    0.21
  -4  -5   4    1.09    0.46
  -4  -5   4   -0.17    0.30
  -4  -5   4    0.25    0.37
   3   5  -4    1.64    0.28
  -3  -5   4    1.77    0.48
  -3  -5   4    1.37    0.48
  -3  -5   4    1.50    0.51
  -3  -5   4    1.43    0.61
   2   5  -4   10.55    1.09
   2   5  -4    9.21    1.03
  -2  -5   4    9.01    0.98
  -2  -5   4    9.34    1.13
  -2  -5   4    8.76    1.02
  -2  -5   4    8.33    1.03
   1   5  -4    0.15    0.11
   1   5  -4   -0.04    0.20
   1   5  -4    0.62    0.36
  -1  -5   4    0.40    0.33
  -1  -5   4    0.00    0.29
  -1  -5   4    0.00    0.28
  -1  -5   4    0.26    0.32
   0   5  -4   12.36    1.14
   0   5  -4   10.65    0.68
   0   5  -4   12.69    1.27
   0  -5   4    9.97    1.02
   0  -5   4   11.66    1.33
   0  -5   4    9.58    1.17
   0  -5   4   11.72    1.51
  -1   5  -4   -0.05    0.25
  -1   5  -4    0.22    0.26
   1  -5   4    0.16    0.37
   1  -5   4    0.34    0.40
  -2   5  -4  463.13   10.10
  -2   5  -4  450.65    9.25
   2  -5   4  459.47    8.55
   2  -5   4  450.97   10.15
   2  -5   4  456.18   10.04
  -3   5  -4    0.26    0.41
  -3   5  -4    0.69    0.53
   3  -5   4    1.09    0.42
   3  -5   4    0.46    0.49
   3  -5   4    0.21    0.44
  -4   5  -4   11.56    1.66
  -4   5  -4    9.85    1.29
   4  -5   4   11.97    1.64
   4  -5   4   11.49    1.64
   4  -5   4    9.08    1.16
  -5   5  -4   21.84    2.49
   5  -5   4   19.97    2.29
   5  -5   4   17.50    2.06
   5  -5   4   20.37    2.01
  -6   5  -4    0.50    0.75
   6  -5   4    1.63    0.94
   6  -5   4    1.09    0.66
   6  -5   4    0.41    0.77
  -8  -4   4   20.18    2.28
  -8  -4   4   26.55    2.92
  -7  -4   4   15.08    2.08
  -7  -4   4   13.41    1.77
   6   4  -4   19.82    1.50
  -6  -4   4   20.06    1.97
  -6  -4   4   19.68    2.16
   5   4  -4   18.37    1.27
  -5  -4   4   20.13    1.39
  -5  -4   4   19.57    1.78
  -5  -4   4   21.30    2.18
   4   4  -4    1.49    0.40
  -4  -4   4    1.50    0.49
  -4  -4   4    3.28    0.79
  -4  -4   4    1.39    0.63
   3   4  -4   24.69    1.01
  -3  -4   4   25.36    1.66
  -3  -4   4   26.43    1.17
  -3  -4   4   26.14    1.39
  -3  -4   4   24.16    1.39
  -3  -4   4   25.05    1.41
   2   4  -4    4.61    0.31
  -2  -4   4    3.99    0.65
  -2  -4   4    5.61    0.90
  -2  -4   4    5.55    0.82
  -2  -4   4    4.43    0.67
   1   4  -4  411.26    7.96
   1   4  -4  410.44    6.70
   1   4  -4  408.75    7.98
  -1  -4   4  394.39    7.88
  -1  -4   4  404.31    8.13
  -1  -4   4  412.34    8.11
  -1  -4   4  397.14    8.08
   0   4  -4    0.43    0.29
   0   4  -4    0.76    0.22
   0   4  -4    0.09    0.22
   0  -4   4    0.87    0.31
   0  -4   4    0.68    0.37
   0  -4   4    1.19    0.44
   0  -4   4    0.38    0.30
  -1   4  -4    5.93    0.67
  -1   4  -4    6.13    0.87
  -1   4  -4    4.55    0.70
   1  -4   4    5.36    0.93
   1  -4   4    4.57    0.80
  -2   4  -4    0.16    0.26
  -2   4  -4   -0.16    0.26
   2  -4   4    0.01    0.17
   2  -4   4    0.23    0.37
   2  -4   4   -0.11    0.34
  -3   4  -4   15.28    1.43
  -3   4  -4   14.60    1.60
   3  -4   4   14.51    1.61
   3  -4   4   14.17    1.55
   3  -4   4   13.28    1.01
  -4   4  -4   18.23    1.92
  -4   4  -4   16.93    1.65
   4  -4   4   13.44    1.64
   4  -4   4   15.21    1.21
   4  -4   4   16.36    1.84
  -5   4  -4   10.26    1.48
  -5   4  -4    5.85    1.21
   5  -4   4    6.14    1.04
   5  -4   4    9.20    1.46
   5  -4   4    6.98    1.33
  -6   4  -4    0.60    0.68
  -6   4  -4    0.31    0.48
   6  -4   4    1.32    1.10
   6  -4   4    1.97    0.93
   6  -4   4    1.88    0.72
  -8  -3   4    3.69    1.16
  -8  -3   4    2.11    0.88
   7   3  -4    0.41    0.54
  -7  -3   4    0.21    0.63
  -7  -3   4   -0.02    0.45
   6   3  -4   32.05    1.99
  -6  -3   4   32.37    2.33
  -6  -3   4   33.02    2.09
   5   3  -4    0.25    0.35
  -5  -3   4    0.06    0.41
  -5  -3   4    0.40    0.42
  -5  -3   4    0.58    0.47
   4   3  -4   33.38    1.56
  -4  -3   4   34.78    2.08
  -4  -3   4   36.56    1.78
  -4  -3   4   34.91    1.77
   3   3  -4   70.70    2.07
  -3  -3   4   69.59    2.79
  -3  -3   4   67.57    2.39
  -3  -3   4   69.42    2.41
   2   3  -4  285.04    5.14
  -2  -3   4  285.86    6.39
  -2  -3   4  277.83    5.96
  -2  -3   4  279.20    5.91
  -2  -3   4  282.15    6.01
   1   3  -4  306.59    5.96
   1   3  -4  303.37    6.19
  -1  -3   4  305.74    6.28
  -1  -3   4  309.30    6.20
  -1  -3   4  306.79    6.18
   0   3  -4   53.08    1.87
   0   3  -4   55.24    1.43
   0   3  -4   56.03    1.81
   0  -3   4   53.51    1.84
   0  -3   4   53.84    1.99
   0  -3   4   52.78    1.73
   0  -3   4   54.96    2.02
  -1   3  -4    4.75    0.68
  -1   3  -4    3.16    0.56
  -1   3  -4    3.44    0.50
   1  -3   4    3.90    0.68
   1  -3   4    4.07    0.72
   1  -3   4    3.90    0.59
  -2   3  -4   44.76    1.96
  -2   3  -4   45.50    1.86
   2  -3   4   46.67    2.08
   2  -3   4   44.21    2.01
   2  -3   4   44.41    1.47
  -3   3  -4    3.64    0.69
  -3   3  -4    4.62    0.84
   3  -3   4    4.96    0.88
   3  -3   4    4.70    0.89
   3  -3   4    5.33    0.70
  -4   3  -4   39.01    2.02
  -4   3  -4   41.79    2.34
   4  -3   4   40.07    2.17
   4  -3   4   37.19    1.85
   4  -3   4   39.08    2.21
  -5   3  -4   19.64    2.13
  -5   3  -4   14.56    1.61
   5  -3   4   15.48    1.69
   5  -3   4   21.12    2.07
   5  -3   4   16.93    1.65
  -6   3  -4   -0.53    0.45
   6  -3   4    0.19    0.51
   6  -3   4    0.54    0.45
  -7   3  -4    0.20    0.59
   7  -3   4    2.23    0.92
  -8  -2   4    0.78    0.75
  -8  -2   4   -0.27    0.62
   7   2  -4    3.29    0.99
   7   2  -4    2.53    0.63
  -7  -2   4    4.58    1.18
  -7  -2   4    3.45    0.93
   6   2  -4    0.34    0.30
   6   2  -4    0.15    0.42
  -6  -2   4   -0.27    0.44
  -6  -2   4    0.46    0.49
  -6  -2   4    0.42    0.49
   5   2  -4    0.27    0.23
   5   2  -4    0.09    0.34
  -5  -2   4    0.16    0.38
  -5  -2   4   -0.26    0.30
  -5  -2   4    0.45    0.42
   4   2  -4    5.74    0.81
   4   2  -4    6.65    0.60
  -4  -2   4    6.13    0.90
  -4  -2   4    5.79    0.86
  -4  -2   4    6.26    1.05
   3   2  -4  236.42    4.09
   3   2  -4  248.14    5.18
  -3  -2   4  234.89    5.88
  -3  -2   4  234.02    5.40
  -3  -2   4  232.72    5.32
   2   2  -4   -0.04    0.15
  -2  -2   4   -0.27    0.15
  -2  -2   4   -0.06    0.22
  -2  -2   4   -0.12    0.18
  -2  -2   4    0.01    0.25
   1   2  -4   16.99    0.69
  -1  -2   4   16.87    0.99
  -1  -2   4   15.34    0.59
  -1  -2   4   16.35    0.95
  -1  -2   4   17.30    1.04
  -1  -2   4   17.56    1.05
   0   2  -4   26.59    0.98
   0   2  -4   26.45    0.91
   0   2  -4   24.70    1.16
   0  -2   4   26.12    1.22
   0  -2   4   25.01    1.22
   0  -2   4   25.85    1.18
   0  -2   4   26.50    1.09
  -1   2  -4    0.28    0.19
  -1   2  -4    0.08    0.24
  -1   2  -4    0.39    0.23
   1  -2   4    0.24    0.27
   1  -2   4    0.09    0.28
   1  -2   4    0.17    0.30
   1  -2   4    0.25    0.19
  -2   2  -4  100.27    2.89
  -2   2  -4  104.41    2.91
  -2   2  -4  102.65    2.84
   2  -2   4  100.28    3.00
   2  -2   4  101.50    2.70
   2  -2   4  100.79    2.45
   2  -2   4  101.37    3.05
  -3   2  -4    8.01    0.94
  -3   2  -4    8.06    1.03
   3  -2   4    8.51    1.05
   3  -2   4    8.79    1.04
   3  -2   4    8.18    0.82
  -4   2  -4    2.18    0.65
  -4   2  -4    2.10    0.63
   4  -2   4    3.86    0.69
   4  -2   4    3.76    0.78
   4  -2   4    2.82    0.68
  -5   2  -4   12.63    1.46
  -5   2  -4   13.77    1.72
   5  -2   4   13.39    1.47
   5  -2   4   14.90    1.24
   5  -2   4   12.01    1.45
  -6   2  -4    7.23    1.22
   6  -2   4    6.54    1.08
   6  -2   4    9.82    1.50
  -7   2  -4    0.13    0.49
   7  -2   4    0.22    0.66
  -8  -1   4    0.67    0.69
  -8  -1   4    0.70    0.66
  -7  -1   4   11.09    1.69
  -7  -1   4   18.49    2.04
   6   1  -4   24.97    1.92
   6   1  -4   20.44    1.31
  -6  -1   4   20.45    1.93
  -6  -1   4   21.23    2.02
  -6  -1   4   21.78    2.31
   5   1  -4   12.87    1.12
   5   1  -4    9.36    1.23
  -5  -1   4   13.79    1.48
  -5  -1   4   12.37    1.62
  -5  -1   4    9.08    1.21
   4   1  -4    4.77    0.81
   4   1  -4    5.56    0.63
  -4  -1   4    4.18    0.85
  -4  -1   4    5.68    0.87
  -4  -1   4    5.99    0.93
   3   1  -4    3.27    0.39
   3   1  -4    2.58    0.54
  -3  -1   4    3.93    0.68
  -3  -1   4    2.88    0.65
  -3  -1   4    2.64    0.57
   2   1  -4   71.15    1.52
   2   1  -4   68.79    2.08
  -2  -1   4   72.20    2.52
  -2  -1   4   75.48    2.36
  -2  -1   4   70.69    2.19
   1   1  -4  206.34    4.11
  -1  -1   4  208.80    4.68
  -1  -1   4  202.24    4.53
  -1  -1   4  213.04    4.36
  -1  -1   4  205.11    4.47
   0   1  -4   24.87    1.15
   0   1  -4   21.43    1.01
   0   1  -4   22.96    0.65
   0  -1   4   20.12    0.98
   0  -1   4   22.05    1.07
   0  -1   4   25.44    1.15
   0  -1   4   20.19    0.97
  -1   1  -4   13.02    0.66
  -1   1  -4   14.53    0.85
  -1   1  -4   14.47    1.01
  -1   1  -4   13.41    0.75
   1  -1   4   14.44    0.84
   1  -1   4   14.45    0.87
   1  -1   4   13.68    0.73
   1  -1   4   13.00    0.88
  -2   1  -4   23.96    1.17
  -2   1  -4   21.95    1.14
  -2   1  -4   23.36    1.13
   2  -1   4   22.02    1.11
   2  -1   4   22.60    1.18
   2  -1   4   23.87    1.21
   2  -1   4   22.58    0.96
  -3   1  -4   69.76    2.41
  -3   1  -4   65.17    2.27
  -3   1  -4   63.37    2.32
   3  -1   4   67.24    2.34
   3  -1   4   64.40    2.27
   3  -1   4   66.93    2.10
  -4   1  -4   96.12    3.11
   4  -1   4   91.00    2.87
   4  -1   4   95.90    3.04
   4  -1   4   92.99    3.05
   4  -1   4   90.34    2.06
  -5   1  -4   47.10    2.28
   5  -1   4   47.58    1.47
   5  -1   4   47.19    2.26
   5  -1   4   49.56    2.18
   5  -1   4   48.60    2.21
  -6   1  -4   15.88    1.70
  -6   1  -4   17.94    1.29
  -6   1  -4   15.74    1.71
   6  -1   4   17.05    1.76
   6  -1   4   17.07    1.40
  -7   1  -4    0.40    0.54
   7  -1   4   -0.06    0.52
  -8   1  -4    3.31    0.98
  -8   0   4    0.26    0.64
  -7   0   4    3.23    1.07
  -7   0   4    4.63    1.08
   6   0  -4  137.06    3.89
  -6   0   4  131.41    4.88
  -6   0   4  141.44    4.54
   5   0  -4    2.48    0.54
  -5   0   4    3.92    0.90
  -5   0   4    4.60    0.91
  -5   0   4    2.79    0.85
   4   0  -4   41.24    1.63
   4   0  -4   46.92    2.19
  -4   0   4   43.58    2.11
  -4   0   4   44.87    1.99
  -4   0   4   41.84    1.17
  -4   0   4   41.76    2.24
   3   0  -4    1.15    0.30
   3   0  -4    1.53    0.50
  -3   0   4    0.83    0.16
  -3   0   4    1.12    0.20
  -3   0   4    1.04    0.43
  -3   0   4    1.03    0.45
  -3   0   4    1.46    0.43
   2   0  -4    1.74    0.42
   2   0  -4    1.95    0.32
  -2   0   4    1.82    0.46
  -2   0   4    1.90    0.16
  -2   0   4    1.83    0.17
  -2   0   4    2.20    0.54
  -2   0   4    1.86    0.43
   1   0  -4   70.76    2.36
   1   0  -4   67.11    1.94
   1   0  -4   67.07    1.53
  -1   0   4   63.80    2.18
  -1   0   4   66.13    1.90
  -1   0   4   65.45    2.07
   0   0  -4   69.99    1.89
   0   0  -4   72.71    2.07
   0   0  -4   69.73    1.49
   0   0   4   68.37    1.86
   0   0   4   68.86    1.99
   0   0   4   70.15    2.07
   0   0   4   70.00    2.06
  -1   0  -4   43.62    1.49
  -1   0  -4   43.02    1.13
  -1   0  -4   43.80    1.47
   1   0   4   42.05    1.41
   1   0   4   45.33    1.47
   1   0   4   45.33    1.53
   1   0   4   44.93    1.47
  -2   0  -4    6.10    0.69
  -2   0  -4    6.43    0.69
  -2   0  -4    8.23    0.52
  -2   0  -4    7.56    0.73
   2   0   4    7.95    0.82
   2   0   4    8.40    0.64
   2   0   4    8.26    0.59
   2   0   4    8.99    0.82
  -3   0  -4   67.64    1.95
  -3   0  -4   71.84    2.41
  -3   0  -4   68.94    2.28
   3   0   4   69.31    2.35
   3   0   4   73.83    2.32
   3   0   4   73.29    2.18
   3   0   4   72.12    2.20
   3   0   4   71.42    1.76
  -4   0  -4    1.81    0.41
  -4   0  -4    0.92    0.39
   4   0   4    1.74    0.33
   4   0   4    1.19    0.40
   4   0   4    0.76    0.41
   4   0   4    1.25    0.43
   4   0   4    1.83    0.49
  -5   0  -4   40.05    2.05
  -5   0  -4   44.86    1.82
   5   0   4   44.17    1.98
   5   0   4   44.47    1.93
   5   0   4   41.94    1.97
   5   0   4   43.25    1.55
  -6   0  -4   -0.14    0.29
  -6   0  -4    0.12    0.48
  -6   0  -4    0.05    0.46
   6   0   4   -0.23    0.20
   6   0   4   -0.13    0.32
   6   0   4    0.22    0.41
  -7   0  -4    0.41    0.55
   7   0   4    0.25    0.32
  -8   0  -4    4.48    1.11
   7  -1  -4    0.43    0.61
  -7   1   4    1.11    0.77
  -6   1   4    9.40    1.52
  -6   1   4   15.62    1.71
   5  -1  -4   34.05    1.62
  -5   1   4   35.66    2.23
  -5   1   4   35.53    1.46
  -5   1   4   34.20    2.21
  -5   1   4   35.03    1.96
   4  -1  -4    0.71    0.46
   4  -1  -4    1.36    0.42
  -4   1   4    0.49    0.46
  -4   1   4   -0.05    0.34
  -4   1   4   -0.11    0.35
   3  -1  -4    1.02    0.33
   3  -1  -4    1.45    0.52
  -3   1   4    1.97    0.46
  -3   1   4    1.28    0.52
  -3   1   4    0.10    0.36
  -3   1   4    0.38    0.35
  -3   1   4    1.59    0.46
   2  -1  -4   22.66    0.96
   2  -1  -4   21.87    1.25
  -2   1   4   21.87    1.09
  -2   1   4   23.16    1.15
  -2   1   4   22.24    1.38
  -2   1   4   21.27    1.27
   1  -1  -4   -0.20    0.09
   1  -1  -4    0.07    0.14
  -1   1   4    0.28    0.29
  -1   1   4    0.00    0.20
  -1   1   4    0.19    0.19
  -1   1   4   -0.21    0.19
  -1  -1  -4  112.82    2.38
  -1  -1  -4  110.47    2.55
  -1  -1  -4  116.60    2.81
   1   1   4  119.96    2.65
   1   1   4  116.04    2.69
   1   1   4  110.88    2.53
   1   1   4  118.06    2.66
   1   1   4  112.43    2.79
  -2  -1  -4  134.73    3.25
  -2  -1  -4  132.97    2.81
  -2  -1  -4  132.88    2.98
  -2  -1  -4  136.26    3.09
   2   1   4  135.20    3.52
   2   1   4  135.07    3.10
   2   1   4  133.83    2.92
   2   1   4  132.18    2.75
   2   1   4  135.39    3.27
  -3  -1  -4   -0.10    0.23
  -3  -1  -4   -0.01    0.17
  -3  -1  -4    0.15    0.19
   3   1   4   -0.16    0.17
   3   1   4   -0.08    0.19
   3   1   4   -0.04    0.14
   3   1   4   -0.34    0.21
   3   1   4   -0.38    0.20
   3   1   4    0.18    0.19
  -4  -1  -4   12.24    0.85
  -4  -1  -4   12.72    0.81
  -4  -1  -4   11.74    1.13
   4   1   4   13.32    0.89
   4   1   4   14.21    0.88
   4   1   4   12.37    0.75
   4   1   4   14.27    1.33
   4   1   4   13.07    0.93
   4   1   4   10.80    0.86
  -5  -1  -4    0.54    0.43
  -5  -1  -4    0.19    0.26
   5   1   4    0.31    0.37
   5   1   4    0.52    0.35
   5   1   4    0.65    0.38
   5   1   4    0.20    0.23
   5   1   4    0.47    0.28
  -6  -1  -4   54.95    2.10
  -6  -1  -4   58.19    2.65
   6   1   4   59.25    2.07
  -7  -1  -4    1.79    0.71
  -7  -1  -4    0.54    0.39
   7   1   4    0.09    0.30
  -8  -1  -4    8.77    1.47
  -9  -1  -4    3.92    1.20
   7  -2  -4    0.13    0.62
   6  -2  -4    7.45    1.38
  -6   2   4    8.78    1.02
  -6   2   4    9.70    1.40
   5  -2  -4    6.54    0.81
  -5   2   4    6.66    1.05
  -5   2   4    7.84    1.31
   4  -2  -4    1.40    0.39
  -4   2   4    1.78    0.69
  -4   2   4    1.16    0.55
  -4   2   4    0.99    0.54
  -4   2   4    1.43    0.59
   3  -2  -4   54.31    1.82
   3  -2  -4   51.34    2.01
   3  -2  -4   52.81    2.37
  -3   2   4   53.15    2.01
  -3   2   4   54.73    2.47
  -3   2   4   54.53    2.45
  -3   2   4   53.74    2.29
  -3   2   4   49.67    1.90
   2  -2  -4    4.60    0.55
   2  -2  -4    4.35    0.72
   2  -2  -4    5.19    0.69
  -2   2   4    5.21    0.83
  -2   2   4    5.46    0.73
  -2   2   4    5.15    0.73
  -2   2   4    4.54    0.59
  -2   2   4    6.12    0.90
   1  -2  -4    9.23    0.58
   1  -2  -4    8.17    0.87
  -1   2   4   10.45    0.93
  -1   2   4    8.89    0.96
  -1   2   4   10.44    0.81
  -1   2   4    9.09    0.70
  -1   2   4    9.06    0.58
   0  -2  -4  144.78    3.43
   0  -2  -4  143.76    3.36
   0  -2  -4  141.32    2.85
   0  -2  -4  142.12    2.90
   0   2   4  144.46    2.85
   0   2   4  141.96    3.36
   0   2   4  142.23    3.65
   0   2   4  132.04    3.60
   0   2   4  143.38    3.11
   0   2   4  141.73    3.37
  -1  -2  -4  278.38    5.67
  -1  -2  -4  270.09    5.50
  -1  -2  -4  282.29    5.27
  -1  -2  -4  279.82    4.99
  -1  -2  -4  266.49    4.94
   1   2   4  271.16    5.23
   1   2   4  278.33    5.02
   1   2   4  272.61    5.73
   1   2   4  271.06    5.52
  -2  -2  -4   -0.04    0.15
  -2  -2  -4    0.15    0.21
  -2  -2  -4    0.07    0.12
  -2  -2  -4    0.21    0.20
   2   2   4    0.15    0.23
   2   2   4    0.13    0.17
   2   2   4    0.24    0.22
   2   2   4   -0.15    0.14
   2   2   4    0.11    0.26
   2   2   4    0.14    0.14
  -3  -2  -4    7.06    0.77
  -3  -2  -4    6.90    0.59
  -3  -2  -4    7.35    0.82
  -3  -2  -4    5.77    0.77
  -3  -2  -4    6.73    0.49
   3   2   4    6.23    0.57
   3   2   4    6.92    0.48
   3   2   4    8.23    0.91
   3   2   4    7.70    0.81
  -4  -2  -4    4.55    0.71
  -4  -2  -4    6.17    0.61
  -4  -2  -4    6.64    0.82
   4   2   4    5.68    0.78
   4   2   4    5.77    0.58
   4   2   4    4.70    0.67
   4   2   4    6.63    0.90
   4   2   4    5.22    0.59
  -5  -2  -4    4.98    0.79
  -5  -2  -4    5.07    0.64
  -5  -2  -4    5.91    0.89
  -5  -2  -4    5.90    0.65
   5   2   4    6.65    0.91
   5   2   4    5.83    0.68
   5   2   4    4.34    0.66
   5   2   4    5.51    0.96
   5   2   4    4.97    0.65
  -6  -2  -4  119.63    3.99
  -6  -2  -4  119.32    3.08
   6   2   4  122.26    3.34
   6   2   4  125.97    4.39
  -7  -2  -4   24.87    1.30
  -7  -2  -4   27.62    1.98
   7   2   4   24.59    1.44
  -8  -2  -4    9.34    1.57
  -9  -2  -4    0.35    0.66
   6  -3  -4   17.17    2.10
   5  -3  -4   10.36    1.02
   5  -3  -4    7.39    1.37
  -5   3   4    4.72    1.08
   4  -3  -4    6.08    0.74
  -4   3   4    7.34    0.99
  -4   3   4    5.57    1.04
  -4   3   4    6.54    1.13
   3  -3  -4   54.89    1.81
   3  -3  -4   52.51    2.22
  -3   3   4   51.52    2.21
  -3   3   4   50.20    1.92
  -3   3   4   51.54    2.53
  -3   3   4   55.22    2.55
  -3   3   4   53.50    2.45
   2  -3  -4   74.97    2.44
   2  -3  -4   73.01    2.00
   2  -3  -4   68.21    2.63
  -2   3   4   69.46    2.60
  -2   3   4   73.18    2.77
  -2   3   4   68.99    2.48
  -2   3   4   70.32    2.79
  -2   3   4   71.89    2.08
   1  -3  -4   15.92    0.95
   1  -3  -4   14.51    1.05
   1  -3  -4   15.69    0.76
  -1   3   4   15.26    1.04
  -1   3   4   14.32    1.15
  -1   3   4   14.75    1.05
  -1   3   4   14.71    1.10
  -1   3   4   16.17    0.75
   0  -3  -4   31.46    1.02
   0  -3  -4   30.83    1.40
   0   3   4   29.49    1.55
   0   3   4   30.48    1.38
   0   3   4   28.94    1.37
   0   3   4   30.48    1.34
   0   3   4   25.84    1.35
  -1  -3  -4  228.64    4.94
  -1  -3  -4  226.86    4.17
  -1  -3  -4  229.86    4.19
  -1  -3  -4  229.77    4.64
   1   3   4  228.27    4.40
   1   3   4  235.85    5.32
   1   3   4  225.42    4.97
   1   3   4  240.38    5.02
   1   3   4  229.46    4.66
  -2  -3  -4    1.14    0.40
  -2  -3  -4    0.57    0.17
  -2  -3  -4    0.35    0.16
  -2  -3  -4    0.51    0.23
  -2  -3  -4    0.50    0.32
  -2  -3  -4    0.45    0.23
   2   3   4    0.62    0.24
   2   3   4    0.33    0.30
   2   3   4    0.62    0.23
   2   3   4    1.11    0.39
   2   3   4    0.82    0.41
  -3  -3  -4   33.84    1.01
  -3  -3  -4   33.75    0.94
  -3  -3  -4   33.84    1.62
  -3  -3  -4   31.80    1.54
  -3  -3  -4   32.97    1.31
   3   3   4   36.87    1.59
   3   3   4   32.43    1.17
   3   3   4   33.40    1.64
   3   3   4   35.00    1.56
  -4  -3  -4    0.50    0.36
  -4  -3  -4    0.45    0.16
  -4  -3  -4    0.39    0.32
  -4  -3  -4    0.05    0.07
  -4  -3  -4    1.02    0.38
   4   3   4    0.29    0.32
   4   3   4    0.67    0.26
   4   3   4    0.45    0.34
   4   3   4   -0.04    0.17
   4   3   4    0.24    0.17
  -5  -3  -4    1.13    0.48
  -5  -3  -4    1.30    0.49
  -5  -3  -4    1.75    0.32
   5   3   4    0.62    0.40
   5   3   4    1.60    0.52
   5   3   4    1.44    0.39
   5   3   4    2.20    0.49
  -6  -3  -4   25.06    1.02
  -6  -3  -4   26.31    1.69
  -6  -3  -4   27.47    1.73
   6   3   4   27.06    1.87
   6   3   4   24.93    1.34
   6   3   4   28.10    1.77
  -7  -3  -4   54.00    2.69
   7   3   4   50.25    2.12
  -8  -3  -4    2.90    0.96
  -9  -3  -4    0.74    0.75
   6  -4  -4    0.28    0.60
  -6   4   4    0.29    0.83
   5  -4  -4    8.61    1.44
  -5   4   4    9.37    1.60
   4  -4  -4    0.39    0.41
   4  -4  -4    0.08    0.18
   4  -4  -4    0.66    0.62
  -4   4   4    0.63    0.57
  -4   4   4    0.96    0.58
  -4   4   4    0.32    0.50
   3  -4  -4   28.23    1.68
  -3   4   4   27.14    1.75
  -3   4   4   30.73    1.99
  -3   4   4   26.94    1.85
  -3   4   4   30.62    2.04
   2  -4  -4   21.60    1.35
  -2   4   4   23.63    1.65
  -2   4   4   22.38    1.58
  -2   4   4   21.48    1.48
  -2   4   4   23.26    1.65
   1  -4  -4   16.32    0.68
   1  -4  -4   17.17    1.62
   1  -4  -4   13.26    0.97
  -1   4   4   16.03    1.22
  -1   4   4   15.53    1.27
  -1   4   4   16.74    1.26
  -1   4   4   17.54    1.27
   0  -4  -4   24.09    1.33
   0  -4  -4   23.67    0.71
   0  -4  -4   23.74    0.72
   0   4   4   24.32    1.39
   0   4   4   23.18    1.34
   0   4   4   23.73    1.36
   0   4   4   25.67    1.37
   0   4   4   23.77    1.49
  -1  -4  -4   43.20    1.71
   1   4   4   43.89    1.38
   1   4   4   44.69    2.02
   1   4   4   44.90    1.81
   1   4   4   44.12    1.81
   1   4   4   43.23    1.61
  -2  -4  -4    1.88    0.34
  -2  -4  -4    1.79    0.29
  -2  -4  -4    1.73    0.42
   2   4   4    2.74    0.39
   2   4   4    1.75    0.33
   2   4   4    1.80    0.47
   2   4   4    1.89    0.51
  -3  -4  -4   60.77    1.34
  -3  -4  -4   61.26    1.81
  -3  -4  -4   62.63    2.27
  -3  -4  -4   59.87    2.42
  -3  -4  -4   62.00    2.17
   3   4   4   59.96    1.71
   3   4   4   60.55    2.13
   3   4   4   59.86    2.43
   3   4   4   62.30    2.21
   3   4   4   60.42    1.36
  -4  -4  -4   20.59    1.43
  -4  -4  -4   17.61    1.07
  -4  -4  -4   19.00    1.26
   4   4   4   18.63    1.14
   4   4   4   18.05    1.38
   4   4   4   17.76    1.23
   4   4   4   19.48    0.96
  -5  -4  -4    0.85    0.41
  -5  -4  -4    0.57    0.44
  -5  -4  -4    0.00    0.29
   5   4   4    0.85    0.43
   5   4   4    0.67    0.29
   5   4   4   -0.10    0.29
   5   4   4    1.11    0.40
  -6  -4  -4    2.95    0.77
  -6  -4  -4    2.35    0.65
   6   4   4    3.73    0.83
   6   4   4    2.87    0.79
   6   4   4    2.92    0.56
  -7  -4  -4   38.26    2.25
  -7  -4  -4   41.13    2.41
   7   4   4   42.03    2.50
   7   4   4   43.67    1.94
   7   4   4   44.76    2.55
  -8  -4  -4    0.71    0.61
  -9  -4  -4    2.44    0.90
   5  -5  -4   35.18    2.60
  -5   5   4   31.94    3.04
   4  -5  -4    1.06    0.62
   4  -5  -4    0.60    0.50
  -4   5   4    0.69    0.63
  -4   5   4   -0.01    0.54
   3  -5  -4   -0.07    0.27
   3  -5  -4    0.48    0.46
  -3   5   4   -0.21    0.42
  -3   5   4    0.10    0.45
  -3   5   4   -0.27    0.41
   2  -5  -4   55.14    2.39
   2  -5  -4   59.90    2.71
  -2   5   4   63.05    2.73
  -2   5   4   55.67    2.72
  -2   5   4   54.62    2.71
  -2   5   4   58.46    2.75
   1  -5  -4    8.58    0.97
  -1   5   4    9.88    1.26
  -1   5   4    8.04    1.20
  -1   5   4    9.53    1.25
  -1   5   4    8.33    1.18
   0   5   4   53.58    2.45
   0   5   4   57.66    2.30
   0   5   4   58.07    2.42
   0   5   4   55.29    2.37
   1   5   4  241.83    4.74
   1   5   4  241.27    5.33
   1   5   4  235.10    5.98
   1   5   4  240.95    5.69
   1   5   4  234.18    5.65
   2   5   4   77.20    2.96
   2   5   4   81.23    2.04
   2   5   4   80.60    2.22
   2   5   4   81.81    2.82
   2   5   4   73.19    2.62
  -3  -5  -4   91.03    3.31
  -3  -5  -4   90.45    2.93
  -3  -5  -4   92.42    2.26
   3   5   4   93.71    2.91
   3   5   4   89.40    2.03
   3   5   4   92.70    2.27
   3   5   4   90.67    3.31
   3   5   4   90.86    2.88
  -4  -5  -4  136.69    3.91
  -4  -5  -4  142.19    3.44
  -4  -5  -4  135.15    4.30
   4   5   4  136.61    3.15
   4   5   4  137.50    4.37
   4   5   4  131.51    3.83
   4   5   4  137.84    3.70
  -5  -5  -4   11.23    1.46
  -5  -5  -4   13.70    1.28
  -5  -5  -4   12.99    1.35
   5   5   4   13.89    1.27
   5   5   4   12.97    1.57
   5   5   4   12.64    0.85
   5   5   4   12.01    1.28
  -6  -5  -4    5.30    1.12
  -6  -5  -4    4.80    0.93
  -6  -5  -4    5.00    0.90
   6   5   4    5.29    1.09
   6   5   4    5.90    0.76
   6   5   4    5.92    1.01
  -7  -5  -4   -0.18    0.47
  -7  -5  -4   -0.56    0.28
  -7  -5  -4    0.18    0.43
   7   5   4   -0.19    0.41
   7   5   4   -0.21    0.25
   7   5   4    0.28    0.50
  -8  -5  -4   -0.58    0.40
  -8  -5  -4    0.46    0.60
   8   5   4   -0.39    0.48
   8   5   4    0.12    0.48
  -9  -5  -4    0.84    0.67
   5  -6  -4   14.45    2.10
  -5   6   4   18.32    2.42
   4  -6  -4    0.94    0.81
   4  -6  -4    1.00    0.66
  -4   6   4    1.05    0.74
  -4   6   4    1.26    0.82
   3  -6  -4    7.28    1.22
   3  -6  -4    4.99    1.16
  -3   6   4    6.66    1.34
  -3   6   4    4.60    1.03
   2  -6  -4   15.30    1.78
   2  -6  -4   14.35    1.52
  -2   6   4   14.78    1.75
  -2   6   4   11.32    1.48
  -2   6   4   15.35    1.80
   1  -6  -4    1.09    0.44
   1  -6  -4    2.08    0.67
  -1   6   4    1.52    0.69
  -1   6   4    1.45    0.65
  -1   6   4    1.88    0.67
  -1   6   4    1.03    0.54
   0  -6  -4    3.28    0.72
   0   6   4    2.50    0.71
   0   6   4    2.58    0.70
   0   6   4    3.52    0.81
   0   6   4    2.50    0.66
  -1  -6  -4   63.13    2.28
   1   6   4   55.80    2.54
   1   6   4   59.91    2.61
   1   6   4   62.51    2.37
   1   6   4   66.16    1.91
   1   6   4   61.18    2.77
  -2  -6  -4   15.14    0.95
   2   6   4   17.63    1.06
   2   6   4   15.40    1.27
   2   6   4   15.29    1.35
   2   6   4   14.67    0.79
   2   6   4   13.48    1.34
  -3  -6  -4   -0.24    0.30
   3   6   4    0.68    0.43
   3   6   4    0.68    0.45
   3   6   4    0.23    0.18
  -4  -6  -4   10.72    1.14
  -4  -6  -4   14.72    1.68
   4   6   4   13.84    1.35
   4   6   4   12.88    1.54
   4   6   4   15.11    1.18
   4   6   4   13.73    0.80
  -5  -6  -4    0.82    0.41
  -5  -6  -4    0.09    0.42
  -5  -6  -4    0.87    0.43
   5   6   4    1.06    0.47
   5   6   4    1.10    0.33
   5   6   4    0.93    0.58
   5   6   4    1.15    0.49
  -6  -6  -4   55.55    2.95
  -6  -6  -4   51.57    2.27
  -6  -6  -4   52.79    2.50
   6   6   4   53.55    2.57
   6   6   4   50.46    2.86
   6   6   4   51.80    1.96
  -7  -6  -4   28.06    1.94
  -7  -6  -4   30.45    2.32
  -7  -6  -4   31.80    1.96
   7   6   4   25.64    2.16
   7   6   4   31.30    1.62
   7   6   4   30.18    2.11
  -8  -6  -4   43.28    2.53
  -8  -6  -4   44.87    2.95
  -8  -6  -4   36.07    2.46
   8   6   4   38.75    2.80
  -9  -6  -4    3.92    1.07
  -9  -6  -4    2.78    1.01
  -9  -6  -4    6.34    1.44
   9   6   4    3.89    1.24
   4  -7  -4   13.53    2.05
   4  -7  -4   11.82    1.70
  -4   7   4   10.89    1.92
  -4   7   4   13.40    1.99
   3  -7  -4    1.02    0.69
   3  -7  -4    3.51    0.90
  -3   7   4    3.33    1.06
  -3   7   4    0.97    0.76
   2  -7  -4  129.42    4.72
   2  -7  -4  129.17    4.37
  -2   7   4  141.41    5.16
  -2   7   4  124.45    4.73
   1  -7  -4    0.73    0.56
   1  -7  -4   -0.30    0.24
  -1   7   4   -0.05    0.35
  -1   7   4    1.22    0.63
  -1   7   4   -0.37    0.36
   0  -7  -4   20.37    1.52
   0   7   4   19.67    1.69
   0   7   4   20.70    2.07
   0   7   4   24.73    1.84
   0   7   4   17.68    1.75
  -1  -7  -4    0.86    0.44
   1   7   4    0.20    0.37
   1   7   4    0.58    0.47
   1   7   4    0.66    0.51
   1   7   4    0.32    0.41
   2   7   4   42.47    2.31
   2   7   4   44.87    2.49
   2   7   4   42.58    2.23
   3   7   4   10.86    1.25
   3   7   4   14.26    1.75
   3   7   4   12.73    1.52
  -4  -7  -4   55.03    2.89
   4   7   4   52.45    2.83
   4   7   4   57.29    2.45
   4   7   4   56.19    2.44
  -5  -7  -4    3.40    0.98
  -5  -7  -4    3.91    0.77
   5   7   4    4.38    0.87
   5   7   4    5.43    1.17
   5   7   4    3.24    0.74
  -6  -7  -4    1.68    0.79
  -6  -7  -4    2.48    0.65
   6   7   4    2.34    0.80
   6   7   4    1.70    0.64
  -7  -7  -4   44.79    2.96
  -7  -7  -4   46.73    2.35
  -7  -7  -4   47.03    2.50
   7   7   4   47.82    3.04
   7   7   4   46.62    2.61
  -8  -7  -4   -0.05    0.49
  -8  -7  -4    0.33    0.45
  -8  -7  -4   -0.05    0.55
   8   7   4   -0.04    0.60
  -9  -7  -4    0.94    1.04
  -9  -7  -4    0.08    0.56
  -9  -7  -4   -0.56    0.60
   9   7   4    0.16    0.71
   3  -8  -4    0.16    0.63
   3  -8  -4    1.07    0.63
  -3   8   4    1.41    0.90
  -3   8   4   -0.31    0.67
   2  -8  -4    1.43    0.71
   2  -8  -4    1.90    0.87
  -2   8   4    1.87    0.91
  -2   8   4    1.96    0.91
   1  -8  -4   20.70    1.59
   1  -8  -4   20.05    2.16
  -1   8   4   19.94    2.27
  -1   8   4   21.40    2.39
   0  -8  -4    0.31    0.31
   0  -8  -4    0.37    0.52
   0   8   4   -0.14    0.48
   0   8   4    0.16    0.45
   0   8   4    0.31    0.58
  -1  -8  -4   48.70    2.32
   1   8   4   51.65    2.87
   1   8   4   51.46    2.84
   1   8   4   50.37    2.73
   2   8   4   21.44    1.70
   2   8   4   18.40    1.93
   2   8   4   24.46    1.98
   3   8   4    0.79    0.50
   3   8   4    1.27    0.61
   3   8   4    0.36    0.50
  -4  -8  -4  186.40    6.03
   4   8   4  192.69    5.45
   4   8   4  187.59    5.89
   4   8   4  184.62    6.12
  -5  -8  -4   27.60    2.18
   5   8   4   25.50    1.75
   5   8   4   27.16    2.21
   5   8   4   27.88    1.77
  -6  -8  -4   -0.12    0.60
  -6  -8  -4    0.75    0.43
   6   8   4    1.08    0.70
   6   8   4    1.86    0.70
  -7  -8  -4    4.80    0.93
  -7  -8  -4    5.42    1.37
   7   8   4    7.19    1.58
  -8  -8  -4    4.13    0.96
  -8  -8  -4    3.14    1.08
   8   8   4    3.54    1.33
  -9  -8  -4    0.41    0.86
  -9  -8  -4    0.88    0.57
   9   8   4    2.13    1.10
   2  -9  -4    2.33    0.84
   2  -9  -4    2.77    1.03
  -2   9   4    1.64    0.91
  -2   9   4    0.82    0.81
   1  -9  -4   12.86    1.65
   1  -9  -4   16.68    2.09
  -1   9   4   14.32    2.17
  -1   9   4   14.93    2.09
   0  -9  -4    6.46    1.11
   0  -9  -4    4.88    1.07
   0   9   4    4.42    1.15
   0   9   4   10.13    2.01
   0   9   4    4.63    1.18
   1   9   4   10.03    1.67
   1   9   4    6.55    1.35
   1   9   4   10.71    1.68
   2   9   4    1.17    0.77
   2   9   4    0.65    0.58
   2   9   4    0.10    0.47
   3   9   4   21.80    2.42
   3   9   4   22.54    2.39
   3   9   4   16.86    1.92
   4   9   4    3.40    1.04
   4   9   4    5.96    1.15
   4   9   4    3.52    1.02
  -5  -9  -4   34.26    2.63
   5   9   4   36.52    2.74
   5   9   4   33.71    2.14
  -6  -9  -4    0.98    0.76
   6   9   4    0.31    0.57
  -7  -9  -4    2.05    1.11
   7   9   4    0.90    0.78
  -8  -9  -4    0.95    0.83
  -8  -9  -4    1.53    0.60
   8   9   4    1.68    0.93
   0 -10  -4    8.99    1.34
   0  10   4    9.87    1.77
   0  10   4    4.47    1.22
   1  10   4   15.41    2.15
   1  10   4   18.46    2.33
   1  10   4   19.49    2.36
   2  10   4    6.21    1.34
   2  10   4    9.63    1.74
   2  10   4    7.57    1.44
   3  10   4    3.74    0.98
   3  10   4    3.94    1.10
   3  10   4    4.38    1.23
   4  10   4    0.14    0.43
   4  10   4    0.53    0.63
   4  10   4    0.65    0.68
   5  10   4   20.03    2.44
   5  10   4   24.40    2.69
   5  10   4   29.68    3.21
  -6 -10  -4    0.58    0.68
   6  10   4   -0.91    0.69
  -7 -10  -4    0.74    0.77
   7  10   4    0.05    0.63
   2  11   4   32.60    3.30
   2  11   4   24.84    2.78
   2  11   4   27.53    2.86
   3  11   4    0.30    0.69
   3  11   4    1.67    0.88
   3  11   4    2.42    0.96
   4  11   4   13.84    2.18
   4  11   4   11.33    1.81
   5  11   4    0.23    0.86
   5  11   4   -0.08    0.60
   6  11   4    0.70    0.73
   6  11   4    1.49    1.05
   5  10  -5   -0.25    0.66
  -5 -10   5    0.75    0.83
   3  10  -5    1.80    0.86
   2  10  -5    1.85    0.84
  -2 -10   5    1.09    0.81
   1  10  -5    6.43    1.42
  -1 -10   5    6.33    1.50
  -1 -10   5    4.95    1.34
   6   9  -5    0.84    0.94
  -6  -9   5    0.65    0.71
   5   9  -5    2.71    1.09
  -5  -9   5    2.32    0.95
   4   9  -5    1.42    0.71
   4   9  -5    2.80    0.92
  -4  -9   5    1.81    0.78
   3   9  -5    2.23    0.86
   2   9  -5   15.23    1.96
  -2  -9   5   19.02    2.15
  -2  -9   5   19.26    2.12
   1   9  -5   10.26    1.57
  -1  -9   5   11.14    1.74
  -1  -9   5    6.44    1.27
   0   9  -5    0.01    0.65
   0  -9   5    0.94    0.74
   0  -9   5    0.32    0.65
  -1   9  -5    2.51    1.06
   1  -9   5    2.17    1.01
   1  -9   5    1.79    0.57
   1  -9   5    2.20    1.04
  -7  -8   5   -0.12    0.70
  -7  -8   5    0.82    0.79
  -6  -8   5    1.41    0.80
  -6  -8   5    1.53    0.82
  -5  -8   5   13.79    1.98
  -5  -8   5   15.40    1.81
   4   8  -5    0.94    0.73
   4   8  -5    0.48    0.50
   4   8  -5    2.55    0.80
   4   8  -5    1.75    0.28
  -4  -8   5    1.48    0.79
  -4  -8   5    1.52    0.66
   3   8  -5   38.15    2.50
   3   8  -5   34.71    2.20
   3   8  -5   39.98    2.43
  -3  -8   5   36.19    2.42
  -3  -8   5   36.28    2.46
  -3  -8   5   36.92    2.22
   2   8  -5    0.41    0.53
  -2  -8   5   -0.26    0.54
  -2  -8   5    0.32    0.54
   1   8  -5    0.16    0.42
  -1  -8   5    0.55    0.55
  -1  -8   5    0.54    0.57
   0   8  -5    0.13    0.51
   0  -8   5   -0.01    0.43
   0  -8   5   -0.30    0.45
  -1   8  -5    0.86    0.63
   1  -8   5    0.70    0.74
   1  -8   5    0.99    0.77
   1  -8   5    1.01    0.36
  -2   8  -5   -0.12    0.51
   2  -8   5   -0.46    0.53
   2  -8   5   -0.82    0.55
   2  -8   5    0.31    0.38
  -3   8  -5    0.15    0.69
   3  -8   5    0.07    0.79
   3  -8   5    0.58    0.50
   3  -8   5    1.22    0.85
  -7  -7   5    0.66    0.72
  -7  -7   5   -0.34    0.57
  -6  -7   5    3.25    1.08
  -6  -7   5    6.42    1.27
   5   7  -5   13.01    0.94
  -5  -7   5   14.40    1.94
  -5  -7   5   13.02    1.59
   4   7  -5    0.08    0.43
   4   7  -5    0.09    0.17
  -4  -7   5   -0.37    0.31
  -4  -7   5   -0.08    0.43
   3   7  -5   22.39    1.58
   3   7  -5   22.98    1.69
  -3  -7   5   24.31    1.63
  -3  -7   5   19.82    1.52
  -3  -7   5   23.79    1.88
  -3  -7   5   28.26    1.74
   2   7  -5   28.14    1.85
   2   7  -5   34.61    1.87
   2   7  -5   29.98    1.98
  -2  -7   5   33.79    1.83
  -2  -7   5   34.08    2.09
  -2  -7   5   34.88    2.06
  -2  -7   5   32.65    1.95
   1   7  -5    0.42    0.39
   1   7  -5    0.04    0.41
  -1  -7   5    0.77    0.43
  -1  -7   5   -0.62    0.34
  -1  -7   5    0.08    0.48
   0   7  -5    0.45    0.44
   0  -7   5    1.82    0.74
   0  -7   5    0.67    0.57
  -1   7  -5    2.06    0.80
   1  -7   5    4.02    1.10
   1  -7   5    1.04    0.67
  -2   7  -5   12.34    1.73
   2  -7   5   13.67    1.07
   2  -7   5   12.76    1.84
   2  -7   5   10.18    1.68
  -3   7  -5    3.96    1.16
   3  -7   5    6.96    1.49
   3  -7   5    5.80    1.36
   3  -7   5    6.74    1.09
  -4   7  -5    4.88    1.24
   4  -7   5    9.13    1.75
   4  -7   5    5.35    1.07
   4  -7   5    6.71    1.59
  -8  -6   5    0.18    0.73
  -8  -6   5   -0.70    0.71
  -7  -6   5    0.59    0.67
  -7  -6   5    0.48    0.67
  -6  -6   5    3.02    1.06
  -6  -6   5    3.19    0.34
  -6  -6   5    1.99    0.79
   5   6  -5   18.63    1.18
  -5  -6   5   17.50    2.09
  -5  -6   5   20.72    1.95
   4   6  -5    5.55    0.61
  -4  -6   5    8.10    1.35
  -4  -6   5    6.40    1.04
  -4  -6   5    5.00    0.90
   3   6  -5   72.27    1.67
   3   6  -5   76.09    2.88
   3   6  -5   69.07    2.82
  -3  -6   5   77.13    3.29
  -3  -6   5   77.15    2.89
  -3  -6   5   74.52    2.71
   2   6  -5    2.59    0.63
   2   6  -5    0.79    0.43
  -2  -6   5    0.62    0.42
  -2  -6   5    2.25    0.61
  -2  -6   5    2.78    0.71
   1   6  -5    3.33    0.38
   1   6  -5    4.27    0.82
   1   6  -5    3.67    0.75
  -1  -6   5    3.58    0.81
  -1  -6   5    5.02    1.19
  -1  -6   5    2.66    0.63
  -1  -6   5    4.03    0.90
   0   6  -5    5.34    0.86
   0   6  -5    4.81    0.91
   0  -6   5    3.10    0.83
   0  -6   5    5.43    1.04
   0  -6   5    4.52    0.80
  -1   6  -5   25.78    1.82
  -1   6  -5   23.65    1.51
   1  -6   5   26.04    1.95
   1  -6   5   27.31    2.00
  -2   6  -5    6.36    1.05
  -2   6  -5    5.53    1.07
   2  -6   5    4.88    1.10
   2  -6   5    5.13    1.12
   2  -6   5    5.47    0.75
  -3   6  -5    0.21    0.62
   3  -6   5    0.78    0.45
   3  -6   5    2.35    0.90
   3  -6   5    1.08    0.65
  -4   6  -5    2.86    1.08
   4  -6   5    1.47    0.81
   4  -6   5    4.84    1.18
   4  -6   5    5.95    1.05
  -5   6  -5    4.70    1.34
   5  -6   5    6.14    1.51
   5  -6   5    4.55    1.28
   5  -6   5    6.55    1.21
  -8  -5   5    4.71    1.30
  -8  -5   5   12.13    1.80
  -7  -5   5    6.21    1.37
  -7  -5   5    3.67    1.16
   6   5  -5    1.71    0.64
  -6  -5   5    1.28    0.67
  -6  -5   5    1.56    0.79
   5   5  -5    4.70    0.78
  -5  -5   5    4.21    0.91
  -5  -5   5    3.79    1.05
   4   5  -5    0.81    0.30
  -4  -5   5    0.96    0.48
  -4  -5   5    0.60    0.44
  -4  -5   5    1.45    0.61
   3   5  -5    6.38    0.51
  -3  -5   5    7.57    1.22
  -3  -5   5    6.32    0.82
  -3  -5   5    7.94    1.07
   2   5  -5    0.73    0.17
   2   5  -5    0.03    0.28
   2   5  -5    0.83    0.37
  -2  -5   5    0.81    0.45
  -2  -5   5    0.89    0.45
  -2  -5   5    0.07    0.38
  -2  -5   5    1.27    0.46
   1   5  -5    3.30    0.68
   1   5  -5    3.16    0.33
   1   5  -5    2.94    0.62
  -1  -5   5    1.95    0.57
  -1  -5   5    2.95    0.66
  -1  -5   5    4.18    0.79
  -1  -5   5    3.69    0.73
   0   5  -5    8.16    0.99
   0   5  -5    8.89    1.09
   0  -5   5    8.17    1.13
   0  -5   5    9.87    1.08
   0  -5   5   10.18    1.32
  -1   5  -5    5.10    0.89
  -1   5  -5    6.41    0.92
   1  -5   5    7.22    1.14
   1  -5   5    5.19    1.07
  -2   5  -5    1.39    0.56
  -2   5  -5    0.27    0.41
   2  -5   5    0.52    0.45
   2  -5   5    0.49    0.28
   2  -5   5    0.54    0.47
  -3   5  -5    6.16    1.17
  -3   5  -5    5.14    0.92
   3  -5   5    4.71    1.05
   3  -5   5    3.67    0.92
   3  -5   5    5.01    0.81
  -4   5  -5   33.60    2.08
  -4   5  -5   35.92    2.47
   4  -5   5   32.74    2.37
   4  -5   5   33.87    2.37
   4  -5   5   33.69    1.93
  -5   5  -5    2.75    1.31
  -5   5  -5    5.47    1.25
   5  -5   5    7.14    1.26
   5  -5   5    5.45    1.23
   5  -5   5    5.92    1.35
  -6   5  -5   -0.01    0.66
   6  -5   5   -1.29    0.51
   6  -5   5    0.01    0.79
   6  -5   5   -0.22    0.44
  -8  -4   5    3.49    1.10
  -8  -4   5    4.41    1.30
  -7  -4   5   15.48    1.86
  -7  -4   5   14.77    2.05
   6   4  -5    0.06    0.34
  -6  -4   5    0.23    0.52
  -6  -4   5    0.15    0.47
   5   4  -5    2.87    0.62
  -5  -4   5    3.21    0.90
  -5  -4   5    2.21    0.69
  -5  -4   5    2.06    0.70
   4   4  -5    1.69    0.43
  -4  -4   5    1.42    0.62
  -4  -4   5    0.69    0.43
  -4  -4   5    0.55    0.46
   3   4  -5    0.93    0.30
  -3  -4   5    0.62    0.33
  -3  -4   5    0.51    0.39
  -3  -4   5    0.85    0.44
  -3  -4   5    0.60    0.39
  -3  -4   5    1.83    0.56
   2   4  -5   58.88    1.50
   2   4  -5   56.88    2.24
   2   4  -5   58.34    2.06
  -2  -4   5   55.24    2.20
  -2  -4   5   56.16    2.29
  -2  -4   5   58.49    2.11
  -2  -4   5   60.19    2.30
  -2  -4   5   56.18    2.40
   1   4  -5    7.38    0.45
   1   4  -5    8.49    0.88
   1   4  -5    8.41    1.00
  -1  -4   5    7.03    0.89
  -1  -4   5    8.61    1.01
  -1  -4   5    6.84    0.89
  -1  -4   5    7.16    0.93
   0   4  -5   23.69    1.31
   0   4  -5   27.28    1.05
   0   4  -5   26.10    1.43
   0  -4   5   25.09    1.50
   0  -4   5   25.66    1.39
   0  -4   5   25.63    1.55
   0  -4   5   28.99    1.34
  -1   4  -5   13.97    1.10
  -1   4  -5   15.26    1.12
   1  -4   5   17.36    1.37
   1  -4   5   13.30    1.41
  -2   4  -5    7.97    1.05
  -2   4  -5    9.66    1.15
   2  -4   5   11.32    1.44
   2  -4   5    8.89    0.66
   2  -4   5    8.14    1.14
  -3   4  -5   17.71    1.74
  -3   4  -5   17.94    1.37
   3  -4   5   19.50    1.92
   3  -4   5   15.72    1.72
   3  -4   5   15.98    1.11
  -4   4  -5   60.48    3.00
  -4   4  -5   56.75    2.64
   4  -4   5   57.09    2.46
   4  -4   5   61.62    2.99
   4  -4   5   55.99    2.92
  -5   4  -5    1.12    0.68
  -5   4  -5    0.77    0.58
   5  -4   5    1.89    0.69
   5  -4   5    1.83    0.84
   5  -4   5    2.34    0.81
  -6   4  -5    1.19    0.93
  -6   4  -5    0.89    0.71
   6  -4   5    1.04    0.76
   6  -4   5    1.51    0.72
   6  -4   5    1.56    0.84
  -8  -3   5    1.57    0.82
  -8  -3   5    0.36    0.80
  -7  -3   5    0.08    0.61
  -7  -3   5   -0.27    0.64
   6   3  -5   15.00    1.71
  -6  -3   5   13.16    1.56
  -6  -3   5   14.52    1.88
   5   3  -5    1.10    0.48
  -5  -3   5    2.10    0.62
  -5  -3   5    1.01    0.63
  -5  -3   5    1.04    0.53
   4   3  -5    7.73    0.91
  -4  -3   5    8.17    1.08
  -4  -3   5    7.99    1.30
  -4  -3   5    8.30    1.16
   3   3  -5    4.66    0.61
  -3  -3   5    4.38    0.78
  -3  -3   5    3.66    0.80
  -3  -3   5    6.07    0.93
   2   3  -5  104.44    2.44
  -2  -3   5  102.20    2.04
  -2  -3   5   98.63    3.11
  -2  -3   5  102.84    3.02
  -2  -3   5  100.32    3.05
  -2  -3   5   99.41    3.32
  -2  -3   5   99.20    2.72
   1   3  -5    9.23    0.98
   1   3  -5    8.49    0.64
  -1  -3   5    8.38    0.98
  -1  -3   5    8.59    0.91
  -1  -3   5    7.87    0.95
  -1  -3   5   10.47    1.04
   0   3  -5   30.04    1.27
   0   3  -5   28.49    1.43
   0   3  -5   30.18    1.08
   0  -3   5   28.45    1.49
   0  -3   5   31.63    1.56
   0  -3   5   29.83    1.30
   0  -3   5   28.74    1.40
  -1   3  -5   41.59    1.76
  -1   3  -5   36.05    1.57
  -1   3  -5   39.92    1.50
   1  -3   5   40.12    1.71
   1  -3   5   38.29    1.84
   1  -3   5   39.96    1.88
  -2   3  -5    0.88    0.39
  -2   3  -5    0.09    0.25
   2  -3   5   -0.30    0.23
   2  -3   5    0.35    0.38
   2  -3   5   -0.15    0.15
  -3   3  -5   17.23    1.36
  -3   3  -5   18.46    1.30
   3  -3   5   16.99    1.06
   3  -3   5   17.77    1.40
   3  -3   5   14.67    1.54
  -4   3  -5   25.82    1.81
  -4   3  -5   27.05    1.73
   4  -3   5   23.59    1.48
   4  -3   5   25.07    1.78
   4  -3   5   26.39    1.85
  -5   3  -5   26.91    2.03
  -5   3  -5   27.61    1.88
   5  -3   5   28.51    1.98
   5  -3   5   25.07    1.70
   5  -3   5   22.98    1.84
  -6   3  -5    0.82    0.56
   6  -3   5    0.91    0.55
   6  -3   5    0.72    0.67
   6  -3   5   -0.27    0.43
  -7   3  -5    1.88    0.88
   7  -3   5    1.86    0.84
   7  -3   5    2.19    1.00
  -8  -2   5    0.67    0.69
  -8  -2   5   -0.13    0.66
  -7  -2   5   -0.15    0.67
  -7  -2   5    0.37    0.55
   6   2  -5   -0.08    0.28
   6   2  -5    0.08    0.51
  -6  -2   5    0.05    0.49
  -6  -2   5   -0.10    0.43
  -6  -2   5   -0.01    0.60
   5   2  -5    0.97    0.47
   5   2  -5    0.36    0.27
  -5  -2   5    1.09    0.60
  -5  -2   5    0.90    0.53
  -5  -2   5    0.92    0.51
   4   2  -5   11.80    1.20
  -4  -2   5   13.33    1.54
  -4  -2   5   15.63    1.29
  -4  -2   5   14.79    1.42
   3   2  -5   19.03    1.14
  -3  -2   5   20.96    1.53
  -3  -2   5   21.41    1.37
  -3  -2   5   19.02    1.25
   2   2  -5    8.20    0.65
  -2  -2   5    6.65    0.85
  -2  -2   5    8.81    0.95
  -2  -2   5    8.44    0.98
  -2  -2   5    8.32    1.02
   1   2  -5   20.33    0.90
   1   2  -5   22.48    1.19
   1   2  -5   21.79    0.84
  -1  -2   5   20.31    1.24
  -1  -2   5   22.51    1.28
  -1  -2   5   20.94    1.14
  -1  -2   5   20.16    0.82
  -1  -2   5   21.04    1.22
  -1  -2   5   20.73    1.11
   0   2  -5  247.33    5.31
   0   2  -5  246.69    4.79
   0   2  -5  245.65    4.65
   0  -2   5  243.78    5.34
   0  -2   5  255.23    5.16
   0  -2   5  247.26    5.28
   0  -2   5  242.69    5.38
  -1   2  -5   28.84    1.21
  -1   2  -5   29.38    1.20
  -1   2  -5   27.09    1.33
   1  -2   5   27.89    1.44
   1  -2   5   30.40    1.49
   1  -2   5   26.61    1.32
  -2   2  -5    1.39    0.42
  -2   2  -5    1.19    0.42
  -2   2  -5    1.24    0.37
   2  -2   5    1.37    0.32
   2  -2   5    1.58    0.49
   2  -2   5    0.75    0.30
   2  -2   5    1.73    0.51
  -3   2  -5    0.45    0.30
  -3   2  -5    0.72    0.37
   3  -2   5    0.97    0.44
   3  -2   5    0.42    0.27
   3  -2   5    0.69    0.39
  -4   2  -5    5.88    1.01
  -4   2  -5    5.51    0.91
   4  -2   5    6.68    1.01
   4  -2   5    6.10    0.97
   4  -2   5    6.93    0.94
  -5   2  -5    1.48    0.61
   5  -2   5    1.34    0.57
   5  -2   5    1.88    0.67
   5  -2   5    2.26    0.59
  -6   2  -5    0.15    0.47
   6  -2   5    0.52    0.55
   6  -2   5    0.55    0.51
   6  -2   5    0.48    0.51
  -7   2  -5   -0.30    0.50
   7  -2   5   -0.51    0.56
  -8  -1   5    2.61    1.12
  -8  -1   5    2.57    1.01
  -7  -1   5    0.41    0.62
  -7  -1   5   -0.02    0.65
   6   1  -5    0.22    0.33
   6   1  -5   -0.26    0.40
  -6  -1   5    0.37    0.52
  -6  -1   5    0.45    0.54
   5   1  -5   -0.07    0.37
   5   1  -5   -0.15    0.20
  -5  -1   5   -0.16    0.38
  -5  -1   5   -0.05    0.34
  -5  -1   5   -0.03    0.43
   4   1  -5    6.74    0.69
   4   1  -5    6.99    1.01
  -4  -1   5    9.98    1.18
  -4  -1   5    5.53    0.91
  -4  -1   5    8.15    1.29
   3   1  -5    1.64    0.31
   3   1  -5    1.27    0.44
  -3  -1   5    1.88    0.55
  -3  -1   5    1.63    0.54
  -3  -1   5    1.23    0.48
   2   1  -5   28.94    0.88
   2   1  -5   29.40    1.34
  -2  -1   5   34.04    1.62
  -2  -1   5   24.06    1.51
  -2  -1   5   27.40    1.36
   1   1  -5   20.28    0.98
  -1  -1   5   19.94    1.20
  -1  -1   5   20.73    1.08
  -1  -1   5   20.47    1.19
  -1  -1   5   20.47    0.73
  -1  -1   5   20.04    1.21
  -1  -1   5   19.45    1.13
   0   1  -5   14.74    0.47
   0   1  -5   15.77    0.94
   0  -1   5   16.20    0.97
   0  -1   5   13.56    0.93
   0  -1   5   14.78    0.90
   0  -1   5   14.50    0.98
  -1   1  -5    0.29    0.24
  -1   1  -5    0.00    0.15
  -1   1  -5    0.14    0.14
   1  -1   5    0.49    0.31
   1  -1   5    0.65    0.33
   1  -1   5    0.15    0.13
   1  -1   5   -0.22    0.18
  -2   1  -5  122.04    3.25
  -2   1  -5  118.01    3.17
  -2   1  -5  121.70    3.04
   2  -1   5  126.41    3.33
   2  -1   5  120.91    3.36
   2  -1   5  121.66    3.12
   2  -1   5  117.93    2.85
  -3   1  -5    0.85    0.38
  -3   1  -5    0.94    0.38
   3  -1   5    0.23    0.21
   3  -1   5    0.75    0.38
   3  -1   5    0.83    0.38
   3  -1   5    0.58    0.32
  -4   1  -5    7.63    1.04
   4  -1   5    7.17    0.98
   4  -1   5    7.45    0.93
   4  -1   5    8.34    1.08
  -5   1  -5   10.05    1.26
  -5   1  -5    9.40    0.99
   5  -1   5   11.98    1.36
   5  -1   5    8.50    1.13
   5  -1   5    9.15    1.11
  -6   1  -5    0.74    0.42
  -6   1  -5    0.09    0.37
   6  -1   5    0.82    0.52
   6  -1   5    0.59    0.50
   6  -1   5    0.57    0.59
  -7   1  -5   12.73    1.67
   7  -1   5   12.20    1.61
  -8   1  -5    0.30    0.67
  -7   0   5   11.06    1.68
  -7   0   5   10.57    1.83
   6   0  -5   42.34    2.09
  -6   0   5   43.13    2.79
  -6   0   5   45.56    2.47
   5   0  -5    0.11    0.41
   5   0  -5    0.84    0.37
  -5   0   5    2.05    0.62
  -5   0   5    0.34    0.47
  -5   0   5    2.07    0.76
   4   0  -5   30.95    1.86
   4   0  -5   33.45    1.47
  -4   0   5   31.54    1.91
  -4   0   5   31.67    2.05
  -4   0   5   32.75    1.75
   3   0  -5   13.47    1.35
   3   0  -5   12.40    0.79
  -3   0   5   12.43    1.19
  -3   0   5   12.10    1.29
  -3   0   5   12.05    1.40
   2   0  -5    3.67    0.44
   2   0  -5    3.70    0.60
  -2   0   5    2.77    0.54
  -2   0   5    2.93    0.63
  -2   0   5    3.89    0.71
   1   0  -5   73.45    2.21
   1   0  -5   71.38    1.72
  -1   0   5   77.19    2.50
  -1   0   5   73.06    2.40
  -1   0   5   70.32    2.12
  -1   0   5   73.18    2.52
   0   0  -5   32.90    0.96
   0   0  -5   32.52    1.30
   0   0  -5   31.94    1.30
   0   0   5   33.01    1.37
   0   0   5   31.28    1.09
   0   0   5   32.57    1.41
   0   0   5   34.39    1.31
   0   0   5   32.29    1.43
   0   0   5   32.68    1.45
  -1   0  -5    0.69    0.28
  -1   0  -5    1.18    0.34
  -1   0  -5    1.06    0.22
   1   0   5    0.91    0.35
   1   0   5    0.77    0.31
   1   0   5    0.72    0.26
   1   0   5    0.69    0.28
   1   0   5    1.08    0.39
   1   0   5    0.86    0.30
  -2   0  -5   13.49    0.91
  -2   0  -5   14.43    0.91
  -2   0  -5   13.71    0.71
   2   0   5   12.96    0.94
   2   0   5   13.69    0.88
   2   0   5   14.87    0.85
   2   0   5   13.61    0.91
  -3   0  -5    3.06    0.63
  -3   0  -5    2.75    0.46
  -3   0  -5    3.70    0.65
   3   0   5    2.43    0.31
   3   0   5    3.26    0.64
   3   0   5    4.20    0.67
   3   0   5    2.22    0.46
   3   0   5    1.98    0.49
  -4   0  -5   45.60    2.05
  -4   0  -5   47.16    1.77
   4   0   5   51.02    1.99
   4   0   5   50.25    2.00
   4   0   5   47.69    1.45
   4   0   5   47.77    2.01
  -5   0  -5    0.31    0.41
  -5   0  -5    1.25    0.47
   5   0   5    1.14    0.48
   5   0   5    1.21    0.43
   5   0   5    1.26    0.33
   5   0   5    0.82    0.44
  -6   0  -5   13.65    1.29
  -6   0  -5   12.07    1.49
   6   0   5   12.34    1.44
   6   0   5    8.87    1.20
   6   0   5   10.29    0.77
  -7   0  -5    9.81    1.46
   7   0   5    9.23    1.05
  -8   0  -5    1.71    0.83
  -7   1   5    1.31    0.78
  -6   1   5    1.59    0.82
  -6   1   5    4.18    0.98
   5  -1  -5   20.79    1.29
  -5   1   5   20.13    1.84
  -5   1   5   19.00    2.03
   4  -1  -5    7.97    0.88
   4  -1  -5   10.02    1.30
  -4   1   5    9.21    1.41
  -4   1   5    6.68    1.07
  -4   1   5    8.82    1.06
   3  -1  -5    5.36    0.87
   3  -1  -5    4.47    0.59
  -3   1   5    5.40    0.83
  -3   1   5    4.62    0.89
  -3   1   5    4.01    0.80
  -3   1   5    4.56    0.72
  -3   1   5    6.38    0.78
   2  -1  -5    9.41    0.66
  -2   1   5    9.32    0.87
  -2   1   5   10.81    1.15
  -2   1   5    8.54    0.87
  -2   1   5    9.61    0.92
  -2   1   5    9.89    1.19
   1  -1  -5   31.16    1.12
  -1   1   5   30.77    1.60
  -1   1   5   31.00    1.25
  -1   1   5   29.83    1.45
  -1   1   5   29.82    1.34
  -1   1   5   29.94    1.09
   0  -1  -5  246.26    4.90
   0  -1  -5  247.03    4.65
   0   1   5  249.03    4.37
   0   1   5  249.44    4.89
   0   1   5  253.01    5.24
   0   1   5  247.33    4.47
   0   1   5  239.82    5.23
   0   1   5  256.08    5.56
  -1  -1  -5   46.84    1.34
  -1  -1  -5   47.69    1.55
  -1  -1  -5   47.23    1.64
  -1  -1  -5   47.80    1.72
   1   1   5   47.89    1.66
   1   1   5   45.70    1.61
   1   1   5   47.20    1.52
   1   1   5   46.59    1.76
   1   1   5   49.20    1.35
   1   1   5   47.69    1.75
  -2  -1  -5   92.90    2.21
  -2  -1  -5   87.05    2.45
  -2  -1  -5   96.82    2.70
  -2  -1  -5   81.30    2.37
   2   1   5   90.81    2.62
   2   1   5   90.33    2.07
   2   1   5   93.54    2.44
   2   1   5   93.31    2.62
   2   1   5   91.83    2.42
   2   1   5   89.17    2.48
   2   1   5   92.25    2.42
  -3  -1  -5   39.40    1.39
  -3  -1  -5   41.01    1.56
  -3  -1  -5   41.71    1.67
   3   1   5   42.38    1.53
   3   1   5   40.54    1.76
   3   1   5   41.62    1.53
   3   1   5   41.05    1.32
   3   1   5   41.79    1.73
   3   1   5   38.69    1.55
  -4  -1  -5    1.25    0.36
  -4  -1  -5    0.94    0.34
  -4  -1  -5    0.69    0.37
   4   1   5    0.85    0.28
   4   1   5    1.15    0.37
   4   1   5    0.67    0.37
   4   1   5    1.07    0.46
   4   1   5    1.31    0.48
   4   1   5    0.70    0.33
  -5  -1  -5   59.76    2.47
  -5  -1  -5   53.25    1.96
   5   1   5   57.88    2.29
   5   1   5   57.47    2.12
   5   1   5   54.92    1.86
   5   1   5   54.16    2.17
  -6  -1  -5    8.99    1.26
  -6  -1  -5    7.83    0.88
   6   1   5   10.81    0.96
  -7  -1  -5    1.97    0.79
  -7  -1  -5    3.69    0.72
   7   1   5    2.67    0.56
  -8  -1  -5    0.64    0.60
  -9  -1  -5    3.37    1.04
   7  -2  -5   23.25    2.60
  -6   2   5    1.57    0.74
  -6   2   5    2.48    0.99
   5  -2  -5    5.95    0.85
  -5   2   5    7.19    1.09
  -5   2   5    8.32    1.44
   4  -2  -5   14.41    1.01
  -4   2   5   14.86    1.41
  -4   2   5   16.76    1.85
  -4   2   5   17.89    1.73
  -4   2   5   13.12    1.61
   3  -2  -5   18.94    1.47
   3  -2  -5   18.48    1.06
  -3   2   5   16.75    1.65
  -3   2   5   16.21    1.26
  -3   2   5   19.25    1.22
  -3   2   5   21.66    1.61
  -3   2   5   19.27    1.23
   2  -2  -5   27.77    1.33
   2  -2  -5   23.74    1.13
   2  -2  -5   27.01    1.58
  -2   2   5   27.26    1.69
  -2   2   5   27.06    1.40
  -2   2   5   26.03    1.24
  -2   2   5   27.23    1.40
  -2   2   5   27.60    1.61
   1  -2  -5   17.80    0.86
   1  -2  -5   16.74    1.12
  -1   2   5   17.81    1.17
  -1   2   5   18.04    0.97
  -1   2   5   15.40    1.22
  -1   2   5   16.78    1.06
  -1   2   5   17.83    0.90
   0  -2  -5    1.18    0.25
   0  -2  -5    1.43    0.32
   0  -2  -5    1.08    0.37
   0   2   5    2.31    0.38
   0   2   5    1.18    0.27
   0   2   5    1.86    0.48
   0   2   5    1.47    0.43
   0   2   5    1.37    0.46
  -1  -2  -5  177.83    4.12
  -1  -2  -5  176.85    3.55
  -1  -2  -5  177.31    3.60
  -1  -2  -5  163.83    4.18
   1   2   5  175.86    3.59
   1   2   5  181.43    3.94
   1   2   5  175.00    4.11
   1   2   5  176.13    4.27
  -2  -2  -5  127.04    2.99
  -2  -2  -5  133.09    3.00
  -2  -2  -5  129.68    3.46
  -2  -2  -5  121.62    2.76
   2   2   5  128.62    2.96
   2   2   5  124.91    3.33
   2   2   5  125.23    2.79
   2   2   5  128.79    3.41
   2   2   5  129.00    2.93
   2   2   5  126.32    3.33
  -3  -2  -5    1.82    0.51
  -3  -2  -5    1.68    0.31
  -3  -2  -5    2.06    0.38
  -3  -2  -5    0.85    0.33
   3   2   5    0.71    0.32
   3   2   5    2.03    0.36
   3   2   5    1.30    0.43
   3   2   5    2.10    0.38
   3   2   5    2.04    0.53
  -4  -2  -5    3.90    0.66
  -4  -2  -5    3.87    0.54
  -4  -2  -5    5.33    0.62
  -4  -2  -5    5.47    0.78
   4   2   5    3.74    0.69
   4   2   5    4.44    0.55
   4   2   5    5.20    0.76
   4   2   5    4.70    0.58
   4   2   5    3.84    0.63
   4   2   5    4.63    0.71
  -5  -2  -5   10.39    0.78
  -5  -2  -5   10.43    1.19
  -5  -2  -5    9.60    1.05
   5   2   5   10.00    1.08
   5   2   5   10.66    1.17
   5   2   5   10.19    0.94
   5   2   5    9.82    1.22
  -6  -2  -5   35.99    2.06
  -6  -2  -5   33.54    1.55
   6   2   5   34.29    1.57
  -7  -2  -5   15.65    1.77
  -7  -2  -5   15.19    1.10
   7   2   5   13.70    1.25
  -8  -2  -5    3.91    1.09
  -9  -2  -5   -0.01    0.56
   6  -3  -5   10.84    1.81
  -5   3   5    1.88    0.79
  -5   3   5    0.82    0.68
   4  -3  -5    1.37    0.42
  -4   3   5    1.00    0.57
  -4   3   5    1.37    0.65
   3  -3  -5   19.33    1.09
   3  -3  -5   21.87    1.41
  -3   3   5   21.05    1.64
  -3   3   5   21.73    1.67
  -3   3   5   20.40    1.24
  -3   3   5   20.32    1.52
  -3   3   5   21.61    1.40
   2  -3  -5    0.00    0.23
   2  -3  -5   -0.05    0.33
   2  -3  -5    0.22    0.20
  -2   3   5    0.24    0.28
  -2   3   5    0.03    0.27
  -2   3   5   -0.50    0.25
  -2   3   5   -0.12    0.30
  -2   3   5    0.26    0.36
   1  -3  -5   60.69    1.79
   1  -3  -5   60.95    2.34
   1  -3  -5   60.26    2.09
  -1   3   5   62.66    2.42
  -1   3   5   58.49    2.53
  -1   3   5   61.10    1.73
  -1   3   5   56.66    2.22
   0  -3  -5   10.90    0.79
   0  -3  -5    9.08    0.55
   0  -3  -5   10.59    0.62
   0  -3  -5   11.37    0.93
   0   3   5   10.14    1.01
   0   3   5   10.17    1.02
   0   3   5   10.94    1.20
   0   3   5    9.18    0.74
   0   3   5   10.78    0.58
  -1  -3  -5   36.21    1.65
  -1  -3  -5   38.74    1.20
  -1  -3  -5   40.14    1.68
  -1  -3  -5   38.63    1.17
   1   3   5   38.74    1.65
   1   3   5   41.93    1.55
   1   3   5   39.10    1.48
   1   3   5   39.11    1.81
  -2  -3  -5   80.16    2.66
  -2  -3  -5   83.36    2.17
  -2  -3  -5   80.49    2.08
  -2  -3  -5   81.36    2.57
  -2  -3  -5   80.33    1.97
   2   3   5   80.84    2.73
   2   3   5   85.22    2.16
   2   3   5   82.61    2.17
   2   3   5   83.07    2.62
  -3  -3  -5  129.50    3.12
  -3  -3  -5  125.03    2.73
  -3  -3  -5  130.54    3.64
  -3  -3  -5  122.08    2.71
   3   3   5  127.04    2.94
   3   3   5  122.51    3.36
   3   3   5  122.61    3.61
   3   3   5  120.70    3.45
   3   3   5  121.35    2.69
  -4  -3  -5    0.35    0.20
  -4  -3  -5    0.05    0.30
  -4  -3  -5    0.19    0.30
  -4  -3  -5    0.38    0.20
  -4  -3  -5    0.12    0.28
   4   3   5    0.41    0.31
   4   3   5    0.51    0.33
   4   3   5    0.66    0.26
   4   3   5    0.23    0.22
   4   3   5    0.99    0.47
  -5  -3  -5   63.64    2.47
  -5  -3  -5   65.43    2.59
  -5  -3  -5   67.71    1.88
   5   3   5   65.62    2.10
   5   3   5   48.51    2.35
   5   3   5   63.34    2.26
   5   3   5   65.77    2.70
  -6  -3  -5    0.90    0.53
  -6  -3  -5   -0.21    0.24
  -6  -3  -5    0.10    0.39
   6   3   5    0.16    0.26
   6   3   5   -0.05    0.32
   6   3   5    0.76    0.47
  -7  -3  -5    2.77    0.86
   7   3   5    3.29    0.65
  -8  -3  -5   13.90    1.77
  -9  -3  -5   -0.41    0.57
   6  -4  -5   -0.34    0.61
   5  -4  -5   14.90    1.91
  -5   4   5   13.01    1.88
   4  -4  -5   -0.01    0.23
  -4   4   5   -0.35    0.39
  -4   4   5   -0.14    0.51
   3  -4  -5    3.47    0.77
   3  -4  -5    2.07    0.44
  -3   4   5    1.69    0.59
  -3   4   5    1.62    0.63
  -3   4   5    1.50    0.64
   2  -4  -5   61.30    1.87
   2  -4  -5   66.50    2.51
  -2   4   5   65.00    2.94
  -2   4   5   66.20    2.66
  -2   4   5   63.28    2.82
  -2   4   5   62.69    2.66
   1  -4  -5    1.29    0.42
   1  -4  -5    1.16    0.29
  -1   4   5    1.22    0.51
  -1   4   5    1.71    0.52
  -1   4   5    1.41    0.54
  -1   4   5    1.53    0.58
   0  -4  -5  208.49    4.43
   0  -4  -5  241.03    5.58
   0  -4  -5  234.51    5.28
   0   4   5  244.38    5.49
   0   4   5  247.34    6.04
   0   4   5  249.88    5.72
   0   4   5  249.69    5.60
  -1  -4  -5   14.80    0.62
  -1  -4  -5   14.58    0.63
  -1  -4  -5   14.38    1.05
   1   4   5   17.03    1.28
   1   4   5   15.18    0.83
   1   4   5   14.52    1.08
   1   4   5   15.72    1.12
   1   4   5   15.02    0.98
   1   4   5   14.22    0.99
  -2  -4  -5    1.79    0.46
  -2  -4  -5    2.41    0.27
  -2  -4  -5    2.65    0.28
  -2  -4  -5    2.77    0.38
  -2  -4  -5    2.51    0.43
   2   4   5    3.13    0.48
   2   4   5    2.13    0.57
   2   4   5    2.36    0.55
   2   4   5    2.91    0.44
  -3  -4  -5    5.47    0.83
  -3  -4  -5    5.67    0.44
  -3  -4  -5    5.31    0.79
  -3  -4  -5    5.27    0.33
  -3  -4  -5    5.45    0.34
  -3  -4  -5    6.46    0.67
   3   4   5    5.48    0.80
   3   4   5    5.72    0.45
   3   4   5    6.37    0.64
   3   4   5    4.27    0.78
   3   4   5    6.46    0.88
  -4  -4  -5   12.24    1.34
  -4  -4  -5   11.63    1.27
  -4  -4  -5   11.85    1.07
  -4  -4  -5   11.71    0.51
   4   4   5   13.70    1.20
   4   4   5   13.76    1.27
   4   4   5   12.71    1.33
   4   4   5   12.19    0.81
  -5  -4  -5    3.95    0.35
  -5  -4  -5    2.34    0.69
  -5  -4  -5    5.52    0.96
  -5  -4  -5    4.08    0.74
   5   4   5    3.01    0.71
   5   4   5    3.69    0.70
   5   4   5    3.68    0.81
   5   4   5    4.19    0.59
  -6  -4  -5    0.30    0.38
  -6  -4  -5   -0.11    0.33
  -6  -4  -5    0.06    0.41
   6   4   5    0.30    0.42
   6   4   5    0.14    0.28
   6   4   5    0.01    0.23
  -7  -4  -5    0.75    0.55
  -7  -4  -5    1.47    0.64
   7   4   5    0.18    0.39
   7   4   5    1.05    0.43
   7   4   5    1.54    0.79
  -8  -4  -5    5.23    1.13
  -9  -4  -5   16.17    2.17
   5  -5  -5   -0.24    0.67
  -5   5   5    0.33    0.71
   4  -5  -5    1.17    0.77
  -4   5   5    4.46    1.07
   3  -5  -5   10.16    1.34
  -3   5   5    6.63    1.20
  -3   5   5   12.44    1.54
  -3   5   5    9.39    1.46
   2  -5  -5    1.15    0.45
  -2   5   5   -0.31    0.34
  -2   5   5   -0.54    0.44
  -2   5   5    0.39    0.39
  -2   5   5   -0.03    0.41
   1  -5  -5   14.52    1.12
  -1   5   5   14.78    1.68
  -1   5   5   15.20    1.58
  -1   5   5   14.28    1.51
  -1   5   5   17.67    1.69
   0   5   5   62.81    2.53
   0   5   5   61.84    2.79
   0   5   5   63.67    2.49
   0   5   5   64.39    2.61
   1   5   5    7.98    0.75
   1   5   5    9.21    1.25
   1   5   5    9.75    0.99
   1   5   5   12.03    1.23
   1   5   5    8.20    1.04
   2   5   5    0.63    0.26
   2   5   5    0.37    0.28
   2   5   5    0.72    0.40
   2   5   5   -0.07    0.28
   2   5   5   -0.04    0.31
  -3  -5  -5    2.67    0.44
  -3  -5  -5    1.95    0.55
   3   5   5    2.35    0.42
   3   5   5    0.94    0.48
   3   5   5    1.61    0.53
   3   5   5    1.58    0.50
   3   5   5    2.49    0.38
  -4  -5  -5   38.46    2.14
  -4  -5  -5   36.42    1.91
  -4  -5  -5   38.17    1.56
   4   5   5   37.19    1.83
   4   5   5   37.05    1.90
   4   5   5   40.84    1.51
   4   5   5   36.61    2.12
  -5  -5  -5   13.11    1.41
  -5  -5  -5   10.01    1.33
  -5  -5  -5   12.40    1.20
   5   5   5   12.47    1.40
   5   5   5   13.24    1.31
   5   5   5   12.35    1.54
   5   5   5   11.12    0.99
  -6  -5  -5   19.30    1.70
  -6  -5  -5   19.39    1.70
  -6  -5  -5   19.22    1.57
   6   5   5   19.87    1.58
   6   5   5   17.75    1.16
   6   5   5   19.78    1.74
  -7  -5  -5    0.55    0.54
  -7  -5  -5    0.19    0.51
  -7  -5  -5    0.11    0.47
   7   5   5   -0.07    0.42
   7   5   5    0.26    0.33
   7   5   5   -0.14    0.42
  -8  -5  -5    4.37    1.00
  -8  -5  -5    8.45    1.45
  -8  -5  -5    2.67    0.92
   8   5   5    4.48    1.12
  -9  -5  -5    4.31    1.17
  -9  -5  -5    4.81    1.24
   4  -6  -5   14.79    2.00
  -4   6   5   16.09    2.00
  -4   6   5   14.95    2.03
   3  -6  -5    5.68    1.02
   3  -6  -5    4.95    1.16
  -3   6   5    3.89    1.07
  -3   6   5    7.56    1.38
   2  -6  -5   10.68    1.33
   2  -6  -5   12.52    1.62
  -2   6   5   11.00    1.54
  -2   6   5   12.56    1.58
  -2   6   5   17.30    1.95
   1  -6  -5   -0.04    0.28
   1  -6  -5   -0.02    0.37
  -1   6   5    0.45    0.55
  -1   6   5    0.79    0.46
  -1   6   5    0.51    0.50
  -1   6   5    0.18    0.42
   0  -6  -5    3.43    0.69
   0   6   5    5.85    1.02
   0   6   5    4.53    0.92
   0   6   5    3.41    0.81
   0   6   5    5.09    1.07
   1   6   5   24.99    1.48
   1   6   5   21.85    1.55
   1   6   5   22.28    1.15
   1   6   5   23.77    1.75
   1   6   5   24.01    1.62
  -2  -6  -5    0.09    0.24
   2   6   5    0.36    0.25
   2   6   5    0.29    0.28
   2   6   5    0.20    0.38
   2   6   5    0.22    0.32
   2   6   5   -0.07    0.34
   3   6   5    2.82    0.78
   3   6   5    3.39    0.73
   3   6   5    4.10    0.56
  -4  -6  -5    0.81    0.51
  -4  -6  -5   -0.11    0.27
   4   6   5   -0.05    0.32
   4   6   5    0.03    0.21
   4   6   5    0.12    0.49
   4   6   5   -0.07    0.29
  -5  -6  -5   15.69    1.33
  -5  -6  -5   16.40    1.11
  -5  -6  -5   19.17    1.99
   5   6   5   15.38    0.99
   5   6   5   17.28    1.97
   5   6   5   15.18    1.24
   5   6   5   13.48    1.45
  -6  -6  -5   -0.32    0.43
  -6  -6  -5    0.39    0.41
  -6  -6  -5    0.17    0.39
   6   6   5    0.13    0.43
   6   6   5    0.30    0.33
   6   6   5   -0.17    0.31
  -7  -6  -5   52.22    2.51
  -7  -6  -5   52.59    3.06
  -7  -6  -5   55.69    2.83
   7   6   5   55.31    3.17
   7   6   5   53.36    2.23
   7   6   5   51.01    2.81
  -8  -6  -5    4.21    1.14
  -8  -6  -5    1.63    0.74
  -8  -6  -5    4.27    1.05
   8   6   5    3.35    0.95
   8   6   5    4.64    1.27
  -9  -6  -5    2.37    1.00
  -9  -6  -5    1.44    0.81
   4  -7  -5    1.17    0.82
  -4   7   5    1.70    0.94
  -4   7   5    1.50    0.94
   3  -7  -5    8.83    1.59
   3  -7  -5   10.83    1.53
  -3   7   5   12.10    1.82
  -3   7   5    7.61    1.52
   2  -7  -5   23.36    2.26
   2  -7  -5   22.95    1.78
  -2   7   5   25.64    2.07
  -2   7   5   30.83    2.46
  -2   7   5   23.28    2.41
   1  -7  -5    0.57    0.41
   1  -7  -5    0.46    0.55
  -1   7   5    0.12    0.44
  -1   7   5   -0.18    0.50
  -1   7   5    0.40    0.56
   0  -7  -5    7.40    1.05
   0  -7  -5    6.40    1.03
   0   7   5    5.42    1.03
   0   7   5    6.52    1.20
   0   7   5    6.08    1.21
   0   7   5    3.68    0.91
  -1  -7  -5   47.67    2.13
   1   7   5   48.82    2.51
   1   7   5   49.09    2.55
   1   7   5   48.00    2.67
   1   7   5   47.79    1.82
   1   7   5   46.99    2.25
   2   7   5   11.46    1.46
   2   7   5    8.40    0.86
   2   7   5   10.05    1.47
   2   7   5   12.84    1.54
   3   7   5    8.09    1.30
   3   7   5    6.97    1.10
   3   7   5    5.43    1.08
   4   7   5   54.76    2.48
   4   7   5   53.48    2.92
  -5  -7  -5    1.70    0.59
  -5  -7  -5    2.29    0.84
   5   7   5    1.79    0.68
   5   7   5    0.85    0.66
   5   7   5    2.25    0.69
  -6  -7  -5    3.27    0.78
  -6  -7  -5    4.74    1.12
   6   7   5    5.57    1.07
   6   7   5    7.19    1.47
  -7  -7  -5   12.61    1.84
  -7  -7  -5   13.80    1.69
   7   7   5   15.12    1.87
   7   7   5   13.93    2.03
  -8  -7  -5    6.98    1.29
  -8  -7  -5    9.48    1.70
  -8  -7  -5    9.00    1.44
   8   7   5    8.65    1.63
  -9  -7  -5    0.60    0.60
  -9  -7  -5    1.10    0.87
  -9  -7  -5    1.34    0.81
   9   7   5    0.00    0.63
   3  -8  -5    4.22    1.07
   3  -8  -5    2.08    1.05
  -3   8   5    6.48    1.49
  -3   8   5    3.73    1.22
   2  -8  -5    0.07    0.42
   2  -8  -5    0.66    0.65
  -2   8   5    0.15    0.58
  -2   8   5   -0.44    0.45
   1  -8  -5   11.10    1.61
   1  -8  -5   11.33    1.45
  -1   8   5   12.77    1.92
  -1   8   5   10.58    1.74
  -1   8   5   10.95    1.75
   0  -8  -5   23.45    1.76
   0  -8  -5   22.99    1.64
   0   8   5   31.76    2.29
   0   8   5   29.29    2.24
   0   8   5   26.10    2.03
  -1  -8  -5   34.95    1.98
   1   8   5   36.17    2.37
   1   8   5   31.08    2.18
   1   8   5   33.76    2.37
   2   8   5   10.32    1.41
   2   8   5   11.47    1.64
   2   8   5   12.17    1.57
   3   8   5   59.72    2.89
   3   8   5   60.83    3.24
   3   8   5   66.02    3.15
   4   8   5    1.43    0.70
   4   8   5    1.56    0.76
   4   8   5    2.59    0.75
  -5  -8  -5    0.27    0.56
   5   8   5    0.30    0.44
   5   8   5   -0.07    0.38
   5   8   5    0.05    0.49
  -6  -8  -5   22.53    1.68
  -6  -8  -5   23.06    2.53
   6   8   5   21.92    1.76
   6   8   5   23.44    2.55
  -7  -8  -5    0.40    0.45
  -7  -8  -5    0.76    0.72
   7   8   5    0.70    0.64
  -8  -8  -5   -0.08    0.45
  -8  -8  -5   -0.10    0.80
   8   8   5    0.11    0.75
  -9  -8  -5    0.40    0.83
  -9  -8  -5    0.46    0.58
   9   8   5    0.52    0.89
   2  -9  -5   -0.33    0.67
   2  -9  -5    1.00    0.65
  -2   9   5    0.25    0.65
  -2   9   5    0.31    0.74
   1  -9  -5    9.62    1.54
   1  -9  -5    9.02    1.38
  -1   9   5    7.22    1.54
  -1   9   5    8.89    1.75
   0  -9  -5    2.24    0.74
   0  -9  -5    1.61    0.73
   0   9   5    1.24    0.79
   0   9   5    2.86    1.09
   0   9   5    2.80    1.01
   1   9   5    0.62    0.64
   1   9   5    0.08    0.53
   1   9   5   -0.39    0.43
   2   9   5   16.54    1.99
   2   9   5   16.09    2.15
   2   9   5   17.13    2.06
   3   9   5   62.00    3.45
   3   9   5   67.17    3.22
   3   9   5   64.77    3.35
   4   9   5    4.50    1.26
   4   9   5    4.80    1.09
   4   9   5    2.93    0.92
   5   9   5   16.19    1.83
   5   9   5   16.04    2.23
  -6  -9  -5   11.72    1.91
   6   9   5   10.94    2.00
  -7  -9  -5    0.84    0.75
   7   9   5    2.04    1.05
  -8  -9  -5    7.48    1.23
  -8  -9  -5    6.94    1.61
   8   9   5   11.29    2.09
   0 -10  -5    2.65    0.78
   0  10   5    2.38    1.04
   0  10   5    2.89    1.01
   1  10   5    1.62    0.84
   1  10   5    0.76    0.79
   1  10   5    1.00    0.78
   2  10   5   14.85    2.07
   2  10   5   17.18    2.26
   2  10   5   16.21    2.22
   3  10   5    0.27    0.72
   3  10   5    0.17    0.45
   3  10   5    1.11    0.84
   4  10   5    0.36    0.52
   4  10   5   -0.44    0.55
   4  10   5   -0.41    0.49
   5  10   5   11.97    1.85
   5  10   5   12.98    2.08
   5  10   5   11.81    1.68
   6  10   5    3.41    1.25
  -7 -10  -5    2.89    1.12
   7  10   5    0.82    0.82
   2  11   5    8.40    1.59
   2  11   5   12.27    2.05
   2  11   5   13.12    2.05
   3  11   5   -0.66    0.56
   3  11   5    0.15    0.55
   3  11   5    1.88    0.96
   4  11   5   18.71    2.27
   4  11   5   17.71    2.33
   4  11   5   18.42    2.55
   5  11   5    5.34    1.21
   5  11   5   12.43    2.04
   5  11   5    9.29    1.88
   6  11   5    2.00    1.02
   6  11   5    0.10    0.80
  -2 -10   6   17.82    2.28
   6   9  -6    1.92    0.96
  -6  -9   6    1.31    0.96
  -6  -9   6    0.37    0.71
   5   9  -6    4.82    1.34
  -5  -9   6    7.46    1.58
   4   9  -6    0.24    0.63
  -4  -9   6    0.98    0.67
  -2  -9   6   13.54    1.89
  -2  -9   6   12.73    1.83
  -1  -9   6   -0.33    0.74
  -1  -9   6    1.18    0.70
   0   9  -6    3.83    1.71
   0  -9   6    2.19    0.91
   0  -9   6    1.54    1.00
  -1   9  -6   26.05    2.65
   1  -9   6   29.39    3.05
   1  -9   6   29.50    3.08
   1  -9   6   24.93    1.44
  -7  -8   6    0.03    0.70
  -7  -8   6    0.70    0.82
  -6  -8   6   -0.12    0.70
  -6  -8   6    0.13    0.54
   5   8  -6    0.75    0.63
  -5  -8   6   -0.04    0.52
  -5  -8   6    0.09    0.54
   4   8  -6    0.88    0.59
  -4  -8   6    0.22    0.56
  -4  -8   6    0.06    0.54
   3   8  -6   18.23    2.14
   3   8  -6   16.95    1.81
  -3  -8   6   16.43    1.77
  -3  -8   6   16.01    1.92
  -3  -8   6   18.85    2.34
  -2  -8   6   21.22    2.11
  -2  -8   6   21.71    2.12
   1   8  -6   12.64    1.67
  -1  -8   6   14.58    1.83
  -1  -8   6   14.77    1.86
   0   8  -6   12.96    1.75
   0  -8   6   17.92    2.20
   0  -8   6   18.66    2.19
  -1   8  -6    8.01    1.43
   1  -8   6    6.01    1.37
   1  -8   6    5.75    1.42
  -2   8  -6    0.33    0.57
   2  -8   6    0.38    0.79
   2  -8   6    1.48    0.53
   2  -8   6    1.04    0.82
  -7  -7   6   27.62    2.62
  -7  -7   6   21.86    2.85
  -6  -7   6   -0.63    0.54
  -6  -7   6   -0.50    0.46
  -5  -7   6   33.66    2.22
  -5  -7   6   33.36    2.60
   4   7  -6   16.34    0.83
   4   7  -6   18.73    1.87
  -4  -7   6   15.81    1.75
  -4  -7   6   20.21    2.28
   3   7  -6    2.12    0.69
  -3  -7   6    2.25    0.70
  -3  -7   6    1.68    0.69
  -3  -7   6    1.81    0.71
   2   7  -6   18.00    1.76
   2   7  -6   17.97    1.76
  -2  -7   6   15.28    1.66
  -2  -7   6   21.05    2.02
  -2  -7   6   21.95    1.91
   1   7  -6   35.22    2.01
   1   7  -6   39.88    2.23
  -1  -7   6   37.91    2.02
  -1  -7   6   40.32    2.36
  -1  -7   6   39.70    2.38
   0   7  -6    0.12    0.38
   0   7  -6    0.68    0.45
   0  -7   6    0.51    0.56
   0  -7   6    0.57    0.57
   0  -7   6    0.45    0.47
  -1   7  -6    2.37    0.79
   1  -7   6    2.57    0.94
   1  -7   6    1.67    0.80
  -2   7  -6   10.82    1.68
   2  -7   6   13.19    1.95
   2  -7   6   12.51    1.85
   2  -7   6   11.49    1.16
  -3   7  -6    0.48    0.62
   3  -7   6    0.63    0.66
   3  -7   6    1.05    0.56
   3  -7   6   -0.27    0.60
  -4   7  -6    4.84    1.33
   4  -7   6    4.90    1.26
   4  -7   6    4.33    1.30
   4  -7   6    4.15    0.95
  -7  -6   6   15.60    2.02
  -7  -6   6   12.09    2.08
  -6  -6   6    9.58    1.73
  -6  -6   6    7.83    1.30
   5   6  -6   40.11    1.81
  -5  -6   6   43.84    2.87
  -5  -6   6   45.40    2.48
   4   6  -6   26.80    1.19
  -4  -6   6   27.77    1.85
  -4  -6   6   28.76    2.21
  -4  -6   6   29.98    1.86
   3   6  -6    5.16    0.98
   3   6  -6    4.33    0.44
  -3  -6   6    4.45    0.98
  -3  -6   6    4.97    0.98
  -3  -6   6    4.49    0.93
   2   6  -6    0.26    0.42
   2   6  -6    0.50    0.16
   2   6  -6    0.61    0.16
   2   6  -6    0.33    0.31
  -2  -6   6    0.07    0.29
  -2  -6   6   -0.14    0.37
  -2  -6   6    0.72    0.43
  -2  -6   6    0.10    0.36
   1   6  -6    8.54    1.13
   1   6  -6    7.30    1.11
  -1  -6   6    9.80    1.33
  -1  -6   6    9.51    1.18
  -1  -6   6    7.83    1.19
   0   6  -6    8.64    1.14
   0   6  -6    8.88    1.21
   0  -6   6    9.77    1.24
   0  -6   6   11.06    1.47
   0  -6   6   10.12    1.44
  -1   6  -6   39.30    2.10
  -1   6  -6   38.30    2.22
   1  -6   6   41.31    2.47
   1  -6   6   37.45    2.35
  -2   6  -6    0.40    0.50
  -2   6  -6   -0.28    0.37
   2  -6   6   -0.81    0.35
   2  -6   6    0.11    0.51
   2  -6   6   -0.01    0.25
  -3   6  -6    2.81    0.76
  -3   6  -6    2.96    0.87
   3  -6   6    3.06    0.71
   3  -6   6    2.61    0.94
   3  -6   6    3.59    1.01
  -4   6  -6   59.16    3.40
   4  -6   6   59.42    3.45
   4  -6   6   56.06    2.71
   4  -6   6   60.45    3.49
  -8  -5   6   -0.16    0.64
  -8  -5   6   -0.86    0.59
  -7  -5   6    5.24    1.22
  -7  -5   6    9.23    1.81
  -6  -5   6   10.54    1.71
  -6  -5   6   11.02    1.56
   5   5  -6   13.24    1.08
  -5  -5   6   14.26    1.94
  -5  -5   6   12.38    1.54
   4   5  -6   86.77    2.55
  -4  -5   6   89.35    3.82
  -4  -5   6   85.33    3.26
  -4  -5   6   84.28    3.28
   3   5  -6    0.17    0.17
  -3  -5   6    0.65    0.50
  -3  -5   6    0.54    0.42
  -3  -5   6    0.38    0.42
   2   5  -6   28.97    0.99
   2   5  -6   30.99    1.77
   2   5  -6   28.70    1.54
  -2  -5   6   27.27    1.74
  -2  -5   6   29.97    1.68
  -2  -5   6   28.23    1.66
  -2  -5   6   27.50    1.79
   1   5  -6   -0.10    0.34
   1   5  -6    0.09    0.16
   1   5  -6    0.07    0.26
  -1  -5   6   -0.16    0.31
  -1  -5   6   -0.15    0.32
  -1  -5   6   -0.09    0.29
  -1  -5   6   -0.13    0.32
   0   5  -6    3.88    0.76
   0   5  -6    3.81    0.74
   0  -5   6    4.29    0.90
   0  -5   6    3.14    0.80
   0  -5   6    5.09    0.88
  -1   5  -6  165.96    4.63
  -1   5  -6  160.36    4.52
   1  -5   6  156.79    4.86
   1  -5   6  148.97    4.85
  -2   5  -6   22.02    1.93
  -2   5  -6   18.34    1.51
   2  -5   6   20.46    1.08
   2  -5   6   18.99    2.00
   2  -5   6   19.16    1.95
  -3   5  -6    4.85    0.95
  -3   5  -6    4.55    1.01
   3  -5   6    4.82    1.09
   3  -5   6    3.65    0.69
   3  -5   6    3.21    0.93
  -4   5  -6    0.77    0.53
  -4   5  -6    1.27    0.59
   4  -5   6    1.84    0.87
   4  -5   6    2.11    0.69
   4  -5   6    1.42    0.76
  -5   5  -6    9.70    1.50
  -5   5  -6   11.45    1.84
   5  -5   6    9.54    1.63
   5  -5   6   11.03    1.54
   5  -5   6    8.85    1.72
  -8  -4   6    0.42    0.77
  -8  -4   6    1.23    0.98
  -7  -4   6    3.74    1.06
  -7  -4   6    4.13    1.23
  -6  -4   6   -0.32    0.47
  -6  -4   6    0.60    0.56
   5   4  -6    2.28    0.64
  -5  -4   6    1.64    0.63
  -5  -4   6    2.32    0.91
  -5  -4   6    1.08    0.64
   4   4  -6    6.65    0.83
  -4  -4   6    8.16    1.33
  -4  -4   6    7.39    1.13
  -4  -4   6    7.38    1.11
   3   4  -6   10.87    0.77
  -3  -4   6    9.16    1.28
  -3  -4   6   10.26    1.19
  -3  -4   6    9.20    1.16
  -3  -4   6    8.64    1.11
   2   4  -6   71.65    2.69
   2   4  -6   74.57    1.96
   2   4  -6   78.14    2.41
  -2  -4   6   75.67    2.69
  -2  -4   6   68.26    2.68
  -2  -4   6   70.50    2.88
  -2  -4   6   70.77    2.50
  -2  -4   6   78.68    2.90
   1   4  -6   17.76    0.82
   1   4  -6   17.86    1.27
   1   4  -6   17.19    1.03
  -1  -4   6   16.72    1.24
  -1  -4   6   15.91    1.19
  -1  -4   6   17.30    1.28
  -1  -4   6   17.36    1.26
   0   4  -6  115.38    3.47
   0   4  -6  112.96    2.76
   0   4  -6  110.69    3.17
   0  -4   6  113.84    3.41
   0  -4   6  113.43    3.16
   0  -4   6  115.23    3.63
   0  -4   6  115.67    3.66
  -1   4  -6    0.46    0.40
  -1   4  -6    0.75    0.37
   1  -4   6    1.03    0.43
   1  -4   6    0.60    0.43
   1  -4   6    1.00    0.47
  -2   4  -6  184.12    4.95
  -2   4  -6  183.94    4.93
   2  -4   6  181.13    4.04
   2  -4   6  181.56    5.27
   2  -4   6  181.87    5.30
  -3   4  -6    0.27    0.35
  -3   4  -6    0.24    0.42
   3  -4   6   -0.05    0.40
   3  -4   6    0.97    0.40
   3  -4   6    0.60    0.44
  -4   4  -6    4.79    1.02
  -4   4  -6    2.57    0.77
   4  -4   6    3.48    0.94
   4  -4   6    2.88    0.69
   4  -4   6    4.29    1.06
  -5   4  -6    3.58    1.02
  -5   4  -6    3.49    0.98
   5  -4   6    3.97    0.98
   5  -4   6    4.27    1.08
   5  -4   6    4.34    0.95
  -6   4  -6    0.91    0.68
   6  -4   6    0.74    0.64
   6  -4   6    0.92    0.58
   6  -4   6    0.98    0.70
  -8  -3   6    0.50    0.60
  -8  -3   6    0.75    0.84
  -7  -3   6    1.32    0.72
  -7  -3   6    1.26    0.84
   6   3  -6    0.28    0.46
  -6  -3   6   -0.28    0.43
  -6  -3   6   -0.16    0.53
   5   3  -6    5.96    0.98
  -5  -3   6    5.62    1.06
  -5  -3   6    3.70    0.99
  -5  -3   6    6.25    1.13
   4   3  -6    2.86    0.61
  -4  -3   6    2.20    0.67
  -4  -3   6    1.28    0.58
  -4  -3   6    1.35    0.72
   3   3  -6    3.85    0.61
  -3  -3   6    2.12    0.65
  -3  -3   6    4.48    0.85
  -3  -3   6    3.52    0.87
   2   3  -6    1.31    0.34
  -2  -3   6    0.73    0.45
  -2  -3   6    1.83    0.58
  -2  -3   6    1.40    0.44
  -2  -3   6    1.48    0.47
  -2  -3   6    1.30    0.26
  -2  -3   6    0.66    0.41
   1   3  -6    2.84    0.63
   1   3  -6    1.91    0.35
   1   3  -6    1.60    0.33
  -1  -3   6    1.97    0.50
  -1  -3   6    2.01    0.53
  -1  -3   6    0.94    0.44
  -1  -3   6    2.66    0.67
   0   3  -6    0.46    0.23
   0   3  -6    0.89    0.28
   0   3  -6    1.09    0.41
   0  -3   6    0.79    0.35
   0  -3   6    1.07    0.46
   0  -3   6    2.45    0.61
   0  -3   6    1.46    0.53
  -1   3  -6   23.11    1.22
  -1   3  -6   22.64    1.36
   1  -3   6   23.02    0.67
   1  -3   6   22.30    1.47
   1  -3   6   22.34    1.34
   1  -3   6   20.75    1.42
  -2   3  -6    3.97    0.80
  -2   3  -6    3.18    0.61
   2  -3   6    3.66    0.80
   2  -3   6    3.71    0.52
   2  -3   6    2.67    0.66
  -3   3  -6    8.05    1.08
  -3   3  -6    9.53    1.20
   3  -3   6    9.40    1.29
   3  -3   6    8.89    0.93
   3  -3   6    6.67    1.12
  -4   3  -6   18.90    1.78
  -4   3  -6   21.31    1.65
   4  -3   6   19.74    1.35
   4  -3   6   20.55    1.68
   4  -3   6   20.81    1.66
  -5   3  -6    1.15    0.62
  -5   3  -6   -0.07    0.53
   5  -3   6    0.04    0.33
   5  -3   6    0.40    0.58
   5  -3   6    0.52    0.57
  -6   3  -6    4.23    1.04
   6  -3   6    4.58    0.96
   6  -3   6    4.72    1.08
   6  -3   6    3.75    0.99
  -7   3  -6    3.88    1.03
   7  -3   6    3.85    0.97
   7  -3   6    6.07    1.42
  -8  -2   6    1.71    0.95
  -8  -2   6    1.22    0.81
  -7  -2   6    2.05    0.87
  -7  -2   6    3.92    1.22
   6   2  -6    0.62    0.39
   6   2  -6    0.39    0.43
  -6  -2   6    0.23    0.63
  -6  -2   6    1.45    0.67
   5   2  -6    8.69    1.24
  -5  -2   6    9.16    1.49
  -5  -2   6    8.68    1.23
  -5  -2   6   10.25    1.32
   4   2  -6   58.42    2.41
  -4  -2   6   58.06    2.63
  -4  -2   6   61.31    2.59
  -4  -2   6   60.31    3.00
   3   2  -6    0.26    0.26
  -3  -2   6   -0.06    0.37
  -3  -2   6    0.47    0.43
  -3  -2   6   -0.01    0.29
   2   2  -6   15.20    0.94
  -2  -2   6   15.45    1.13
  -2  -2   6   14.29    0.86
  -2  -2   6   14.22    1.24
  -2  -2   6   14.24    0.95
  -2  -2   6   16.28    1.22
  -2  -2   6   13.88    1.35
   1   2  -6   12.01    0.77
   1   2  -6   12.83    0.97
   1   2  -6   11.32    0.57
  -1  -2   6   11.56    0.69
  -1  -2   6    9.66    1.11
  -1  -2   6   11.52    1.09
  -1  -2   6   11.22    1.16
  -1  -2   6   12.02    1.19
  -1  -2   6   13.56    0.97
   0   2  -6    0.19    0.27
   0   2  -6    0.28    0.16
   0   2  -6   -0.15    0.14
   0  -2   6    0.20    0.23
   0  -2   6    0.23    0.30
   0  -2   6    0.14    0.32
   0  -2   6    0.31    0.34
   0  -2   6   -0.26    0.22
  -1   2  -6    8.73    1.00
  -1   2  -6    6.60    0.71
  -1   2  -6    7.65    0.60
   1  -2   6    7.87    0.63
   1  -2   6    7.27    0.91
   1  -2   6    8.84    0.98
   1  -2   6    7.77    0.97
   1  -2   6    7.97    0.47
  -2   2  -6    1.61    0.51
  -2   2  -6    2.30    0.49
   2  -2   6    2.41    0.41
   2  -2   6    1.86    0.53
   2  -2   6    3.26    0.71
  -3   2  -6    4.24    0.82
  -3   2  -6    4.70    0.79
   3  -2   6    5.04    0.71
   3  -2   6    4.73    0.90
   3  -2   6    4.66    0.89
  -4   2  -6    2.36    0.65
  -4   2  -6    3.12    0.79
   4  -2   6    2.78    0.75
   4  -2   6    3.22    0.84
   4  -2   6    3.31    0.70
  -5   2  -6    3.67    0.86
   5  -2   6    4.44    0.88
   5  -2   6    4.97    0.99
   5  -2   6    2.09    0.75
  -6   2  -6    0.15    0.59
   6  -2   6   -0.01    0.47
   6  -2   6    1.23    0.63
   6  -2   6    1.18    0.62
  -7   2  -6   24.19    2.42
   7  -2   6   26.27    2.08
   7  -2   6   32.19    2.34
  -7  -1   6    4.56    1.13
  -7  -1   6    2.60    1.07
   6   1  -6    0.22    0.35
   6   1  -6   -0.16    0.48
  -6  -1   6   -0.42    0.41
  -6  -1   6   -0.03    0.53
   5   1  -6    0.27    0.41
   5   1  -6    0.23    0.27
  -5  -1   6   -0.81    0.43
  -5  -1   6   -0.40    0.42
  -5  -1   6    0.38    0.44
   4   1  -6    2.88    0.71
   4   1  -6    2.48    0.47
  -4  -1   6    3.52    0.95
  -4  -1   6    3.95    0.82
  -4  -1   6    4.26    0.89
   3   1  -6   43.43    1.44
   3   1  -6   44.47    1.94
  -3  -1   6   40.89    2.09
  -3  -1   6   41.53    1.93
  -3  -1   6   43.94    2.34
   2   1  -6    4.43    0.43
   2   1  -6    4.43    0.67
  -2  -1   6    3.54    0.75
  -2  -1   6    5.16    0.69
  -2  -1   6    3.90    0.68
  -2  -1   6    4.36    0.79
   1   1  -6   40.49    1.69
   1   1  -6   40.39    0.99
   1   1  -6   42.83    1.60
  -1  -1   6   40.85    1.86
  -1  -1   6   41.78    1.82
  -1  -1   6   39.20    1.66
  -1  -1   6   40.39    1.91
  -1  -1   6   42.94    1.28
  -1  -1   6   41.12    1.65
   0   1  -6   17.19    1.05
   0  -1   6   16.12    0.71
   0  -1   6   17.73    1.07
   0  -1   6   16.82    1.10
   0  -1   6   15.94    1.13
   0  -1   6   16.44    1.07
  -1   1  -6   12.40    1.13
  -1   1  -6   11.89    0.61
   1  -1   6   11.74    0.80
   1  -1   6   13.42    1.01
   1  -1   6   13.51    0.69
   1  -1   6   12.96    0.98
   1  -1   6   11.41    1.05
  -2   1  -6  125.62    3.51
  -2   1  -6  128.59    3.45
  -2   1  -6  126.56    3.14
   2  -1   6  124.55    3.02
   2  -1   6  126.68    3.29
   2  -1   6  127.58    3.66
   2  -1   6  126.65    3.52
  -3   1  -6   14.16    1.35
   3  -1   6   11.86    1.22
   3  -1   6   10.26    1.15
   3  -1   6   11.45    0.87
  -4   1  -6    4.16    0.83
   4  -1   6    4.09    0.71
   4  -1   6    5.45    0.94
   4  -1   6    5.55    0.95
  -5   1  -6    2.12    0.72
  -5   1  -6    1.55    0.48
   5  -1   6    1.35    0.59
   5  -1   6    1.77    0.62
   5  -1   6    2.42    0.65
  -6   1  -6    3.91    0.80
  -6   1  -6    5.04    1.04
   6  -1   6    4.01    0.87
   6  -1   6    3.52    0.86
   6  -1   6    3.82    0.93
  -7   1  -6    0.17    0.52
  -8   1  -6    0.45    0.64
  -7   0   6   25.91    2.49
  -7   0   6   28.93    3.03
  -6   0   6   47.39    3.05
  -6   0   6   46.16    2.57
   5   0  -6    1.16    0.42
   5   0  -6    0.80    0.51
  -5   0   6    1.12    0.63
  -5   0   6    0.63    0.59
   4   0  -6    3.40    0.79
   4   0  -6    2.15    0.45
  -4   0   6    3.84    0.79
  -4   0   6    2.83    0.78
  -4   0   6    2.58    0.84
   3   0  -6   31.17    1.74
   3   0  -6   29.18    1.26
  -3   0   6   29.94    1.97
  -3   0   6   30.11    1.60
  -3   0   6   30.00    1.42
  -3   0   6   28.96    1.79
   2   0  -6   20.42    1.28
   2   0  -6   19.82    0.91
  -2   0   6   17.01    1.26
  -2   0   6   21.10    1.52
  -2   0   6   18.11    1.14
  -2   0   6   20.42    1.17
   1   0  -6  113.76    2.51
   1   0  -6  110.67    3.06
  -1   0   6  114.64    3.52
  -1   0   6  111.75    3.01
  -1   0   6  110.80    3.34
  -1   0   6  111.74    3.04
   0   0  -6    1.83    0.47
   0   0  -6    1.84    0.30
   0   0  -6    2.24    0.45
   0   0   6    2.38    0.56
   0   0   6    1.55    0.46
   0   0   6    2.04    0.39
   0   0   6    1.85    0.50
   0   0   6    1.95    0.48
   0   0   6    3.40    0.56
  -1   0  -6   14.48    0.71
  -1   0  -6   13.35    0.92
  -1   0  -6   11.86    0.87
   1   0   6   13.35    0.96
   1   0   6   14.31    0.94
   1   0   6   14.56    0.81
   1   0   6   12.14    0.85
   1   0   6   13.47    0.93
   1   0   6   12.53    0.93
  -2   0  -6   25.96    1.06
  -2   0  -6   25.37    1.33
  -2   0  -6   25.54    1.33
   2   0   6   24.67    1.41
   2   0   6   26.95    1.18
   2   0   6   26.40    1.32
   2   0   6   26.77    1.20
   2   0   6   27.08    1.34
  -3   0  -6   95.61    4.26
  -3   0  -6   91.91    2.50
  -3   0  -6   95.16    2.96
   3   0   6   93.61    2.74
   3   0   6   95.07    2.47
   3   0   6   93.34    3.04
   3   0   6   95.21    2.99
   3   0   6   95.69    2.89
  -4   0  -6    1.61    0.53
  -4   0  -6    2.17    0.50
   4   0   6    1.75    0.53
   4   0   6    1.17    0.46
   4   0   6    1.04    0.50
   4   0   6    1.59    0.28
  -5   0  -6   11.90    1.35
  -5   0  -6   14.32    1.08
   5   0   6   15.23    0.79
   5   0   6   14.20    1.42
   5   0   6   14.55    1.22
   5   0   6   15.50    1.54
  -6   0  -6   26.50    1.58
  -6   0  -6   29.59    1.98
   6   0   6   26.85    1.63
   6   0   6   33.51    1.93
   6   0   6   30.34    1.86
   6   0   6   31.26    1.84
  -7   0  -6    3.76    0.98
  -8   0  -6   24.92    2.48
  -7   1   6   29.02    2.62
  -7   1   6   21.57    2.61
  -6   1   6   14.15    2.05
  -6   1   6   14.12    1.73
   5  -1  -6   10.17    1.12
  -5   1   6   11.99    1.41
  -5   1   6   11.49    1.69
   4  -1  -6   13.10    1.00
   4  -1  -6   10.54    1.39
  -4   1   6   15.79    1.49
  -4   1   6   13.47    1.75
  -4   1   6   10.72    1.39
   3  -1  -6    1.71    0.40
  -3   1   6    1.88    0.65
  -3   1   6    1.06    0.46
  -3   1   6    1.31    0.50
  -3   1   6    1.00    0.56
   2  -1  -6    0.91    0.35
   2  -1  -6    0.46    0.22
  -2   1   6    0.44    0.30
  -2   1   6    1.13    0.49
  -2   1   6    0.41    0.40
  -2   1   6    1.57    0.45
  -2   1   6    0.74    0.38
   1  -1  -6  148.18    3.30
   1  -1  -6  153.17    3.93
  -1   1   6  148.19    4.02
  -1   1   6  150.02    3.58
  -1   1   6  150.94    3.18
  -1   1   6  152.98    2.97
  -1   1   6  150.47    3.81
  -1   1   6  151.01    4.28
   0  -1  -6    4.72    0.55
   0  -1  -6    4.25    0.61
   0  -1  -6    3.74    0.61
   0   1   6    4.62    0.77
   0   1   6    4.81    0.46
   0   1   6    4.41    0.30
   0   1   6    3.33    0.61
   0   1   6    4.69    0.62
   0   1   6    5.87    0.94
  -1  -1  -6   38.27    1.60
  -1  -1  -6   36.91    1.23
  -1  -1  -6   33.19    1.54
  -1  -1  -6   38.81    1.47
   1   1   6   35.79    1.40
   1   1   6   36.03    1.62
   1   1   6   36.81    1.09
   1   1   6   33.63    1.52
   1   1   6   36.43    1.52
   1   1   6   34.84    1.60
  -2  -1  -6   31.58    1.21
  -2  -1  -6   33.46    1.44
  -2  -1  -6   34.63    1.59
   2   1   6   33.13    1.45
   2   1   6   35.80    1.59
   2   1   6   33.60    1.38
   2   1   6   31.64    1.44
   2   1   6   30.98    1.39
   2   1   6   30.48    1.51
  -3  -1  -6   20.77    1.34
  -3  -1  -6   15.15    1.06
  -3  -1  -6   16.94    0.92
   3   1   6   17.06    1.02
   3   1   6   17.16    1.16
   3   1   6   18.96    1.08
   3   1   6   17.22    1.02
   3   1   6   16.41    0.79
   3   1   6   18.24    1.22
  -4  -1  -6    4.07    0.74
  -4  -1  -6    4.99    0.66
   4   1   6    4.41    0.76
   4   1   6    5.07    0.67
   4   1   6    4.28    0.70
   4   1   6    5.81    0.85
   4   1   6    4.67    0.54
   4   1   6    4.70    0.83
  -5  -1  -6   60.58    2.16
  -5  -1  -6   59.92    2.56
   5   1   6   58.19    2.38
   5   1   6   58.84    1.92
   5   1   6   60.61    2.33
   5   1   6   62.69    2.49
  -6  -1  -6    2.00    0.51
  -6  -1  -6    4.09    0.91
   6   1   6    3.37    0.56
   6   1   6    3.01    0.72
  -7  -1  -6    0.31    0.51
   7   1   6   -0.06    0.26
  -8  -1  -6    2.53    0.94
  -6   2   6    0.29    0.74
  -5   2   6    1.08    0.61
  -5   2   6    1.39    0.77
   4  -2  -6   23.80    1.38
  -4   2   6   20.24    1.60
  -4   2   6   24.06    1.54
  -4   2   6   24.52    1.95
   3  -2  -6    3.87    0.63
   3  -2  -6    3.91    0.86
  -3   2   6    2.84    0.78
  -3   2   6    3.90    0.76
  -3   2   6    3.36    0.70
  -3   2   6    3.07    0.83
  -3   2   6    2.50    0.58
   2  -2  -6    0.18    0.32
   2  -2  -6    0.01    0.20
  -2   2   6    0.61    0.35
  -2   2   6   -0.05    0.30
  -2   2   6    0.74    0.38
  -2   2   6    0.34    0.32
  -2   2   6   -0.23    0.29
   1  -2  -6   75.21    2.10
   1  -2  -6   77.00    2.68
  -1   2   6   72.59    2.17
  -1   2   6   73.93    2.51
  -1   2   6   76.90    2.19
  -1   2   6   69.56    2.63
  -1   2   6   73.05    2.87
   0  -2  -6  599.57   10.61
   0  -2  -6  588.32   11.26
   0  -2  -6  613.59   10.54
   0   2   6  607.97   11.74
   0   2   6  599.92   10.57
   0   2   6  609.03   10.41
   0   2   6  613.22   11.29
   0   2   6  600.80   11.27
  -1  -2  -6  152.97    4.05
  -1  -2  -6  153.66    3.29
  -1  -2  -6  150.17    3.41
  -1  -2  -6  151.02    3.89
   1   2   6  149.93    4.05
   1   2   6  154.78    3.24
   1   2   6  151.60    3.38
   1   2   6  151.59    3.75
   1   2   6  147.50    3.91
  -2  -2  -6   27.97    1.11
  -2  -2  -6   28.11    1.44
  -2  -2  -6   27.67    1.50
  -2  -2  -6   28.44    1.25
   2   2   6   27.32    1.44
   2   2   6   28.18    1.24
   2   2   6   27.68    1.49
   2   2   6   28.01    1.26
   2   2   6   27.75    1.07
  -3  -2  -6    3.31    0.48
  -3  -2  -6    2.90    0.51
  -3  -2  -6    3.48    0.61
  -3  -2  -6    2.41    0.55
   3   2   6    3.29    0.60
   3   2   6    2.94    0.60
   3   2   6    2.86    0.43
   3   2   6    2.41    0.43
   3   2   6    3.25    0.67
  -4  -2  -6    4.43    0.74
  -4  -2  -6    4.68    0.83
  -4  -2  -6    4.25    0.56
   4   2   6    5.46    0.81
   4   2   6    4.70    0.64
   4   2   6    5.99    0.97
   4   2   6    6.20    0.82
   4   2   6    4.60    0.73
   4   2   6    4.64    0.58
  -5  -2  -6   41.51    1.88
  -5  -2  -6   41.90    1.65
  -5  -2  -6   38.92    2.00
   5   2   6   43.27    1.99
   5   2   6   41.09    1.89
   5   2   6   42.63    1.66
   5   2   6   43.20    1.97
   5   2   6   39.74    2.94
  -6  -2  -6    0.58    0.49
  -6  -2  -6   -0.07    0.28
   6   2   6    0.83    0.36
  -7  -2  -6    0.87    0.60
  -7  -2  -6    0.00    0.33
   7   2   6    0.17    0.34
  -8  -2  -6    0.47    0.57
  -9  -2  -6    3.50    1.08
  -5   3   6   -0.82    0.47
  -5   3   6   -0.39    0.61
   4  -3  -6    0.16    0.30
  -4   3   6    0.22    0.46
  -4   3   6   -0.07    0.46
   3  -3  -6   48.86    1.86
  -3   3   6   46.72    2.58
  -3   3   6   46.59    2.26
  -3   3   6   49.70    2.25
  -3   3   6   47.88    2.32
  -3   3   6   48.49    2.66
   2  -3  -6    0.94    0.41
   2  -3  -6    0.92    0.31
   2  -3  -6    1.02    0.51
  -2   3   6    1.25    0.42
  -2   3   6    0.88    0.51
  -2   3   6    0.92    0.53
  -2   3   6    1.38    0.47
  -2   3   6    1.54    0.56
   1  -3  -6   43.12    1.54
   1  -3  -6   45.74    1.83
   1  -3  -6   45.27    2.10
  -1   3   6   43.81    1.51
  -1   3   6   42.22    2.04
  -1   3   6   44.27    1.81
  -1   3   6   42.94    1.96
  -1   3   6   42.00    2.21
   0  -3  -6   84.42    2.14
   0  -3  -6   82.60    2.50
   0  -3  -6   81.78    2.19
   0   3   6   84.69    2.77
   0   3   6   80.54    2.40
   0   3   6   82.92    2.12
   0   3   6   83.98    3.11
   0   3   6   81.73    2.74
  -1  -3  -6   12.35    1.22
  -1  -3  -6   12.96    0.72
  -1  -3  -6   11.73    0.70
   1   3   6   14.79    1.09
   1   3   6   12.46    0.91
   1   3   6   12.63    0.70
   1   3   6   12.76    0.83
   1   3   6   11.26    1.20
  -2  -3  -6  269.24    5.36
  -2  -3  -6  272.45    5.53
  -2  -3  -6  272.00    5.22
  -2  -3  -6  275.53    6.10
  -2  -3  -6  274.99    6.24
   2   3   6  268.70    5.55
   2   3   6  270.99    6.08
   2   3   6  274.87    5.38
   2   3   6  269.45    6.31
  -3  -3  -6    6.13    0.73
  -3  -3  -6    7.05    0.58
  -3  -3  -6    6.24    0.59
  -3  -3  -6    5.77    0.88
   3   3   6    5.73    0.62
   3   3   6    5.71    0.86
   3   3   6    5.89    0.90
   3   3   6    6.91    0.69
   3   3   6    6.64    0.88
  -4  -3  -6   -0.07    0.16
  -4  -3  -6    0.26    0.28
  -4  -3  -6    0.01    0.28
   4   3   6    0.25    0.32
   4   3   6   -0.04    0.26
   4   3   6   -0.04    0.16
   4   3   6    0.02    0.27
  -5  -3  -6    1.22    0.52
  -5  -3  -6    2.64    0.74
  -5  -3  -6    1.13    0.48
  -5  -3  -6    2.30    0.44
   5   3   6    1.78    0.55
   5   3   6    1.53    0.54
   5   3   6    1.67    0.63
   5   3   6    1.39    0.41
  -6  -3  -6  124.50    4.12
  -6  -3  -6  122.48    3.13
  -6  -3  -6  121.14    3.99
   6   3   6  118.20    3.39
   6   3   6  126.65    4.04
  -7  -3  -6    1.29    0.43
  -7  -3  -6    0.96    0.55
   7   3   6    0.95    0.41
  -8  -3  -6   -0.08    0.49
  -9  -3  -6    3.01    0.98
  -5   4   6    0.45    0.70
   4  -4  -6   64.38    2.25
  -4   4   6   66.28    3.46
  -4   4   6   63.02    3.17
   3  -4  -6   13.27    0.94
  -3   4   6   15.96    1.87
  -3   4   6   14.51    1.56
  -3   4   6   14.79    1.67
   2  -4  -6   -0.15    0.25
   2  -4  -6   -0.01    0.20
  -2   4   6    0.20    0.41
  -2   4   6    0.38    0.36
  -2   4   6    0.53    0.46
  -2   4   6    0.26    0.46
   1  -4  -6    4.66    0.57
   1  -4  -6    3.23    0.65
  -1   4   6    4.53    0.85
  -1   4   6    3.57    0.83
  -1   4   6    3.85    0.87
   0  -4  -6    4.30    0.69
   0  -4  -6    3.01    0.70
   0  -4  -6    3.91    0.50
   0   4   6    3.12    0.73
   0   4   6    3.67    0.73
   0   4   6    3.62    0.79
   0   4   6    2.79    0.57
  -1  -4  -6    8.51    0.56
  -1  -4  -6    8.54    0.53
   1   4   6    8.85    1.12
   1   4   6    7.31    1.05
   1   4   6    9.34    0.97
   1   4   6    9.23    1.00
  -2  -4  -6   22.84    0.91
  -2  -4  -6   24.69    1.45
  -2  -4  -6   24.61    0.99
   2   4   6   23.79    1.58
   2   4   6   24.08    1.19
   2   4   6   24.59    1.13
   2   4   6   22.85    1.43
  -3  -4  -6   17.63    0.77
  -3  -4  -6   19.31    0.91
  -3  -4  -6   18.43    1.32
  -3  -4  -6   16.60    0.96
  -3  -4  -6   17.99    1.27
   3   4   6   16.65    1.32
   3   4   6   18.82    0.92
   3   4   6   17.93    1.25
   3   4   6   16.79    0.96
  -4  -4  -6    3.77    0.79
  -4  -4  -6    3.88    0.67
   4   4   6    2.69    0.65
   4   4   6    1.77    0.50
   4   4   6    3.69    0.55
   4   4   6    3.89    0.82
  -5  -4  -6   22.57    0.93
  -5  -4  -6   22.19    1.41
  -5  -4  -6   24.78    1.71
  -5  -4  -6   20.14    1.54
   5   4   6   23.16    1.63
   5   4   6   22.20    1.44
   5   4   6   22.49    1.23
   5   4   6   23.03    1.67
  -6  -4  -6    0.31    0.41
  -6  -4  -6   -0.11    0.43
  -6  -4  -6    0.02    0.40
   6   4   6    0.28    0.37
   6   4   6   -0.11    0.23
   6   4   6    0.50    0.48
  -7  -4  -6   45.76    2.52
  -7  -4  -6   50.02    2.86
   7   4   6   49.52    2.13
  -8  -4  -6   41.35    2.53
  -9  -4  -6    0.90    0.79
   5  -5  -6   21.43    2.53
  -5   5   6   19.18    2.38
   4  -5  -6   37.18    2.61
  -4   5   6   44.89    2.79
  -4   5   6   42.58    3.31
   3  -5  -6    2.17    0.74
  -3   5   6    1.91    0.75
  -3   5   6    1.48    0.75
  -3   5   6    1.55    0.69
   2  -5  -6   15.68    1.29
   2  -5  -6   15.48    1.49
  -2   5   6   15.87    1.73
  -2   5   6   12.69    1.71
  -2   5   6   19.34    1.88
   1  -5  -6    0.48    0.37
   1  -5  -6    1.02    0.26
  -1   5   6    1.42    0.55
  -1   5   6    0.57    0.47
  -1   5   6    0.67    0.57
  -1   5   6    0.32    0.40
   0  -5  -6    8.38    0.49
   0  -5  -6    7.56    0.95
   0   5   6    7.42    1.10
   0   5   6    8.78    1.34
   0   5   6    5.98    0.97
   0   5   6    6.28    0.94
  -1  -5  -6   12.35    0.52
   1   5   6   15.14    1.64
   1   5   6   13.15    1.29
   1   5   6   13.99    1.40
   1   5   6   12.92    1.07
  -2  -5  -6   29.12    0.72
   2   5   6   30.23    1.30
   2   5   6   30.23    1.63
   2   5   6   27.50    1.36
   2   5   6   27.71    1.86
  -3  -5  -6   34.17    1.89
  -3  -5  -6   32.19    1.28
   3   5   6   29.85    1.27
   3   5   6   33.23    1.39
   3   5   6   28.88    1.88
   3   5   6   31.51    1.78
  -4  -5  -6    9.43    0.95
  -4  -5  -6    9.51    1.22
   4   5   6    9.45    0.86
   4   5   6   10.18    1.22
   4   5   6    8.14    1.25
   4   5   6    8.45    1.09
  -5  -5  -6    6.05    1.05
  -5  -5  -6    5.99    1.01
  -5  -5  -6    5.48    0.88
   5   5   6    6.33    1.00
   5   5   6    6.11    0.78
   5   5   6    4.78    0.92
   5   5   6    3.97    0.91
  -6  -5  -6    2.45    0.76
  -6  -5  -6    2.06    0.71
  -6  -5  -6    2.82    0.76
   6   5   6    1.99    0.73
   6   5   6    1.91    0.66
   6   5   6    2.73    0.57
  -7  -5  -6    6.14    1.24
  -7  -5  -6    5.22    1.06
  -7  -5  -6    6.99    1.29
   7   5   6    2.10    0.83
   7   5   6    5.11    1.13
   7   5   6    3.97    0.72
  -8  -5  -6    9.06    1.61
  -8  -5  -6    9.64    1.46
  -9  -5  -6    9.71    1.73
  -9  -5  -6   11.89    1.73
   4  -6  -6    3.98    1.17
  -4   6   6    3.65    1.13
   3  -6  -6   31.30    2.32
   3  -6  -6   32.41    2.13
  -3   6   6   33.04    2.25
  -3   6   6   35.01    2.49
  -3   6   6   32.21    2.50
   2  -6  -6    3.23    0.76
  -2   6   6    3.78    1.09
  -2   6   6    3.11    0.87
  -2   6   6    2.74    0.86
   1  -6  -6    4.57    0.83
  -1   6   6    5.69    1.07
  -1   6   6    5.23    1.05
  -1   6   6    7.79    1.36
  -1   6   6    6.14    1.09
   0  -6  -6    2.48    0.63
   0   6   6    2.79    0.77
   0   6   6    3.24    0.83
   0   6   6    2.58    0.70
   0   6   6    3.39    0.91
   1   6   6   44.08    2.33
   1   6   6   45.63    2.51
   1   6   6   50.12    2.24
   1   6   6   47.81    2.31
   2   6   6    1.83    0.43
   2   6   6    0.90    0.47
   2   6   6    0.63    0.37
   2   6   6    1.19    0.50
   2   6   6    1.17    0.65
   3   6   6   92.03    3.31
   3   6   6   91.35    2.64
   3   6   6   95.32    3.75
  -4  -6  -6   48.80    2.39
   4   6   6   46.22    2.32
   4   6   6   42.76    2.51
   4   6   6   43.16    1.72
   4   6   6   44.14    2.21
  -5  -6  -6   -0.05    0.41
  -5  -6  -6   -0.03    0.33
   5   6   6    0.96    0.55
   5   6   6    0.57    0.45
   5   6   6    0.04    0.25
   5   6   6    0.17    0.43
  -6  -6  -6   14.01    1.64
  -6  -6  -6   14.70    1.43
  -6  -6  -6   18.71    2.11
   6   6   6   11.77    1.68
   6   6   6   15.18    1.74
   6   6   6   14.73    1.10
  -7  -6  -6    0.51    0.52
  -7  -6  -6    1.35    0.63
  -7  -6  -6    0.47    0.58
   7   6   6    0.56    0.57
   7   6   6    0.32    0.51
   7   6   6    0.45    0.36
  -8  -6  -6    0.29    0.57
  -8  -6  -6    0.36    0.54
  -8  -6  -6    0.50    0.51
   8   6   6   -0.11    0.47
  -9  -6  -6    1.35    0.83
  -9  -6  -6    0.67    0.78
   3  -7  -6    4.32    0.98
   3  -7  -6    5.24    1.34
  -3   7   6    2.39    0.95
  -3   7   6    4.02    1.24
   2  -7  -6    1.63    0.77
   2  -7  -6    1.38    0.56
  -2   7   6    0.51    0.68
  -2   7   6    2.04    0.88
  -2   7   6    0.61    0.63
   1  -7  -6    1.92    0.69
   1  -7  -6    0.79    0.50
  -1   7   6    1.07    0.73
  -1   7   6    0.80    0.59
  -1   7   6    0.52    0.62
   0  -7  -6   21.09    1.51
   0  -7  -6   20.01    1.58
   0   7   6   20.52    2.06
   0   7   6   19.63    1.63
   0   7   6   22.39    1.80
   0   7   6   21.72    2.28
  -1  -7  -6    8.69    1.12
   1   7   6    5.47    1.06
   1   7   6    6.80    1.17
   1   7   6    7.87    1.33
   1   7   6    6.62    1.02
   2   7   6   29.20    1.98
   2   7   6   28.91    1.44
   2   7   6   29.41    2.17
   2   7   6   34.08    2.06
   3   7   6  281.32    7.13
   3   7   6  291.22    6.05
   3   7   6  282.17    7.73
   3   7   6  285.16    7.24
   4   7   6    7.95    0.85
   4   7   6    4.99    1.12
   4   7   6    6.37    1.08
  -5  -7  -6   20.62    1.63
   5   7   6   19.66    1.22
   5   7   6   19.43    1.60
   5   7   6   20.15    1.58
   5   7   6   18.37    2.18
  -6  -7  -6    0.16    0.57
  -6  -7  -6    0.16    0.37
   6   7   6    0.17    0.62
   6   7   6    0.66    0.39
   6   7   6   -0.58    0.40
  -7  -7  -6    2.48    0.79
  -7  -7  -6    2.56    0.95
   7   7   6    1.64    0.86
   7   7   6    2.26    0.60
   7   7   6    1.36    0.70
  -8  -7  -6   -0.13    0.56
  -8  -7  -6   -0.09    0.50
   8   7   6   -0.11    0.51
  -9  -7  -6    3.50    1.22
  -9  -7  -6    3.80    1.10
  -9  -7  -6    0.63    0.76
   9   7   6    7.08    1.65
   2  -8  -6    6.73    1.28
   2  -8  -6    5.03    1.17
  -2   8   6    4.69    1.24
  -2   8   6    4.97    1.31
   1  -8  -6    0.65    0.62
   1  -8  -6    1.23    0.61
  -1   8   6    0.00    0.62
  -1   8   6    1.78    0.90
  -1   8   6    0.85    0.68
   0  -8  -6   17.82    1.80
   0  -8  -6   11.71    1.51
   0   8   6   17.30    2.06
   0   8   6   19.11    2.27
   0   8   6   14.28    1.81
  -1  -8  -6    1.27    0.56
   1   8   6    0.64    0.60
   1   8   6    0.99    0.69
   1   8   6    0.69    0.64
   2   8   6   13.41    1.88
   2   8   6   10.79    1.55
   2   8   6   11.03    1.56
   3   8   6    0.98    0.64
   3   8   6    0.69    0.59
   3   8   6    1.44    0.68
   4   8   6   -0.55    0.44
   4   8   6   -0.04    0.43
   4   8   6    0.43    0.53
   5   8   6    6.31    1.16
   5   8   6    7.35    1.48
  -6  -8  -6    6.52    1.18
  -6  -8  -6    6.36    1.39
   6   8   6    5.88    1.39
   6   8   6    5.82    1.20
  -7  -8  -6   13.19    1.72
  -7  -8  -6   10.96    1.87
   7   8   6   14.95    2.20
  -8  -8  -6   17.27    1.98
  -8  -8  -6   22.96    2.78
   8   8   6   22.22    2.77
   1  -9  -6    3.84    1.12
   1  -9  -6    2.64    0.84
  -1   9   6    4.65    1.33
  -1   9   6    1.33    0.82
   0  -9  -6   12.08    1.53
   0  -9  -6   20.89    2.20
   0   9   6   12.84    1.88
   0   9   6   21.05    2.66
   0   9   6   17.59    2.17
   1   9   6   -0.05    0.59
   1   9   6    0.60    0.67
   1   9   6    0.29    0.58
   2   9   6   14.24    1.85
   2   9   6   13.95    2.08
   2   9   6   14.29    1.92
   3   9   6    6.17    1.24
   3   9   6    8.25    1.43
   3   9   6    7.18    1.48
   4   9   6    6.23    1.29
   4   9   6    4.77    1.10
   4   9   6    5.59    1.38
   5   9   6   -0.16    0.44
   5   9   6   -1.01    0.40
   5   9   6    0.58    0.69
   6   9   6   11.45    2.03
  -7  -9  -6    0.15    0.63
   7   9   6    0.36    0.65
  -8  -9  -6    5.62    1.51
  -8  -9  -6    2.53    0.79
   8   9   6    2.56    1.09
   0 -10  -6    1.57    0.76
   0  10   6    2.33    1.01
   0  10   6    0.68    0.83
  -1 -10  -6    1.26    0.64
   1  10   6    1.14    0.82
   1  10   6    0.29    0.63
   1  10   6   -0.37    0.53
   2  10   6   -0.08    0.48
   2  10   6    1.04    0.74
   2  10   6    0.02    0.55
   3  10   6    2.29    0.97
   3  10   6    1.40    0.74
   3  10   6    4.05    1.34
   4  10   6    5.68    1.33
   4  10   6    4.24    1.30
   4  10   6    5.85    1.22
   5  10   6    4.48    1.34
   5  10   6    4.14    1.18
   5  10   6    5.28    1.22
   6  10   6   18.50    2.62
   6  10   6   14.26    2.11
   7  10   6   -0.04    0.65
   2  11   6    0.17    0.58
   2  11   6   -0.16    0.64
   2  11   6    3.34    1.15
   3  11   6    2.54    0.94
   3  11   6    2.65    1.04
   3  11   6    2.27    0.99
   4  11   6    4.55    1.27
   4  11   6    2.87    1.17
   4  11   6    1.77    0.89
   5  11   6    4.16    1.30
   5  11   6    3.33    1.05
   5  11   6    1.88    1.01
   6  11   6    8.73    1.66
   6  11   6    9.02    1.94
   5   9  -7   12.44    1.75
   5   9  -7   15.54    2.39
  -5  -9   7    8.26    1.70
  -5  -9   7   11.74    2.13
  -2  -9   7    3.36    1.07
  -2  -9   7    2.03    1.05
  -1  -9   7   21.20    2.44
  -1  -9   7   16.60    2.23
   0  -9   7   -0.16    0.67
   0  -9   7    0.66    0.85
  -6  -8   7    0.63    0.74
  -6  -8   7    0.91    0.83
   5   8  -7    9.98    1.66
  -5  -8   7    7.69    1.59
  -5  -8   7   11.48    1.76
   4   8  -7    7.52    1.34
  -4  -8   7    6.60    1.22
  -4  -8   7    5.90    1.30
   3   8  -7    0.80    0.58
  -3  -8   7    1.81    0.75
  -3  -8   7    0.12    0.60
   2   8  -7   37.65    2.27
  -2  -8   7   41.38    2.56
  -2  -8   7   39.51    2.52
  -2  -8   7   39.87    2.30
  -1  -8   7   -0.28    0.48
  -1  -8   7   -0.46    0.48
   0  -8   7    1.41    0.84
   0  -8   7    3.39    1.06
   1  -8   7   13.66    2.01
   1  -8   7   15.05    2.15
   2  -8   7    0.73    0.45
   2  -8   7    0.93    0.84
   2  -8   7    0.49    0.76
  -7  -7   7    1.01    0.78
  -7  -7   7    0.59    0.78
  -6  -7   7    1.73    0.88
  -6  -7   7    1.27    0.77
  -5  -7   7   32.20    2.25
  -5  -7   7   31.11    2.55
   4   7  -7   -0.17    0.37
  -4  -7   7   -0.18    0.52
  -4  -7   7   -0.07    0.54
   3   7  -7    5.47    1.06
   3   7  -7    5.25    0.38
  -3  -7   7    3.43    1.01
  -3  -7   7    5.94    1.19
  -3  -7   7    6.74    1.14
   2   7  -7    0.24    0.17
   2   7  -7    0.30    0.44
  -2  -7   7    1.13    0.62
  -2  -7   7    0.20    0.52
  -2  -7   7    0.63    0.55
   1   7  -7   20.09    1.94
  -1  -7   7   19.57    1.85
  -1  -7   7   17.68    1.95
  -1  -7   7   17.94    1.99
   0   7  -7   11.41    1.43
   0  -7   7   11.26    1.66
   0  -7   7   10.32    1.34
   0  -7   7   12.15    1.70
  -1   7  -7   23.00    2.24
   1  -7   7   20.01    2.29
   1  -7   7   22.05    2.38
   2  -7   7   17.64    1.24
   2  -7   7   16.14    2.15
   2  -7   7   16.83    2.18
  -3   7  -7    2.15    0.92
   3  -7   7    0.36    0.82
   3  -7   7    0.44    0.47
   3  -7   7    0.65    0.66
  -7  -6   7   -0.14    0.58
  -7  -6   7    1.66    0.87
  -6  -6   7   18.02    2.09
  -6  -6   7   22.54    2.77
  -5  -6   7   12.63    1.74
  -5  -6   7   12.26    1.84
   4   6  -7   21.36    1.13
  -4  -6   7   26.05    2.13
  -4  -6   7   22.06    1.74
  -4  -6   7   20.85    2.01
   3   6  -7    0.13    0.18
   3   6  -7   -0.13    0.34
  -3  -6   7    0.10    0.46
  -3  -6   7    0.96    0.55
  -3  -6   7   -0.39    0.42
   2   6  -7    7.30    0.51
   2   6  -7    5.29    1.02
  -2  -6   7    5.85    1.02
  -2  -6   7    9.82    1.36
  -2  -6   7    7.52    1.20
  -2  -6   7    6.71    1.09
   1   6  -7   13.19    1.49
  -1  -6   7   12.68    1.53
  -1  -6   7   13.46    1.48
  -1  -6   7   12.80    1.59
   0   6  -7    4.29    0.89
   0  -6   7    6.55    1.22
   0  -6   7    4.92    1.03
   0  -6   7    5.69    1.02
  -1   6  -7   17.83    1.80
  -1   6  -7   21.43    2.79
   1  -6   7   17.80    2.04
   1  -6   7   15.38    1.80
  -2   6  -7    5.66    1.05
  -2   6  -7    4.48    1.04
   2  -6   7    5.28    1.21
   2  -6   7    4.50    1.10
   2  -6   7    6.95    0.88
  -3   6  -7    0.13    0.53
  -3   6  -7    0.99    0.65
   3  -6   7    0.88    0.79
   3  -6   7    1.10    0.61
   3  -6   7    0.27    0.37
  -4   6  -7    4.79    1.23
   4  -6   7    4.49    0.92
   4  -6   7    5.34    1.30
   4  -6   7    5.36    1.36
  -7  -5   7    0.99    0.80
  -7  -5   7    1.64    0.77
  -6  -5   7    1.90    0.95
  -6  -5   7    3.48    1.03
  -5  -5   7    0.92    0.63
  -5  -5   7    0.07    0.46
   4   5  -7  161.35    4.04
  -4  -5   7  164.31    5.59
  -4  -5   7  161.52    4.95
  -4  -5   7  166.21    5.08
   3   5  -7    0.36    0.21
   3   5  -7    0.36    0.40
  -3  -5   7    0.78    0.50
  -3  -5   7   -0.16    0.42
  -3  -5   7    0.09    0.41
  -3  -5   7    0.24    0.47
   2   5  -7   23.96    1.63
   2   5  -7   25.19    1.05
  -2  -5   7   25.98    1.62
  -2  -5   7   27.07    1.84
  -2  -5   7   27.01    1.73
  -2  -5   7   26.30    1.76
   1   5  -7   26.64    1.70
  -1  -5   7   28.22    1.71
  -1  -5   7   23.54    1.67
  -1  -5   7   27.01    1.74
  -1  -5   7   23.21    1.57
   0   5  -7   12.59    1.40
   0  -5   7   15.31    1.64
   0  -5   7   12.28    1.34
   0  -5   7   13.65    1.56
  -1   5  -7   54.59    2.41
  -1   5  -7   56.74    2.54
   1  -5   7   53.25    2.76
   1  -5   7   58.88    2.86
  -2   5  -7   63.56    2.82
  -2   5  -7   66.61    2.88
   2  -5   7   59.48    2.07
   2  -5   7   65.33    3.12
   2  -5   7   64.43    3.16
  -3   5  -7    2.38    0.77
  -3   5  -7    1.80    0.64
   3  -5   7    2.14    0.91
   3  -5   7    1.62    0.72
   3  -5   7    1.00    0.44
  -4   5  -7    1.29    0.70
  -4   5  -7    1.22    0.62
   4  -5   7    1.51    0.74
   4  -5   7    1.43    0.58
   4  -5   7    1.65    0.87
  -5   5  -7    0.08    0.69
  -5   5  -7    1.18    0.67
   5  -5   7    0.82    0.61
   5  -5   7    0.76    0.77
   5  -5   7    0.94    0.74
  -7  -4   7   20.22    2.20
  -7  -4   7   17.93    2.39
  -6  -4   7    8.84    1.67
  -6  -4   7    6.58    1.24
   5   4  -7   -0.05    0.28
  -5  -4   7    0.13    0.53
  -5  -4   7    0.44    0.54
  -5  -4   7    0.24    0.48
   4   4  -7    5.48    0.84
  -4  -4   7    4.23    1.05
  -4  -4   7    4.58    0.97
  -4  -4   7    3.02    0.81
   3   4  -7   28.71    1.36
  -3  -4   7   30.56    1.82
  -3  -4   7   29.38    1.86
  -3  -4   7   29.74    1.83
  -3  -4   7   25.56    1.90
   2   4  -7    1.75    0.39
   2   4  -7    1.86    0.60
  -2  -4   7    1.86    0.64
  -2  -4   7    1.15    0.61
  -2  -4   7    1.13    0.55
  -2  -4   7    2.10    0.69
  -2  -4   7    2.24    0.60
   1   4  -7    0.32    0.39
  -1  -4   7    0.24    0.41
  -1  -4   7    0.72    0.43
  -1  -4   7    0.75    0.43
  -1  -4   7    0.52    0.39
   0   4  -7    2.00    0.61
   0  -4   7    3.83    0.76
   0  -4   7    2.59    0.67
   0  -4   7    3.07    0.78
  -1   4  -7   10.51    1.26
  -1   4  -7   10.31    1.08
   1  -4   7    8.34    1.26
   1  -4   7    9.56    0.47
   1  -4   7    9.44    1.27
   1  -4   7   10.40    1.21
  -2   4  -7  175.47    4.80
  -2   4  -7  175.00    4.94
   2  -4   7  180.49    5.30
   2  -4   7  172.38    3.97
   2  -4   7  175.87    5.27
  -3   4  -7   18.79    1.52
  -3   4  -7   19.88    1.90
   3  -4   7   15.33    1.12
   3  -4   7   14.72    1.82
   3  -4   7   16.08    1.89
  -4   4  -7    1.45    0.66
  -4   4  -7    1.08    0.54
   4  -4   7    0.28    0.36
   4  -4   7    0.18    0.55
   4  -4   7   -0.12    0.48
  -5   4  -7    0.72    0.58
  -5   4  -7    0.89    0.62
   5  -4   7    0.48    0.59
   5  -4   7    0.20    0.57
   5  -4   7    0.93    0.59
  -6   4  -7    0.02    0.54
   6  -4   7    0.73    0.68
   6  -4   7    1.34    0.69
   6  -4   7    0.85    0.78
  -7  -3   7   10.84    1.74
  -7  -3   7   14.31    2.20
  -6  -3   7   17.88    2.05
  -6  -3   7   16.12    2.16
   5   3  -7    0.58    0.41
  -5  -3   7    0.34    0.44
  -5  -3   7    1.05    0.72
  -5  -3   7    0.47    0.51
   4   3  -7    0.39    0.34
  -4  -3   7    0.85    0.48
  -4  -3   7    0.96    0.58
  -4  -3   7    0.45    0.54
   3   3  -7    4.55    0.70
  -3  -3   7    4.93    0.88
  -3  -3   7    5.83    1.09
  -3  -3   7    6.16    1.09
   2   3  -7    4.09    0.81
   2   3  -7    3.82    0.60
  -2  -3   7    3.86    0.76
  -2  -3   7    4.68    0.77
  -2  -3   7    2.51    0.71
  -2  -3   7    4.44    0.93
  -2  -3   7    2.91    0.68
  -2  -3   7    3.20    0.42
   1   3  -7  121.65    3.06
   1   3  -7  128.10    3.78
  -1  -3   7  131.49    3.76
  -1  -3   7  121.01    3.80
  -1  -3   7  126.84    3.67
  -1  -3   7  123.71    3.95
   0   3  -7    0.47    0.35
   0  -3   7   -0.13    0.31
   0  -3   7   -0.04    0.26
   0  -3   7    0.23    0.32
   0  -3   7   -0.12    0.25
  -1   3  -7    0.78    0.30
  -1   3  -7   -0.10    0.29
   1  -3   7    0.42    0.42
   1  -3   7    0.46    0.37
   1  -3   7    0.75    0.46
  -2   3  -7   31.55    1.61
  -2   3  -7   29.17    1.75
   2  -3   7   30.65    1.30
   2  -3   7   31.18    1.89
   2  -3   7   29.75    1.85
  -3   3  -7   38.03    2.07
  -3   3  -7   39.18    2.01
   3  -3   7   39.56    1.75
   3  -3   7   38.02    2.25
   3  -3   7   36.15    2.15
  -4   3  -7    0.48    0.41
  -4   3  -7    0.46    0.46
   4  -3   7    0.55    0.35
   4  -3   7    0.04    0.42
   4  -3   7   -0.08    0.41
  -5   3  -7    0.77    0.52
   5  -3   7    1.68    0.76
   5  -3   7    1.49    0.58
   5  -3   7    1.33    0.70
  -6   3  -7    4.16    1.02
   6  -3   7    7.71    1.45
   6  -3   7    4.69    1.04
   6  -3   7    5.51    1.22
  -7  -2   7    4.20    1.28
  -7  -2   7    4.55    1.25
  -6  -2   7    0.26    0.55
  -6  -2   7    0.08    0.71
   5   2  -7    1.40    0.59
  -5  -2   7    2.20    0.81
  -5  -2   7    2.45    0.81
  -5  -2   7    1.84    0.73
   4   2  -7   14.98    1.50
  -4  -2   7   13.92    1.82
  -4  -2   7   15.22    1.59
  -4  -2   7   13.37    1.56
   3   2  -7    4.57    0.77
  -3  -2   7    4.02    0.85
  -3  -2   7    3.14    0.82
  -3  -2   7    3.37    0.75
   2   2  -7   11.41    0.90
  -2  -2   7   12.13    1.40
  -2  -2   7   12.85    1.38
  -2  -2   7   11.59    1.10
  -2  -2   7   14.31    1.37
   1   2  -7   66.20    2.46
   1   2  -7   66.65    2.13
  -1  -2   7   63.06    2.55
  -1  -2   7   64.40    2.36
  -1  -2   7   65.75    1.98
  -1  -2   7   64.93    2.43
  -1  -2   7   64.80    2.53
  -1  -2   7   63.60    1.51
  -1  -2   7   63.38    2.60
   0   2  -7    7.51    0.78
   0   2  -7    9.18    1.09
   0  -2   7   11.62    1.29
   0  -2   7   10.49    1.12
   0  -2   7    8.01    1.06
   0  -2   7    9.37    1.00
   0  -2   7   12.74    1.30
   0  -2   7    6.27    0.39
  -1   2  -7    0.24    0.36
  -1   2  -7    1.14    0.29
   1  -2   7    0.54    0.38
   1  -2   7    0.83    0.26
   1  -2   7    0.98    0.42
   1  -2   7    0.88    0.33
   1  -2   7    1.57    0.53
  -2   2  -7    0.42    0.27
  -2   2  -7    0.33    0.33
   2  -2   7    0.25    0.39
   2  -2   7    0.17    0.19
   2  -2   7    0.65    0.39
  -3   2  -7   22.23    1.51
  -3   2  -7   20.03    1.34
   3  -2   7   17.63    1.43
   3  -2   7   21.07    1.25
   3  -2   7   25.08    1.65
  -4   2  -7    0.02    0.38
   4  -2   7    0.55    0.37
   4  -2   7    0.18    0.40
   4  -2   7    0.45    0.51
  -5   2  -7   12.68    1.60
   5  -2   7   15.34    1.77
   5  -2   7   16.64    1.67
   5  -2   7   13.82    1.72
  -6   2  -7    3.17    0.95
   6  -2   7    9.56    1.51
   6  -2   7    7.92    1.35
   6  -2   7    5.55    1.10
  -7   2  -7    0.59    0.68
   7  -2   7    1.60    0.78
   7  -2   7    1.27    0.83
  -7  -1   7   18.07    2.22
   6   1  -7   13.93    1.77
   6   1  -7   16.95    2.30
  -6  -1   7   18.53    2.35
  -6  -1   7   15.40    1.84
   5   1  -7    0.84    0.54
   5   1  -7    1.20    0.42
  -5  -1   7    1.32    0.67
  -5  -1   7    0.38    0.64
   4   1  -7   26.52    1.30
   4   1  -7   26.98    1.79
  -4  -1   7   28.39    2.10
  -4  -1   7   27.40    1.87
  -4  -1   7   23.49    1.66
   3   1  -7   40.06    1.95
   3   1  -7   41.75    1.47
  -3  -1   7   36.10    2.24
  -3  -1   7   38.26    2.13
  -3  -1   7   37.25    1.93
   2   1  -7   44.09    1.36
   2   1  -7   44.20    1.89
  -2  -1   7   43.77    1.94
  -2  -1   7   44.87    1.79
  -2  -1   7   43.46    2.15
  -2  -1   7   40.02    2.22
   1   1  -7   41.51    1.16
   1   1  -7   39.48    1.69
   1   1  -7   41.58    1.82
  -1  -1   7   40.81    1.81
  -1  -1   7   43.36    1.82
  -1  -1   7   43.61    2.07
  -1  -1   7   39.08    2.01
  -1  -1   7   40.46    1.94
   0   1  -7  203.31    4.63
   0   1  -7  203.14    3.76
   0   1  -7  207.58    4.89
   0  -1   7  215.91    5.20
   0  -1   7  202.25    4.95
   0  -1   7  205.12    4.85
   0  -1   7  194.25    4.99
   0  -1   7  203.01    4.14
  -1   1  -7    8.78    1.02
  -1   1  -7    8.36    0.93
   1  -1   7    8.99    0.66
   1  -1   7    8.85    0.99
   1  -1   7    9.71    1.09
   1  -1   7    8.82    1.07
   1  -1   7    9.78    1.11
   1  -1   7    9.21    0.81
  -2   1  -7   34.84    1.72
   2  -1   7   30.92    1.64
   2  -1   7   32.69    1.39
   2  -1   7   31.19    1.79
   2  -1   7   35.09    1.84
  -3   1  -7    3.90    0.80
   3  -1   7    3.08    0.70
   3  -1   7    3.93    0.82
   3  -1   7    3.66    0.62
  -4   1  -7    6.26    0.77
  -4   1  -7    5.71    0.93
   4  -1   7    6.25    0.94
   4  -1   7    5.62    0.99
   4  -1   7    3.74    0.81
  -5   1  -7    7.59    1.18
  -5   1  -7    7.68    0.96
   5  -1   7   10.32    1.39
   5  -1   7    8.41    1.22
   5  -1   7    8.58    1.13
  -6   1  -7    0.20    0.49
   6  -1   7    0.91    0.53
   6  -1   7    1.53    0.71
   6  -1   7    0.78    0.64
  -7   1  -7    1.17    0.67
  -8   1  -7    2.59    0.96
  -7   0   7    2.65    1.18
  -7   0   7    1.69    0.89
  -6   0   7   28.97    2.49
  -6   0   7   28.40    2.10
   5   0  -7   12.47    1.27
   5   0  -7   11.01    1.56
  -5   0   7   11.39    1.42
  -5   0   7   12.16    1.86
   4   0  -7    2.96    0.58
   4   0  -7    3.35    0.83
  -4   0   7    2.67    0.72
  -4   0   7    2.90    0.80
  -4   0   7    2.44    0.77
   3   0  -7   46.08    1.72
   3   0  -7   46.77    2.21
  -3   0   7   45.31    2.11
  -3   0   7   45.50    2.54
  -3   0   7   48.02    2.39
   2   0  -7    1.88    0.38
   2   0  -7    2.07    0.61
  -2   0   7    2.53    0.60
  -2   0   7    2.09    0.63
  -2   0   7    3.14    0.64
  -2   0   7    1.41    0.52
   1   0  -7   14.56    1.06
   1   0  -7   14.91    1.07
   1   0  -7   16.05    0.80
  -1   0   7   15.61    1.27
  -1   0   7   15.71    1.10
  -1   0   7   17.21    1.28
  -1   0   7   15.77    1.07
   0   0  -7    0.01    0.20
   0   0  -7    0.56    0.31
   0   0  -7    0.44    0.30
   0   0   7    0.34    0.34
   0   0   7    0.04    0.29
   0   0   7    0.15    0.27
   0   0   7    0.45    0.32
   0   0   7    0.15    0.35
  -1   0  -7   36.01    1.24
  -1   0  -7   33.73    1.59
  -1   0  -7   35.44    1.61
   1   0   7   36.50    1.66
   1   0   7   33.93    1.39
   1   0   7   37.67    1.72
   1   0   7   34.83    1.69
   1   0   7   36.89    1.59
   1   0   7   36.87    1.71
  -2   0  -7   34.40    1.29
  -2   0  -7   33.53    1.62
   2   0   7   28.81    1.37
   2   0   7   32.22    1.73
   2   0   7   37.89    1.71
   2   0   7   35.69    1.51
  -3   0  -7   49.34    2.12
  -3   0  -7   52.69    1.79
   3   0   7   49.14    1.93
   3   0   7   50.32    2.06
   3   0   7   49.96    2.24
  -4   0  -7   67.85    2.67
  -4   0  -7   64.87    2.23
   4   0   7   64.81    2.68
   4   0   7   69.39    2.62
   4   0   7   67.53    2.48
  -5   0  -7    3.59    0.68
  -5   0  -7    2.73    0.75
   5   0   7    3.56    0.79
   5   0   7    1.86    0.61
   5   0   7    3.48    0.74
  -6   0  -7   43.99    2.09
  -6   0  -7   50.22    2.61
   6   0   7   46.42    2.42
   6   0   7   46.28    2.37
   6   0   7   43.59    2.34
  -7   0  -7    0.35    0.52
  -8   0  -7    7.95    1.45
  -7   1   7    1.26    0.75
  -7   1   7    2.18    1.06
  -6   1   7   51.64    2.77
  -5   1   7    0.70    0.71
  -5   1   7   -0.10    0.49
   4  -1  -7    5.26    0.78
   4  -1  -7    2.18    0.70
  -4   1   7    5.41    1.19
  -4   1   7    3.62    0.84
   3  -1  -7    1.27    0.41
   3  -1  -7    0.50    0.38
  -3   1   7    0.91    0.56
  -3   1   7    1.32    0.71
  -3   1   7    0.05    0.43
  -3   1   7    0.98    0.42
   2  -1  -7    0.05    0.21
   2  -1  -7    0.10    0.30
  -2   1   7   -0.09    0.30
  -2   1   7    0.16    0.33
  -2   1   7    0.00    0.34
  -2   1   7    0.57    0.50
   1  -1  -7   97.36    2.50
   1  -1  -7   90.84    3.01
   1  -1  -7   96.56    2.80
  -1   1   7   95.29    2.20
  -1   1   7   92.52    2.92
  -1   1   7   93.68    3.16
  -1   1   7   92.36    3.36
  -1   1   7   90.64    2.74
   0  -1  -7  218.28    4.44
   0  -1  -7  217.88    4.86
   0  -1  -7  217.01    5.14
   0   1   7  220.41    4.84
   0   1   7  221.23    3.91
   0   1   7  212.02    5.16
   0   1   7  213.71    5.25
   0   1   7  215.20    5.47
   0   1   7  223.87    3.77
  -1  -1  -7   31.49    1.59
  -1  -1  -7   32.91    1.60
  -1  -1  -7   33.92    1.50
  -1  -1  -7   35.14    1.26
   1   1   7   30.74    1.63
   1   1   7   33.10    1.44
   1   1   7   36.87    1.65
   1   1   7   33.20    1.60
   1   1   7   31.58    1.65
  -2  -1  -7   34.68    1.31
  -2  -1  -7   32.21    1.53
  -2  -1  -7   34.95    1.71
   2   1   7   32.59    1.53
   2   1   7   32.89    1.58
   2   1   7   35.90    1.74
   2   1   7   33.48    1.61
   2   1   7   31.63    1.42
  -3  -1  -7  239.82    4.93
  -3  -1  -7  233.22    5.41
   3   1   7  229.66    5.62
   3   1   7  230.01    5.18
   3   1   7  234.24    5.26
   3   1   7  238.01    5.29
   3   1   7  226.73    5.52
  -4  -1  -7    1.20    0.38
  -4  -1  -7    1.41    0.51
   4   1   7    1.10    0.30
   4   1   7    1.44    0.48
   4   1   7    0.93    0.40
   4   1   7    1.26    0.53
  -5  -1  -7    2.42    0.66
  -5  -1  -7    2.68    0.55
   5   1   7    2.37    0.72
   5   1   7    2.59    0.64
   5   1   7    3.37    0.74
   5   1   7    2.92    0.46
  -6  -1  -7    0.61    0.41
  -6  -1  -7    0.33    0.45
   6   1   7   -0.18    0.34
   6   1   7    0.37    0.28
   6   1   7    0.19    0.40
  -7  -1  -7    0.58    0.63
   7   1   7    0.77    0.37
  -8  -1  -7    3.96    1.14
  -6   2   7    3.72    1.28
  -5   2   7    2.72    0.90
  -5   2   7    6.42    1.46
   4  -2  -7   27.63    1.54
  -4   2   7   29.08    2.25
  -4   2   7   28.39    1.74
   3  -2  -7   35.96    1.67
   3  -2  -7   38.82    2.27
  -3   2   7   40.70    2.49
  -3   2   7   37.82    1.94
  -3   2   7   37.59    2.27
  -3   2   7   42.32    1.93
  -3   2   7   40.49    1.98
   2  -2  -7    4.40    0.60
   2  -2  -7    5.04    0.89
  -2   2   7    4.89    0.72
  -2   2   7    3.24    0.77
  -2   2   7    5.82    0.89
  -2   2   7    4.81    0.72
  -2   2   7    4.13    0.86
   1  -2  -7    0.18    0.33
   1  -2  -7    0.16    0.21
  -1   2   7   -0.40    0.33
  -1   2   7    0.22    0.30
  -1   2   7    0.05    0.37
  -1   2   7    0.16    0.24
  -1   2   7    0.37    0.38
   0  -2  -7  251.77    5.08
   0  -2  -7  246.71    5.23
   0  -2  -7  247.61    5.81
   0   2   7  256.09    5.24
   0   2   7  246.26    6.19
   0   2   7  250.70    5.81
   0   2   7  250.93    4.84
   0   2   7  249.01    5.80
  -1  -2  -7   11.41    1.20
  -1  -2  -7   10.18    0.69
  -1  -2  -7   10.33    0.79
  -1  -2  -7    8.00    0.97
   1   2   7    9.75    0.60
   1   2   7   10.62    0.92
   1   2   7    7.85    1.04
   1   2   7    9.33    1.05
   1   2   7   13.71    1.33
  -2  -2  -7   32.08    1.29
  -2  -2  -7   36.70    1.83
  -2  -2  -7   34.08    1.48
   2   2   7   35.31    1.76
   2   2   7   33.54    1.53
   2   2   7   34.73    1.77
   2   2   7   35.69    1.55
  -3  -2  -7   54.15    2.37
  -3  -2  -7   54.26    2.07
  -3  -2  -7   53.39    1.76
   3   2   7   52.70    2.17
   3   2   7   53.98    1.94
   3   2   7   55.52    2.28
   3   2   7   53.76    1.69
   3   2   7   54.97    2.28
  -4  -2  -7   15.92    1.21
  -4  -2  -7   16.08    1.64
  -4  -2  -7   18.29    1.04
   4   2   7   20.33    1.46
   4   2   7   18.28    1.24
   4   2   7   16.37    1.14
   4   2   7   18.13    0.97
   4   2   7   17.31    1.27
   4   2   7   18.81    1.12
  -5  -2  -7   46.79    1.82
  -5  -2  -7   46.52    2.23
   5   2   7   43.35    2.00
   5   2   7   43.35    2.14
   5   2   7   45.51    1.73
  -6  -2  -7   10.82    1.40
  -6  -2  -7   11.81    1.12
   6   2   7   11.74    1.06
   6   2   7    9.82    1.30
  -7  -2  -7    9.95    1.11
  -7  -2  -7    9.12    1.42
   7   2   7    9.02    1.00
  -8  -2  -7   12.16    1.74
  -9  -2  -7   16.63    2.28
  -5   3   7   -0.14    0.61
   4  -3  -7   27.46    1.54
  -4   3   7   24.65    2.18
   3  -3  -7    0.07    0.23
  -3   3   7    0.41    0.37
  -3   3   7    0.29    0.43
  -3   3   7   -0.33    0.41
   2  -3  -7   49.94    1.88
  -2   3   7   50.66    2.28
  -2   3   7   46.68    2.07
  -2   3   7   43.84    2.38
  -2   3   7   48.48    2.63
  -2   3   7   46.09    1.85
   1  -3  -7   23.02    1.15
   1  -3  -7   23.40    1.34
   1  -3  -7   22.75    1.17
   1  -3  -7   25.06    1.61
  -1   3   7   23.31    1.30
  -1   3   7   23.98    1.54
  -1   3   7   23.47    1.77
  -1   3   7   22.40    1.16
  -1   3   7   22.48    1.57
   0  -3  -7   36.76    1.87
   0  -3  -7   35.88    1.57
   0  -3  -7   35.13    1.37
   0  -3  -7   36.97    1.39
   0   3   7   34.25    1.34
   0   3   7   36.15    1.85
   0   3   7   35.59    1.81
   0   3   7   34.60    2.01
   0   3   7   34.37    1.44
  -1  -3  -7  110.60    2.75
  -1  -3  -7  103.37    3.34
  -1  -3  -7  108.80    2.73
   1   3   7  108.10    3.40
   1   3   7  112.26    3.23
   1   3   7  109.81    2.72
   1   3   7  106.24    3.61
   1   3   7  112.43    2.83
  -2  -3  -7    0.70    0.26
  -2  -3  -7    1.35    0.46
  -2  -3  -7    0.69    0.30
  -2  -3  -7    0.94    0.41
   2   3   7    1.02    0.37
   2   3   7   -0.06    0.32
   2   3   7    0.48    0.34
  -3  -3  -7   19.73    1.15
  -3  -3  -7   19.60    0.99
  -3  -3  -7   21.18    1.47
   3   3   7   19.04    1.01
   3   3   7   21.40    1.44
   3   3   7   18.40    1.38
   3   3   7   18.09    1.35
   3   3   7   20.49    1.11
  -4  -3  -7    1.74    0.52
  -4  -3  -7    1.13    0.33
  -4  -3  -7    0.70    0.43
   4   3   7    0.60    0.44
   4   3   7    1.12    0.34
   4   3   7    0.66    0.42
   4   3   7    0.33    0.30
  -5  -3  -7    0.34    0.37
  -5  -3  -7    0.79    0.34
  -5  -3  -7   -0.06    0.37
   5   3   7    1.05    0.48
   5   3   7    1.26    0.51
   5   3   7    1.37    0.65
   5   3   7    0.30    0.27
  -6  -3  -7  153.77    6.15
  -6  -3  -7  145.38    4.53
  -6  -3  -7  143.29    3.64
   6   3   7  144.14    4.32
   6   3   7  142.99    3.83
  -7  -3  -7    0.21    0.36
  -7  -3  -7   -0.01    0.50
   7   3   7    1.03    0.44
  -8  -3  -7   12.05    1.78
  -9  -3  -7    1.31    0.92
  -5   4   7   13.43    2.14
  -4   4   7    7.06    1.43
  -4   4   7    9.40    1.44
   3  -4  -7    0.44    0.29
  -3   4   7    0.33    0.45
  -3   4   7    0.59    0.59
  -3   4   7    0.26    0.50
   2  -4  -7   13.08    0.93
  -2   4   7   13.83    1.66
  -2   4   7   12.65    1.43
  -2   4   7   16.21    1.90
  -2   4   7   13.60    1.42
   1  -4  -7    0.13    0.19
   1  -4  -7    0.43    0.31
  -1   4   7    1.38    0.54
  -1   4   7    0.12    0.37
  -1   4   7    0.54    0.46
  -1   4   7    0.07    0.30
   0  -4  -7   20.96    1.03
   0  -4  -7   21.03    1.27
   0   4   7   22.30    1.73
   0   4   7   20.05    1.49
   0   4   7   20.93    1.44
   0   4   7   21.31    1.29
  -1  -4  -7   52.43    1.79
  -1  -4  -7   52.25    1.64
   1   4   7   51.65    2.12
   1   4   7   49.29    2.29
   1   4   7   48.35    2.45
   1   4   7   52.65    1.99
  -2  -4  -7    5.03    0.81
  -2  -4  -7    5.40    0.56
  -2  -4  -7    5.89    0.65
   2   4   7    4.23    0.69
   2   4   7    4.98    0.73
   2   4   7    7.22    1.08
   2   4   7    5.29    0.92
   2   4   7    4.80    0.61
  -3  -4  -7   74.02    2.95
  -3  -4  -7   77.55    2.07
  -3  -4  -7   77.51    2.33
   3   4   7   73.55    3.02
   3   4   7   76.26    2.29
   3   4   7   71.34    2.81
   3   4   7   75.64    2.27
  -4  -4  -7   22.73    1.02
  -4  -4  -7   21.61    1.58
  -4  -4  -7   21.65    1.29
   4   4   7   22.85    1.22
   4   4   7   23.41    1.65
   4   4   7   20.47    1.52
   4   4   7   22.89    1.59
  -5  -4  -7   14.79    0.85
  -5  -4  -7   18.31    1.84
  -5  -4  -7   17.72    1.28
   5   4   7   17.46    1.34
   5   4   7   16.89    1.09
   5   4   7   16.84    1.73
   5   4   7   13.66    1.54
  -6  -4  -7   10.94    1.32
  -6  -4  -7   12.39    1.49
  -6  -4  -7   11.78    1.62
   6   4   7   10.73    1.30
   6   4   7    5.27    1.04
   6   4   7   11.01    1.07
  -7  -4  -7   34.73    2.45
  -7  -4  -7   28.78    2.00
   7   4   7   30.70    1.91
  -8  -4  -7    1.33    0.82
  -9  -4  -7    0.78    0.79
   5  -5  -7    0.68    0.76
  -4   5   7    0.08    0.67
  -4   5   7    0.83    0.67
  -3   5   7    1.37    0.68
  -3   5   7    1.45    0.82
  -3   5   7    1.42    0.70
   2  -5  -7   53.06    1.82
  -2   5   7   57.74    3.18
  -2   5   7   60.30    2.88
  -2   5   7   58.94    2.80
   1  -5  -7    7.39    0.70
   1  -5  -7    7.15    1.02
  -1   5   7    8.62    1.34
  -1   5   7    4.77    0.88
  -1   5   7    6.75    1.08
  -1   5   7    9.61    1.52
   0  -5  -7   56.13    2.35
   0   5   7   59.37    2.62
   0   5   7   56.31    2.95
   0   5   7   59.01    2.69
  -1  -5  -7    0.83    0.24
   1   5   7    0.74    0.51
   1   5   7    0.93    0.53
   1   5   7    0.89    0.41
   1   5   7    1.90    0.54
  -2  -5  -7   20.16    0.83
   2   5   7   18.57    1.08
   2   5   7   18.98    1.44
   2   5   7   20.11    1.25
   2   5   7   16.83    1.49
  -3  -5  -7   59.61    2.68
  -3  -5  -7   59.54    1.51
   3   5   7   60.27    2.05
   3   5   7   58.25    2.56
   3   5   7   57.86    2.80
  -4  -5  -7   13.98    1.00
  -4  -5  -7   13.10    0.73
  -4  -5  -7   10.55    1.33
   4   5   7   11.18    1.34
   4   5   7   13.51    1.62
   4   5   7   12.60    0.92
  -5  -5  -7   24.25    1.78
  -5  -5  -7   25.94    1.51
   5   5   7   22.48    1.30
   5   5   7   25.55    1.91
   5   5   7   21.58    1.61
  -6  -5  -7   14.42    1.71
  -6  -5  -7   14.95    1.55
  -6  -5  -7   14.01    1.70
   6   5   7   14.14    1.67
   6   5   7   15.11    1.81
   6   5   7   15.37    1.73
   6   5   7   15.30    1.14
  -7  -5  -7   45.45    2.79
  -7  -5  -7   49.40    2.54
  -7  -5  -7   47.41    2.74
   7   5   7   46.64    2.76
   7   5   7   47.90    2.49
  -8  -5  -7    1.87    0.91
  -8  -5  -7    1.04    0.68
  -9  -5  -7   -0.21    0.61
  -9  -5  -7    0.61    0.78
   4  -6  -7    3.20    1.05
  -4   6   7    2.73    0.99
  -3   6   7    0.23    0.61
  -3   6   7    0.47    0.69
  -3   6   7    1.17    0.87
   2  -6  -7    1.23    0.60
  -2   6   7    2.61    0.96
  -2   6   7    2.22    0.91
  -2   6   7    3.12    0.91
   1  -6  -7    0.77    0.42
  -1   6   7    0.84    0.66
  -1   6   7    0.17    0.45
  -1   6   7    1.91    0.86
   0  -6  -7    8.30    1.13
   0   6   7    8.82    1.47
   0   6   7    6.66    1.21
   0   6   7    7.14    1.10
   0   6   7    7.13    1.15
   1   6   7   23.57    1.76
   1   6   7   24.96    1.68
   1   6   7   23.36    1.90
   1   6   7   26.62    1.69
   2   6   7   11.15    1.30
   2   6   7    9.48    1.08
   2   6   7    8.21    1.18
   2   6   7    9.91    0.96
   2   6   7    8.26    1.28
   3   6   7    4.97    1.06
   3   6   7    7.43    0.87
   3   6   7    5.90    1.03
   3   6   7    7.29    1.08
  -4  -6  -7   69.59    3.03
   4   6   7   65.67    2.27
   4   6   7   62.08    3.10
   4   6   7   61.53    2.75
  -5  -6  -7   49.39    2.59
   5   6   7   50.53    2.60
   5   6   7   47.24    1.96
   5   6   7   47.83    2.39
   5   6   7   46.15    2.72
  -6  -6  -7   47.11    2.21
  -6  -6  -7   41.53    2.50
   6   6   7   45.15    1.99
   6   6   7   43.10    2.52
   6   6   7   44.53    2.75
  -7  -6  -7    0.44    0.60
  -7  -6  -7    0.75    0.62
  -7  -6  -7    0.37    0.45
   7   6   7    0.12    0.56
   7   6   7    0.24    0.56
  -8  -6  -7    0.67    0.75
  -8  -6  -7    0.27    0.65
  -8  -6  -7    1.75    0.85
   8   6   7    0.34    0.66
  -9  -6  -7    0.62    0.68
  -9  -6  -7    3.67    1.11
   3  -7  -7    8.26    1.62
  -3   7   7    6.65    1.43
  -3   7   7    9.26    1.72
   2  -7  -7   14.90    1.73
   2  -7  -7   22.96    2.39
  -2   7   7   20.61    2.32
  -2   7   7   26.07    2.80
  -2   7   7   21.10    2.35
   1  -7  -7    5.83    1.00
   1  -7  -7    5.21    1.12
  -1   7   7    5.92    1.22
  -1   7   7    7.89    1.53
  -1   7   7    6.14    1.23
   0  -7  -7   -0.27    0.24
   0   7   7    0.74    0.52
   0   7   7   -0.21    0.56
   0   7   7   -0.12    0.50
   0   7   7    0.71    0.61
   1   7   7   21.67    2.09
   1   7   7   23.50    2.39
   1   7   7   16.01    1.80
   1   7   7   19.58    1.86
   2   7   7   11.71    1.67
   2   7   7   10.66    1.47
   2   7   7    8.08    1.17
   2   7   7   11.25    1.05
   3   7   7    2.20    0.77
   3   7   7    2.30    0.52
   3   7   7    0.73    0.52
   3   7   7    0.93    0.54
   4   7   7   43.24    1.88
   4   7   7   47.10    2.51
   4   7   7   42.67    2.68
  -5  -7  -7   20.72    1.72
   5   7   7   22.58    1.36
   5   7   7   23.46    1.75
   5   7   7   22.10    1.97
   5   7   7   21.00    2.11
  -6  -7  -7    2.67    0.78
   6   7   7    2.30    0.65
   6   7   7    0.90    0.56
   6   7   7    1.59    0.78
  -7  -7  -7   20.96    2.32
  -7  -7  -7   23.46    2.38
   7   7   7   20.78    2.17
   7   7   7   18.74    2.33
  -8  -7  -7    4.14    1.17
  -8  -7  -7    5.64    1.34
   8   7   7    6.17    1.55
  -9  -7  -7    0.71    0.67
   2  -8  -7   10.50    1.71
  -2   8   7   11.05    1.83
  -2   8   7   12.00    1.82
   1  -8  -7    0.40    0.57
   1  -8  -7    0.13    0.48
  -1   8   7    0.39    0.66
  -1   8   7    0.68    0.72
  -1   8   7   -0.04    0.58
   0  -8  -7    0.00    0.35
   0  -8  -7    0.31    0.52
   0   8   7    0.92    0.64
   0   8   7    0.64    0.59
   0   8   7    0.17    0.69
   1   8   7   12.44    1.67
   1   8   7   11.89    1.85
   1   8   7   11.22    1.68
   2   8   7   17.06    1.89
   2   8   7   19.56    2.04
   2   8   7   20.24    2.32
   3   8   7    5.46    1.32
   3   8   7    3.86    0.94
   3   8   7    4.31    0.99
   3   8   7    4.85    0.79
   4   8   7    0.83    0.41
   4   8   7    0.17    0.50
   4   8   7    1.23    0.69
   4   8   7    0.70    0.64
   5   8   7    6.87    1.49
   5   8   7    5.82    0.84
   5   8   7    3.73    0.96
  -6  -8  -7    0.06    0.44
   6   8   7    0.21    0.53
   6   8   7   -0.16    0.52
   6   8   7   -0.02    0.40
  -7  -8  -7   23.64    2.37
   7   8   7   27.11    2.99
  -8  -8  -7    1.16    0.87
  -8  -8  -7    1.31    0.67
   8   8   7    1.59    0.99
   1  -9  -7    9.34    1.67
   1  -9  -7    6.73    1.24
  -1   9   7    8.95    1.65
  -1   9   7    9.06    2.23
  -1   9   7   11.13    1.93
   0  -9  -7    1.10    0.57
   0  -9  -7    0.30    0.61
   0   9   7    0.97    0.85
   0   9   7    0.16    0.81
   0   9   7    0.18    0.54
  -1  -9  -7    0.53    0.47
   1   9   7    0.29    0.61
   1   9   7    0.92    0.75
   1   9   7    0.74    0.74
   2   9   7    0.51    0.74
   2   9   7    1.03    0.67
   2   9   7    0.19    0.48
   3   9   7    1.58    0.85
   3   9   7    1.21    0.64
   3   9   7    1.92    0.76
   4   9   7   65.39    3.71
   4   9   7   62.61    3.35
   4   9   7   58.22    3.12
   5   9   7    1.39    0.73
   5   9   7    0.04    0.50
   5   9   7    0.94    0.77
   6   9   7   16.45    2.41
   7   9   7    2.10    1.03
  -8  -9  -7   10.79    1.63
  -8  -9  -7   14.80    2.28
   8   9   7   16.96    2.58
  -1 -10  -7    2.46    0.80
   1  10   7    1.52    1.02
   1  10   7    2.17    0.92
   1  10   7    1.60    0.93
   2  10   7    0.10    0.73
   2  10   7    0.10    0.51
   2  10   7    0.15    0.59
   3  10   7    1.19    0.78
   3  10   7    1.90    1.02
   3  10   7    1.06    0.73
   4  10   7    0.37    0.69
   4  10   7    0.48    0.84
   4  10   7    0.38    0.62
   5  10   7    4.00    1.13
   5  10   7    2.99    1.07
   5  10   7    6.25    1.48
   6  10   7    2.64    1.09
   6  10   7    3.51    1.19
   7  10   7    0.93    0.94
   3  11   7    0.96    0.79
   3  11   7    0.07    0.69
   3  11   7   -0.77    0.59
   4  11   7    0.46    0.59
   4  11   7    0.14    0.60
   4  11   7   -0.73    0.65
   5  11   7   23.20    2.73
   5  11   7   23.29    2.53
   5  11   7   30.50    3.33
  -2  -9   8    3.40    1.18
  -2  -9   8    2.49    0.95
  -1  -9   8    2.82    1.15
  -1  -9   8    3.47    1.24
   5   8  -8    3.24    0.98
  -5  -8   8    1.35    0.87
  -5  -8   8    1.49    0.83
   4   8  -8    9.59    1.56
  -4  -8   8    7.67    1.49
  -4  -8   8    8.69    1.47
   3   8  -8    0.99    0.62
  -3  -8   8    0.87    0.71
  -3  -8   8    0.32    0.63
   2   8  -8    0.48    0.59
  -2  -8   8   -0.56    0.55
  -2  -8   8   -0.06    0.55
  -2  -8   8    1.56    0.69
  -1  -8   8    3.54    1.00
  -1  -8   8    3.13    0.99
   0  -8   8    0.52    0.76
   0  -8   8    0.11    0.64
   1  -8   8    1.12    0.82
   1  -8   8    1.20    0.96
  -6  -7   8    3.05    1.12
  -6  -7   8    6.00    1.31
   5   7  -8    0.13    0.63
  -5  -7   8   -0.01    0.53
  -5  -7   8    0.38    0.70
   4   7  -8    0.08    0.44
  -4  -7   8    0.83    0.60
  -4  -7   8    1.16    0.66
   3   7  -8   -0.01    0.41
  -3  -7   8   -0.50    0.47
  -3  -7   8   -0.15    0.57
  -3  -7   8    0.18    0.52
   2   7  -8   10.74    1.52
   2   7  -8   10.05    0.61
  -2  -7   8   11.31    1.48
  -2  -7   8   10.47    1.62
  -2  -7   8    9.62    1.39
   1   7  -8    1.98    0.80
  -1  -7   8    0.56    0.67
  -1  -7   8    1.25    0.67
  -1  -7   8    1.52    0.81
   0   7  -8    0.36    0.43
   0  -7   8    1.14    0.67
   0  -7   8    0.33    0.57
   0  -7   8    0.14    0.48
  -1   7  -8   -0.28    0.43
   1  -7   8    1.14    0.80
   1  -7   8    0.83    0.61
   2  -7   8   -0.17    0.68
   2  -7   8    1.20    0.77
   2  -7   8    0.85    0.44
   3  -7   8    0.31    0.68
   3  -7   8    2.29    0.70
   3  -7   8    2.18    1.11
  -6  -6   8   -0.14    0.57
  -6  -6   8    1.82    0.87
  -5  -6   8    0.86    0.64
  -5  -6   8    0.12    0.60
   4   6  -8   -0.22    0.37
  -4  -6   8   -0.06    0.53
  -4  -6   8    0.31    0.48
  -4  -6   8   -0.51    0.40
   3   6  -8    8.17    0.77
   3   6  -8   10.70    1.51
  -3  -6   8    6.03    1.12
  -3  -6   8    8.69    1.38
  -3  -6   8    8.45    1.47
   2   6  -8    1.40    0.61
   2   6  -8    0.55    0.25
  -2  -6   8    0.54    0.46
  -2  -6   8    0.45    0.54
  -2  -6   8    0.88    0.55
  -2  -6   8    0.08    0.49
   1   6  -8    0.23    0.43
  -1  -6   8    0.63    0.57
  -1  -6   8    0.39    0.52
  -1  -6   8    0.31    0.51
   0   6  -8   17.64    1.82
   0  -6   8   18.09    1.83
   0  -6   8   17.19    2.03
   0  -6   8   16.50    1.92
  -1   6  -8   10.08    1.43
   1  -6   8    7.51    1.36
   1  -6   8    7.90    1.39
  -2   6  -8    4.51    1.06
   2  -6   8    3.08    1.00
   2  -6   8    4.39    0.73
   2  -6   8    1.38    0.82
  -3   6  -8    3.10    0.92
   3  -6   8    2.07    1.00
   3  -6   8    2.98    0.73
   3  -6   8    3.33    0.99
  -4   6  -8    0.65    0.79
   4  -6   8    0.73    0.70
   4  -6   8    1.64    0.64
   4  -6   8    1.24    0.92
  -7  -5   8    0.19    0.64
  -7  -5   8   -0.30    0.59
  -6  -5   8    1.00    0.71
  -6  -5   8   -0.01    0.56
  -5  -5   8    5.00    1.14
  -5  -5   8    7.03    1.49
   4   5  -8   60.11    2.31
  -4  -5   8   62.49    2.96
  -4  -5   8   63.07    3.35
   3   5  -8   14.05    0.94
   3   5  -8   11.89    1.46
  -3  -5   8   11.00    1.46
  -3  -5   8   11.12    1.42
  -3  -5   8   13.73    1.62
  -3  -5   8   14.60    1.79
   2   5  -8    3.92    0.88
   2   5  -8    3.80    0.56
  -2  -5   8    2.55    0.80
  -2  -5   8    3.90    0.86
  -2  -5   8    4.91    0.91
  -2  -5   8    3.86    0.90
   1   5  -8   -0.52    0.31
  -1  -5   8    0.23    0.51
  -1  -5   8    0.09    0.34
  -1  -5   8   -0.01    0.45
   0   5  -8    0.65    0.53
   0  -5   8    0.05    0.43
   0  -5   8    0.35    0.48
   0  -5   8    0.36    0.57
  -1   5  -8   14.00    1.59
   1  -5   8   13.87    1.73
   1  -5   8   13.77    0.70
   1  -5   8   12.20    1.58
   1  -5   8   15.41    1.63
  -2   5  -8    0.84    0.50
   2  -5   8    0.79    0.62
   2  -5   8    0.65    0.66
   2  -5   8    0.76    0.34
  -3   5  -8    0.94    0.63
   3  -5   8   -0.24    0.28
   3  -5   8   -0.22    0.50
   3  -5   8   -0.13    0.49
  -4   5  -8    2.18    0.87
   4  -5   8    1.47    0.61
   4  -5   8    2.07    0.91
   4  -5   8    0.84    0.76
  -5   5  -8    0.01    0.57
   5  -5   8    0.03    0.49
   5  -5   8    0.20    0.47
   5  -5   8   -0.14    0.69
  -7  -4   8    9.29    1.65
  -7  -4   8    9.22    1.83
  -6  -4   8    0.67    0.75
  -6  -4   8    2.46    1.05
  -5  -4   8   -0.41    0.47
  -5  -4   8    0.52    0.61
   4   4  -8    7.33    1.00
  -4  -4   8    7.25    1.45
  -4  -4   8    6.73    1.15
  -4  -4   8    4.29    1.00
   3   4  -8    5.27    0.76
   3   4  -8    4.83    0.98
  -3  -4   8    4.99    0.98
  -3  -4   8    5.98    1.06
  -3  -4   8    5.31    1.09
  -3  -4   8    3.72    0.86
   2   4  -8    6.88    1.06
   2   4  -8    6.80    0.75
  -2  -4   8    6.10    1.03
  -2  -4   8    4.18    0.94
  -2  -4   8    9.04    1.13
  -2  -4   8    8.44    1.27
  -2  -4   8    7.33    1.19
   1   4  -8    1.59    0.58
   1   4  -8    0.79    0.29
  -1  -4   8    0.76    0.50
  -1  -4   8    0.59    0.46
  -1  -4   8    1.18    0.53
  -1  -4   8    0.01    0.37
   0   4  -8   -0.04    0.34
   0  -4   8    0.09    0.34
   0  -4   8    0.45    0.46
   0  -4   8    0.55    0.42
  -1   4  -8    0.11    0.34
   1  -4   8    0.21    0.44
   1  -4   8   -0.46    0.31
   1  -4   8    0.54    0.51
   1  -4   8   -0.05    0.12
  -2   4  -8   62.76    2.80
   2  -4   8   58.83    2.88
   2  -4   8   57.48    2.89
   2  -4   8   60.78    2.06
  -3   4  -8   31.87    2.03
   3  -4   8   30.38    2.18
   3  -4   8   27.27    2.05
   3  -4   8   30.41    1.63
  -4   4  -8    6.55    1.23
  -4   4  -8    4.24    1.27
   4  -4   8    4.31    0.84
   4  -4   8    7.04    1.43
   4  -4   8    8.01    1.42
  -5   4  -8    0.05    0.72
  -5   4  -8    0.46    0.59
   5  -4   8    0.22    0.57
   5  -4   8    0.43    0.44
   5  -4   8    0.90    0.71
  -6   4  -8    2.25    0.93
   6  -4   8    2.98    0.94
   6  -4   8    1.17    0.66
   6  -4   8    2.96    1.21
  -7  -3   8    9.48    1.70
  -7  -3   8    8.93    1.86
  -6  -3   8    0.03    0.71
  -6  -3   8    0.41    0.56
   5   3  -8    4.28    1.03
  -5  -3   8    5.95    1.10
  -5  -3   8    3.56    1.19
   4   3  -8    9.99    1.20
  -4  -3   8   13.18    1.58
  -4  -3   8   12.39    1.75
  -4  -3   8   10.09    1.43
   3   3  -8    1.80    0.50
  -3  -3   8    3.25    0.81
  -3  -3   8    2.53    0.78
  -3  -3   8    2.76    0.76
   2   3  -8    0.33    0.31
   2   3  -8    0.73    0.52
  -2  -3   8    0.23    0.43
  -2  -3   8    0.33    0.21
  -2  -3   8    1.25    0.60
  -2  -3   8    0.31    0.34
  -2  -3   8    0.44    0.46
  -2  -3   8    0.34    0.42
   1   3  -8   52.40    1.89
   1   3  -8   47.91    2.27
  -1  -3   8   48.24    2.19
  -1  -3   8   48.21    2.29
  -1  -3   8   47.68    2.36
  -1  -3   8   51.68    2.51
   0   3  -8    2.01    0.63
   0  -3   8    1.85    0.61
   0  -3   8    2.91    0.80
   0  -3   8    2.14    0.26
   0  -3   8    2.30    0.59
   0  -3   8    2.44    0.64
  -1   3  -8   15.88    1.54
   1  -3   8   15.66    1.63
   1  -3   8   14.72    1.61
   1  -3   8   15.93    1.54
   1  -3   8   14.61    0.78
  -2   3  -8    4.93    0.97
   2  -3   8    5.09    0.98
   2  -3   8    4.66    0.98
   2  -3   8    5.18    0.67
  -3   3  -8    4.15    0.88
   3  -3   8    2.71    0.84
   3  -3   8    4.13    0.91
   3  -3   8    2.52    0.57
  -4   3  -8   10.50    1.46
  -4   3  -8   10.89    1.44
   4  -3   8    9.00    1.41
   4  -3   8   13.47    1.45
   4  -3   8    8.33    1.39
  -5   3  -8    0.33    0.55
   5  -3   8    0.88    0.52
   5  -3   8   -0.03    0.58
   5  -3   8    0.76    0.60
  -6   3  -8   -0.05    0.49
   6  -3   8   -0.54    0.55
   6  -3   8    0.23    0.47
   6  -3   8   -0.56    0.58
  -7  -2   8    2.46    1.13
  -7  -2   8    0.44    0.72
  -6  -2   8   21.10    2.23
  -6  -2   8   20.58    2.47
   5   2  -8    4.05    0.94
  -5  -2   8    4.55    1.21
  -5  -2   8    3.29    0.89
   4   2  -8   55.90    2.55
  -4  -2   8   50.04    2.98
  -4  -2   8   52.18    2.74
  -4  -2   8   46.20    2.44
   3   2  -8    6.07    0.92
  -3  -2   8    4.82    1.03
  -3  -2   8    8.20    1.35
  -3  -2   8    7.58    1.12
   2   2  -8    2.88    0.74
   2   2  -8    4.15    0.70
  -2  -2   8    2.97    0.68
  -2  -2   8    3.02    0.80
  -2  -2   8    4.58    0.98
  -2  -2   8    3.47    0.70
   1   2  -8   31.05    1.50
   1   2  -8   31.65    1.74
  -1  -2   8   32.65    1.91
  -1  -2   8   31.42    1.88
  -1  -2   8   31.02    1.70
  -1  -2   8   30.15    1.80
  -1  -2   8   33.38    1.78
  -1  -2   8   32.66    1.17
   0   2  -8   12.07    1.30
   0  -2   8   14.69    1.43
   0  -2   8   13.88    1.45
   0  -2   8   14.68    1.16
   0  -2   8   15.48    1.55
   0  -2   8   13.26    0.74
   0  -2   8   11.43    1.36
  -1   2  -8    0.52    0.43
   1  -2   8   -0.24    0.36
   1  -2   8    0.94    0.47
   1  -2   8    0.02    0.20
   1  -2   8    0.28    0.44
   1  -2   8   -0.04    0.32
  -2   2  -8    0.97    0.50
   2  -2   8    0.69    0.49
   2  -2   8    0.68    0.48
   2  -2   8    1.02    0.35
  -3   2  -8   12.04    1.43
   3  -2   8    8.76    1.24
   3  -2   8   10.06    1.33
   3  -2   8    8.59    0.98
  -4   2  -8    1.77    0.59
   4  -2   8    2.78    0.65
   4  -2   8    3.23    0.87
   4  -2   8    3.98    0.97
  -5   2  -8   13.89    1.35
  -5   2  -8   13.56    1.74
   5  -2   8   15.02    1.81
   5  -2   8   15.34    1.80
   5  -2   8   11.89    1.41
  -6   2  -8    1.73    0.74
   6  -2   8    1.87    0.70
   6  -2   8    1.40    0.86
   6  -2   8    2.59    0.87
  -7   2  -8    1.62    0.87
   7  -2   8    2.90    1.09
   7  -2   8    1.86    0.90
  -7  -1   8   -0.32    0.75
  -7  -1   8   -0.20    0.75
  -6  -1   8    1.21    0.81
  -6  -1   8    0.94    0.88
   5   1  -8   28.92    2.09
   5   1  -8   28.16    1.57
  -5  -1   8   25.47    1.93
  -5  -1   8   26.23    2.33
   4   1  -8   14.24    1.00
   4   1  -8   14.63    1.69
  -4  -1   8   11.80    1.44
  -4  -1   8   10.79    1.64
  -4  -1   8   13.69    1.61
   3   1  -8   19.62    1.46
  -3  -1   8   20.72    1.81
  -3  -1   8   23.53    1.75
  -3  -1   8   15.89    1.56
   2   1  -8    0.49    0.36
  -2  -1   8    0.89    0.45
  -2  -1   8    0.87    0.49
  -2  -1   8    0.61    0.43
  -2  -1   8    1.01    0.53
   1   1  -8    7.87    0.93
   1   1  -8    7.70    1.02
  -1  -1   8    8.72    1.20
  -1  -1   8   11.35    1.22
  -1  -1   8    9.32    1.19
  -1  -1   8   10.76    1.25
  -1  -1   8   10.67    1.21
   0   1  -8   44.07    1.30
   0   1  -8   39.99    1.90
   0   1  -8   38.97    1.76
   0  -1   8   46.78    2.08
   0  -1   8   39.50    1.97
   0  -1   8   39.23    1.99
   0  -1   8   45.60    1.58
   0  -1   8   41.13    1.91
   0  -1   8   36.69    1.98
  -1   1  -8    5.66    0.56
  -1   1  -8    4.23    0.75
   1  -1   8    4.15    0.71
   1  -1   8    4.52    0.83
   1  -1   8    3.85    0.71
   1  -1   8    3.85    0.79
   1  -1   8    3.84    0.75
   1  -1   8    3.65    0.58
  -2   1  -8   20.74    1.41
  -2   1  -8   19.76    0.99
   2  -1   8   21.16    1.51
   2  -1   8   20.85    1.17
   2  -1   8   19.57    1.38
  -3   1  -8   33.24    1.91
  -3   1  -8   40.55    1.60
   3  -1   8   40.01    1.80
   3  -1   8   38.03    2.11
   3  -1   8   38.90    2.03
  -4   1  -8    0.62    0.38
  -4   1  -8    0.70    0.44
   4  -1   8    0.64    0.52
   4  -1   8    0.31    0.44
   4  -1   8    0.58    0.43
  -5   1  -8    0.88    0.54
  -5   1  -8    1.77    0.57
   5  -1   8    2.20    0.76
   5  -1   8    1.08    0.59
   5  -1   8    1.20    0.57
  -6   1  -8    3.07    0.91
   6  -1   8    4.26    1.04
   6  -1   8    2.99    0.85
   6  -1   8    3.88    0.97
  -7   1  -8    0.47    0.62
   7  -1   8   -0.19    0.53
  -6   0   8    2.35    0.90
  -6   0   8    2.11    1.03
   5   0  -8    4.98    0.87
   5   0  -8    3.69    0.99
  -5   0   8    4.14    1.16
  -5   0   8    2.63    0.82
   4   0  -8    0.07    0.28
   4   0  -8   -0.27    0.41
  -4   0   8   -0.07    0.51
  -4   0   8   -0.05    0.47
   3   0  -8    7.46    0.80
   3   0  -8    8.33    1.14
  -3   0   8    9.10    1.16
  -3   0   8   11.07    1.58
  -3   0   8    7.05    1.18
   2   0  -8   12.45    1.37
   2   0  -8   12.69    0.83
  -2   0   8   10.29    1.35
  -2   0   8   12.64    1.30
  -2   0   8   12.35    1.29
  -2   0   8    8.07    1.22
   1   0  -8    0.06    0.32
   1   0  -8   -0.08    0.26
   1   0  -8    0.10    0.18
  -1   0   8   -0.02    0.34
  -1   0   8   -0.19    0.34
  -1   0   8    0.29    0.38
  -1   0   8    0.07    0.34
   0   0  -8   18.28    1.21
   0   0  -8   19.19    1.26
   0   0  -8   19.24    0.91
   0   0   8   19.91    1.42
   0   0   8   19.09    1.36
   0   0   8   19.05    1.37
   0   0   8   19.52    1.27
   0   0   8   19.44    1.30
  -1   0  -8   24.63    1.44
  -1   0  -8   26.70    1.10
   1   0   8   25.32    1.53
   1   0   8   24.25    1.50
   1   0   8   27.12    1.52
   1   0   8   26.58    1.57
   1   0   8   24.24    1.25
   1   0   8   29.20    1.50
  -2   0  -8   21.60    1.06
  -2   0  -8   18.27    1.29
   2   0   8   20.74    1.48
   2   0   8   23.32    1.45
   2   0   8   19.23    1.15
   2   0   8   21.78    1.28
  -3   0  -8  147.50    4.27
  -3   0  -8  149.58    3.66
   3   0   8  147.23    4.19
   3   0   8  149.76    4.50
   3   0   8  155.84    4.04
  -4   0  -8    7.10    1.05
  -4   0  -8    8.65    0.93
   4   0   8    6.20    0.94
   4   0   8    8.18    1.07
   4   0   8    6.24    1.02
  -5   0  -8    9.19    1.27
  -5   0  -8   10.50    1.15
   5   0   8    7.45    1.09
   5   0   8    9.54    1.26
   5   0   8    8.61    1.24
  -6   0  -8   25.06    2.33
  -6   0  -8   29.00    2.00
   6   0   8   32.90    3.44
   6   0   8   28.77    1.93
   6   0   8   33.01    2.09
  -7   0  -8    0.66    0.70
  -8   0  -8    0.48    0.64
  -6   1   8   40.09    3.13
  -6   1   8   41.49    2.56
  -5   1   8    2.23    0.72
  -5   1   8    1.88    0.93
   4  -1  -8    7.87    0.98
   4  -1  -8    2.70    0.78
  -4   1   8    7.12    1.43
  -4   1   8    5.34    0.95
   3  -1  -8   52.42    2.59
   3  -1  -8   54.66    2.06
  -3   1   8   55.61    2.80
  -3   1   8   52.20    2.31
  -3   1   8   56.22    3.02
   2  -1  -8    5.16    0.68
   2  -1  -8    5.83    0.99
  -2   1   8    6.11    1.20
  -2   1   8    5.63    1.05
  -2   1   8    4.47    0.81
  -2   1   8    6.13    0.96
   1  -1  -8   24.84    1.37
   1  -1  -8   24.03    1.16
   1  -1  -8   22.78    1.48
  -1   1   8   23.25    1.36
  -1   1   8   22.49    1.59
  -1   1   8   21.99    1.67
  -1   1   8   23.46    1.54
   0  -1  -8   39.21    1.90
   0  -1  -8   38.73    1.45
   0  -1  -8   40.06    1.72
   0   1   8   39.05    1.91
   0   1   8   39.49    1.71
   0   1   8   36.93    2.01
   0   1   8   38.48    1.97
  -1  -1  -8    7.05    0.90
  -1  -1  -8    6.09    0.63
  -1  -1  -8    7.35    1.00
   1   1   8    6.83    0.88
   1   1   8    8.40    1.06
   1   1   8    6.93    0.96
   1   1   8    6.71    0.90
   1   1   8    6.99    0.97
  -2  -1  -8   19.91    1.02
  -2  -1  -8   18.32    1.21
   2   1   8   18.07    1.25
   2   1   8   18.08    1.24
   2   1   8   19.35    1.26
   2   1   8   18.36    1.31
   2   1   8   17.55    1.12
  -3  -1  -8    9.66    0.88
  -3  -1  -8   10.70    1.17
   3   1   8    9.26    1.03
   3   1   8   10.61    1.27
   3   1   8    9.06    1.04
   3   1   8    9.50    1.01
  -4  -1  -8   23.10    1.26
  -4  -1  -8   18.83    1.40
   4   1   8   21.60    1.55
   4   1   8   21.65    1.39
   4   1   8   19.98    1.36
  -5  -1  -8    3.17    0.63
  -5  -1  -8    2.69    0.74
   5   1   8    2.57    0.41
   5   1   8    3.63    0.81
   5   1   8    3.63    0.77
   5   1   8    2.30    0.73
  -6  -1  -8    3.55    0.90
  -6  -1  -8    4.34    0.76
   6   1   8    3.84    0.88
   6   1   8    4.09    0.89
  -7  -1  -8    0.87    0.71
  -8  -1  -8    4.23    1.14
  -6   2   8    1.65    1.03
  -5   2   8    6.03    1.47
   4  -2  -8   45.76    2.19
  -4   2   8   54.15    2.48
  -4   2   8   48.22    3.06
   3  -2  -8   -0.02    0.50
   3  -2  -8    0.21    0.28
  -3   2   8    0.04    0.40
  -3   2   8    0.31    0.47
   2  -2  -8   66.57    2.24
   2  -2  -8   63.32    2.82
  -2   2   8   62.73    2.89
  -2   2   8   66.21    2.65
  -2   2   8   66.19    3.16
  -2   2   8   63.20    2.37
   1  -2  -8   78.61    2.38
   1  -2  -8   76.24    2.50
   1  -2  -8   78.11    2.98
  -1   2   8   77.19    2.86
  -1   2   8   77.33    2.51
  -1   2   8   74.98    3.24
  -1   2   8   79.16    3.06
   0  -2  -8  288.96    5.85
   0  -2  -8  288.86    6.09
   0  -2  -8  299.76    6.78
   0   2   8  289.97    6.78
   0   2   8  284.86    6.65
   0   2   8  290.31    6.08
   0   2   8  289.30    7.17
  -1  -2  -8   27.52    1.23
  -1  -2  -8   26.91    1.60
  -1  -2  -8   26.52    1.35
   1   2   8   27.10    1.68
   1   2   8   29.32    1.36
   1   2   8   23.91    1.57
   1   2   8   28.30    1.60
  -2  -2  -8  152.82    3.58
  -2  -2  -8  151.64    4.31
  -2  -2  -8  156.01    4.51
  -2  -2  -8  147.06    3.87
   2   2   8  149.71    4.33
   2   2   8  153.99    4.03
   2   2   8  151.24    4.04
   2   2   8  153.31    4.37
  -3  -2  -8    0.94    0.35
  -3  -2  -8    0.95    0.41
   3   2   8    0.89    0.39
   3   2   8    0.91    0.53
   3   2   8    1.55    0.51
  -4  -2  -8    0.30    0.27
  -4  -2  -8    0.54    0.44
   4   2   8    0.60    0.46
   4   2   8    0.31    0.37
   4   2   8    0.30    0.24
   4   2   8    0.46    0.33
   4   2   8    0.80    0.38
  -5  -2  -8    0.02    0.34
  -5  -2  -8    0.04    0.36
   5   2   8    0.94    0.55
   5   2   8    0.49    0.29
   5   2   8    0.36    0.33
  -6  -2  -8   21.30    1.98
  -6  -2  -8   20.21    1.30
   6   2   8   21.03    1.65
   6   2   8   21.35    1.20
  -7  -2  -8    0.95    0.64
   7   2   8    0.19    0.31
  -8  -2  -8    0.62    0.75
  -5   3   8   15.30    2.27
  -4   3   8    4.83    1.31
   3  -3  -8    0.02    0.27
  -3   3   8    0.38    0.56
  -3   3   8    0.04    0.50
   2  -3  -8   57.44    2.15
  -2   3   8   61.62    2.96
  -2   3   8   59.35    3.11
  -2   3   8   59.99    2.68
   1  -3  -8   24.46    1.69
   1  -3  -8   24.00    1.24
   1  -3  -8   26.74    1.32
  -1   3   8   24.62    1.72
  -1   3   8   21.85    1.59
  -1   3   8   23.45    1.26
  -1   3   8   23.13    1.80
   0  -3  -8    0.58    0.39
   0  -3  -8    1.23    0.40
   0  -3  -8    0.81    0.31
   0   3   8    0.27    0.46
   0   3   8    0.93    0.41
   0   3   8    1.12    0.37
   0   3   8    1.08    0.60
   0   3   8    1.04    0.49
  -1  -3  -8   32.00    1.50
  -1  -3  -8   29.10    1.34
  -1  -3  -8   27.04    1.26
  -1  -3  -8   28.69    1.72
   1   3   8   29.54    1.64
   1   3   8   31.77    1.85
   1   3   8   30.61    1.29
   1   3   8   26.68    1.86
   1   3   8   31.62    1.35
  -2  -3  -8    8.35    0.89
  -2  -3  -8    8.68    0.82
  -2  -3  -8    7.12    0.99
  -2  -3  -8    8.83    1.18
   2   3   8    8.50    0.98
   2   3   8    8.20    1.16
   2   3   8    6.87    1.08
  -3  -3  -8   13.13    1.00
  -3  -3  -8   10.16    1.27
  -3  -3  -8   13.36    0.87
   3   3   8   12.87    0.97
   3   3   8    9.86    1.21
   3   3   8   11.39    1.34
  -4  -3  -8   44.11    1.67
  -4  -3  -8   36.85    2.16
  -4  -3  -8   42.32    1.93
   4   3   8   40.28    1.62
   4   3   8   39.61    2.09
  -5  -3  -8   -0.04    0.31
  -5  -3  -8   -0.06    0.37
   5   3   8    0.44    0.41
   5   3   8    0.20    0.37
   5   3   8   -0.19    0.22
  -6  -3  -8  120.31    4.10
  -6  -3  -8  118.03    3.31
   6   3   8  120.03    3.42
   6   3   8  120.46    4.05
  -7  -3  -8    6.79    1.26
  -7  -3  -8    6.79    0.86
  -8  -3  -8    1.12    0.75
  -9  -3  -8    5.68    1.41
  -5   4   8    0.57    0.85
  -4   4   8   -0.82    0.50
   3  -4  -8   70.76    2.47
  -3   4   8   68.30    3.10
  -3   4   8   70.64    3.67
   2  -4  -8   38.13    1.69
  -2   4   8   36.81    2.50
  -2   4   8   43.51    2.33
   1  -4  -8   10.56    0.99
  -1   4   8    8.31    1.42
  -1   4   8   10.28    1.15
  -1   4   8   11.46    1.42
  -1   4   8    8.11    1.23
   0  -4  -8    5.21    0.82
   0  -4  -8    5.97    0.70
   0   4   8    6.49    1.03
   0   4   8    4.99    0.74
   0   4   8    7.13    1.22
   0   4   8    5.36    0.98
  -1  -4  -8   47.69    1.68
  -1  -4  -8   46.10    2.01
   1   4   8   48.79    2.38
   1   4   8   45.03    2.11
   1   4   8   49.30    1.92
   1   4   8   47.63    2.53
  -2  -4  -8   32.75    1.34
  -2  -4  -8   33.83    1.43
   2   4   8   32.87    1.66
   2   4   8   36.53    2.15
   2   4   8   33.01    1.57
   2   4   8   34.97    1.97
  -3  -4  -8    3.89    0.85
  -3  -4  -8    3.56    0.63
  -3  -4  -8    4.51    0.59
   3   4   8    3.03    0.60
   3   4   8    3.20    0.87
   3   4   8    3.24    0.87
   3   4   8    4.28    0.64
  -4  -4  -8   11.92    0.82
  -4  -4  -8   12.11    1.53
  -4  -4  -8   12.39    1.20
   4   4   8   12.61    1.45
   4   4   8   11.65    0.90
   4   4   8   15.83    1.73
   4   4   8   11.64    1.45
  -5  -4  -8   17.51    1.30
  -5  -4  -8   18.15    1.94
  -5  -4  -8   16.61    0.99
   5   4   8   19.21    1.57
   5   4   8   15.02    1.60
   5   4   8   14.47    1.05
  -6  -4  -8   19.26    2.07
  -6  -4  -8   19.37    1.84
  -6  -4  -8   19.85    1.09
   6   4   8   16.54    1.18
   6   4   8   17.97    1.61
   6   4   8   18.31    1.75
  -7  -4  -8   14.06    1.74
  -8  -4  -8    8.38    1.50
  -9  -4  -8    3.11    1.14
  -4   5   8    2.37    1.17
   3  -5  -8    7.37    1.23
  -3   5   8   12.40    1.88
  -3   5   8    9.27    1.46
   2  -5  -8   25.24    1.28
  -2   5   8   27.87    2.01
  -2   5   8   26.10    2.22
  -2   5   8   26.09    3.05
   1  -5  -8    0.85    0.32
   1  -5  -8    0.95    0.43
  -1   5   8    0.72    0.59
  -1   5   8    0.44    0.45
  -1   5   8    1.48    0.70
  -1   5   8    2.05    0.78
   0  -5  -8   18.63    1.00
   0  -5  -8   20.79    1.40
   0   5   8   18.07    1.50
   0   5   8   21.86    1.88
   0   5   8   19.23    1.39
   0   5   8   16.16    1.68
  -1  -5  -8   -0.11    0.20
  -1  -5  -8    0.01    0.19
   1   5   8    0.24    0.40
   1   5   8    0.40    0.48
   1   5   8    0.37    0.37
   1   5   8   -0.20    0.29
  -2  -5  -8    3.30    0.44
   2   5   8    3.97    0.72
   2   5   8    2.90    0.79
   2   5   8    3.39    0.84
   2   5   8    4.08    0.76
   3   5   8   64.44    3.06
   3   5   8   60.81    2.73
   3   5   8   61.47    2.19
  -4  -5  -8    2.46    0.57
  -4  -5  -8    2.66    0.39
  -4  -5  -8    2.86    0.81
   4   5   8    1.89    0.66
   4   5   8    2.88    0.56
   4   5   8    3.32    0.87
  -5  -5  -8   90.50    3.05
  -5  -5  -8   90.68    3.74
   5   5   8   91.72    3.65
   5   5   8   88.51    3.70
   5   5   8   86.47    2.84
   5   5   8   84.96    3.35
  -6  -5  -8   29.38    1.85
  -6  -5  -8   35.77    2.35
   6   5   8   28.96    2.13
   6   5   8   30.36    1.62
   6   5   8   27.49    1.84
  -7  -5  -8    9.44    1.53
  -7  -5  -8    6.51    1.10
   7   5   8    3.34    0.88
  -8  -5  -8    6.66    1.27
  -8  -5  -8    7.01    1.49
  -9  -5  -8    1.69    0.89
  -3   6   8   -0.60    0.52
  -3   6   8    0.84    0.80
  -2   6   8   15.87    2.28
  -2   6   8   17.32    2.04
  -2   6   8   17.17    1.95
   1  -6  -8    9.50    1.25
  -1   6   8   15.22    1.70
  -1   6   8   15.59    2.12
  -1   6   8   18.59    2.06
   0  -6  -8    0.20    0.32
   0   6   8   -0.66    0.34
   0   6   8   -0.33    0.52
   0   6   8   -0.04    0.51
   0   6   8    0.03    0.28
   1   6   8   60.96    3.21
   1   6   8   64.07    2.99
   1   6   8   63.85    2.78
   2   6   8   13.92    1.61
   2   6   8   11.55    1.54
   3   6   8    4.09    0.71
   3   6   8    4.88    1.06
   3   6   8    6.50    1.20
   3   6   8    3.60    0.84
  -4  -6  -8  162.00    5.21
   4   6   8  164.52    5.48
   4   6   8  157.32    4.97
   4   6   8  166.07    4.24
  -5  -6  -8   51.25    2.74
   5   6   8   47.58    2.81
   5   6   8   40.37    2.46
   5   6   8   49.83    2.56
   5   6   8   51.52    2.12
  -6  -6  -8   21.32    2.23
   6   6   8   22.81    2.02
   6   6   8   22.85    1.72
   6   6   8   21.92    1.42
  -7  -6  -8    5.49    1.25
  -7  -6  -8    4.19    0.99
   7   6   8    5.04    1.26
  -8  -6  -8   -0.06    0.63
  -8  -6  -8    1.02    0.69
  -9  -6  -8    5.99    1.48
  -9  -6  -8    4.34    1.28
   3  -7  -8   -0.55    0.59
  -3   7   8    0.70    0.85
  -3   7   8    0.41    0.83
   2  -7  -8    1.87    0.91
  -2   7   8    1.77    0.85
  -2   7   8    1.06    0.93
  -2   7   8    1.35    0.75
   1  -7  -8    0.57    0.50
  -1   7   8    0.74    0.61
  -1   7   8    1.14    0.81
  -1   7   8    1.81    0.83
   0  -7  -8    8.64    1.24
   0   7   8    8.32    1.46
   0   7   8    9.94    1.46
   0   7   8    8.55    1.53
  -1  -7  -8    0.63    0.38
   1   7   8   -0.16    0.34
   1   7   8   -0.18    0.35
   1   7   8   -0.01    0.47
   2   7   8    5.75    1.17
   2   7   8    4.30    1.09
   2   7   8    4.79    0.96
   3   7   8    1.61    0.76
   3   7   8    2.81    0.93
   3   7   8    2.95    0.80
   3   7   8    2.01    0.54
   4   7   8    0.94    0.60
   4   7   8    0.49    0.36
   4   7   8    0.79    0.62
  -5  -7  -8    1.20    0.63
   5   7   8    0.97    0.61
   5   7   8    0.66    0.63
   5   7   8    0.55    0.38
  -6  -7  -8    7.51    1.36
   6   7   8    7.57    1.34
   6   7   8    4.38    1.19
   6   7   8    5.53    0.87
   6   7   8    4.06    1.00
  -7  -7  -8   18.30    2.16
   7   7   8   17.31    2.22
  -8  -7  -8    3.46    1.08
   8   7   8    2.55    1.03
   2  -8  -8   36.27    2.71
  -2   8   8   36.67    3.74
  -2   8   8   34.70    2.77
  -2   8   8   35.99    2.79
   1  -8  -8    0.33    0.50
   1  -8  -8    1.67    0.82
  -1   8   8    1.60    0.86
  -1   8   8    1.61    0.98
  -1   8   8    1.00    0.90
   0  -8  -8   21.87    1.75
   0  -8  -8   23.34    2.26
   0   8   8   20.07    2.58
   0   8   8   19.19    2.16
   0   8   8   20.95    2.35
  -1  -8  -8    0.58    0.51
   1   8   8    1.28    0.75
   1   8   8    2.16    0.82
   1   8   8    0.98    0.65
   2   8   8    0.47    0.58
   2   8   8    0.18    0.50
   2   8   8    0.42    0.59
   3   8   8    1.23    0.51
   3   8   8    0.33    0.47
   3   8   8    1.94    0.75
   3   8   8    1.45    0.79
   4   8   8   14.14    1.94
   4   8   8   13.65    1.73
   4   8   8   12.65    1.23
   4   8   8   11.55    1.60
   5   8   8    1.76    0.58
   5   8   8    0.95    0.64
   5   8   8    1.82    0.85
  -6  -8  -8    1.48    0.72
   6   8   8    0.21    0.67
   6   8   8    0.65    0.69
  -7  -8  -8   -0.15    0.47
   7   8   8    0.33    0.62
  -8  -8  -8   -0.52    0.47
   8   8   8    0.77    0.73
   0  -9  -8   -0.01    0.53
   0   9   8    0.76    0.74
   0   9   8    0.44    0.64
   0   9   8    0.30    0.62
  -1  -9  -8   -0.02    0.40
   1   9   8    0.34    0.65
   1   9   8   -0.35    0.53
   1   9   8    0.42    0.72
   2   9   8    0.35    0.62
   2   9   8    0.50    0.64
   2   9   8    0.30    0.55
   3   9   8    0.41    0.42
   3   9   8    0.12    0.54
   3   9   8   -0.17    0.42
   3   9   8    0.31    0.62
   4   9   8   20.66    2.26
   4   9   8   22.16    2.63
   4   9   8   16.99    2.02
   4   9   8   20.70    1.92
   5   9   8    6.27    1.28
   5   9   8    6.44    1.39
   5   9   8    8.61    1.71
   6   9   8    6.78    1.60
   6   9   8    9.92    1.95
   7   9   8    6.81    1.59
  -1 -10  -8   -0.12    0.47
   1  10   8   -0.32    0.78
   1  10   8   -0.26    0.55
   1  10   8   -0.14    0.72
   2  10   8    0.02    0.58
   2  10   8    0.45    0.66
   2  10   8   -0.22    0.76
   3  10   8    0.03    0.60
   3  10   8   -0.25    0.50
   3  10   8    0.24    0.57
   4  10   8    0.26    0.73
   4  10   8   -0.05    0.60
   4  10   8    0.98    0.76
   5  10   8   44.45    2.91
   5  10   8   38.23    3.07
   5  10   8   40.96    2.93
   6  10   8    2.63    1.07
   6  10   8    2.37    1.08
   4   8  -9    0.27    0.56
  -4  -8   9    0.64    0.84
   3   8  -9    0.24    0.59
  -3  -8   9   -0.47    0.54
  -3  -8   9    0.40    0.76
   2   8  -9    1.85    0.75
  -2  -8   9    0.33    0.67
  -2  -8   9    0.17    0.69
  -2  -8   9    1.00    0.75
   1   8  -9    0.15    0.47
  -1  -8   9    0.32    0.62
  -1  -8   9    2.46    0.98
  -1  -8   9    0.34    0.70
   0  -8   9    1.28    0.89
   0  -8   9    0.44    0.75
   1  -8   9    4.88    1.39
   1  -8   9    5.40    1.54
   5   7  -9   -0.48    0.54
  -5  -7   9    1.00    0.76
  -5  -7   9    0.02    0.65
   4   7  -9    9.20    1.53
  -4  -7   9    5.61    1.30
  -4  -7   9    7.43    1.41
  -4  -7   9    7.50    1.51
   3   7  -9   -0.36    0.47
  -3  -7   9    0.51    0.60
  -3  -7   9    0.61    0.67
   2   7  -9   11.16    1.62
  -2  -7   9   12.80    1.65
  -2  -7   9    9.33    1.42
  -2  -7   9   11.65    1.64
   1   7  -9    0.51    0.55
  -1  -7   9    0.04    0.57
  -1  -7   9    0.88    0.66
  -1  -7   9    1.28    0.74
   0   7  -9    3.10    0.93
   0  -7   9    3.77    1.14
   0  -7   9    3.14    0.95
   0  -7   9    2.15    0.97
  -1   7  -9    0.80    0.60
   1  -7   9    0.27    0.60
   1  -7   9    0.34    0.79
  -2   7  -9    1.19    0.82
   2  -7   9    1.23    0.72
   2  -7   9    1.58    0.92
   2  -7   9    1.53    0.56
  -6  -6   9    1.70    0.90
  -6  -6   9    1.86    0.91
  -5  -6   9   12.01    1.76
  -5  -6   9   11.49    1.93
   4   6  -9    3.96    1.09
  -4  -6   9    4.54    1.16
  -4  -6   9    4.74    1.25
   3   6  -9    1.43    0.72
  -3  -6   9    0.40    0.53
  -3  -6   9    0.48    0.62
  -3  -6   9    0.83    0.56
   2   6  -9    1.70    0.44
   2   6  -9    2.13    0.76
  -2  -6   9    0.77    0.68
  -2  -6   9    0.92    0.55
  -2  -6   9    3.08    0.91
   1   6  -9    5.70    1.16
  -1  -6   9    4.57    1.09
  -1  -6   9    5.40    1.14
  -1  -6   9    4.72    1.02
   0   6  -9    2.24    0.75
   0  -6   9    1.47    0.78
   0  -6   9    2.32    0.83
   0  -6   9    2.85    0.95
  -1   6  -9    0.09    0.49
   1  -6   9    0.71    0.74
   1  -6   9    0.61    0.63
  -2   6  -9    5.87    1.17
   2  -6   9    7.02    0.90
   2  -6   9    7.04    1.54
   2  -6   9    7.50    1.52
  -3   6  -9    3.04    0.83
   3  -6   9    2.09    0.97
   3  -6   9    2.16    0.95
   3  -6   9    3.07    0.75
  -6  -5   9    1.00    0.73
  -6  -5   9    1.05    0.94
  -5  -5   9   18.20    2.35
  -5  -5   9   17.31    2.00
   4   5  -9    0.63    0.58
  -4  -5   9    1.25    0.65
  -4  -5   9    1.24    0.69
   3   5  -9    0.68    0.54
   3   5  -9    0.87    0.36
  -3  -5   9    0.52    0.56
  -3  -5   9    0.22    0.55
  -3  -5   9    0.14    0.38
   2   5  -9    1.26    0.40
   2   5  -9    1.57    0.64
  -2  -5   9    0.95    0.54
  -2  -5   9    0.93    0.57
  -2  -5   9    1.35    0.68
  -2  -5   9    1.86    0.66
   1   5  -9    1.76    0.45
   1   5  -9    0.75    0.53
  -1  -5   9    1.52    0.68
  -1  -5   9    1.68    0.66
  -1  -5   9    2.68    0.78
   0   5  -9    0.58    0.45
   0  -5   9    0.53    0.49
   0  -5   9    0.46    0.48
   0  -5   9    0.33    0.44
  -1   5  -9   42.78    2.44
   1  -5   9   44.15    2.61
   1  -5   9   44.08    1.49
   1  -5   9   40.38    2.32
   1  -5   9   43.69    2.63
  -2   5  -9    0.27    0.51
   2  -5   9    0.12    0.58
   2  -5   9    0.26    0.51
   2  -5   9   -0.04    0.28
  -3   5  -9    0.78    0.61
   3  -5   9    0.99    0.48
   3  -5   9    1.31    0.68
   3  -5   9    1.36    0.82
  -4   5  -9    2.42    0.95
   4  -5   9    1.50    0.97
   4  -5   9    1.34    0.76
   4  -5   9    1.47    0.63
  -6  -4   9    0.10    0.55
  -6  -4   9    0.93    0.77
  -5  -4   9    1.25    0.63
  -5  -4   9    1.26    0.89
  -4  -4   9   43.26    2.91
  -4  -4   9   40.26    2.41
   3   4  -9    1.46    0.62
   3   4  -9    2.92    0.67
  -3  -4   9    1.01    0.60
  -3  -4   9    0.25    0.20
  -3  -4   9    1.75    0.70
   2   4  -9   13.04    1.54
   2   4  -9   10.84    1.09
  -2  -4   9   11.27    1.57
  -2  -4   9   10.01    1.41
  -2  -4   9    9.93    1.28
  -2  -4   9    7.38    1.26
  -2  -4   9    9.69    1.35
   1   4  -9   -0.25    0.24
   1   4  -9   -0.13    0.20
  -1  -4   9    0.35    0.50
  -1  -4   9    0.16    0.42
  -1  -4   9   -0.56    0.34
  -1  -4   9    0.24    0.38
   0   4  -9    1.48    0.64
   0  -4   9    1.41    0.67
   0  -4   9    1.29    0.58
   0  -4   9    1.13    0.66
  -1   4  -9   21.86    2.02
   1  -4   9   25.31    1.10
   1  -4   9   21.46    1.74
   1  -4   9   21.29    2.07
   1  -4   9   24.08    1.72
  -2   4  -9    0.34    0.45
   2  -4   9    0.58    0.52
   2  -4   9   -0.17    0.39
   2  -4   9    1.32    0.43
  -3   4  -9    4.31    0.97
   3  -4   9    4.96    1.12
   3  -4   9    4.76    1.09
   3  -4   9    3.30    0.71
  -4   4  -9   -0.32    0.46
   4  -4   9   -0.14    0.61
   4  -4   9   -0.08    0.44
   4  -4   9    0.27    0.40
  -5   4  -9    0.79    0.77
   5  -4   9    1.61    0.84
   5  -4   9    1.87    0.95
   5  -4   9    1.19    0.59
  -6  -3   9    0.48    0.64
  -6  -3   9    0.74    0.77
  -5  -3   9   21.33    2.21
  -5  -3   9   20.88    2.49
   4   3  -9   15.31    1.60
  -4  -3   9   13.30    1.60
  -4  -3   9   14.65    1.97
   3   3  -9    0.20    0.41
   3   3  -9    0.61    0.37
  -3  -3   9    0.52    0.48
  -3  -3   9    0.04    0.46
  -3  -3   9    0.21    0.50
   2   3  -9   71.99    3.03
   2   3  -9   71.01    2.58
  -2  -3   9   72.19    3.16
  -2  -3   9   72.06    3.30
  -2  -3   9   77.64    3.32
  -2  -3   9   77.69    3.08
  -2  -3   9   74.77    2.06
  -2  -3   9   75.90    2.86
   1   3  -9    1.06    0.55
   1   3  -9    0.38    0.29
  -1  -3   9    0.47    0.32
  -1  -3   9    0.89    0.49
  -1  -3   9    1.78    0.64
  -1  -3   9    0.50    0.50
  -1  -3   9   -0.14    0.12
  -1  -3   9    0.05    0.34
   0   3  -9    0.01    0.32
   0  -3   9    0.42    0.48
   0  -3   9   -0.39    0.33
   0  -3   9    0.00    0.18
   0  -3   9    0.29    0.43
  -1   3  -9    8.22    1.19
   1  -3   9   12.41    1.53
   1  -3   9   11.37    1.43
   1  -3   9   11.96    1.41
   1  -3   9   12.03    0.80
  -2   3  -9   41.34    2.30
   2  -3   9   41.71    1.75
   2  -3   9   40.54    2.34
   2  -3   9   42.60    2.42
  -3   3  -9   -0.02    0.36
   3  -3   9    0.35    0.48
   3  -3   9    0.03    0.26
   3  -3   9    0.66    0.58
  -4   3  -9    3.54    0.97
   4  -3   9    3.77    1.04
   4  -3   9    2.91    0.72
   4  -3   9    3.31    0.93
  -5   3  -9    1.01    0.65
   5  -3   9    1.18    0.74
   5  -3   9    1.37    0.64
   5  -3   9    0.50    0.66
  -6   3  -9    0.09    0.57
   6  -3   9    0.85    0.72
   6  -3   9   -0.02    0.53
   6  -3   9    0.87    0.67
  -6  -2   9    1.31    0.78
  -6  -2   9    0.69    0.80
  -5  -2   9    2.08    0.90
  -5  -2   9    3.27    0.94
   4   2  -9   -0.37    0.31
  -4  -2   9    0.14    0.53
  -4  -2   9    0.04    0.49
   3   2  -9    0.36    0.42
  -3  -2   9   -0.13    0.34
  -3  -2   9   -0.08    0.40
  -3  -2   9    0.55    0.53
   2   2  -9   19.04    1.78
   2   2  -9   17.63    1.29
  -2  -2   9   18.08    1.39
  -2  -2   9   18.00    1.60
  -2  -2   9   15.26    1.67
  -2  -2   9   21.74    1.88
   1   2  -9    1.94    0.64
   1   2  -9    2.38    0.57
  -1  -2   9    1.24    0.57
  -1  -2   9    2.09    0.71
  -1  -2   9    1.73    0.42
  -1  -2   9    1.98    0.73
  -1  -2   9    1.69    0.63
  -1  -2   9    2.24    0.68
   0   2  -9    0.45    0.43
   0   2  -9    0.10    0.27
   0  -2   9    0.50    0.42
   0  -2   9   -0.32    0.34
   0  -2   9    0.22    0.25
   0  -2   9    0.16    0.46
   0  -2   9    0.83    0.50
   0  -2   9    0.47    0.41
  -1   2  -9   25.32    1.66
   1  -2   9   23.85    1.71
   1  -2   9   25.25    1.24
   1  -2   9   24.90    1.65
   1  -2   9   26.20    1.78
  -2   2  -9    1.22    0.54
   2  -2   9    2.85    0.76
   2  -2   9    1.87    0.68
   2  -2   9    2.46    0.54
  -3   2  -9   26.61    1.81
   3  -2   9   19.27    1.86
   3  -2   9   21.00    1.36
   3  -2   9   22.74    1.74
  -4   2  -9   55.83    2.79
   4  -2   9   52.96    2.81
   4  -2   9   55.81    2.47
  -5   2  -9   12.13    1.30
  -5   2  -9    9.59    1.46
   5  -2   9   16.29    1.97
   5  -2   9   10.43    1.59
   5  -2   9   11.41    1.46
  -6   2  -9    0.81    0.77
   6  -2   9    1.43    0.78
   6  -2   9   -0.05    0.57
   6  -2   9    0.68    0.62
  -7   2  -9    1.79    0.89
   7  -2   9    1.74    0.87
  -6  -1   9    0.36    0.73
  -6  -1   9    0.36    0.69
   5   1  -9    3.09    0.67
  -5  -1   9    2.97    0.95
  -5  -1   9    3.54    1.13
   4   1  -9   14.55    1.67
  -4  -1   9   16.29    1.70
  -4  -1   9   12.84    1.79
   3   1  -9    0.53    0.41
  -3  -1   9    0.33    0.52
  -3  -1   9    0.51    0.49
  -3  -1   9   -0.17    0.35
   2   1  -9    3.71    0.80
   2   1  -9    4.25    0.81
  -2  -1   9    4.55    0.89
  -2  -1   9    4.93    1.10
  -2  -1   9    4.16    0.83
  -2  -1   9    4.76    1.00
   1   1  -9   15.04    1.53
   1   1  -9   13.44    1.35
  -1  -1   9   10.28    1.24
  -1  -1   9   15.07    1.53
  -1  -1   9   13.68    1.58
  -1  -1   9   14.32    1.65
   0   1  -9    1.03    0.42
   0   1  -9    0.62    0.43
   0  -1   9   -0.05    0.34
   0  -1   9    1.08    0.51
   0  -1   9    1.76    0.55
   0  -1   9    1.50    0.43
   0  -1   9    1.60    0.57
   0  -1   9    0.80    0.47
  -1   1  -9    4.33    0.87
   1  -1   9    6.71    1.08
   1  -1   9    2.44    0.68
   1  -1   9    5.22    0.95
   1  -1   9    4.93    0.70
   1  -1   9    4.46    0.80
   1  -1   9    5.36    0.94
  -2   1  -9   12.72    1.41
  -2   1  -9   14.73    0.93
   2  -1   9   16.05    1.72
   2  -1   9   14.96    1.07
   2  -1   9   12.62    1.42
  -3   1  -9   24.33    1.29
  -3   1  -9   22.74    1.67
   3  -1   9   24.08    1.77
   3  -1   9   23.11    1.44
   3  -1   9   26.07    1.73
  -4   1  -9    2.99    0.77
  -4   1  -9    4.20    0.75
   4  -1   9    4.12    0.81
   4  -1   9    2.29    0.76
   4  -1   9    4.10    0.90
  -5   1  -9   18.12    1.90
  -5   1  -9   18.39    1.36
   5  -1   9   18.52    1.91
   5  -1   9   18.18    1.51
   5  -1   9   23.12    2.27
  -6   1  -9    0.24    0.54
   6  -1   9    0.17    0.53
   6  -1   9    0.11    0.45
   6  -1   9   -0.29    0.50
  -7   1  -9    1.76    0.83
   7  -1   9    4.04    1.09
  -6   0   9   -0.21    0.61
  -6   0   9   -0.16    0.67
   5   0  -9   -0.41    0.53
  -5   0   9    0.56    0.56
  -5   0   9    0.36    0.76
   4   0  -9    8.69    1.42
   4   0  -9    6.70    0.90
  -4   0   9    8.09    1.22
  -4   0   9    6.57    1.37
   3   0  -9    4.34    0.65
   3   0  -9    4.25    0.94
  -3   0   9    2.83    0.89
  -3   0   9    5.21    0.94
   2   0  -9   -0.40    0.29
   2   0  -9    0.42    0.25
   2   0  -9    0.05    0.32
  -2   0   9    0.86    0.50
  -2   0   9   -0.03    0.35
  -2   0   9    0.39    0.49
  -2   0   9    0.30    0.50
   1   0  -9   73.85    2.80
   1   0  -9   70.54    2.69
   1   0  -9   73.53    2.18
  -1   0   9   69.74    2.67
  -1   0   9   71.57    2.74
  -1   0   9   71.71    3.02
  -1   0   9   70.21    3.12
   0   0  -9   -0.21    0.16
   0   0  -9    0.03    0.29
   0   0  -9   -0.06    0.29
   0   0   9    0.49    0.46
   0   0   9    0.27    0.33
   0   0   9   -0.06    0.30
   0   0   9   -0.35    0.29
   0   0   9   -0.24    0.30
  -1   0  -9    0.01    0.34
  -1   0  -9    0.55    0.37
  -1   0  -9    0.71    0.29
   1   0   9    1.02    0.48
   1   0   9    0.68    0.37
   1   0   9    0.21    0.37
   1   0   9    0.28    0.40
   1   0   9    0.39    0.42
   1   0   9    0.25    0.30
  -2   0  -9  116.47    2.94
  -2   0  -9  110.66    3.54
   2   0   9  107.47    3.56
   2   0   9  111.36    3.39
   2   0   9  104.11    3.17
   2   0   9  110.92    3.79
  -3   0  -9    1.24    0.50
  -3   0  -9    0.10    0.25
   3   0   9    0.84    0.49
   3   0   9    2.05    0.65
   3   0   9    0.95    0.44
  -4   0  -9   15.25    1.63
  -4   0  -9   15.08    1.32
   4   0   9   12.34    1.37
   4   0   9   17.46    1.34
   4   0   9   11.17    1.49
  -5   0  -9    0.26    0.37
  -5   0  -9    0.79    0.52
   5   0   9    1.06    0.55
   5   0   9    0.13    0.47
   5   0   9    2.26    0.79
  -6   0  -9    2.39    0.90
   6   0   9    2.08    0.77
   6   0   9    2.61    0.79
  -7   0  -9    0.17    0.58
  -6   1   9   -0.28    0.94
  -5   1   9    2.24    0.77
  -5   1   9    2.02    0.91
   4  -1  -9   14.26    1.89
   4  -1  -9   17.49    1.27
  -4   1   9   14.92    2.07
  -4   1   9   17.94    1.75
   3  -1  -9    8.31    0.96
   3  -1  -9    6.11    1.08
  -3   1   9    6.10    1.29
  -3   1   9    7.18    1.08
   2  -1  -9   85.07    3.38
   2  -1  -9   95.99    2.80
  -2   1   9   90.62    3.17
  -2   1   9   93.31    3.71
  -2   1   9   94.58    3.32
  -2   1   9   91.69    3.91
   1  -1  -9  154.51    4.24
   1  -1  -9  157.19    3.81
   1  -1  -9  148.27    4.49
  -1   1   9  154.46    4.46
  -1   1   9  162.43    4.87
  -1   1   9  154.79    4.22
  -1   1   9  157.23    5.03
   0  -1  -9   24.06    1.56
   0  -1  -9   23.71    1.18
   0  -1  -9   23.90    1.43
   0   1   9   22.49    1.38
   0   1   9   27.03    1.67
   0   1   9   21.16    1.55
   0   1   9   22.24    1.67
  -1  -1  -9   12.54    1.34
  -1  -1  -9    9.63    1.12
  -1  -1  -9   11.85    0.83
   1   1   9   10.53    1.31
   1   1   9   12.49    1.42
   1   1   9   12.29    1.34
   1   1   9   12.74    1.36
   1   1   9   11.43    1.19
  -2  -1  -9    3.32    0.53
  -2  -1  -9    5.26    0.84
   2   1   9    5.64    0.92
   2   1   9    5.62    0.93
   2   1   9    5.11    0.87
   2   1   9    4.82    0.82
  -3  -1  -9    8.51    0.87
  -3  -1  -9   12.14    1.33
   3   1   9    9.39    1.09
   3   1   9    9.94    1.30
   3   1   9   10.70    1.21
   3   1   9   11.54    1.22
  -4  -1  -9   14.14    1.05
  -4  -1  -9   14.94    1.55
   4   1   9   15.37    1.65
   4   1   9   11.85    1.30
   4   1   9   16.19    1.57
  -5  -1  -9    1.91    0.57
  -5  -1  -9    1.61    0.60
   5   1   9    1.78    0.65
   5   1   9    2.73    0.71
   5   1   9    3.05    0.77
  -6  -1  -9    1.04    0.67
   6   1   9    0.81    0.58
   6   1   9    0.79    0.57
  -7  -1  -9   -0.24    0.40
  -8  -1  -9    4.01    1.24
  -5   2   9   -0.22    0.75
  -4   2   9    5.65    1.40
   3  -2  -9   38.24    1.81
  -3   2   9   35.94    1.96
  -3   2   9   36.49    2.62
   2  -2  -9   58.72    2.85
   2  -2  -9   61.09    2.26
  -2   2   9   66.47    3.10
  -2   2   9   60.47    3.16
  -2   2   9   61.19    2.69
  -2   2   9   61.94    2.46
   1  -2  -9   16.20    1.18
   1  -2  -9   18.26    1.47
   1  -2  -9   17.77    1.09
  -1   2   9   16.51    1.84
  -1   2   9   20.34    1.84
  -1   2   9   17.05    1.22
  -1   2   9   17.63    1.76
   0  -2  -9   22.66    1.19
   0  -2  -9   18.23    1.23
   0  -2  -9   21.27    1.53
   0   2   9   21.58    1.72
   0   2   9   21.50    1.57
   0   2   9   22.90    1.33
   0   2   9   21.12    1.58
  -1  -2  -9   24.59    1.61
  -1  -2  -9   23.63    1.37
  -1  -2  -9   24.64    1.23
   1   2   9   23.86    1.66
   1   2   9   21.63    1.65
   1   2   9   24.23    1.58
   1   2   9   23.74    1.35
  -2  -2  -9    1.99    0.44
  -2  -2  -9    1.93    0.60
  -2  -2  -9    2.33    0.61
   2   2   9    1.81    0.57
   2   2   9    1.56    0.58
   2   2   9    2.50    0.64
  -3  -2  -9   34.38    1.51
  -3  -2  -9   32.19    1.74
   3   2   9   36.72    1.80
   3   2   9   37.64    1.85
   3   2   9   33.31    1.97
   3   2   9   35.10    1.91
  -4  -2  -9   12.02    1.33
  -4  -2  -9   11.53    1.04
   4   2   9   13.85    1.35
   4   2   9   10.44    1.33
   4   2   9   11.62    1.29
  -5  -2  -9   11.17    1.06
  -5  -2  -9    9.88    1.32
   5   2   9   10.71    0.79
   5   2   9   11.99    1.48
   5   2   9   11.02    1.25
  -6  -2  -9   75.45    2.68
  -6  -2  -9   78.51    3.35
   6   2   9   72.75    3.23
   6   2   9   72.12    2.33
  -7  -2  -9    1.17    0.73
  -8  -2  -9   -0.25    0.62
  -5   3   9    2.50    1.20
  -4   3   9    5.85    1.46
  -3   3   9   10.47    1.77
   2  -3  -9   15.24    1.09
  -2   3   9   13.65    1.83
  -2   3   9   18.34    1.84
   1  -3  -9   48.15    1.95
  -1   3   9   58.65    2.81
  -1   3   9   54.34    2.94
  -1   3   9   55.20    2.58
   0  -3  -9    1.74    0.60
   0  -3  -9    0.47    0.35
   0  -3  -9    1.19    0.36
   0   3   9    2.76    0.81
   0   3   9    1.28    0.64
   0   3   9    0.76    0.41
   0   3   9    1.07    0.52
  -1  -3  -9    1.04    0.52
  -1  -3  -9    0.88    0.37
  -1  -3  -9    0.91    0.33
   1   3   9    0.32    0.31
   1   3   9    0.68    0.47
   1   3   9    1.31    0.60
   1   3   9    0.42    0.53
  -2  -3  -9   46.20    2.31
  -2  -3  -9   46.00    1.74
  -2  -3  -9   44.38    1.89
   2   3   9   43.14    2.35
   2   3   9   46.38    2.36
   2   3   9   44.81    2.08
  -3  -3  -9   13.75    0.95
  -3  -3  -9   14.46    1.52
  -3  -3  -9   15.48    1.36
   3   3   9   12.62    1.45
   3   3   9   12.52    1.43
   3   3   9   13.24    1.28
  -4  -3  -9    5.58    0.87
  -4  -3  -9    7.56    0.85
   4   3   9    4.75    0.96
   4   3   9    6.48    0.74
  -5  -3  -9  125.80    4.07
  -5  -3  -9  122.51    3.44
   5   3   9  128.58    3.42
   5   3   9  128.29    4.24
  -6  -3  -9   25.73    1.88
  -6  -3  -9   29.93    1.57
   6   3   9   26.52    1.43
   6   3   9   28.44    1.96
  -7  -3  -9    1.07    0.68
  -8  -3  -9    1.31    0.88
  -4   4   9    0.65    0.78
  -3   4   9    2.84    0.99
   2  -4  -9    0.29    0.29
  -2   4   9    0.33    0.57
  -2   4   9    0.23    0.59
   1  -4  -9    2.09    0.48
  -1   4   9    4.24    1.16
  -1   4   9    2.67    0.87
  -1   4   9    2.70    0.78
   0  -4  -9    0.30    0.23
   0   4   9    0.02    0.38
   0   4   9    0.06    0.45
   0   4   9    0.03    0.44
  -1  -4  -9    3.19    0.55
  -1  -4  -9    2.21    0.81
   1   4   9    0.71    0.55
   1   4   9    2.34    0.66
   1   4   9    3.28    0.90
  -2  -4  -9   18.86    1.07
  -2  -4  -9   19.04    1.16
   2   4   9   19.51    1.64
   2   4   9   18.31    1.78
   2   4   9   19.22    1.36
  -3  -4  -9    3.26    0.60
  -3  -4  -9    4.24    0.90
  -3  -4  -9    5.54    0.69
   3   4   9    3.31    0.83
   3   4   9    3.01    0.64
   3   4   9    6.14    1.09
  -4  -4  -9   17.57    1.07
  -4  -4  -9   22.14    1.74
  -4  -4  -9   18.87    1.32
   4   4   9   19.10    1.61
   4   4   9   19.50    1.18
   4   4   9   19.45    1.56
  -5  -4  -9  166.73    4.00
  -5  -4  -9  164.85    4.70
   5   4   9  164.19    5.19
   5   4   9  158.86    4.14
   5   4   9  173.92    5.09
  -6  -4  -9   13.29    1.54
  -6  -4  -9   13.99    1.00
   6   4   9   11.79    1.18
   6   4   9   15.09    1.69
  -7  -4  -9    6.60    0.82
  -7  -4  -9    7.10    1.32
  -8  -4  -9   25.94    2.52
  -4   5   9    0.01    0.77
  -3   5   9    0.17    0.66
  -3   5   9   -0.42    0.57
   2  -5  -9    7.66    0.89
  -2   5   9    7.34    1.23
  -2   5   9    7.92    1.57
   1  -5  -9    5.89    0.75
  -1   5   9    6.03    1.19
  -1   5   9    5.22    1.32
   0  -5  -9   44.83    3.23
   0  -5  -9   33.83    1.49
   0   5   9   32.95    2.19
   0   5   9   32.21    2.39
  -1  -5  -9   12.80    0.85
  -1  -5  -9   13.98    1.41
   1   5   9   16.05    1.61
   1   5   9   11.20    1.60
   1   5   9   14.62    1.71
  -2  -5  -9   11.73    0.79
   2   5   9    9.58    1.17
   2   5   9    9.50    1.27
   2   5   9   14.03    1.81
   2   5   9   12.19    1.61
  -3  -5  -9   17.52    0.95
   3   5   9   15.25    1.76
   3   5   9   16.15    1.80
  -4  -5  -9   34.32    2.23
  -4  -5  -9   35.38    1.38
   4   5   9   31.41    2.23
   4   5   9   33.48    2.15
   4   5   9   35.34    1.68
  -5  -5  -9    1.56    0.56
  -5  -5  -9    0.12    0.16
  -5  -5  -9    1.54    0.77
   5   5   9    1.12    0.62
   5   5   9    0.72    0.37
   5   5   9    2.24    0.75
  -6  -5  -9    5.30    1.24
  -6  -5  -9    4.53    0.91
   6   5   9    6.51    1.17
   6   5   9    6.84    1.32
   6   5   9    5.54    0.85
  -7  -5  -9    6.56    1.21
  -8  -5  -9   10.78    1.68
  -3   6   9    0.25    0.72
  -3   6   9   -0.13    0.70
  -2   6   9    0.17    0.65
  -2   6   9    0.66    0.72
  -1   6   9    3.71    1.16
  -1   6   9    4.18    1.07
   0  -6  -9   23.67    1.68
   0   6   9   24.24    1.93
   0   6   9   27.75    2.82
  -1  -6  -9    0.85    0.43
   1   6   9    0.79    0.62
   1   6   9    0.63    0.51
   1   6   9   -0.56    0.41
   2   6   9   10.44    1.53
   2   6   9   10.25    1.23
   2   6   9    9.69    1.54
   3   6   9    2.38    0.66
   3   6   9    3.93    1.07
   3   6   9    2.26    0.81
  -4  -6  -9    2.81    0.84
   4   6   9    2.43    0.82
   4   6   9    2.40    0.59
   4   6   9    2.13    0.77
  -5  -6  -9    0.92    0.57
   5   6   9    0.55    0.37
   5   6   9    0.65    0.53
   5   6   9    0.41    0.45
  -6  -6  -9    1.86    0.79
   6   6   9    1.45    0.70
   6   6   9    0.81    0.55
  -7  -6  -9    0.62    0.64
   7   6   9   -0.21    0.55
  -8  -6  -9    0.43    0.67
  -8  -6  -9    0.66    0.75
  -2   7   9    2.21    1.03
  -2   7   9    4.77    1.30
  -1   7   9    0.85    0.91
  -1   7   9    0.63    0.74
   0  -7  -9   10.66    1.37
   0   7   9   12.88    1.78
   0   7   9   10.94    1.83
  -1  -7  -9    0.53    0.46
   1   7   9    0.25    0.50
   1   7   9    0.12    0.32
   1   7   9    0.20    0.50
   2   7   9   11.06    1.57
   2   7   9   14.19    1.94
   3   7   9    0.83    0.69
   3   7   9    0.24    0.45
   3   7   9    1.10    0.64
   4   7   9    5.72    0.88
   4   7   9    5.55    1.07
   4   7   9    6.34    1.33
   4   7   9    5.91    1.20
  -5  -7  -9    5.40    1.16
   5   7   9    8.34    1.50
   5   7   9    4.80    1.10
   5   7   9    5.99    0.89
  -6  -7  -9    1.59    0.79
   6   7   9    1.78    0.83
   6   7   9    5.63    1.33
  -7  -7  -9   13.26    1.89
   7   7   9   14.09    2.10
  -8  -7  -9    5.00    1.27
   8   7   9    5.34    1.42
   1  -8  -9    0.70    0.73
  -1   8   9    1.12    0.81
  -1   8   9    0.45    0.88
   0   8   9    7.55    1.51
   0   8   9    3.20    1.13
  -1  -8  -9    2.49    0.78
   1   8   9    4.06    1.20
   1   8   9    5.09    1.28
   1   8   9    6.23    1.22
   2   8   9   -0.30    0.55
   2   8   9    0.27    0.57
   2   8   9    0.10    0.49
   3   8   9    6.86    1.22
   3   8   9    8.39    1.60
   3   8   9    7.59    1.43
   4   8   9   13.23    1.99
   4   8   9   10.02    1.53
   4   8   9   14.95    2.06
   4   8   9   12.30    1.61
   5   8   9   -0.41    0.49
   5   8   9    0.13    0.61
   6   8   9    3.51    1.09
   6   8   9    2.72    1.02
  -7  -8  -9   19.81    2.32
   7   8   9   17.05    2.32
  -8  -8  -9   19.55    2.37
   8   8   9   20.95    2.70
   0  -9  -9    6.29    1.23
   0   9   9    6.13    1.58
   0   9   9    9.35    1.74
  -1  -9  -9    0.21    0.46
   1   9   9    1.45    0.84
   1   9   9    0.57    0.83
   1   9   9    0.48    0.75
   2   9   9    1.89    0.98
   2   9   9    1.21    0.72
   2   9   9    2.35    0.98
   3   9   9    7.81    1.40
   3   9   9    9.21    1.84
   3   9   9    9.23    1.61
   4   9   9    5.78    1.41
   4   9   9    4.13    1.13
   4   9   9    2.50    0.94
   5   9   9   -1.07    0.56
   5   9   9    0.47    0.62
   5   9   9    0.14    0.68
   6   9   9   11.83    2.17
   6   9   9    8.42    1.51
   7   9   9    0.60    0.84
  -2 -10  -9   -0.03    0.49
   2  10   9    0.38    0.77
   2  10   9    0.23    0.77
   2  10   9   -0.28    0.60
   3  10   9    2.15    0.98
   3  10   9    2.53    0.94
   3  10   9    3.75    1.28
   4  10   9    7.54    1.83
   4  10   9    6.66    1.42
   4  10   9    6.05    1.46
   5  10   9    1.10    0.89
   5  10   9    1.06    0.94
   5  10   9    1.64    0.87
   6  10   9    1.24    0.84
   6  10   9    2.10    1.25
   6  10   9    2.84    1.05
   3   8 -10   -0.40    0.63
  -3  -8  10   -0.36    0.77
  -3  -8  10   -0.48    0.58
   2   8 -10    1.08    0.77
  -2  -8  10    1.61    0.87
  -2  -8  10   -0.21    0.74
   1   8 -10   -0.12    0.53
  -1  -8  10   -0.52    0.66
  -1  -8  10   -0.06    0.67
  -1  -8  10    0.14    0.71
   4   7 -10    1.85    0.85
  -4  -7  10    3.49    1.04
  -4  -7  10    3.56    1.12
  -4  -7  10    3.82    1.17
   3   7 -10    6.90    1.31
  -3  -7  10    6.80    1.37
  -3  -7  10    4.85    1.20
   2   7 -10   11.38    1.68
  -2  -7  10   12.55    1.76
  -2  -7  10    9.53    1.66
   1   7 -10    0.50    0.55
  -1  -7  10    0.53    0.85
  -1  -7  10    0.99    0.81
  -1  -7  10    0.61    0.64
   0   7 -10    3.07    0.91
   0  -7  10    3.71    1.15
   0  -7  10    3.32    0.98
   0  -7  10    3.78    1.25
  -1   7 -10    7.81    1.44
   1  -7  10    4.21    1.29
   1  -7  10    6.15    1.43
  -2   7 -10    1.12    0.78
   2  -7  10    0.01    0.82
   2  -7  10    1.61    0.61
   2  -7  10    0.52    0.85
   5   6 -10   13.63    1.98
  -5  -6  10   15.54    2.03
  -5  -6  10   12.48    2.12
   4   6 -10    0.52    0.61
  -4  -6  10    0.51    0.66
  -4  -6  10    0.42    0.55
   3   6 -10    0.06    0.44
  -3  -6  10    0.30    0.61
  -3  -6  10    1.16    0.68
  -3  -6  10    0.64    0.61
   2   6 -10    3.48    0.99
  -2  -6  10    4.51    1.17
  -2  -6  10    2.92    0.97
  -2  -6  10    4.46    1.11
   1   6 -10   10.03    1.56
  -1  -6  10    7.83    1.40
  -1  -6  10    5.49    1.21
  -1  -6  10    6.46    1.25
   0   6 -10    1.95    0.85
   0  -6  10    1.11    0.81
   0  -6  10    0.79    0.63
   0  -6  10    0.84    0.61
  -1   6 -10    1.88    0.82
   1  -6  10    0.80    0.70
   1  -6  10    3.18    1.03
   1  -6  10    2.91    0.55
  -2   6 -10   23.45    2.41
   2  -6  10   25.62    1.54
   2  -6  10   24.66    2.67
   2  -6  10   26.47    2.78
  -3   6 -10    0.27    0.68
   3  -6  10   -0.29    0.35
   3  -6  10    0.33    0.68
   3  -6  10    0.12    0.62
  -6  -5  10    1.72    0.88
  -6  -5  10    1.37    1.00
  -5  -5  10   24.00    2.89
  -5  -5  10   23.11    2.41
   4   5 -10   44.29    2.70
  -4  -5  10   45.02    2.72
  -4  -5  10   43.39    3.01
   3   5 -10    1.45    0.72
  -3  -5  10    1.58    0.74
  -3  -5  10    0.39    0.58
  -3  -5  10    0.96    0.66
   2   5 -10   14.86    1.83
  -2  -5  10    9.74    1.44
  -2  -5  10   14.31    1.73
  -2  -5  10    8.41    1.34
  -2  -5  10   13.36    1.70
   1   5 -10   10.37    1.53
  -1  -5  10    5.83    1.20
  -1  -5  10    7.67    1.28
  -1  -5  10    7.37    1.25
   0   5 -10    0.86    0.62
   0  -5  10    0.58    0.54
   0  -5  10    2.06    0.82
   0  -5  10   -0.13    0.55
  -1   5 -10   24.09    2.28
   1  -5  10   23.53    1.20
   1  -5  10   26.44    2.63
   1  -5  10   19.54    2.00
   1  -5  10   22.45    2.27
  -2   5 -10   -0.06    0.45
   2  -5  10   -0.14    0.57
   2  -5  10    0.13    0.31
   2  -5  10    1.32    0.77
  -3   5 -10   -0.41    0.55
   3  -5  10    0.13    0.58
   3  -5  10    0.30    0.37
   3  -5  10    0.17    0.69
  -4   5 -10    3.76    1.11
   4  -5  10    3.71    1.12
   4  -5  10    4.30    1.24
   4  -5  10    1.86    0.74
  -6  -4  10    1.22    0.79
  -6  -4  10    1.42    0.83
  -5  -4  10    4.03    1.13
  -5  -4  10    8.74    1.79
   4   4 -10   34.18    2.33
  -4  -4  10   36.87    2.42
  -4  -4  10   34.87    2.71
   3   4 -10    4.17    1.00
  -3  -4  10    4.67    1.16
  -3  -4  10    3.72    0.97
   2   4 -10   15.90    1.19
   2   4 -10   16.34    1.80
  -2  -4  10   15.63    1.73
  -2  -4  10   15.74    1.93
  -2  -4  10   14.19    1.61
  -2  -4  10   14.97    1.86
   1   4 -10    4.65    0.78
   1   4 -10    3.62    0.91
  -1  -4  10    4.45    1.03
  -1  -4  10    6.05    1.11
  -1  -4  10    6.17    1.15
   0   4 -10   -0.15    0.39
   0  -4  10   -0.60    0.34
   0  -4  10   -0.03    0.45
   0  -4  10    0.19    0.22
   0  -4  10   -0.64    0.40
  -1   4 -10   49.30    2.66
   1  -4  10   53.96    1.90
   1  -4  10   51.02    2.83
   1  -4  10   52.40    2.83
   1  -4  10   53.66    2.71
  -2   4 -10   12.33    1.68
   2  -4  10   14.76    1.89
   2  -4  10   11.22    1.60
   2  -4  10   13.75    1.08
  -3   4 -10    4.36    1.05
   3  -4  10    4.34    1.03
   3  -4  10    6.97    1.42
   3  -4  10    4.89    0.87
  -4   4 -10    6.57    1.30
   4  -4  10    5.88    1.29
   4  -4  10    7.70    1.20
   4  -4  10    8.71    1.62
  -5   4 -10    2.57    0.96
   5  -4  10    1.46    0.90
   5  -4  10    1.04    0.66
   5  -4  10    2.23    0.94
  -6  -3  10   10.44    2.08
  -6  -3  10    8.57    1.55
  -5  -3  10   -0.75    0.48
  -5  -3  10    0.45    0.84
  -4  -3  10    0.92    0.67
  -4  -3  10    1.09    0.71
   3   3 -10    1.66    0.69
   3   3 -10    0.87    0.48
  -3  -3  10    0.56    0.50
  -3  -3  10    1.35    0.65
   2   3 -10    7.43    1.04
   2   3 -10    7.58    1.20
  -2  -3  10    4.89    0.67
  -2  -3  10    7.06    1.28
  -2  -3  10    6.49    1.08
  -2  -3  10    5.86    1.08
  -2  -3  10    7.99    1.42
   1   3 -10    0.88    0.49
   1   3 -10    0.39    0.33
  -1  -3  10    1.36    0.59
  -1  -3  10    0.76    0.49
  -1  -3  10    0.17    0.38
  -1  -3  10    0.36    0.46
  -1  -3  10    1.63    0.43
   0   3 -10    1.76    0.64
   0   3 -10    1.91    0.52
   0  -3  10    2.27    0.48
   0  -3  10    1.65    0.67
   0  -3  10    3.09    0.81
   0  -3  10    2.20    0.74
  -1   3 -10    0.32    0.44
   1  -3  10    0.11    0.55
   1  -3  10    0.10    0.28
   1  -3  10   -0.24    0.44
   1  -3  10   -0.05    0.40
  -2   3 -10  135.75    4.58
   2  -3  10  130.67    3.62
   2  -3  10  135.38    4.67
   2  -3  10  122.92    4.58
  -3   3 -10    2.43    0.79
   3  -3  10    3.14    0.88
   3  -3  10    3.89    0.99
   3  -3  10    4.59    0.82
  -4   3 -10    4.31    1.08
   4  -3  10    7.00    1.37
   4  -3  10    4.15    1.15
   4  -3  10    6.87    1.13
  -5   3 -10    1.09    0.70
   5  -3  10    1.17    0.71
   5  -3  10    0.83    0.68
   5  -3  10    0.93    0.63
  -6   3 -10    5.48    1.38
   6  -3  10    4.08    1.19
   6  -3  10    6.90    1.50
   6  -3  10    5.98    1.29
  -6  -2  10    0.04    0.58
  -6  -2  10    0.22    0.91
  -5  -2  10    0.89    0.67
  -5  -2  10    1.34    0.95
  -4  -2  10   -0.76    0.38
  -4  -2  10    0.23    0.55
   3   2 -10   11.02    1.34
   3   2 -10   13.73    1.69
  -3  -2  10   10.98    1.74
  -3  -2  10   11.01    1.49
   2   2 -10    0.28    0.33
   2   2 -10    0.45    0.42
  -2  -2  10    0.17    0.43
  -2  -2  10    0.20    0.43
  -2  -2  10    0.57    0.55
   1   2 -10   50.13    2.50
   1   2 -10   56.75    2.38
  -1  -2  10   49.81    2.68
  -1  -2  10   51.69    2.50
  -1  -2  10   56.67    2.59
  -1  -2  10   57.16    2.85
  -1  -2  10   53.66    1.95
  -1  -2  10   53.32    2.70
   0   2 -10    8.51    1.08
   0   2 -10    6.89    1.15
   0  -2  10    7.34    1.23
   0  -2  10    6.88    1.04
   0  -2  10    8.20    0.88
   0  -2  10    9.87    1.43
   0  -2  10    8.62    1.22
   0  -2  10    6.89    1.16
  -1   2 -10    2.53    0.75
   1  -2  10    3.12    0.81
   1  -2  10    2.67    0.77
   1  -2  10    3.16    0.60
   1  -2  10    2.13    0.78
  -2   2 -10    0.02    0.38
   2  -2  10   -0.29    0.33
   2  -2  10   -0.26    0.31
   2  -2  10   -0.54    0.31
  -3   2 -10    3.88    0.95
   3  -2  10    5.17    0.91
   3  -2  10    2.99    0.87
   3  -2  10    7.17    1.26
  -4   2 -10   17.98    1.95
   4  -2  10   16.84    2.02
   4  -2  10   16.75    1.66
   4  -2  10   22.69    2.22
  -5   2 -10    2.12    0.80
  -5   2 -10    0.81    0.64
   5  -2  10    1.68    0.68
   5  -2  10    1.22    0.68
   5  -2  10    2.32    0.84
  -6   2 -10    5.58    1.26
   6  -2  10    5.79    1.23
   6  -2  10    6.56    1.39
   6  -2  10    4.27    1.19
  -6  -1  10    6.22    1.33
  -6  -1  10    6.73    1.70
  -5  -1  10   -0.67    0.55
  -5  -1  10    0.61    0.77
   4   1 -10    7.06    1.26
  -4  -1  10   12.13    1.54
  -4  -1  10   11.14    1.83
   3   1 -10    0.41    0.44
  -3  -1  10   -0.05    0.47
  -3  -1  10    0.34    0.51
   2   1 -10   44.31    2.29
   2   1 -10   48.44    2.41
  -2  -1  10   49.91    2.46
  -2  -1  10   49.70    2.36
  -2  -1  10   49.23    2.88
   1   1 -10    8.49    1.19
   1   1 -10    7.66    1.06
  -1  -1  10    6.35    1.15
  -1  -1  10   10.04    1.33
  -1  -1  10    5.57    1.08
  -1  -1  10    6.36    1.04
   0   1 -10    3.16    0.70
   0   1 -10    3.45    0.84
   0  -1  10    3.11    0.78
   0  -1  10    2.10    0.74
   0  -1  10    3.38    0.84
   0  -1  10    3.92    0.83
   0  -1  10    2.76    0.63
   0  -1  10    1.48    0.58
  -1   1 -10   27.47    1.77
   1  -1  10   25.01    1.68
   1  -1  10   23.90    1.41
   1  -1  10   21.69    1.65
   1  -1  10   25.18    1.82
   1  -1  10   27.26    1.88
   1  -1  10   25.80    1.65
  -2   1 -10    0.06    0.36
   2  -1  10    0.06    0.44
   2  -1  10    0.39    0.39
   2  -1  10   -0.16    0.32
  -3   1 -10   10.92    1.44
  -3   1 -10   12.19    1.13
   3  -1  10   12.04    1.49
   3  -1  10   13.59    1.66
   3  -1  10   11.83    1.28
  -4   1 -10   10.08    1.13
  -4   1 -10    9.82    1.43
   4  -1  10   11.37    1.49
   4  -1  10   11.62    1.37
   4  -1  10    9.48    1.44
  -5   1 -10    0.67    0.56
  -5   1 -10    1.26    0.55
   5  -1  10    2.17    0.78
   5  -1  10    1.57    0.69
   5  -1  10    2.76    0.85
  -6   1 -10   -0.29    0.48
   6  -1  10    0.29    0.50
   6  -1  10    0.14    0.56
   6  -1  10    0.82    0.64
  -7   1 -10    0.76    0.73
   7  -1  10    1.90    0.90
   7  -1  10    3.89    1.08
  -6   0  10    3.76    1.12
  -6   0  10    4.54    1.52
  -5   0  10    0.71    0.66
  -5   0  10    0.33    0.65
   4   0 -10    0.51    0.39
   4   0 -10    0.29    0.58
  -4   0  10    0.01    0.60
  -4   0  10    0.36    0.56
   3   0 -10   26.39    1.46
   3   0 -10   27.42    1.96
  -3   0  10   26.64    2.30
  -3   0  10   27.47    1.86
   2   0 -10   43.72    2.33
   2   0 -10   39.66    2.15
   2   0 -10   42.18    1.77
  -2   0  10   43.16    2.23
  -2   0  10   45.97    2.77
  -2   0  10   42.81    2.16
   1   0 -10    6.36    0.75
   1   0 -10    4.94    0.90
   1   0 -10    3.29    0.72
  -1   0  10    4.39    0.86
  -1   0  10    4.23    0.96
  -1   0  10    3.70    0.91
  -1   0  10    5.74    1.00
   0   0 -10    1.92    0.42
   0   0 -10    1.87    0.57
   0   0 -10    0.83    0.52
   0   0  10    0.55    0.43
   0   0  10    2.20    0.76
   0   0  10    0.60    0.54
   0   0  10    1.79    0.66
  -1   0 -10   18.03    1.05
  -1   0 -10   18.76    1.70
  -1   0 -10   18.72    1.41
   1   0  10   18.40    1.21
   1   0  10   18.62    1.54
   1   0  10   17.64    1.74
   1   0  10   18.23    1.82
   1   0  10   17.93    1.35
  -2   0 -10   31.18    1.44
  -2   0 -10   27.53    1.73
   2   0  10   27.04    1.67
   2   0  10   30.00    1.76
   2   0  10   31.86    1.94
   2   0  10   27.90    1.91
   2   0  10   26.81    1.56
  -3   0 -10    2.60    0.57
  -3   0 -10    2.93    0.75
   3   0  10    3.42    0.80
   3   0  10    2.84    0.69
   3   0  10    2.35    0.72
  -4   0 -10    0.01    0.38
  -4   0 -10    0.73    0.39
   4   0  10    0.35    0.52
   4   0  10    0.43    0.43
   4   0  10    0.20    0.50
  -5   0 -10    6.47    1.20
  -5   0 -10    8.57    1.05
   5   0  10   12.93    1.54
   5   0  10   12.14    1.69
   5   0  10    7.52    1.16
  -6   0 -10    7.21    1.33
   6   0  10    8.04    1.35
   6   0  10    6.57    1.17
  -7   0 -10    1.43    0.79
   7   0  10    1.31    0.70
  -5   1  10    0.20    0.69
  -5   1  10    0.44    0.68
  -4   1  10    1.28    0.64
  -4   1  10    1.52    0.87
   3  -1 -10   -0.05    0.29
   3  -1 -10   -0.22    0.41
  -3   1  10    0.74    0.54
  -3   1  10    0.12    0.34
   2  -1 -10   33.60    1.90
   2  -1 -10   36.84    1.69
   2  -1 -10   31.38    2.08
  -2   1  10   33.08    1.88
  -2   1  10   32.24    2.38
  -2   1  10   35.32    2.02
   1  -1 -10   62.98    2.59
   1  -1 -10   72.04    2.99
   1  -1 -10   61.77    2.21
  -1   1  10   64.32    3.16
  -1   1  10   62.25    2.98
  -1   1  10   64.01    2.59
  -1   1  10   64.37    2.79
   0  -1 -10   59.59    2.69
   0  -1 -10   63.09    2.52
   0  -1 -10   60.26    2.10
   0   1  10   63.90    2.87
   0   1  10   60.85    2.45
   0   1  10   62.76    2.99
   0   1  10   58.92    2.65
  -1  -1 -10    7.18    0.79
  -1  -1 -10    7.18    1.10
  -1  -1 -10    5.75    0.96
   1   1  10    5.56    0.96
   1   1  10    6.47    0.97
   1   1  10    6.37    1.09
   1   1  10    4.51    0.93
  -2  -1 -10   10.07    0.94
  -2  -1 -10    9.80    1.21
   2   1  10   13.85    1.51
   2   1  10   11.69    1.34
   2   1  10   10.26    1.33
   2   1  10   11.66    1.38
  -3  -1 -10   32.06    1.88
  -3  -1 -10   32.44    1.55
   3   1  10   35.27    1.84
   3   1  10   29.74    1.98
   3   1  10   35.94    1.98
  -4  -1 -10    3.06    0.86
  -4  -1 -10    2.88    0.60
   4   1  10    3.92    0.91
   4   1  10    1.81    0.67
   4   1  10    2.87    0.67
  -5  -1 -10   18.38    1.90
  -5  -1 -10   16.28    1.26
   5   1  10   17.52    1.88
   5   1  10   15.71    1.79
   5   1  10   16.75    1.64
  -6  -1 -10   -0.59    0.44
   6   1  10    0.23    0.53
   6   1  10   -0.54    0.41
  -7  -1 -10   10.51    1.69
   7   1  10    8.75    1.44
  -8  -1 -10    3.41    1.16
  -5   2  10    1.61    1.09
  -4   2  10    7.07    1.48
  -3   2  10    0.87    0.75
  -3   2  10    0.26    0.58
   2  -2 -10    3.33    0.66
   2  -2 -10    2.71    0.86
   2  -2 -10    3.49    0.78
  -2   2  10    3.23    1.04
  -2   2  10    2.88    0.75
  -2   2  10    3.06    0.83
   1  -2 -10    0.63    0.33
   1  -2 -10    0.52    0.43
   1  -2 -10    0.09    0.33
  -1   2  10    2.24    0.60
  -1   2  10    0.94    0.56
  -1   2  10    1.37    0.70
  -1   2  10    0.64    0.67
   0  -2 -10   -0.07    0.24
   0  -2 -10    2.26    0.59
   0  -2 -10    0.90    0.36
   0   2  10    0.54    0.41
   0   2  10    1.96    0.78
   0   2  10    0.72    0.54
   0   2  10    0.70    0.67
  -1  -2 -10    0.33    0.26
  -1  -2 -10    0.40    0.29
  -1  -2 -10    1.41    0.54
   1   2  10    0.70    0.47
   1   2  10    0.62    0.47
   1   2  10    0.09    0.46
   1   2  10    0.82    0.61
  -2  -2 -10    5.69    0.74
  -2  -2 -10    4.65    0.92
  -2  -2 -10    5.79    0.93
   2   2  10    5.10    0.99
   2   2  10    6.75    1.16
   2   2  10    3.98    0.80
  -3  -2 -10   11.31    1.28
  -3  -2 -10   10.93    1.04
   3   2  10   12.64    1.32
   3   2  10   11.15    1.41
   3   2  10    9.18    1.24
   3   2  10    9.24    1.16
  -4  -2 -10    9.94    1.29
  -4  -2 -10    9.62    0.99
   4   2  10    8.67    1.12
   4   2  10   10.22    1.47
  -5  -2 -10  116.46    4.09
  -5  -2 -10  117.51    3.46
   5   2  10  117.45    3.85
   5   2  10  112.78    4.24
  -6  -2 -10    3.78    0.99
   6   2  10    4.63    1.06
  -7  -2 -10    6.74    1.33
   7   2  10    5.12    1.75
  -8  -2 -10   24.66    2.61
  -5   3  10    0.45    0.91
  -4   3  10    2.49    1.12
  -3   3  10    5.54    1.41
   2  -3 -10    3.40    0.67
  -2   3  10    3.17    1.08
  -2   3  10    1.99    0.91
   1  -3 -10    4.62    0.72
  -1   3  10    4.16    1.09
  -1   3  10    4.24    1.03
   0  -3 -10  117.62    4.18
   0  -3 -10  117.47    3.30
   0  -3 -10  115.99    3.42
   0   3  10  113.11    4.45
   0   3  10  116.94    4.13
   0   3  10  117.04    4.15
   0   3  10  116.25    3.36
  -1  -3 -10    9.98    1.39
  -1  -3 -10    9.45    1.08
  -1  -3 -10    8.55    0.92
   1   3  10    8.26    0.98
   1   3  10    9.12    1.28
   1   3  10    7.28    1.36
   1   3  10   11.06    1.46
  -2  -3 -10   18.37    1.52
  -2  -3 -10   19.63    1.17
  -2  -3 -10   19.70    1.31
   2   3  10   20.91    1.70
   2   3  10   19.89    1.67
   2   3  10   19.92    1.47
  -3  -3 -10    0.39    0.29
  -3  -3 -10    0.25    0.39
   3   3  10    0.27    0.44
   3   3  10    0.59    0.52
   3   3  10    0.51    0.42
  -4  -3 -10   -0.28    0.21
  -4  -3 -10   -0.09    0.34
   4   3  10   -0.10    0.42
   4   3  10    0.14    0.35
  -5  -3 -10    0.10    0.44
  -5  -3 -10    0.08    0.30
   5   3  10   -0.04    0.46
  -6  -3 -10    4.37    1.05
   6   3  10    3.67    0.94
   6   3  10    4.66    0.70
  -7  -3 -10   26.55    2.53
  -8  -3 -10    7.81    1.48
  -4   4  10   -0.21    0.73
  -3   4  10    0.67    0.78
  -2   4  10    0.43    0.68
  -2   4  10   -0.09    0.66
   1  -4 -10    6.90    0.89
  -1   4  10    8.55    1.44
  -1   4  10    6.58    1.41
   0  -4 -10    5.41    0.74
   0   4  10    5.26    1.16
   0   4  10    3.53    0.90
   0   4  10    4.67    1.00
  -1  -4 -10    0.06    0.21
   1   4  10    0.02    0.39
   1   4  10    0.85    0.66
   1   4  10    0.35    0.41
  -2  -4 -10   31.62    1.49
   2   4  10   33.02    2.20
   2   4  10   33.27    1.91
   2   4  10   28.24    2.09
  -3  -4 -10    0.39    0.36
  -3  -4 -10    0.46    0.30
   3   4  10    0.49    0.60
   3   4  10    0.85    0.49
  -4  -4 -10    1.48    0.57
  -4  -4 -10    1.15    0.39
   4   4  10    2.03    0.71
   4   4  10    2.63    0.87
  -5  -4 -10   -0.09    0.28
  -5  -4 -10   -0.07    0.24
   5   4  10   -0.13    0.27
   5   4  10    0.37    0.37
   5   4  10   -0.14    0.39
  -6  -4 -10   20.89    1.27
  -6  -4 -10   19.51    1.94
   6   4  10   21.02    1.37
   6   4  10   18.65    1.94
  -7  -4 -10   12.64    1.69
  -8  -4 -10    2.06    0.94
  -3   5  10    0.89    0.86
  -2   5  10    1.93    0.94
  -2   5  10    3.16    1.06
   1  -5 -10    0.14    0.29
  -1   5  10   -0.19    0.51
  -1   5  10    0.56    0.67
   0  -5 -10    3.39    0.62
   0   5  10    3.44    0.98
   0   5  10    3.54    1.05
  -1  -5 -10   26.89    1.34
   1   5  10   25.16    2.61
   1   5  10   29.24    1.90
   1   5  10   26.18    2.41
  -2  -5 -10    3.52    0.58
   2   5  10    3.69    0.92
   2   5  10    4.03    1.10
   2   5  10    4.41    1.14
  -3  -5 -10    0.34    0.22
   3   5  10    1.12    0.73
   3   5  10    0.04    0.52
  -4  -5 -10    0.14    0.26
  -4  -5 -10    0.60    0.49
   4   5  10    0.16    0.45
   4   5  10   -0.36    0.45
  -5  -5 -10    2.52    0.50
   5   5  10    3.32    0.90
   5   5  10    2.76    0.85
   5   5  10    1.58    0.48
  -6  -5 -10   10.02    1.39
   6   5  10    7.41    1.27
   6   5  10    9.83    1.52
  -7  -5 -10   34.40    2.29
  -8  -5 -10    3.75    1.09
  -3   6  10    1.42    0.96
  -2   6  10    0.75    0.79
  -2   6  10   -0.11    0.59
  -1   6  10    4.34    1.21
  -1   6  10    2.79    0.99
   0   6  10    2.27    0.95
   0   6  10    1.12    0.71
   1   6  10    1.08    0.76
   1   6  10    1.52    0.79
   1   6  10    1.69    0.71
   2   6  10    3.04    0.97
   2   6  10    1.97    0.82
   3   6  10   12.38    1.81
   3   6  10   12.24    1.73
   4   6  10    0.42    0.55
   4   6  10    0.64    0.38
   4   6  10    0.44    0.64
  -5  -6 -10    0.06    0.49
   5   6  10    0.36    0.54
   5   6  10   -0.47    0.49
  -6  -6 -10    0.29    0.68
   6   6  10    0.61    0.46
   6   6  10    0.42    0.57
  -7  -6 -10    1.41    0.79
   7   6  10    0.99    0.77
  -2   7  10   -0.03    0.67
  -2   7  10   -0.07    0.79
  -1   7  10    0.34    0.79
  -1   7  10    1.10    0.87
   0   7  10    1.30    0.79
   0   7  10    0.08    0.72
  -1  -7 -10    4.33    0.92
   1   7  10    5.02    1.26
   1   7  10    4.24    1.26
   2   7  10    1.16    0.66
   2   7  10   -0.10    0.52
   3   7  10    3.52    1.04
   3   7  10    4.12    1.15
   4   7  10    8.26    1.46
   4   7  10    4.32    1.13
   5   7  10    1.49    0.81
   5   7  10    0.90    0.82
  -6  -7 -10   11.40    1.76
   6   7  10    9.40    1.56
   6   7  10    6.59    1.40
  -7  -7 -10    1.69    0.88
   7   7  10    0.17    0.67
  -8  -7 -10    2.40    1.03
  -1   8  10    1.08    0.85
  -1   8  10    0.45    0.82
   0   8  10    4.30    1.48
   0   8  10    3.59    1.14
  -1  -8 -10    3.42    0.88
   1   8  10    1.80    1.01
   1   8  10    2.94    1.09
  -2  -8 -10    3.28    0.85
   2   8  10    2.91    1.20
   2   8  10    5.42    1.39
   3   8  10   16.93    2.14
   3   8  10   11.59    1.87
   4   8  10    0.93    0.65
   4   8  10    1.27    0.77
   5   8  10    1.85    0.76
   5   8  10    2.33    1.12
   5   8  10    1.71    0.85
   6   8  10    0.11    0.59
   6   8  10    0.50    0.69
  -7  -8 -10    0.11    0.57
   7   8  10    0.98    0.79
  -1  -9 -10    0.75    0.64
   1   9  10    2.88    1.30
   1   9  10    2.00    0.96
  -2  -9 -10    4.03    0.96
   2   9  10    5.04    1.39
   2   9  10    6.51    1.44
   3   9  10   11.97    2.20
   3   9  10   10.55    1.91
   4   9  10    2.14    0.93
   4   9  10    2.31    1.06
   5   9  10   -0.44    0.60
   5   9  10   -0.18    0.51
   5   9  10   -0.14    0.58
   6   9  10    1.34    0.83
   6   9  10    2.59    1.08
   6   9  10    0.88    0.93
   7   9  10    9.44    1.95
   3  10  10    8.54    1.70
   3  10  10    5.62    1.53
   4  10  10   17.36    2.39
   4  10  10   23.24    2.94
   5  10  10   -0.29    0.67
   5  10  10   -0.22    0.63
   5  10  10   -0.02    0.80
   3   7 -11    0.41    0.60
  -3  -7  11   -0.22    0.75
  -3  -7  11   -0.19    0.71
   2   7 -11    2.40    0.89
  -2  -7  11    1.20    0.90
  -2  -7  11    1.51    0.89
   1   7 -11    4.41    1.17
  -1  -7  11    5.63    1.29
  -1  -7  11    6.62    1.43
  -1  -7  11    2.40    1.08
   0   7 -11    0.66    0.59
   0  -7  11    0.28    0.83
   0  -7  11    1.41    0.95
   0  -7  11    1.27    0.82
   4   6 -11    0.32    0.60
  -4  -6  11    1.83    0.97
  -4  -6  11    1.24    0.83
   3   6 -11    0.24    0.61
  -3  -6  11    0.31    0.76
  -3  -6  11   -0.31    0.61
   2   6 -11    2.37    0.92
  -2  -6  11    5.00    1.23
  -2  -6  11    2.95    0.95
   1   6 -11   16.91    2.05
  -1  -6  11   18.53    2.26
  -1  -6  11   19.27    2.18
  -1  -6  11   18.59    2.11
   0   6 -11    4.10    1.16
   0  -6  11    5.56    1.41
   0  -6  11    7.87    1.47
   0  -6  11    6.93    1.44
  -1   6 -11    2.49    0.90
   1  -6  11    4.12    0.71
   1  -6  11    2.30    0.95
   1  -6  11    4.72    1.30
  -2   6 -11   15.62    2.10
   2  -6  11   12.15    2.00
   2  -6  11   18.35    2.47
   2  -6  11   15.77    1.52
   5   5 -11    5.88    1.42
  -5  -5  11    5.81    1.35
  -5  -5  11    6.39    1.61
   4   5 -11    6.69    1.37
  -4  -5  11    4.22    1.19
  -4  -5  11    5.19    1.23
   3   5 -11   -0.29    0.48
  -3  -5  11    0.22    0.52
  -3  -5  11    0.44    0.56
  -3  -5  11   -0.04    0.63
   2   5 -11    9.15    1.54
  -2  -5  11    6.37    1.39
  -2  -5  11    7.59    1.50
   1   5 -11   -0.20    0.40
  -1  -5  11    1.73    0.73
  -1  -5  11   -0.03    0.61
  -1  -5  11    0.04    0.63
   0   5 -11    1.09    0.72
   0  -5  11    0.97    0.75
   0  -5  11    1.02    0.72
   0  -5  11    2.00    0.93
   0  -5  11    1.45    0.41
  -1   5 -11    0.96    0.66
   1  -5  11    2.46    0.58
   1  -5  11    2.09    0.81
   1  -5  11    1.59    0.88
   1  -5  11    2.24    0.86
  -2   5 -11    0.46    0.64
   2  -5  11    0.43    0.67
   2  -5  11    0.35    0.38
   2  -5  11    0.47    0.64
  -3   5 -11    0.31    0.53
   3  -5  11   -0.02    0.76
   3  -5  11    0.43    0.60
   3  -5  11    0.19    0.44
   5   4 -11    6.06    1.39
  -5  -4  11    4.84    1.18
  -5  -4  11    3.95    1.35
   4   4 -11   51.91    3.02
  -4  -4  11   49.28    3.35
  -4  -4  11   46.57    2.83
   3   4 -11   15.59    1.87
  -3  -4  11   15.85    2.12
  -3  -4  11   14.74    1.87
   2   4 -11   18.79    2.04
  -2  -4  11   16.88    1.92
  -2  -4  11   16.95    2.02
  -2  -4  11   17.38    2.08
  -2  -4  11   17.25    1.10
   1   4 -11    8.57    1.40
  -1  -4  11    7.79    0.82
  -1  -4  11    7.53    1.33
  -1  -4  11    5.11    1.12
  -1  -4  11    7.41    1.30
   0   4 -11    0.87    0.59
   0  -4  11   -0.03    0.49
   0  -4  11   -0.12    0.47
   0  -4  11    0.09    0.30
   0  -4  11    1.03    0.64
  -1   4 -11    4.16    1.01
   1  -4  11    3.97    0.97
   1  -4  11    1.20    0.69
   1  -4  11    3.54    0.67
   1  -4  11    5.85    1.30
  -2   4 -11   10.92    1.67
   2  -4  11   11.02    1.20
   2  -4  11    8.39    1.48
   2  -4  11    9.13    1.60
  -3   4 -11   -0.18    0.58
   3  -4  11    0.13    0.70
   3  -4  11    0.02    0.60
   3  -4  11    0.58    0.48
  -4   4 -11    1.04    0.79
   4  -4  11    1.13    0.77
   4  -4  11    1.05    0.61
   4  -4  11    0.62    0.60
  -5  -3  11    0.85    0.78
  -5  -3  11    0.78    0.83
   4   3 -11    1.81    0.80
  -4  -3  11    1.08    0.61
  -4  -3  11    1.65    0.86
   3   3 -11   13.99    1.83
  -3  -3  11   17.28    1.96
  -3  -3  11   15.40    2.06
   2   3 -11    0.09    0.50
   2   3 -11    0.05    0.39
  -2  -3  11    0.42    0.56
  -2  -3  11    0.23    0.46
   1   3 -11    2.34    0.67
   1   3 -11    2.67    0.83
  -1  -3  11    1.14    0.65
  -1  -3  11    2.92    0.98
  -1  -3  11    2.31    0.54
  -1  -3  11    2.60    0.79
  -1  -3  11    1.11    0.56
   0   3 -11    2.20    0.61
   0   3 -11    1.45    0.65
   0  -3  11    2.94    0.91
   0  -3  11    1.63    0.68
   0  -3  11    2.13    0.55
   0  -3  11    1.75    0.72
  -1   3 -11   -0.08    0.48
   1  -3  11    0.52    0.48
   1  -3  11   -0.14    0.31
   1  -3  11   -0.58    0.42
   1  -3  11    0.56    0.55
  -2   3 -11   87.50    3.71
   2  -3  11   90.88    3.91
   2  -3  11   84.54    2.98
   2  -3  11   85.82    3.84
  -3   3 -11   15.86    2.00
   3  -3  11   12.43    1.43
   3  -3  11   13.94    1.82
   3  -3  11   14.26    1.91
  -4   3 -11    0.29    0.58
   4  -3  11    0.15    0.53
   4  -3  11    0.40    0.53
   4  -3  11    0.60    0.68
  -5   3 -11   13.21    1.89
   5  -3  11   10.75    1.58
   5  -3  11   10.90    1.79
   5  -3  11    8.52    1.62
  -5  -2  11    5.93    1.54
  -5  -2  11    5.99    1.28
  -4  -2  11    0.01    0.56
  -4  -2  11    0.71    0.81
   3   2 -11    1.85    0.71
  -3  -2  11    1.31    0.67
  -3  -2  11    2.38    0.89
   2   2 -11    7.11    1.23
   2   2 -11    7.08    1.15
  -2  -2  11    6.28    1.09
  -2  -2  11    5.75    1.16
  -2  -2  11    4.94    1.12
   1   2 -11    0.42    0.51
   1   2 -11    0.11    0.36
  -1  -2  11    0.15    0.44
  -1  -2  11    0.37    0.44
  -1  -2  11    0.02    0.43
  -1  -2  11   -0.15    0.43
   0   2 -11    0.84    0.57
   0   2 -11    0.26    0.38
   0  -2  11    1.07    0.54
   0  -2  11    1.02    0.61
   0  -2  11    1.45    0.63
   0  -2  11    1.24    0.46
   0  -2  11    0.70    0.59
  -1   2 -11   23.39    1.76
   1  -2  11   21.01    2.07
   1  -2  11   23.50    1.73
   1  -2  11   23.72    1.43
   1  -2  11   22.77    1.86
  -2   2 -11    0.21    0.48
   2  -2  11    0.12    0.37
   2  -2  11   -0.26    0.44
   2  -2  11   -0.41    0.41
  -3   2 -11   15.24    1.86
   3  -2  11   16.30    1.34
   3  -2  11   11.69    1.61
   3  -2  11   13.55    1.73
  -4   2 -11   12.08    1.75
   4  -2  11    8.67    1.52
   4  -2  11   11.29    1.46
   4  -2  11    7.10    1.36
  -5   2 -11    6.22    1.30
   5  -2  11    2.46    0.87
   5  -2  11    4.02    1.06
   5  -2  11    4.03    1.16
  -6   2 -11    0.05    0.61
   6  -2  11    1.13    0.78
   6  -2  11    0.52    0.66
   6  -2  11    0.57    0.68
  -5  -1  11    4.37    1.31
  -5  -1  11    6.53    1.27
  -4  -1  11   11.63    1.61
  -4  -1  11   12.51    2.00
   3   1 -11   -0.04    0.43
   3   1 -11    0.26    0.47
  -3  -1  11    0.03    0.47
  -3  -1  11    0.68    0.54
   2   1 -11    6.24    1.08
   2   1 -11    4.98    1.05
  -2  -1  11    6.63    1.42
  -2  -1  11    4.78    0.93
  -2  -1  11    7.44    1.23
   1   1 -11   10.35    1.31
   1   1 -11   11.85    1.46
  -1  -1  11   10.65    1.62
  -1  -1  11   13.21    1.52
  -1  -1  11   15.81    1.78
   0   1 -11   19.22    1.51
   0   1 -11   14.22    1.58
   0  -1  11   21.03    1.66
   0  -1  11   18.69    1.64
   0  -1  11   20.39    1.55
   0  -1  11   15.54    1.70
  -1   1 -11   32.02    1.93
  -1   1 -11   31.60    2.00
   1  -1  11   37.15    2.11
   1  -1  11   36.29    2.30
   1  -1  11   38.12    1.85
   1  -1  11   35.22    2.19
   1  -1  11   36.85    2.25
  -2   1 -11    0.41    0.47
   2  -1  11    0.23    0.43
   2  -1  11   -0.51    0.32
   2  -1  11    0.25    0.38
  -3   1 -11   11.04    1.49
   3  -1  11   11.02    1.30
   3  -1  11   12.14    1.67
   3  -1  11   10.29    1.48
  -4   1 -11   -0.05    0.44
  -4   1 -11    0.34    0.38
   4  -1  11    0.16    0.41
   4  -1  11    0.25    0.52
   4  -1  11    0.05    0.49
  -5   1 -11    6.85    1.34
   5  -1  11    5.87    1.13
   5  -1  11    6.52    1.29
   5  -1  11    7.35    1.31
  -6   1 -11    0.62    0.66
   6  -1  11   -0.05    0.55
   6  -1  11    0.00    0.59
   6  -1  11    0.92    1.13
  -5   0  11    5.07    1.25
  -5   0  11    6.45    1.58
  -4   0  11    0.53    0.57
  -4   0  11    1.31    0.78
   3   0 -11    8.61    1.34
   3   0 -11   11.09    1.54
   3   0 -11    7.45    0.95
  -3   0  11    7.39    1.31
  -3   0  11    9.87    1.78
   2   0 -11   15.99    1.75
   2   0 -11   14.80    1.09
   2   0 -11   12.69    1.55
  -2   0  11   14.15    1.66
  -2   0  11   16.23    1.67
  -2   0  11   11.20    1.68
   1   0 -11    0.15    0.38
   1   0 -11    0.90    0.38
   1   0 -11    0.11    0.39
  -1   0  11    0.83    0.58
  -1   0  11    0.43    0.50
  -1   0  11    0.99    0.54
   0   0 -11  243.15    6.42
   0   0 -11  249.13    6.39
   0   0 -11  251.85    5.47
   0   0  11  262.60    6.94
   0   0  11  246.14    6.89
   0   0  11  249.15    6.57
   0   0  11  249.61    6.30
  -1   0 -11   13.76    0.97
  -1   0 -11   16.01    1.63
  -1   0 -11   15.48    1.62
   1   0  11   14.23    1.65
   1   0  11   15.25    1.62
   1   0  11   13.87    1.63
   1   0  11   13.43    1.54
  -2   0 -11   54.96    2.09
  -2   0 -11   51.34    2.55
   2   0  11   54.87    2.81
   2   0  11   60.37    2.80
   2   0  11   55.78    2.36
   2   0  11   56.26    2.58
  -3   0 -11    0.43    0.49
  -3   0 -11    0.68    0.41
   3   0  11    0.49    0.52
   3   0  11    4.26    0.89
   3   0  11    0.89    0.51
  -4   0 -11    0.72    0.54
  -4   0 -11    2.01    0.58
   4   0  11    0.32    0.50
   4   0  11    2.21    0.76
   4   0  11    1.79    0.70
  -5   0 -11    0.53    0.54
   5   0  11    1.11    0.61
   5   0  11    1.27    0.74
   5   0  11    0.07    0.49
  -6   0 -11    1.44    0.76
   6   0  11    1.26    0.71
   6   0  11    0.92    0.66
  -7   0 -11    0.56    0.74
   7   0  11    0.41    0.59
  -5   1  11    1.00    0.93
  -4   1  11    5.73    1.18
  -4   1  11    7.16    1.66
   3  -1 -11    1.25    0.66
   3  -1 -11    1.34    0.67
   3  -1 -11    0.48    0.49
  -3   1  11    0.44    0.60
  -3   1  11    1.59    0.74
   2  -1 -11    4.79    0.94
   2  -1 -11    3.37    0.88
   2  -1 -11    3.77    0.71
  -2   1  11    3.25    0.84
  -2   1  11    4.33    0.94
  -2   1  11    4.97    1.20
   1  -1 -11    6.68    1.20
   1  -1 -11    7.13    0.87
   1  -1 -11    6.54    1.07
  -1   1  11    4.98    1.07
  -1   1  11    6.72    1.09
  -1   1  11    6.34    1.14
   0  -1 -11    0.96    0.50
   0  -1 -11    0.98    0.49
   0  -1 -11    1.26    0.42
   0   1  11    0.93    0.55
   0   1  11    1.61    0.61
   0   1  11    1.04    0.60
   0   1  11    1.14    0.61
  -1  -1 -11    4.52    0.89
  -1  -1 -11    4.30    0.67
  -1  -1 -11    5.55    1.00
   1   1  11    6.25    1.12
   1   1  11    6.91    1.08
   1   1  11    3.20    0.81
   1   1  11    4.15    0.95
  -2  -1 -11    0.40    0.39
  -2  -1 -11    0.76    0.33
  -2  -1 -11   -0.14    0.34
   2   1  11   -0.11    0.39
   2   1  11   -0.27    0.38
   2   1  11   -0.49    0.33
   2   1  11   -0.23    0.31
   2   1  11    0.30    0.41
  -3  -1 -11   17.66    1.72
  -3  -1 -11   16.37    1.15
   3   1  11   14.35    1.70
   3   1  11   18.26    1.36
   3   1  11   15.39    1.54
  -4  -1 -11    7.67    0.99
  -4  -1 -11    7.49    1.21
   4   1  11    8.38    1.27
   4   1  11    8.74    1.22
   4   1  11    8.66    1.41
  -5  -1 -11    2.28    0.81
   5   1  11    2.90    0.86
   5   1  11    3.86    0.89
  -6  -1 -11   48.61    2.84
   6   1  11   48.15    2.63
   6   1  11   44.13    2.78
  -7  -1 -11   16.45    2.13
   7   1  11   24.47    2.52
  -4   2  11   12.45    2.01
  -3   2  11    8.87    1.72
   2  -2 -11    0.19    0.47
   2  -2 -11    1.34    0.50
  -2   2  11    1.68    0.63
  -2   2  11    0.34    0.56
  -2   2  11    0.10    0.68
   1  -2 -11   17.96    1.65
   1  -2 -11   18.75    1.25
  -1   2  11   19.65    2.01
  -1   2  11   18.32    1.68
  -1   2  11   16.42    1.98
   0  -2 -11   31.45    1.59
   0  -2 -11   31.74    1.81
   0   2  11   34.65    2.22
   0   2  11   32.27    2.27
   0   2  11   35.03    2.18
   0   2  11   33.83    1.82
  -1  -2 -11    0.10    0.31
  -1  -2 -11   -0.15    0.30
  -1  -2 -11    1.15    0.38
   1   2  11    0.21    0.47
   1   2  11   -0.03    0.40
   1   2  11    0.34    0.47
   1   2  11    0.63    0.42
  -2  -2 -11    1.88    0.64
  -2  -2 -11    1.47    0.43
  -2  -2 -11    0.01    0.29
   2   2  11    1.63    0.66
   2   2  11    0.07    0.43
   2   2  11    0.71    0.48
  -3  -2 -11    8.50    1.21
  -3  -2 -11   13.60    1.50
  -3  -2 -11   11.33    1.12
   3   2  11   10.90    1.34
   3   2  11   10.49    1.47
   3   2  11   11.10    1.32
   3   2  11   10.73    1.42
  -4  -2 -11    3.50    0.86
  -4  -2 -11    3.73    0.67
   4   2  11    4.61    0.89
   4   2  11    3.41    0.93
  -5  -2 -11   -0.10    0.34
  -5  -2 -11    0.31    0.51
   5   2  11    0.04    0.54
  -6  -2 -11   12.35    1.67
   6   2  11   15.28    1.94
  -7  -2 -11   32.44    2.41
   7   2  11   32.94    2.42
  -4   3  11    0.61    0.84
  -3   3  11   -0.01    0.67
  -2   3  11    0.48    0.57
  -2   3  11    1.13    0.72
   1  -3 -11    2.18    0.58
  -1   3  11    3.63    1.09
  -1   3  11    3.04    1.03
   0  -3 -11   46.86    2.00
   0   3  11   48.23    2.72
   0   3  11   46.70    2.87
  -1  -3 -11   12.40    1.13
  -1  -3 -11   10.32    1.15
   1   3  11   12.47    1.53
   1   3  11   12.70    1.78
   1   3  11   12.28    1.25
   1   3  11    9.74    1.47
  -2  -3 -11    2.79    0.57
  -2  -3 -11    3.60    0.76
   2   3  11    3.38    0.90
   2   3  11    3.05    0.91
  -3  -3 -11   40.94    1.83
  -3  -3 -11   43.05    2.14
   3   3  11   42.10    2.50
   3   3  11   37.39    2.09
   3   3  11   39.99    2.40
  -4  -3 -11    1.00    0.54
  -4  -3 -11    0.74    0.37
   4   3  11    0.36    0.50
   4   3  11    1.88    0.66
  -5  -3 -11    1.26    0.49
  -5  -3 -11    1.48    0.66
   5   3  11    1.41    0.71
  -6  -3 -11   -0.11    0.52
   6   3  11    0.26    0.54
  -7  -3 -11   13.86    1.85
   7   3  11   13.39    1.81
  -8  -3 -11    0.87    0.74
  -3   4  11    6.00    1.49
  -2   4  11    1.49    0.87
  -2   4  11    2.58    1.08
  -1   4  11    0.51    0.60
  -1   4  11   -0.20    0.66
   0  -4 -11   11.57    1.17
   0   4  11    5.63    1.29
   0   4  11   13.04    1.73
  -1  -4 -11   46.40    1.96
   1   4  11   50.57    3.00
   1   4  11   48.06    2.74
   1   4  11   45.65    2.55
  -2  -4 -11   16.90    1.15
   2   4  11   19.75    2.09
   2   4  11   20.56    2.24
   2   4  11   19.24    1.57
  -3  -4 -11   13.72    1.05
   3   4  11   13.28    1.76
   3   4  11   20.45    1.82
  -4  -4 -11    0.53    0.33
  -4  -4 -11    0.18    0.40
   4   4  11    0.57    0.52
   4   4  11   -0.43    0.35
  -5  -4 -11    4.31    0.93
  -5  -4 -11    3.27    0.66
   5   4  11    3.19    0.87
  -6  -4 -11   61.13    2.97
   6   4  11   60.38    3.12
  -7  -4 -11    2.19    0.79
   7   4  11    1.23    0.74
  -8  -4 -11    1.38    0.95
  -3   5  11    1.51    1.22
  -2   5  11    5.52    1.30
  -2   5  11    2.49    1.04
  -1   5  11    0.48    0.73
  -1   5  11   -0.41    0.56
   0  -5 -11    2.45    0.55
   0   5  11    1.95    0.85
   0   5  11    2.66    0.99
  -1  -5 -11   27.07    1.43
   1   5  11   26.95    2.16
   1   5  11   25.43    2.26
   1   5  11   24.32    1.95
  -2  -5 -11    2.76    0.57
   2   5  11    1.97    0.79
   2   5  11    1.45    0.79
  -3  -5 -11   14.28    1.01
   3   5  11   15.40    1.89
   3   5  11   12.86    1.87
  -4  -5 -11    1.77    0.45
   4   5  11    3.95    1.04
   4   5  11    1.08    0.75
  -5  -5 -11    0.28    0.30
   5   5  11   -0.01    0.45
   5   5  11    0.46    0.52
  -6  -5 -11    0.86    0.57
  -6  -5 -11    1.80    0.81
   6   5  11    1.36    0.64
  -7  -5 -11   13.71    1.77
   7   5  11   10.32    2.29
  -8  -5 -11    7.75    1.45
  -2   6  11   11.80    2.16
  -2   6  11   10.60    1.86
  -1   6  11    0.99    0.86
  -1   6  11    1.20    0.85
   0   6  11   18.15    2.32
   0   6  11   17.82    2.18
  -1  -6 -11    0.13    0.31
   1   6  11   -0.43    0.57
   1   6  11   -0.34    0.40
  -2  -6 -11    2.81    0.56
   2   6  11    1.88    0.93
   2   6  11    3.89    1.17
   3   6  11    1.78    0.82
   3   6  11    1.05    0.75
   4   6  11    3.99    1.13
   4   6  11    5.01    1.23
   5   6  11    0.42    0.52
   5   6  11    0.47    0.63
   6   6  11    1.14    0.66
   6   6  11    0.73    0.71
  -1   7  11    0.43    0.79
  -1   7  11    1.26    0.88
   0   7  11    0.02    0.62
   0   7  11    0.03    0.82
   1   7  11    4.32    1.20
   1   7  11    5.93    1.44
   2   7  11    0.17    0.60
   2   7  11    0.61    0.84
   3   7  11   -0.34    0.49
   3   7  11    0.21    0.62
   4   7  11   18.91    2.20
   4   7  11   18.44    2.37
   5   7  11    0.83    0.70
   5   7  11    1.87    0.90
  -6  -7 -11   10.55    1.79
   6   7  11    9.39    1.76
   6   7  11    9.46    1.59
  -7  -7 -11   -0.14    0.50
   7   7  11   -0.13    0.65
   0   8  11    1.02    0.88
   0   8  11    1.54    1.09
   1   8  11    2.65    1.07
   1   8  11    1.31    0.86
   2   8  11    0.04    0.61
   2   8  11   -0.64    0.52
   3   8  11    6.14    1.48
   3   8  11    4.34    1.24
   4   8  11    2.35    0.94
   4   8  11    2.88    1.11
   5   8  11    0.00    0.61
   5   8  11    0.29    0.70
   6   8  11    0.15    0.81
   6   8  11   -0.22    0.58
  -7  -8 -11    8.40    1.71
   7   8  11   10.27    1.93
  -2  -9 -11    0.08    0.58
   2   9  11    0.09    0.61
   2   9  11    0.22    0.74
   3   9  11   -0.23    0.76
   3   9  11    1.63    1.09
   4   9  11   12.22    2.13
   4   9  11    8.75    1.69
   5   9  11    0.96    0.81
   5   9  11    2.03    1.04
   6   9  11    0.20    0.66
   6   9  11    1.44    1.04
   3   6 -12    2.21    0.88
  -3  -6  12    2.32    1.14
  -3  -6  12    2.78    1.06
   2   6 -12   14.92    2.01
  -2  -6  12   16.15    2.03
  -2  -6  12   18.77    2.42
   1   6 -12    1.96    0.92
  -1  -6  12    1.13    0.98
  -1  -6  12    2.39    0.93
  -1  -6  12    0.81    0.81
   0   6 -12    3.02    0.95
   0  -6  12    1.32    0.73
   0  -6  12    3.51    1.20
   0  -6  12    2.55    0.94
  -1   6 -12    0.31    0.69
   1  -6  12   -0.12    0.73
   1  -6  12    1.33    0.86
   1  -6  12    0.30    0.38
   4   5 -12    0.69    0.75
  -4  -5  12    1.79    0.99
  -4  -5  12    0.94    0.85
   3   5 -12    1.08    0.69
  -3  -5  12    2.88    1.02
  -3  -5  12    1.28    0.82
   2   5 -12    0.10    0.60
  -2  -5  12    0.83    0.76
  -2  -5  12    0.20    0.41
  -2  -5  12    0.17    0.65
   1   5 -12    1.98    0.89
  -1  -5  12    0.97    0.77
  -1  -5  12    2.57    0.56
  -1  -5  12    3.32    1.08
  -1  -5  12    3.59    1.06
   0   5 -12   13.24    1.85
   0  -5  12   15.23    2.11
   0  -5  12   13.06    1.75
   0  -5  12   16.78    2.20
   0  -5  12   13.24    1.06
  -1   5 -12    0.40    0.65
   1  -5  12    0.80    0.47
   1  -5  12   -0.14    0.73
   1  -5  12   -0.01    0.73
   1  -5  12    1.01    0.74
  -2   5 -12    0.44    0.67
   2  -5  12    0.19    0.66
   2  -5  12   -0.22    0.42
   2  -5  12    0.03    0.71
  -3   5 -12    1.41    0.81
   3  -5  12    0.26    0.70
   3  -5  12    0.20    0.52
   3  -5  12    0.12    0.86
   4   4 -12    1.06    0.74
  -4  -4  12    0.32    0.61
  -4  -4  12    0.51    0.69
   3   4 -12    5.04    1.31
  -3  -4  12    4.08    1.29
  -3  -4  12    3.40    0.98
   2   4 -12    5.95    1.24
  -2  -4  12    6.33    0.84
  -2  -4  12    2.46    0.95
  -2  -4  12    6.15    1.37
  -2  -4  12    5.86    1.24
   1   4 -12    2.86    0.90
  -1  -4  12    1.51    0.53
  -1  -4  12    1.84    0.94
  -1  -4  12    0.39    0.58
  -1  -4  12    1.35    0.74
   0   4 -12    2.17    0.88
   0  -4  12    1.83    0.78
   0  -4  12    1.86    0.96
   0  -4  12    3.68    0.71
   0  -4  12    3.90    1.13
  -1   4 -12    1.15    0.73
   1  -4  12    2.48    0.83
   1  -4  12    2.09    0.91
   1  -4  12    3.84    1.09
   1  -4  12    1.86    0.63
  -2   4 -12   19.10    2.27
   2  -4  12   16.87    1.40
   2  -4  12   22.58    2.54
   2  -4  12   12.58    1.87
  -3   4 -12    0.50    0.69
   3  -4  12    0.19    0.63
   3  -4  12    0.61    0.57
   3  -4  12    0.51    0.64
  -4   4 -12   -0.14    0.51
   4  -4  12   -0.30    0.42
   4  -4  12   -0.33    0.66
   4  -4  12    0.26    0.62
   5   3 -12   20.65    2.51
  -5  -3  12   16.55    2.49
  -5  -3  12   21.36    2.51
   4   3 -12    0.69    0.63
  -4  -3  12    0.11    0.64
  -4  -3  12    0.86    0.75
   3   3 -12   -0.27    0.43
  -3  -3  12    0.26    0.70
  -3  -3  12    0.48    0.65
   2   3 -12   14.45    1.90
  -2  -3  12   16.97    1.99
  -2  -3  12   13.75    1.91
   1   3 -12    0.25    0.57
  -1  -3  12    0.65    0.64
  -1  -3  12    1.36    0.69
  -1  -3  12    0.35    0.41
  -1  -3  12    1.08    0.62
  -1  -3  12    0.60    0.67
   0   3 -12    8.60    1.43
   0  -3  12    7.86    1.31
   0  -3  12    9.20    1.51
   0  -3  12    9.22    1.44
   0  -3  12    7.07    0.99
  -1   3 -12   58.57    3.02
   1  -3  12   54.95    2.91
   1  -3  12   53.87    3.02
   1  -3  12   58.97    3.16
   1  -3  12   53.65    2.33
  -2   3 -12    0.26    0.58
   2  -3  12    0.49    0.59
   2  -3  12    0.57    0.59
   2  -3  12    0.47    0.46
  -3   3 -12    7.08    1.39
   3  -3  12    5.40    1.31
   3  -3  12    8.94    1.24
   3  -3  12    5.95    1.29
  -4   3 -12    3.02    1.05
   4  -3  12    1.54    0.96
   4  -3  12    2.41    0.81
   4  -3  12    1.53    0.77
  -5   3 -12    0.81    0.72
   5  -3  12    1.02    0.77
   5  -3  12    0.70    0.68
   5  -3  12    0.80    0.81
  -5  -2  12    3.70    1.32
  -5  -2  12    0.99    0.80
   4   2 -12   -0.26    0.56
  -4  -2  12    0.60    0.59
  -4  -2  12    0.31    0.76
   3   2 -12    1.37    0.77
  -3  -2  12    1.07    0.74
  -3  -2  12    1.04    0.76
   2   2 -12    6.33    1.24
  -2  -2  12    4.36    1.20
  -2  -2  12    5.80    1.16
   1   2 -12    1.14    0.62
  -1  -2  12    0.73    0.60
  -1  -2  12    0.74    0.64
  -1  -2  12    0.20    0.56
  -1  -2  12    1.87    0.74
   0   2 -12   48.83    2.46
   0   2 -12   48.38    2.65
   0  -2  12   48.13    2.12
   0  -2  12   47.08    2.57
   0  -2  12   46.16    2.69
   0  -2  12   46.32    2.74
  -1   2 -12   57.90    2.96
  -1   2 -12   62.45    2.82
   1  -2  12   58.03    3.08
   1  -2  12   57.34    2.89
   1  -2  12   59.66    2.45
   1  -2  12   60.67    3.20
  -2   2 -12   10.53    1.54
   2  -2  12   15.95    1.99
   2  -2  12   12.11    1.36
   2  -2  12   12.60    1.77
  -3   2 -12    6.48    1.27
   3  -2  12    7.91    1.42
   3  -2  12    6.18    1.30
   3  -2  12    9.14    1.29
  -4   2 -12    7.59    1.38
   4  -2  12   10.91    1.69
   4  -2  12    8.00    1.53
   4  -2  12   10.37    1.45
  -5   2 -12   -0.38    0.59
   5  -2  12   -0.15    0.70
   5  -2  12    0.00    0.47
   5  -2  12    0.27    0.60
  -5  -1  12    0.68    0.83
  -5  -1  12    1.50    0.81
   4   1 -12    8.71    1.51
  -4  -1  12   11.46    1.72
  -4  -1  12   10.93    2.06
   3   1 -12    1.62    0.74
  -3  -1  12    2.21    1.06
  -3  -1  12    1.44    0.83
   2   1 -12    0.48    0.54
  -2  -1  12    0.40    0.51
  -2  -1  12    0.47    0.60
   1   1 -12   16.35    1.75
   1   1 -12   14.13    1.69
  -1  -1  12   16.27    1.85
  -1  -1  12   16.28    1.80
  -1  -1  12   13.45    1.83
   0   1 -12   39.21    2.22
   0   1 -12   40.68    2.32
   0  -1  12   35.35    2.42
   0  -1  12   34.94    2.29
   0  -1  12   35.79    2.36
   0  -1  12   37.08    2.23
  -1   1 -12    2.21    0.73
  -1   1 -12    4.20    0.87
   1  -1  12    3.95    0.92
   1  -1  12    3.19    0.89
   1  -1  12    1.77    0.61
   1  -1  12    3.73    1.00
  -2   1 -12   27.38    1.96
   2  -1  12   27.48    2.09
   2  -1  12   22.79    1.62
   2  -1  12   25.21    2.06
  -3   1 -12    4.46    1.05
   3  -1  12    6.35    1.32
   3  -1  12    4.76    1.07
   3  -1  12    4.81    0.95
  -4   1 -12   12.94    1.36
  -4   1 -12    8.37    1.41
   4  -1  12   12.11    1.69
   4  -1  12   14.61    1.66
   4  -1  12   14.52    1.90
  -5   1 -12    1.28    0.76
   5  -1  12    0.52    0.63
   5  -1  12    0.08    0.57
   5  -1  12    0.37    0.61
  -6   1 -12    4.33    1.23
   6  -1  12    4.19    1.05
   6  -1  12    2.94    1.08
   4   0 -12   25.09    2.45
  -4   0  12   26.21    3.06
  -4   0  12   21.14    2.21
   3   0 -12    1.32    0.51
   3   0 -12   -0.08    0.50
  -3   0  12    0.00    0.73
  -3   0  12   -0.06    0.61
   2   0 -12    0.38    0.39
   2   0 -12    0.62    0.50
   2   0 -12    0.43    0.50
  -2   0  12   -0.10    0.49
  -2   0  12    0.68    0.71
   1   0 -12    8.51    1.28
   1   0 -12    8.39    1.30
  -1   0  12   10.07    1.43
  -1   0  12    8.34    1.49
  -1   0  12    7.41    1.22
   0   0 -12    3.20    0.83
   0   0 -12    4.59    1.00
   0   0 -12    2.64    0.60
   0   0  12    4.02    0.96
   0   0  12    2.15    0.76
   0   0  12    2.78    0.83
  -1   0 -12    3.65    0.62
  -1   0 -12    4.24    0.98
  -1   0 -12    5.30    1.09
   1   0  12    5.22    1.10
   1   0  12    5.32    1.08
   1   0  12    5.35    1.05
  -2   0 -12   -0.11    0.40
  -2   0 -12   -0.06    0.32
  -2   0 -12   -0.28    0.27
   2   0  12   -0.88    0.35
   2   0  12    0.03    0.37
   2   0  12    0.77    0.55
   2   0  12    0.45    0.49
  -3   0 -12    0.49    0.49
  -3   0 -12   -0.06    0.31
   3   0  12    0.44    0.50
   3   0  12   -0.25    0.37
   3   0  12    0.32    0.49
  -4   0 -12    0.54    0.41
  -4   0 -12   -0.09    0.45
   4   0  12    1.31    0.73
   4   0  12    0.53    0.53
   4   0  12    0.74    0.55
  -5   0 -12   -0.04    0.61
   5   0  12   -0.25    0.45
   5   0  12   -0.11    0.49
   5   0  12   -0.11    0.53
  -6   0 -12    1.33    0.89
   6   0  12    0.40    0.60
   6   0  12    0.69    0.69
   4  -1 -12    2.51    1.54
  -4   1  12    1.89    1.30
  -4   1  12   -0.08    0.74
   3  -1 -12    2.64    0.82
  -3   1  12    0.99    0.62
  -3   1  12    1.34    0.95
   2  -1 -12   15.18    1.44
   2  -1 -12   15.70    1.87
   2  -1 -12   18.50    1.89
  -2   1  12   15.17    1.81
  -2   1  12   18.14    2.44
  -2   1  12   12.13    1.55
   1  -1 -12    1.58    0.48
   1  -1 -12    1.35    0.63
   1  -1 -12    1.75    0.65
  -1   1  12    1.33    0.77
  -1   1  12    2.12    0.71
  -1   1  12    2.17    0.77
   0  -1 -12    4.46    0.92
   0  -1 -12    5.03    1.11
   0  -1 -12    4.48    0.76
   0   1  12    4.33    1.10
   0   1  12    4.83    1.05
   0   1  12    3.72    0.82
  -1  -1 -12   -0.02    0.47
  -1  -1 -12    0.45    0.34
  -1  -1 -12    0.79    0.53
   1   1  12    0.54    0.53
   1   1  12    1.57    0.72
   1   1  12    0.79    0.58
  -2  -1 -12    0.53    0.47
  -2  -1 -12    0.45    0.50
  -2  -1 -12    0.43    0.31
   2   1  12    1.54    0.74
   2   1  12    0.15    0.46
   2   1  12    0.14    0.40
   2   1  12    0.26    0.49
  -3  -1 -12   17.24    1.79
  -3  -1 -12   21.58    1.38
   3   1  12   24.58    1.84
   3   1  12   19.63    2.14
  -4  -1 -12    0.11    0.36
  -4  -1 -12   -0.05    0.43
   4   1  12    0.51    0.57
   4   1  12   -0.16    0.47
   4   1  12   -0.23    0.39
  -5  -1 -12    1.54    0.83
   5   1  12    1.40    0.73
   5   1  12    1.17    0.58
  -6  -1 -12   33.82    2.45
   6   1  12   34.83    2.27
   6   1  12   26.85    2.68
  -7  -1 -12   12.28    1.93
   7   1  12    9.00    1.56
  -4   2  12    8.34    1.80
  -3   2  12   -0.22    0.55
  -2   2  12    0.09    0.58
  -2   2  12    0.67    0.65
   1  -2 -12    5.16    0.83
   1  -2 -12    4.37    0.90
   1  -2 -12    3.60    0.91
  -1   2  12    3.82    1.12
  -1   2  12    6.63    1.27
  -1   2  12    3.30    0.83
   0  -2 -12    3.38    0.88
   0  -2 -12    4.26    0.74
   0  -2 -12    3.26    0.79
   0   2  12    2.61    0.72
   0   2  12    2.89    0.94
   0   2  12    2.62    0.88
  -1  -2 -12    2.58    0.75
  -1  -2 -12    5.37    1.05
  -1  -2 -12    2.75    0.59
   1   2  12    4.25    0.88
   1   2  12    3.94    0.95
   1   2  12    2.90    0.91
  -2  -2 -12    2.98    0.80
  -2  -2 -12   -0.06    0.42
  -2  -2 -12    2.20    0.53
   2   2  12    3.09    0.90
   2   2  12    2.50    0.81
   2   2  12    1.84    0.75
  -3  -2 -12   25.82    1.80
  -3  -2 -12   27.84    1.58
   3   2  12   23.73    1.79
   3   2  12   22.37    1.80
   3   2  12   23.80    1.81
   3   2  12   25.20    1.93
  -4  -2 -12   27.66    1.61
  -4  -2 -12   27.40    1.91
   4   2  12   30.25    2.29
   4   2  12   28.05    2.15
  -5  -2 -12    3.46    0.88
   5   2  12    7.14    1.38
  -6  -2 -12   -0.53    0.42
   6   2  12   -0.18    0.48
  -7  -2 -12    1.23    0.81
   7   2  12   -0.25    0.64
  -3   3  12    0.61    0.91
  -2   3  12   -0.61    0.71
  -2   3  12   -0.59    0.50
  -1   3  12    6.50    1.34
  -1   3  12    5.39    1.33
   0  -3 -12   21.24    1.39
   0   3  12   26.48    2.25
   0   3  12   23.45    2.41
  -1  -3 -12    5.15    0.82
   1   3  12    6.15    1.27
   1   3  12    7.21    1.35
  -2  -3 -12   33.08    1.90
  -2  -3 -12   35.94    1.76
   2   3  12   32.09    2.33
   2   3  12   31.24    2.20
   2   3  12   30.78    2.09
  -3  -3 -12    0.15    0.32
  -3  -3 -12    0.98    0.55
   3   3  12    0.40    0.50
   3   3  12    0.60    0.56
  -4  -3 -12    7.81    1.27
  -4  -3 -12    5.49    1.34
   4   3  12    6.43    1.26
  -5  -3 -12   14.65    1.67
   5   3  12   13.94    1.80
  -6  -3 -12   13.93    1.84
   6   3  12   15.08    1.97
  -7  -3 -12    0.01    0.63
   7   3  12   -0.20    0.57
  -3   4  12    0.26    0.85
  -2   4  12   -0.43    0.72
  -2   4  12    0.26    0.64
  -1   4  12    4.19    1.20
  -1   4  12    1.75    0.88
   0   4  12    4.52    1.26
   0   4  12    3.36    1.04
  -1  -4 -12    3.09    0.69
   1   4  12    4.27    1.22
   1   4  12    1.13    0.72
  -2  -4 -12    0.16    0.31
   2   4  12    1.40    0.66
   2   4  12   -0.74    0.54
   2   4  12    0.45    0.58
  -3  -4 -12   -0.14    0.27
   3   4  12    0.11    0.54
   3   4  12    0.36    0.50
  -4  -4 -12    1.08    0.59
   4   4  12    0.35    0.53
   4   4  12    0.14    0.41
  -5  -4 -12    1.59    0.75
   5   4  12    1.46    0.66
  -6  -4 -12    4.98    1.14
   6   4  12    4.85    1.13
  -7  -4 -12    1.82    0.91
   7   4  12    2.02    0.84
  -2   5  12   -0.11    0.82
  -2   5  12    0.13    0.77
  -1   5  12    1.14    0.87
  -1   5  12    1.74    0.94
   0   5  12    0.68    0.94
   0   5  12    1.75    0.89
   1   5  12   10.45    1.70
   1   5  12    9.26    1.64
  -2  -5 -12    8.66    0.98
   2   5  12    8.94    1.57
   2   5  12    6.51    1.41
  -3  -5 -12    0.39    0.32
   3   5  12    0.67    0.62
   3   5  12    0.28    0.53
  -4  -5 -12    0.60    0.36
   4   5  12   -0.34    0.40
   4   5  12    0.00    0.49
   5   5  12   -0.25    0.57
   5   5  12   -0.18    0.50
   6   5  12    3.48    1.01
  -7  -5 -12    5.26    1.83
   7   5  12    6.03    1.26
  -1   6  12    1.97    1.02
  -1   6  12    0.88    0.94
   0   6  12    7.83    1.77
   0   6  12    4.69    1.24
  -1  -6 -12    0.48    0.58
   1   6  12    0.40    0.70
   1   6  12    1.30    0.93
  -2  -6 -12    1.30    0.41
   2   6  12    0.46    0.72
   2   6  12    1.63    0.87
   3   6  12    0.92    0.78
   3   6  12    0.38    0.64
   4   6  12    1.36    0.87
   4   6  12    4.00    1.20
   5   6  12    1.41    0.89
   5   6  12    1.12    0.69
   6   6  12    3.30    1.00
   6   6  12    2.92    1.07
   7   6  12    2.44    0.84
   0   7  12    0.07    0.88
   0   7  12   -0.07    0.78
   1   7  12    7.33    1.61
   1   7  12    6.23    1.60
   2   7  12   -0.59    0.45
   2   7  12    0.10    0.77
   3   7  12    0.17    0.65
   3   7  12    0.57    0.74
   4   7  12   18.06    2.52
   4   7  12   15.52    2.14
   5   7  12    0.90    0.79
   5   7  12   -1.45    0.52
   6   7  12   17.13    2.40
   6   7  12   15.79    2.08
   7   7  12    1.73    0.92
   7   7  12    1.70    0.76
   1   8  12   -0.74    0.75
   1   8  12   -0.84    0.66
   2   8  12    5.01    1.57
   2   8  12    1.68    1.01
   3   8  12    3.67    1.34
   3   8  12    3.85    1.30
   4   8  12   18.09    2.49
   4   8  12   22.58    2.57
   5   8  12    8.47    1.74
   5   8  12    6.34    1.55
   6   8  12    0.87    0.83
   6   8  12    0.48    0.72
   3   9  12    9.83    1.94
   3   9  12    8.14    1.81
   4   9  12   -0.18    0.80
   4   9  12    1.21    0.95
   3   5 -13    0.98    0.70
  -3  -5  13   -0.49    0.71
   2   5 -13   -0.05    0.57
  -2  -5  13    0.09    0.71
  -2  -5  13    0.17    0.74
  -2  -5  13    0.60    0.48
   1   5 -13    1.76    0.88
  -1  -5  13    1.51    0.58
  -1  -5  13    3.16    1.17
  -1  -5  13    0.78    0.82
  -1  -5  13    2.24    0.95
   0   5 -13    0.20    0.63
   0  -5  13    0.54    0.49
   0  -5  13    0.40    0.79
   0  -5  13   -0.68    0.60
   0  -5  13    0.04    0.78
  -1   5 -13    5.06    1.28
   1  -5  13    2.42    1.03
   1  -5  13    4.80    1.28
   1  -5  13    4.25    0.91
   3   4 -13    0.91    0.70
  -3  -4  13    1.54    0.92
  -3  -4  13    0.95    0.83
   2   4 -13    0.30    0.64
  -2  -4  13   -0.36    0.57
   1   4 -13    0.65    0.71
  -1  -4  13    0.80    0.81
  -1  -4  13    0.71    0.78
  -1  -4  13    1.05    0.83
  -1  -4  13    1.19    0.60
   0   4 -13    4.81    1.14
   0  -4  13    3.98    1.13
   0  -4  13    5.27    0.92
   0  -4  13    5.18    1.27
   0  -4  13    2.91    1.02
   1  -4  13   67.81    3.49
   1  -4  13   72.11    3.87
   1  -4  13   70.63    2.84
   1  -4  13   73.77    3.80
  -2   4 -13    0.04    0.65
   2  -4  13   -0.44    0.41
   2  -4  13    0.07    0.70
   2  -4  13   -0.32    0.62
  -3   4 -13    3.92    1.17
   3  -4  13    4.83    1.00
   3  -4  13    3.82    1.20
   3  -4  13    5.85    1.44
   4   3 -13    9.86    1.78
  -4  -3  13   11.07    1.80
  -4  -3  13    7.47    1.77
   3   3 -13    2.51    1.00
  -3  -3  13    4.32    1.22
  -3  -3  13    1.33    0.95
   2   3 -13    6.20    1.34
  -2  -3  13    8.96    1.68
  -2  -3  13    6.76    1.32
   1   3 -13    3.19    0.98
  -1  -3  13    4.92    1.18
  -1  -3  13    1.37    0.62
  -1  -3  13    4.20    1.26
   0   3 -13   19.11    2.18
   0  -3  13   12.84    1.79
   0  -3  13   14.98    1.90
   0  -3  13   16.48    2.15
   0  -3  13   15.07    1.51
  -1   3 -13    6.94    1.32
   1  -3  13    5.61    0.99
   1  -3  13    5.45    1.26
   1  -3  13    5.48    1.30
   1  -3  13    5.80    1.35
  -2   3 -13   31.75    2.37
   2  -3  13   33.90    2.57
   2  -3  13   34.26    2.60
   2  -3  13   30.82    2.01
  -3   3 -13   18.24    2.34
   3  -3  13   15.29    1.72
   3  -3  13   17.96    2.29
   3  -3  13   13.72    2.10
  -4   3 -13    0.09    0.71
   4  -3  13    0.56    0.67
   4  -3  13    0.01    0.76
   4  -3  13    0.36    0.63
   4   2 -13    2.06    0.98
  -4  -2  13    1.85    0.96
  -4  -2  13    1.66    1.07
   3   2 -13    2.00    0.88
  -3  -2  13    1.02    0.88
  -3  -2  13   -0.19    0.51
   2   2 -13   15.12    1.94
  -2  -2  13   15.69    1.99
  -2  -2  13   14.01    2.10
   1   2 -13   -0.31    0.54
  -1  -2  13   -0.33    0.52
  -1  -2  13    0.17    0.59
  -1  -2  13    0.13    0.53
   0   2 -13    2.39    0.94
   0  -2  13    1.69    0.80
   0  -2  13    3.52    0.95
   0  -2  13    1.33    0.76
  -1   2 -13   17.50    2.03
   1  -2  13   20.83    2.30
   1  -2  13   18.94    2.23
   1  -2  13   14.33    1.51
   1  -2  13   14.70    1.84
  -2   2 -13    0.85    0.61
   2  -2  13    3.61    1.09
   2  -2  13    1.42    0.70
   2  -2  13    2.11    0.70
  -3   2 -13    1.59    0.78
   3  -2  13    1.20    0.70
   3  -2  13    1.43    0.67
   3  -2  13    1.40    0.80
  -4   2 -13    8.02    1.53
   4  -2  13    9.26    1.72
   4  -2  13    6.98    1.29
   4  -2  13    5.24    1.27
  -5   2 -13    0.21    0.63
   5  -2  13    0.63    0.79
   5  -2  13    0.65    0.72
   5  -2  13   -0.03    0.55
   4   1 -13    2.11    0.89
  -4  -1  13    2.53    0.98
  -4  -1  13    1.40    0.98
   3   1 -13    0.12    0.64
  -3  -1  13    0.09    0.74
  -3  -1  13    0.68    0.76
   2   1 -13   13.61    1.80
  -2  -1  13   12.29    1.94
  -2  -1  13   13.97    1.80
   1   1 -13    8.34    1.42
  -1  -1  13    7.75    1.32
  -1  -1  13    9.08    1.49
  -1  -1  13    8.07    1.56
   0   1 -13    0.98    0.62
   0  -1  13   -0.11    0.46
   0  -1  13    0.38    0.52
   0  -1  13    0.65    0.62
  -1   1 -13    2.08    0.78
   1  -1  13    0.63    0.58
   1  -1  13    0.42    0.61
   1  -1  13    2.09    0.78
  -2   1 -13    8.93    1.42
   2  -1  13    9.99    1.35
   2  -1  13    6.93    1.35
   2  -1  13    6.89    1.41
  -3   1 -13    6.33    1.32
   3  -1  13    3.73    1.04
   3  -1  13    5.08    1.03
   3  -1  13    5.91    1.33
  -4   1 -13   11.22    1.74
   4  -1  13   11.64    1.72
   4  -1  13   12.19    1.83
   4  -1  13   12.46    1.64
  -5   1 -13    1.27    0.90
   5  -1  13    0.31    0.66
   5  -1  13    1.79    0.84
   5  -1  13    1.28    0.88
   4   0 -13    0.66    0.76
  -4   0  13    1.13    0.83
  -4   0  13    2.41    1.12
   3   0 -13    2.54    0.95
  -3   0  13    1.58    0.91
  -3   0  13    3.66    1.08
   2   0 -13    1.09    0.74
  -2   0  13    0.61    0.73
  -2   0  13    0.66    0.76
   1   0 -13    4.86    1.08
  -1   0  13    5.19    1.10
  -1   0  13    4.65    1.17
  -1   0  13    4.32    1.11
   0   0 -13    0.01    0.41
   0   0 -13    0.15    0.53
   0   0  13    0.65    0.57
   0   0  13    0.22    0.47
   0   0  13    0.39    0.51
  -1   0 -13    0.75    0.49
  -1   0 -13   -0.13    0.40
   1   0  13    0.07    0.39
   1   0  13    0.39    0.52
   1   0  13    0.85    0.62
   1   0  13    0.08    0.54
  -2   0 -13    0.86    0.64
  -2   0 -13    0.99    0.49
  -2   0 -13    1.12    0.57
   2   0  13    0.32    0.55
   2   0  13    0.92    0.60
  -3   0 -13    1.19    0.64
  -3   0 -13    1.61    0.55
   3   0  13    1.40    0.67
   3   0  13    2.24    0.76
   3   0  13    0.11    0.48
  -4   0 -13    4.20    1.05
   4   0  13    4.74    1.07
   4   0  13    3.72    1.05
   4   0  13    4.66    1.11
  -5   0 -13    7.42    1.48
   5   0  13    8.13    1.53
   5   0  13    6.20    1.47
   5   0  13    8.94    1.41
  -6   0 -13    1.76    0.96
   6   0  13    0.33    0.64
   6   0  13    0.11    0.61
  -4   1  13   -0.32    0.71
   3  -1 -13    0.49    0.65
  -3   1  13    0.10    0.69
  -3   1  13    0.28    0.87
   2  -1 -13    0.76    0.62
  -2   1  13    0.62    0.76
  -2   1  13   -0.09    0.65
   1  -1 -13   -0.01    0.35
   1  -1 -13    0.31    0.53
   1  -1 -13    0.44    0.52
  -1   1  13   -0.19    0.58
  -1   1  13   -0.58    0.51
  -1   1  13    0.30    0.50
   0  -1 -13    2.32    0.57
   0  -1 -13    0.79    0.57
   0  -1 -13    3.27    0.86
   0   1  13    1.72    0.80
   0   1  13    2.02    0.78
   0   1  13    1.09    0.62
  -1  -1 -13   -0.17    0.40
  -1  -1 -13    0.35    0.48
  -1  -1 -13    0.30    0.34
   1   1  13    0.31    0.50
   1   1  13    0.59    0.57
   1   1  13    0.94    0.59
  -2  -1 -13   23.21    2.14
  -2  -1 -13   16.62    1.86
  -2  -1 -13   17.17    1.29
   2   1  13   20.18    2.19
   2   1  13   20.08    2.08
  -3  -1 -13    2.26    0.82
  -3  -1 -13    1.71    0.72
  -3  -1 -13    2.72    0.63
   3   1  13    1.25    0.69
   3   1  13    2.71    0.82
  -4  -1 -13    0.18    0.52
   4   1  13    0.61    0.54
   4   1  13   -0.31    0.45
  -5  -1 -13   -0.11    0.57
   5   1  13    0.44    0.64
   5   1  13   -0.08    0.40
  -6  -1 -13    0.23    0.69
   6   1  13    0.59    0.62
   6   1  13    0.33    0.71
  -3   2  13    1.93    1.01
  -2   2  13    1.89    1.02
  -1   2  13   19.28    2.15
  -1   2  13   17.96    2.40
   0  -2 -13    3.74    0.86
   0   2  13    0.81    0.61
   0   2  13    2.96    0.99
   0   2  13    2.17    0.86
  -1  -2 -13    0.47    0.56
  -1  -2 -13    0.80    0.38
  -1  -2 -13    0.83    0.63
   1   2  13    0.33    0.55
   1   2  13    2.12    0.79
   1   2  13    0.85    0.66
  -2  -2 -13    7.65    1.20
  -2  -2 -13    9.09    1.10
  -2  -2 -13    8.62    1.60
   2   2  13    7.46    1.31
   2   2  13    7.60    1.41
  -3  -2 -13    1.57    0.69
   3   2  13    0.51    0.61
  -4  -2 -13   10.73    1.51
   4   2  13   11.92    1.75
  -5  -2 -13    1.98    0.89
   5   2  13    4.53    1.08
  -6  -2 -13    0.69    0.65
   6   2  13    1.50    0.80
  -3   3  13    1.38    0.91
  -2   3  13    1.03    0.88
  -1   3  13   11.17    1.67
  -1   3  13    7.55    1.64
   0   3  13    1.54    0.83
   0   3  13    2.04    0.89
   1   3  13    0.72    0.62
   1   3  13   -1.06    0.47
  -2  -3 -13    1.69    0.67
   2   3  13    1.73    0.81
   2   3  13    0.89    0.66
  -3  -3 -13    8.33    1.27
   3   3  13   12.99    1.80
   3   3  13    7.77    1.35
  -4  -3 -13    0.20    0.53
   4   3  13   -0.38    0.43
  -5  -3 -13    5.87    1.19
   5   3  13    4.55    1.27
  -6  -3 -13    2.90    0.90
   6   3  13    4.97    1.25
  -7  -3 -13    2.11    0.97
   7   3  13    0.28    0.58
  -2   4  13   -0.28    0.69
  -1   4  13    3.64    1.21
  -1   4  13    9.86    2.04
   0   4  13   10.54    1.83
   0   4  13   11.94    1.88
   1   4  13    0.43    0.79
   1   4  13   -0.20    0.41
   2   4  13   11.15    1.78
   2   4  13   11.58    1.68
   3   4  13    0.35    0.58
   3   4  13   -0.34    0.52
   4   4  13    4.20    1.07
   4   4  13    4.04    1.10
  -5  -4 -13   10.91    1.51
   5   4  13   12.59    1.85
  -6  -4 -13    1.93    0.81
   6   4  13    1.71    0.85
  -7  -4 -13    0.12    0.64
   7   4  13    0.92    0.73
  -1   5  13    7.98    1.83
  -1   5  13    5.91    1.45
   0   5  13    0.40    0.88
   0   5  13    0.09    0.64
   1   5  13    1.65    1.00
   1   5  13    1.70    1.00
   2   5  13    2.89    1.15
   2   5  13    6.54    1.52
   3   5  13    0.57    0.63
   3   5  13    0.07    0.70
   4   5  13    0.75    0.67
   4   5  13    0.22    0.58
   5   5  13    5.77    1.29
   5   5  13    3.14    0.99
   6   5  13   24.27    2.54
   7   5  13   -0.07    0.54
  -1   6  13    8.72    1.87
  -1   6  13    9.45    1.84
   0   6  13    3.01    1.23
   0   6  13    1.85    1.06
   1   6  13    0.83    0.88
   1   6  13    0.34    0.66
   2   6  13   -1.10    0.62
   2   6  13    0.32    0.67
   3   6  13    9.73    1.83
   3   6  13   11.60    2.11
   4   6  13    0.64    0.76
   4   6  13    0.67    0.70
   5   6  13    4.25    1.26
   5   6  13    2.30    0.87
   6   6  13   -0.46    0.45
   1   7  13    1.49    1.10
   1   7  13    0.05    0.79
   2   7  13    0.95    0.78
   2   7  13    1.25    0.99
   3   7  13    0.40    0.80
   3   7  13    0.01    0.82
   4   7  13   12.96    2.21
   4   7  13    9.63    1.93
   5   7  13    3.41    1.16
   5   7  13    4.07    1.29
   6   7  13    5.08    1.35
   6   7  13    7.56    1.69
   2   8  13    3.58    1.26
   2   8  13    2.68    1.25
   3   8  13    1.09    0.84
   3   8  13    2.93    1.28
   4   8  13    2.43    1.24
   4   8  13    1.66    1.05
   5   8  13    5.89    1.57
   5   8  13    6.24    1.53
   2   4 -14    0.72    0.80
  -2  -4  14   -0.03    0.64
   1   4 -14   -0.04    0.57
  -1  -4  14    0.37    0.53
  -1  -4  14    0.23    0.70
  -1  -4  14    1.00    0.81
  -1  -4  14    0.09    0.78
   0   4 -14    2.70    0.97
   0  -4  14    1.95    0.81
   0  -4  14    3.02    0.85
   0  -4  14    3.31    1.27
   0  -4  14    3.21    1.16
  -1   4 -14   10.66    1.77
   1  -4  14    8.14    1.26
   1  -4  14    9.92    1.81
   1  -4  14    8.50    1.69
   1  -4  14    6.17    1.47
  -2   4 -14    9.25    1.70
   2  -4  14   12.89    2.07
   2  -4  14   13.01    1.60
   2  -4  14   13.28    2.11
   3   3 -14    2.10    0.91
  -3  -3  14    0.78    0.91
  -3  -3  14   -0.21    0.62
   2   3 -14    2.84    1.05
  -2  -3  14    0.77    0.80
  -2  -3  14    1.97    0.88
   1   3 -14    6.23    1.30
  -1  -3  14    3.20    1.04
  -1  -3  14    6.55    1.31
   0   3 -14    0.01    0.58
   0  -3  14   -0.38    0.55
   0  -3  14    1.31    0.81
   0  -3  14   -0.41    0.43
   0  -3  14   -0.16    0.53
  -1   3 -14    0.97    0.69
   1  -3  14    0.38    0.64
   1  -3  14    0.81    0.82
   1  -3  14    1.07    0.73
   1  -3  14    0.48    0.61
  -2   3 -14    3.63    1.21
   2  -3  14    0.86    0.93
   2  -3  14    1.44    0.76
   2  -3  14    3.95    1.14
  -3   3 -14    2.26    1.09
   3  -3  14    3.72    1.00
   3  -3  14    3.09    1.19
   3  -3  14    0.93    0.90
   3   2 -14    1.47    0.85
  -3  -2  14    0.85    0.76
  -3  -2  14    0.17    0.75
   2   2 -14    0.49    0.67
  -2  -2  14    1.26    0.80
  -2  -2  14    2.04    1.11
   1   2 -14    0.57    0.56
  -1  -2  14    1.48    0.92
  -1  -2  14    0.93    0.74
  -1  -2  14    0.70    0.70
   0   2 -14   -0.26    0.50
   0  -2  14   -0.66    0.48
   0  -2  14   -0.56    0.57
   0  -2  14    0.34    0.64
  -1   2 -14   -0.13    0.52
   1  -2  14    0.04    0.67
   1  -2  14    0.09    0.64
   1  -2  14    0.27    0.54
   1  -2  14    0.47    0.53
  -2   2 -14   47.48    2.96
   2  -2  14   48.06    2.57
   2  -2  14   41.97    2.89
   2  -2  14   47.75    3.01
  -3   2 -14    2.81    0.96
   3  -2  14    2.66    1.01
   3  -2  14    2.34    0.97
   3  -2  14    2.03    0.80
  -4   2 -14    0.19    0.70
   4  -2  14    1.13    0.84
   4  -2  14    0.78    0.75
   4  -2  14   -0.04    0.61
   3   1 -14   15.62    2.09
  -3  -1  14   11.11    2.00
  -3  -1  14   18.86    2.31
   2   1 -14    4.33    1.20
  -2  -1  14    4.67    1.38
  -2  -1  14    5.56    1.36
   1   1 -14    6.00    1.36
  -1  -1  14    4.14    1.06
  -1  -1  14    3.76    1.21
  -1  -1  14    7.21    1.41
   0   1 -14    0.21    0.66
   0  -1  14    1.04    0.77
   0  -1  14    1.02    0.76
  -1   1 -14    2.32    0.84
   1  -1  14    1.32    0.81
   1  -1  14    4.82    1.14
   1  -1  14    2.74    0.99
  -2   1 -14    0.63    0.72
   2  -1  14    0.80    0.65
   2  -1  14   -0.30    0.40
   2  -1  14   -0.38    0.59
  -3   1 -14    9.25    1.62
   3  -1  14    7.51    1.25
   3  -1  14    7.78    1.45
   3  -1  14    9.50    1.69
  -4   1 -14    0.60    0.73
   4  -1  14   -0.42    0.65
   4  -1  14    0.63    0.64
   4  -1  14    0.57    0.65
   3   0 -14    1.31    0.88
  -3   0  14    0.15    0.80
  -3   0  14    1.07    0.84
   2   0 -14    2.22    0.87
  -2   0  14    1.52    1.03
  -2   0  14    2.89    0.96
   1   0 -14    4.59    1.10
  -1   0  14    5.39    1.22
  -1   0  14    6.45    1.53
  -1   0  14    4.31    1.04
   0   0 -14    5.33    1.16
   0   0  14    4.41    1.13
   0   0  14    3.19    1.05
   0   0  14    3.64    0.94
  -1   0 -14   -0.23    0.49
   1   0  14    0.75    0.75
   1   0  14    0.26    0.62
  -2   0 -14    0.69    0.65
   2   0  14    1.51    0.76
   2   0  14    1.24    0.81
  -3   0 -14   18.69    2.14
   3   0  14   16.23    2.03
   3   0  14   18.94    2.34
  -4   0 -14    2.81    1.05
   4   0  14    1.02    0.68
   4   0  14    1.56    0.81
   4   0  14    1.93    0.89
  -5   0 -14   -0.19    0.59
   5   0  14   -0.05    0.65
   5   0  14    0.38    0.60
  -3   1  14    3.77    1.35
   2  -1 -14    0.53    0.57
  -2   1  14   -0.23    0.58
  -2   1  14    0.48    0.81
   1  -1 -14    0.57    0.62
  -1   1  14    2.07    0.83
  -1   1  14    0.53    0.78
  -1   1  14    0.35    0.54
   0  -1 -14    9.66    1.42
   0   1  14    8.17    1.49
   0   1  14   10.73    1.46
   0   1  14   11.32    1.74
  -1  -1 -14    0.28    0.61
  -1  -1 -14    0.26    0.59
   1   1  14    0.54    0.59
   1   1  14    0.56    0.63
   1   1  14    0.15    0.62
  -2  -1 -14    5.79    1.16
  -2  -1 -14    9.91    1.63
   2   1  14    7.59    1.48
  -3  -1 -14    0.84    0.60
   3   1  14    2.02    0.87
   3   1  14   -0.02    0.59
  -4  -1 -14    1.26    0.77
   4   1  14    2.97    0.97
   4   1  14    0.99    0.68
  -5  -1 -14   18.86    2.22
   5   1  14   21.51    2.58
  -2   2  14   -0.16    0.67
  -1   2  14    9.26    1.57
  -1   2  14    4.61    1.35
   0  -2 -14    1.58    0.68
   0   2  14    0.67    0.67
   0   2  14    2.14    0.94
   0   2  14    1.80    0.73
  -1  -2 -14    0.29    0.55
   1   2  14    1.02    0.72
   1   2  14    2.51    0.86
   1   2  14    0.27    0.53
  -2  -2 -14    1.05    0.65
   2   2  14    1.05    0.71
   2   2  14    0.63    0.63
  -3  -2 -14    3.37    0.91
   3   2  14    3.73    1.07
  -4  -2 -14    4.77    1.07
   4   2  14    4.90    1.24
  -5  -2 -14   -0.58    0.63
   5   2  14    0.50    0.56
  -6  -2 -14   15.62    2.06
   6   2  14   13.11    1.96
  -2   3  14    0.64    0.96
  -1   3  14    6.65    1.53
  -1   3  14    6.40    1.41
   0   3  14    8.88    1.75
   0   3  14    7.76    1.45
   1   3  14    0.63    0.65
   1   3  14    0.28    0.67
   2   3  14    2.94    1.04
   2   3  14    2.62    0.97
  -3  -3 -14    1.27    0.65
   3   3  14    0.95    0.69
   3   3  14    0.30    0.71
  -4  -3 -14   -0.24    0.50
   4   3  14    0.05    0.48
  -5  -3 -14    9.59    1.56
   5   3  14   10.18    1.71
  -6  -3 -14    0.12    0.60
   6   3  14    0.23    0.57
  -1   4  14   17.48    2.37
  -1   4  14   16.73    2.38
   0   4  14   10.37    1.94
   0   4  14   10.16    1.77
   1   4  14    0.99    0.80
   1   4  14    0.67    0.67
   2   4  14   -0.18    0.69
   2   4  14    1.11    0.74
   3   4  14   -0.07    0.49
   3   4  14    0.67    0.69
   4   4  14    2.56    0.88
   5   4  14    2.70    0.93
  -6  -4 -14    3.35    1.09
   6   4  14    2.27    0.96
   0   5  14   -0.62    0.86
   0   5  14   -0.37    0.53
   1   5  14    2.13    1.17
   1   5  14    2.57    1.07
   2   5  14    1.74    1.02
   2   5  14    0.91    0.88
   3   5  14   -0.59    0.49
   3   5  14    0.58    0.65
   4   5  14    0.79    0.70
   4   5  14    1.59    0.81
   5   5  14    2.33    0.90
   1   6  14    4.93    1.62
   1   6  14    6.16    1.63
   2   6  14    0.53    0.83
   2   6  14    0.08    0.95
   3   6  14    0.37    0.87
   3   6  14    0.28    0.62
   4   6  14    4.08    1.21
   4   6  14    2.75    1.17
   5   6  14   -0.16    0.63
   5   6  14   -0.65    0.63
   2   7  14    0.12    0.89
   2   7  14   -0.17    0.76
   3   7  14    4.44    1.39
   3   7  14    6.30    1.66
   4   7  14    0.55    0.77
   4   7  14   -0.27    0.80
   5   7  14    9.83    2.00
   5   7  14    8.73    1.67
   1   3 -15    1.68    0.85
  -1  -3  15    0.20    0.60
   0   3 -15    3.96    1.17
   0  -3  15    6.62    1.58
   0  -3  15    3.30    1.13
   0  -3  15    1.63    1.02
  -1   3 -15    0.38    0.67
   1  -3  15   -0.09    0.75
   1  -3  15    0.33    0.52
   1  -3  15    0.32    0.86
   1  -3  15    0.66    0.73
   1   2 -15    1.18    0.72
  -1  -2  15    0.58    0.76
  -1  -2  15    1.05    0.85
   0   2 -15    1.46    0.81
   0  -2  15    2.08    0.89
   0  -2  15   -0.23    0.71
  -1   2 -15    3.17    1.08
   1  -2  15    0.59    0.77
   1  -2  15    1.34    0.94
   1  -2  15    0.84    0.82
  -2   2 -15   14.90    2.15
   2  -2  15   13.82    1.71
   2  -2  15   11.47    1.88
   2  -2  15   18.12    2.41
  -3   2 -15    3.66    1.15
   3  -2  15    4.58    1.08
   3  -2  15    3.63    1.25
   3  -2  15    6.06    1.51
   2   1 -15    0.93    0.83
  -2  -1  15    0.92    0.88
  -2  -1  15    0.71    0.80
   1   1 -15    2.53    0.96
  -1  -1  15    4.60    1.19
  -1  -1  15    3.79    1.17
  -1  -1  15    3.01    1.02
   0   1 -15    0.40    0.58
   0  -1  15    0.01    0.65
   0  -1  15    0.91    0.70
  -1   1 -15    1.25    0.85
   1  -1  15    0.09    0.54
   1  -1  15    0.32    0.60
   1  -1  15    0.47    0.71
  -2   1 -15    0.59    0.76
   2  -1  15   -0.27    0.53
   2  -1  15    0.29    0.72
  -3   1 -15    3.68    1.10
   3  -1  15    2.55    1.05
   3  -1  15    1.71    0.87
   3  -1  15    3.52    0.96
   2   0 -15   -0.43    0.63
  -2   0  15    0.08    0.64
  -2   0  15   -0.36    0.68
   1   0 -15    0.21    0.56
  -1   0  15    0.56    0.72
  -1   0  15    0.26    0.85
  -1   0  15    0.22    0.66
   0   0 -15    0.13    0.54
   0   0  15    1.14    0.68
   0   0  15    1.39    0.83
   0   0  15    2.07    0.98
  -1   0 -15    0.48    0.65
   1   0  15    0.60    0.74
   1   0  15    1.87    0.88
  -2   0 -15    0.35    0.64
   2   0  15   -0.76    0.48
   2   0  15    0.89    0.68
  -3   0 -15    4.59    1.20
   3   0  15    2.67    1.02
   3   0  15    3.19    1.10
  -4   0 -15    0.24    0.69
   4   0  15   -0.19    0.55
   4   0  15   -0.07    0.57
  -2   1  15    0.40    0.66
   1  -1 -15   -0.42    0.49
  -1   1  15   -0.04    0.61
  -1   1  15   -0.46    0.54
  -1   1  15    0.53    0.69
   0  -1 -15   20.36    2.20
   0   1  15   17.29    1.97
   0   1  15   19.96    2.32
   0   1  15   19.65    2.51
  -1  -1 -15   -0.76    0.44
   1   1  15   -0.31    0.60
   1   1  15    0.96    0.74
   1   1  15   -0.21    0.59
  -2  -1 -15    8.39    1.51
   2   1  15   10.94    1.76
  -3  -1 -15    0.91    0.69
   3   1  15    0.30    0.65
   3   1  15    0.43    0.69
  -4  -1 -15    1.05    0.72
   4   1  15    0.43    0.71
  -5  -1 -15   -0.39    0.59
   5   1  15   -0.19    0.56
  -1   2  15    2.60    0.96
  -1   2  15    4.28    1.37
   0   2  15    8.51    1.75
   0   2  15    7.94    1.54
  -1  -2 -15    0.37    0.58
   1   2  15    1.36    0.78
   1   2  15    1.82    0.86
   1   2  15    2.25    1.01
  -2  -2 -15    0.76    0.68
   2   2  15    0.31    0.57
  -3  -2 -15    2.34    0.92
   3   2  15    2.30    0.93
  -4  -2 -15    0.37    0.61
   4   2  15    1.28    0.77
  -5  -2 -15    0.57    0.82
   5   2  15    0.90    0.76
  -1   3  15    4.43    1.37
  -1   3  15    3.62    1.05
   0   3  15    0.84    0.82
   0   3  15    0.26    0.77
   1   3  15    0.55    0.72
   1   3  15    0.52    0.67
   2   3  15    1.29    0.76
   2   3  15   -0.40    0.59
   3   3  15   -0.17    0.60
  -4  -3 -15    0.04    0.67
   4   3  15    1.53    0.86
  -5  -3 -15    0.91    0.77
   5   3  15   -0.78    0.59
   0   4  15    3.45    1.26
   0   4  15    1.38    1.07
   1   4  15    6.77    1.60
   1   4  15    8.02    1.55
   2   4  15    0.25    0.67
   2   4  15    1.25    0.81
   3   4  15    4.68    1.39
   3   4  15    5.15    1.40
   4   4  15    0.35    0.70
   5   4  15    0.62    0.79
   1   5  15   10.97    1.92
   1   5  15   13.53    2.37
   2   5  15    2.87    1.02
   2   5  15    3.74    1.22
   3   5  15    0.90    0.81
   3   5  15    1.38    0.94
   4   5  15    0.56    0.75
   4   5  15    0.01    0.72
   5   5  15    8.10    1.64
   3   6  15    1.92    0.98
   3   6  15   -0.15    0.89
   4   6  15    0.69    0.77
   4   6  15    1.71    1.01
  -1   1 -16    2.10    1.02
   1  -1  16    3.07    1.07
   1  -1  16    1.73    0.85
   0   0 -16    0.27    0.64
   0   0  16    0.15    0.69
   0   0  16    0.40    0.71
  -1   0 -16    1.55    0.95
   1   0  16    1.97    0.97
   1   0  16    3.04    1.03
  -2   0 -16    1.98    0.91
   2   0  16   -0.31    0.60
   0  -1 -16    4.32    1.12
   0   1  16    6.94    1.69
   0   1  16    7.17    1.54
   0   1  16    5.05    1.29
  -1  -1 -16    0.18    0.67
   1   1  16    0.57    0.75
   1   1  16    0.38    0.71
  -2  -1 -16    3.16    0.97
   2   1  16    2.40    1.03
  -3  -1 -16    0.23    0.73
   3   1  16    0.58    0.65
   0   2  16   -0.11    0.67
   0   2  16    0.26    0.86
   1   2  16    7.09    1.58
   1   2  16    6.89    1.63
  -2  -2 -16    3.27    1.11
   2   2  16    3.10    1.23
  -3  -2 -16    1.08    0.77
   3   2  16    0.94    0.77
   1   3  16    7.21    1.51
   1   3  16    9.29    1.89
   2   3  16    0.91    0.89
   2   3  16    0.33    0.62
   3   3  16    6.65    1.53
   2   4  16    3.22    1.18
   2   4  16    4.93    1.48
   3   4  16    1.71    0.93
   3   4  16    1.46    1.01
   0   0   0    0.00    0.00
;
_shelx_hkl_checksum              6261
_shelx_res_file
;
TITL OUTF in P-1
    shelx.res
    created by SHELXL-2018/3 at 18:20:05 on 19-Mar-2019
CELL 0.71073 7.3353 8.9091 12.5006 82.389 79.38 65.898
ZERR 2 0.0002 0.0002 0.0004 0.002 0.002 0.002
LATT 1
SFAC C H N O F
UNIT 30 34 4 8 2
L.S. 15
FREE C15 C17
OMIT -1 -1 1
SIMU 0.003 C14 C15 C16 C17 O4 O5
RIGU C14 C15 C16 C17 O4 O5
DELU 0.004 C14 C15 C16 C17 O4 O5
DELU
PLAN  10
SIZE 0.43 0.36 0.27
TEMP -173
ACTA
FMAP 2
BOND $H
CONF
HTAB
WGHT    0.061000    0.449000
FVAR       0.46443
F1    5    0.712122   -0.009391   -0.005252    11.00000    0.03827    0.05487 =
         0.03106   -0.01570   -0.00236   -0.02128
O2    4    0.372795    0.711839    0.291410    11.00000    0.01489    0.01785 =
         0.04036    0.00810   -0.00588   -0.00533
O1    4    0.250708    0.522663    0.365189    11.00000    0.01635    0.02013 =
         0.04188    0.00316   -0.00697   -0.00897
O3    4    1.127121    0.138823    0.462833    11.00000    0.01711    0.01869 =
         0.03012    0.00326   -0.00789   -0.00610
N1    3    0.936815    0.385768    0.384329    11.00000    0.01452    0.01705 =
         0.03023    0.00258   -0.00611   -0.00813
H1A   2    1.033106    0.413318    0.385419    11.00000    0.03279
N2    3    0.804890    0.189429    0.442477    11.00000    0.01800    0.01493 =
         0.02823    0.00410   -0.00849   -0.00758
H2A   2    0.828150    0.087907    0.470384    11.00000    0.02881
C1    1    0.787500    0.215518    0.189906    11.00000    0.02136    0.02406 =
         0.03201   -0.00440   -0.00044   -0.01119
AFIX  43
H1    2    0.865664    0.276590    0.194367    11.00000   -1.20000
AFIX   0
C2    1    0.809525    0.144791    0.094009    11.00000    0.02311    0.03035 =
         0.02922   -0.00310    0.00190   -0.01041
AFIX  43
H2    2    0.901582    0.156310    0.032471    11.00000   -1.20000
AFIX   0
C3    1    0.694422    0.057329    0.090243    11.00000    0.02582    0.02940 =
         0.02601   -0.00723   -0.00474   -0.00836
C4    1    0.561546    0.036223    0.177106    11.00000    0.03083    0.03553 =
         0.03138   -0.00362   -0.00518   -0.02056
AFIX  43
H4    2    0.485602   -0.026428    0.171991    11.00000   -1.20000
AFIX   0
C5    1    0.540245    0.108438    0.272866    11.00000    0.02528    0.02757 =
         0.02485    0.00200   -0.00433   -0.01548
AFIX  43
H5    2    0.447920    0.095876    0.333925    11.00000   -1.20000
AFIX   0
C6    1    0.652465    0.198819    0.280318    11.00000    0.01619    0.01493 =
         0.02526    0.00144   -0.00582   -0.00458
C7    1    0.629381    0.277807    0.385481    11.00000    0.01330    0.01555 =
         0.02433    0.00070   -0.00420   -0.00565
AFIX  13
H7    2    0.507910    0.271437    0.434183    11.00000   -1.20000
AFIX   0
C8    1    0.964503    0.230239    0.431007    11.00000    0.01699    0.01707 =
         0.02162   -0.00145   -0.00270   -0.00640
C9    1    0.750603    0.504785    0.363813    11.00000    0.01648    0.01547 =
         0.02566    0.00097   -0.00374   -0.00535
C10   1    0.748276    0.674879    0.345351    11.00000    0.02034    0.01666 =
         0.04157    0.00212   -0.00812   -0.00809
AFIX 137
H10A  2    0.804397    0.692116    0.269541    11.00000   -1.50000
H10B  2    0.829798    0.688143    0.394445    11.00000   -1.50000
H10C  2    0.609107    0.755813    0.359969    11.00000   -1.50000
AFIX   0
C11   1    0.596848    0.457817    0.364403    11.00000    0.01501    0.01450 =
         0.02277    0.00029   -0.00273   -0.00515
C12   1    0.391806    0.565138    0.342354    11.00000    0.01644    0.01637 =
         0.02562   -0.00050   -0.00293   -0.00611
C13   1    0.170822    0.820327    0.270476    11.00000    0.01665    0.02346 =
         0.05016    0.01284   -0.00776   -0.00419
AFIX 137
H13A  2    0.126618    0.769881    0.220773    11.00000   -1.50000
H13B  2    0.171257    0.926174    0.237192    11.00000   -1.50000
H13C  2    0.078133    0.838225    0.339317    11.00000   -1.50000
AFIX   0
PART -1
O4    4    1.004257    0.371046   -0.090914    10.50000    0.07229    0.06274 =
         0.09494   -0.00514   -0.00539   -0.03758
O5    4    1.015575    0.528579    0.024963    10.50000    0.06757    0.04250 =
         0.12636   -0.00167   -0.03596   -0.02455
C14   1    0.703687    0.604664   -0.031296    10.50000    0.08647    0.05880 =
         0.15461   -0.00950   -0.06721   -0.00242
AFIX 137
H14A  2    0.672799    0.670807   -0.099785    10.50000   -1.50000
H14B  2    0.677212    0.677588    0.026965    10.50000   -1.50000
H14C  2    0.618647    0.541383   -0.012401    10.50000   -1.50000
AFIX   0
C15   1    0.921512    0.488737   -0.044555    10.50000    0.06983    0.04401 =
         0.12405   -0.00005   -0.03181   -0.02655
C16   1    1.218327    0.425720    0.021383    10.50000    0.07066    0.04692 =
         0.12801   -0.00248   -0.03767   -0.01896
AFIX  23
H16A  2    1.290889    0.431253   -0.053141    10.50000   -1.20000
H16B  2    1.233320    0.310345    0.041144    10.50000   -1.20000
AFIX   0
C17   1    1.300749    0.479414    0.097614    10.50000    0.07374    0.05318 =
         0.10871    0.00803   -0.04374   -0.01420
AFIX 137
H17A  2    1.272184    0.596988    0.082200    10.50000   -1.50000
H17B  2    1.447050    0.416554    0.090528    10.50000   -1.50000
H17C  2    1.239131    0.461259    0.172016    10.50000   -1.50000
PART 0
AFIX   0
HKLF 4
REM  OUTF in P-1
REM wR2 = 0.1413, GooF = S = 1.052, Restrained GooF = 1.062 for all data
REM R1 = 0.0526 for 2647 Fo > 4sig(Fo) and 0.0716 for all 3475 data
REM 238 parameters refined using 118 restraints
END
WGHT      0.0610      0.4489
REM Instructions for potential hydrogen bonds
EQIV $1 x+1, y, z
HTAB N1 O1_$1
EQIV $2 -x+2, -y, -z+1
HTAB N2 O3_$2
EQIV $3 -x+2, -y, -z
HTAB C2 F1_$3
HTAB C2 O4
EQIV $4 -x+2, -y+1, -z
HTAB C10 O4_$4
EQIV $5 -x+2, -y+1, -z+1
HTAB C10 O3_$5
HTAB C10 O2
EQIV $6 -x+1, -y+1, -z+1
HTAB C13 O3_$6
HTAB C16 F1_$3
HTAB C17 O1_$1
REM Highest difference peak  0.652,  deepest hole -0.341,  1-sigma level  0.055
Q1    1   0.8091  0.5997 -0.1037  11.00000  0.05    0.65
Q2    1   0.9623  0.4905  0.0857  11.00000  0.05    0.37
Q3    1   0.8159  0.6115  0.0410  11.00000  0.05    0.34
Q4    1   0.6606  0.4944  0.3815  11.00000  0.05    0.24
Q5    1   0.6092  0.3731  0.3746  11.00000  0.05    0.24
Q6    1   1.3686  0.4253 -0.0559  11.00000  0.05    0.23
Q7    1   0.7412  0.5844  0.3552  11.00000  0.05    0.23
Q8    1   0.5020  0.5182  0.3540  11.00000  0.05    0.23
Q9    1   0.6785  0.4798  0.3382  11.00000  0.05    0.23
Q10   1   0.9512  0.3096  0.4004  11.00000  0.05    0.22
;
_shelx_res_checksum              95963
loop_
_space_group_symop_operation_xyz
'x, y, z'
'-x, -y, -z'
loop_
_atom_site_type_symbol
_atom_site_label
_atom_site_fract_x
_atom_site_fract_y
_atom_site_fract_z
_atom_site_U_iso_or_equiv
_atom_site_adp_type
_atom_site_calc_flag
_atom_site_occupancy
_atom_site_disorder_assembly
_atom_site_disorder_group
F F1 0.71212(18) -0.00939(16) -0.00525(9) 0.0395(3) Uani d 1 . .
O O2 0.37279(18) 0.71184(14) 0.29141(11) 0.0255(3) Uani d 1 . .
O O1 0.25071(18) 0.52266(15) 0.36519(11) 0.0257(3) Uani d 1 . .
O O3 1.12712(17) 0.13882(14) 0.46283(10) 0.0221(3) Uani d 1 . .
N N1 0.9368(2) 0.38577(17) 0.38433(12) 0.0200(3) Uani d 1 . .
H H1A 1.033(4) 0.413(3) 0.3854(18) 0.033(6) Uiso d 1 . .
N N2 0.8049(2) 0.18943(17) 0.44248(12) 0.0199(3) Uani d 1 . .
H H2A 0.828(3) 0.088(3) 0.4704(17) 0.029(5) Uiso d 1 . .
C C1 0.7875(3) 0.2155(2) 0.18991(15) 0.0253(4) Uani d 1 . .
H H1 0.865664 0.276590 0.194367 0.030 Uiso calc 1 . .
C C2 0.8095(3) 0.1448(2) 0.09401(16) 0.0283(4) Uani d 1 . .
H H2 0.901582 0.156310 0.032471 0.034 Uiso calc 1 . .
C C3 0.6944(3) 0.0573(2) 0.09024(15) 0.0272(4) Uani d 1 . .
C C4 0.5615(3) 0.0362(2) 0.17711(16) 0.0299(4) Uani d 1 . .
H H4 0.485602 -0.026428 0.171991 0.036 Uiso calc 1 . .
C C5 0.5402(3) 0.1084(2) 0.27287(15) 0.0245(4) Uani d 1 . .
H H5 0.447920 0.095876 0.333925 0.029 Uiso calc 1 . .
C C6 0.6525(2) 0.19882(19) 0.28032(14) 0.0192(3) Uani d 1 . .
C C7 0.6294(2) 0.27781(19) 0.38548(14) 0.0177(3) Uani d 1 . .
H H7 0.507910 0.271437 0.434183 0.021 Uiso calc 1 . .
C C8 0.9645(2) 0.2302(2) 0.43101(13) 0.0187(3) Uani d 1 . .
C C9 0.7506(2) 0.5048(2) 0.36381(14) 0.0196(4) Uani d 1 . .
C C10 0.7483(3) 0.6749(2) 0.34535(16) 0.0258(4) Uani d 1 . .
H H10A 0.804397 0.692116 0.269541 0.039 Uiso calc 1 . .
H H10B 0.829798 0.688143 0.394445 0.039 Uiso calc 1 . .
H H10C 0.609107 0.755813 0.359969 0.039 Uiso calc 1 . .
C C11 0.5968(2) 0.45782(19) 0.36440(13) 0.0178(3) Uani d 1 . .
C C12 0.3918(2) 0.5651(2) 0.34235(14) 0.0197(3) Uani d 1 . .
C C13 0.1708(3) 0.8203(2) 0.27048(18) 0.0324(5) Uani d 1 . .
H H13A 0.126618 0.769881 0.220773 0.049 Uiso calc 1 . .
H H13B 0.171257 0.926174 0.237192 0.049 Uiso calc 1 . .
H H13C 0.078133 0.838225 0.339317 0.049 Uiso calc 1 . .
O O4 1.0043(7) 0.3710(6) -0.0909(4) 0.0739(11) Uani d 0.5 A -1
O O5 1.0156(9) 0.5286(9) 0.0250(7) 0.0752(13) Uani d 0.5 A -1
C C14 0.7037(14) 0.6047(12) -0.0313(11) 0.101(2) Uani d 0.5 A -1
H H14A 0.672799 0.670807 -0.099785 0.152 Uiso calc 0.5 A -1
H H14B 0.677212 0.677588 0.026965 0.152 Uiso calc 0.5 A -1
H H14C 0.618647 0.541383 -0.012401 0.152 Uiso calc 0.5 A -1
C C15 0.9215(17) 0.4887(15) -0.0446(11) 0.0760(15) Uani d 0.5 A -1
C C16 1.2183(13) 0.4257(11) 0.0214(9) 0.0803(15) Uani d 0.5 A -1
H H16A 1.290889 0.431253 -0.053141 0.096 Uiso calc 0.5 A -1
H H16B 1.233320 0.310345 0.041144 0.096 Uiso calc 0.5 A -1
C C17 1.3007(11) 0.4794(8) 0.0976(7) 0.0792(17) Uani d 0.5 A -1
H H17A 1.272184 0.596988 0.082200 0.119 Uiso calc 0.5 A -1
H H17B 1.447050 0.416554 0.090528 0.119 Uiso calc 0.5 A -1
H H17C 1.239131 0.461259 0.172016 0.119 Uiso calc 0.5 A -1
loop_
_atom_site_aniso_label
_atom_site_aniso_U_11
_atom_site_aniso_U_22
_atom_site_aniso_U_33
_atom_site_aniso_U_12
_atom_site_aniso_U_13
_atom_site_aniso_U_23
F1 0.0383(7) 0.0549(8) 0.0311(6) -0.0213(6) -0.0024(5) -0.0157(6)
O2 0.0149(6) 0.0179(6) 0.0404(7) -0.0053(5) -0.0059(5) 0.0081(5)
O1 0.0163(6) 0.0201(6) 0.0419(8) -0.0090(5) -0.0070(5) 0.0032(5)
O3 0.0171(6) 0.0187(6) 0.0301(7) -0.0061(5) -0.0079(5) 0.0033(5)
N1 0.0145(7) 0.0171(7) 0.0302(8) -0.0081(6) -0.0061(6) 0.0026(6)
N2 0.0180(7) 0.0149(7) 0.0282(8) -0.0076(5) -0.0085(6) 0.0041(6)
C1 0.0214(9) 0.0241(9) 0.0320(10) -0.0112(7) -0.0004(7) -0.0044(7)
C2 0.0231(9) 0.0304(9) 0.0292(10) -0.0104(8) 0.0019(7) -0.0031(8)
C3 0.0258(9) 0.0294(9) 0.0260(9) -0.0084(8) -0.0047(7) -0.0072(7)
C4 0.0308(10) 0.0355(10) 0.0314(10) -0.0206(8) -0.0052(8) -0.0036(8)
C5 0.0253(9) 0.0276(9) 0.0248(9) -0.0155(7) -0.0043(7) 0.0020(7)
C6 0.0162(8) 0.0149(7) 0.0253(8) -0.0046(6) -0.0058(6) 0.0014(6)
C7 0.0133(7) 0.0155(7) 0.0243(8) -0.0057(6) -0.0042(6) 0.0007(6)
C8 0.0170(8) 0.0171(7) 0.0216(8) -0.0064(6) -0.0027(6) -0.0015(6)
C9 0.0165(8) 0.0155(7) 0.0257(9) -0.0053(6) -0.0037(7) 0.0010(6)
C10 0.0203(9) 0.0167(8) 0.0416(11) -0.0081(7) -0.0081(8) 0.0021(7)
C11 0.0150(8) 0.0145(7) 0.0228(8) -0.0051(6) -0.0027(6) 0.0003(6)
C12 0.0164(8) 0.0164(8) 0.0256(8) -0.0061(6) -0.0029(7) -0.0005(6)
C13 0.0167(9) 0.0235(9) 0.0502(12) -0.0042(7) -0.0078(8) 0.0128(8)
O4 0.072(3) 0.063(2) 0.095(3) -0.038(2) -0.005(2) -0.005(2)
O5 0.068(3) 0.042(2) 0.126(3) -0.025(3) -0.036(3) -0.002(2)
C14 0.086(4) 0.059(4) 0.155(5) -0.002(3) -0.067(4) -0.009(4)
C15 0.070(4) 0.044(2) 0.124(3) -0.027(3) -0.032(3) 0.000(2)
C16 0.071(3) 0.047(3) 0.128(4) -0.019(3) -0.038(3) -0.002(3)
C17 0.074(4) 0.053(3) 0.109(4) -0.014(3) -0.044(3) 0.008(3)
loop_
_atom_type_symbol
_atom_type_description
_atom_type_scat_dispersion_real
_atom_type_scat_dispersion_imag
_atom_type_scat_source
C C 0.0033 0.0016 'International Tables Vol C Tables 4.2.6.8 and 6.1.1.4'
H H 0.0000 0.0000 'International Tables Vol C Tables 4.2.6.8 and 6.1.1.4'
N N 0.0061 0.0033 'International Tables Vol C Tables 4.2.6.8 and 6.1.1.4'
O O 0.0106 0.0060 'International Tables Vol C Tables 4.2.6.8 and 6.1.1.4'
F F 0.0171 0.0103 'International Tables Vol C Tables 4.2.6.8 and 6.1.1.4'
loop_
_geom_angle_atom_site_label_1
_geom_angle_atom_site_label_2
_geom_angle_atom_site_label_3
_geom_angle_site_symmetry_1
_geom_angle_site_symmetry_3
_geom_angle
_geom_angle_publ_flag
C12 O2 C13 . . 115.75(13) ?
C8 N1 C9 . . 123.70(14) ?
C8 N1 H1A . . 114.2(15) ?
C9 N1 H1A . . 119.9(15) ?
C8 N2 C7 . . 124.17(14) ?
C8 N2 H2A . . 114.0(14) ?
C7 N2 H2A . . 119.3(14) ?
C2 C1 C6 . . 121.10(17) ?
C2 C1 H1 . . 119.4 ?
C6 C1 H1 . . 119.4 ?
C3 C2 C1 . . 118.00(17) ?
C3 C2 H2 . . 121.0 ?
C1 C2 H2 . . 121.0 ?
F1 C3 C4 . . 118.82(17) ?
F1 C3 C2 . . 118.19(17) ?
C4 C3 C2 . . 122.99(17) ?
C3 C4 C5 . . 118.44(17) ?
C3 C4 H4 . . 120.8 ?
C5 C4 H4 . . 120.8 ?
C6 C5 C4 . . 120.63(17) ?
C6 C5 H5 . . 119.7 ?
C4 C5 H5 . . 119.7 ?
C5 C6 C1 . . 118.83(16) ?
C5 C6 C7 . . 120.63(15) ?
C1 C6 C7 . . 120.54(15) ?
N2 C7 C11 . . 109.82(13) ?
N2 C7 C6 . . 111.24(13) ?
C11 C7 C6 . . 111.57(13) ?
N2 C7 H7 . . 108.0 ?
C11 C7 H7 . . 108.0 ?
C6 C7 H7 . . 108.0 ?
O3 C8 N2 . . 123.59(15) ?
O3 C8 N1 . . 120.46(15) ?
N2 C8 N1 . . 115.90(14) ?
C11 C9 N1 . . 118.86(14) ?
C11 C9 C10 . . 128.14(15) ?
N1 C9 C10 . . 112.99(14) ?
C9 C10 H10A . . 109.5 ?
C9 C10 H10B . . 109.5 ?
H10A C10 H10B . . 109.5 ?
C9 C10 H10C . . 109.5 ?
H10A C10 H10C . . 109.5 ?
H10B C10 H10C . . 109.5 ?
C9 C11 C12 . . 126.50(15) ?
C9 C11 C7 . . 120.20(14) ?
C12 C11 C7 . . 113.27(14) ?
O1 C12 O2 . . 122.16(15) ?
O1 C12 C11 . . 122.79(15) ?
O2 C12 C11 . . 115.01(14) ?
O2 C13 H13A . . 109.5 ?
O2 C13 H13B . . 109.5 ?
H13A C13 H13B . . 109.5 ?
O2 C13 H13C . . 109.5 ?
H13A C13 H13C . . 109.5 ?
H13B C13 H13C . . 109.5 ?
C15 O5 C16 . . 113.2(6) ?
C15 C14 H14A . . 109.5 ?
C15 C14 H14B . . 109.5 ?
H14A C14 H14B . . 109.5 ?
C15 C14 H14C . . 109.5 ?
H14A C14 H14C . . 109.5 ?
H14B C14 H14C . . 109.5 ?
O4 C15 O5 . . 120.3(8) ?
O4 C15 C14 . . 130.7(8) ?
O5 C15 C14 . . 108.3(8) ?
O5 C16 C17 . . 108.1(7) ?
O5 C16 H16A . . 110.1 ?
C17 C16 H16A . . 110.1 ?
O5 C16 H16B . . 110.1 ?
C17 C16 H16B . . 110.1 ?
H16A C16 H16B . . 108.4 ?
C16 C17 H17A . . 109.5 ?
C16 C17 H17B . . 109.5 ?
H17A C17 H17B . . 109.5 ?
C16 C17 H17C . . 109.5 ?
H17A C17 H17C . . 109.5 ?
H17B C17 H17C . . 109.5 ?
loop_
_geom_bond_atom_site_label_1
_geom_bond_atom_site_label_2
_geom_bond_site_symmetry_2
_geom_bond_distance
_geom_bond_publ_flag
F1 C3 . 1.365(2) ?
O2 C12 . 1.340(2) ?
O2 C13 . 1.451(2) ?
O1 C12 . 1.216(2) ?
O3 C8 . 1.2410(19) ?
N1 C8 . 1.379(2) ?
N1 C9 . 1.389(2) ?
N1 H1A . 0.84(2) ?
N2 C8 . 1.340(2) ?
N2 C7 . 1.465(2) ?
N2 H2A . 0.88(2) ?
C1 C2 . 1.380(3) ?
C1 C6 . 1.394(2) ?
C1 H1 . 0.9500 ?
C2 C3 . 1.373(3) ?
C2 H2 . 0.9500 ?
C3 C4 . 1.367(3) ?
C4 C5 . 1.387(3) ?
C4 H4 . 0.9500 ?
C5 C6 . 1.387(2) ?
C5 H5 . 0.9500 ?
C6 C7 . 1.522(2) ?
C7 C11 . 1.516(2) ?
C7 H7 . 1.0000 ?
C9 C11 . 1.352(2) ?
C9 C10 . 1.496(2) ?
C10 H10A . 0.9800 ?
C10 H10B . 0.9800 ?
C10 H10C . 0.9800 ?
C11 C12 . 1.470(2) ?
C13 H13A . 0.9800 ?
C13 H13B . 0.9800 ?
C13 H13C . 0.9800 ?
O4 C15 . 1.147(14) ?
O5 C15 . 1.364(9) ?
O5 C16 . 1.388(10) ?
C14 C15 . 1.499(12) ?
C14 H14A . 0.9800 ?
C14 H14B . 0.9800 ?
C14 H14C . 0.9800 ?
C16 C17 . 1.439(12) ?
C16 H16A . 0.9900 ?
C16 H16B . 0.9900 ?
C17 H17A . 0.9800 ?
C17 H17B . 0.9800 ?
C17 H17C . 0.9800 ?
loop_
_geom_torsion_atom_site_label_1
_geom_torsion_atom_site_label_2
_geom_torsion_atom_site_label_3
_geom_torsion_atom_site_label_4
_geom_torsion_site_symmetry_1
_geom_torsion_site_symmetry_2
_geom_torsion_site_symmetry_3
_geom_torsion_site_symmetry_4
_geom_torsion
_geom_torsion_publ_flag
C6 C1 C2 C3 . . . . 0.0(3) ?
C1 C2 C3 F1 . . . . 178.43(16) ?
C1 C2 C3 C4 . . . . -0.7(3) ?
F1 C3 C4 C5 . . . . -178.17(16) ?
C2 C3 C4 C5 . . . . 0.9(3) ?
C3 C4 C5 C6 . . . . -0.5(3) ?
C4 C5 C6 C1 . . . . -0.1(3) ?
C4 C5 C6 C7 . . . . -179.88(16) ?
C2 C1 C6 C5 . . . . 0.4(3) ?
C2 C1 C6 C7 . . . . -179.86(16) ?
C8 N2 C7 C11 . . . . -30.2(2) ?
C8 N2 C7 C6 . . . . 93.77(18) ?
C5 C6 C7 N2 . . . . 106.84(17) ?
C1 C6 C7 N2 . . . . -72.89(19) ?
C5 C6 C7 C11 . . . . -130.15(16) ?
C1 C6 C7 C11 . . . . 50.1(2) ?
C7 N2 C8 O3 . . . . -166.08(16) ?
C7 N2 C8 N1 . . . . 16.3(2) ?
C9 N1 C8 O3 . . . . -168.65(16) ?
C9 N1 C8 N2 . . . . 9.1(2) ?
C8 N1 C9 C11 . . . . -16.4(3) ?
C8 N1 C9 C10 . . . . 162.49(16) ?
N1 C9 C11 C12 . . . . -178.65(16) ?
C10 C9 C11 C12 . . . . 2.6(3) ?
N1 C9 C11 C7 . . . . -0.9(2) ?
C10 C9 C11 C7 . . . . -179.65(17) ?
N2 C7 C11 C9 . . . . 21.5(2) ?
C6 C7 C11 C9 . . . . -102.35(18) ?
N2 C7 C11 C12 . . . . -160.51(14) ?
C6 C7 C11 C12 . . . . 75.67(18) ?
C13 O2 C12 O1 . . . . 3.2(3) ?
C13 O2 C12 C11 . . . . -179.11(16) ?
C9 C11 C12 O1 . . . . -164.82(18) ?
C7 C11 C12 O1 . . . . 17.3(2) ?
C9 C11 C12 O2 . . . . 17.5(3) ?
C7 C11 C12 O2 . . . . -160.38(14) ?
C16 O5 C15 O4 . . . . 7.2(12) ?
C16 O5 C15 C14 . . . . 178.5(10) ?
C15 O5 C16 C17 . . . . -180.0(6) ?

_cod_database_fobs_code 2022209
