#------------------------------------------------------------------------------
#$Date: 2022-06-24 05:10:02 +0300 (Fri, 24 Jun 2022) $
#$Revision: 276217 $
#$URL: file:///home/coder/svn-repositories/cod/cif/2/02/26/2022621.cif $
#------------------------------------------------------------------------------
#
# This file is available in the Crystallography Open Database (COD),
# http://www.crystallography.net/. The original data for this entry
# were provided by IUCr Journals, http://journals.iucr.org/.
#
# The file may be used within the scientific community so long as
# proper attribution is given to the journal article from which the
# data were obtained.
#
data_2022621
loop_
_publ_author_name
'\,Cakmak, \,S\"ukriye'
'Demircio\(glu, Zeynep'
'Uzun, Serap'
'Veyiso\(glu, Aysel'
'Yakan, Hasan'
'Ersanli, Cem C\"uneyt'
_publ_section_title
;
 Synthesis, X-ray structure, antimicrobial activity, DFT and molecular
 docking studies of <i>N</i>-(thiophen-2-ylmethyl)thiophene-2-carboxamide
;
_journal_coeditor_code           EF3029
_journal_issue                   7
_journal_name_full               'Acta Crystallographica Section C'
_journal_page_first
;
;
_journal_paper_doi               10.1107/S2053229622006283
_journal_volume                  78
_journal_year                    2022
_chemical_formula_iupac          'C10 H9 N O S2'
_chemical_formula_moiety         'C10 H9 N O S2'
_chemical_formula_sum            'C10 H9 N O S2'
_chemical_formula_weight         223.30
_chemical_name_systematic
;
<i>N</i>-(Thiophen-2-ylmethyl)thiophene-2-carboxamide
;
_space_group_crystal_system      monoclinic
_space_group_IT_number           7
_space_group_name_Hall           'P -2yc'
_space_group_name_H-M_alt        'P 1 c 1'
_atom_sites_solution_hydrogens   mixed
_audit_creation_method           SHELXL-2013
_cell_angle_alpha                90
_cell_angle_beta                 98.411(3)
_cell_angle_gamma                90
_cell_formula_units_Z            2
_cell_length_a                   4.9916(5)
_cell_length_b                   10.8497(12)
_cell_length_c                   10.0075(10)
_cell_measurement_reflns_used    7719
_cell_measurement_temperature    296
_cell_measurement_theta_max      26.56
_cell_measurement_theta_min      2.79
_cell_volume                     536.15(10)
_computing_cell_refinement
;
SAINT (Bruker, 2013)
;
_computing_data_collection
;
APEX3 (Bruker, 2013)
;
_computing_data_reduction
;
SAINT (Bruker, 2013)
;
_computing_molecular_graphics
;
Mercury (Macrae <i>et al.</i>,  2020)
;
_computing_publication_material
;
WinGX (Farrugia, 2012)
;
_computing_structure_refinement
;
SHELXL2015 (Sheldrick, 2015<i>b</i>)
;
_computing_structure_solution
;
SHELXT2015 (Sheldrick, 2015<i>a</i>)
;
_diffrn_ambient_temperature      296
_diffrn_measured_fraction_theta_full 0.991
_diffrn_measured_fraction_theta_max 0.990
_diffrn_measurement_device_type  'Bruker APEX-3 CCD'
_diffrn_measurement_method       '\f and \w scans'
_diffrn_radiation_type           MoK\a
_diffrn_radiation_wavelength     0.71073
_diffrn_reflns_av_R_equivalents  0.0310
_diffrn_reflns_av_unetI/netI     0.0261
_diffrn_reflns_limit_h_max       6
_diffrn_reflns_limit_h_min       -6
_diffrn_reflns_limit_k_max       14
_diffrn_reflns_limit_k_min       -14
_diffrn_reflns_limit_l_max       13
_diffrn_reflns_limit_l_min       -13
_diffrn_reflns_number            13633
_diffrn_reflns_theta_full        25.242
_diffrn_reflns_theta_max         28.275
_diffrn_reflns_theta_min         2.785
_diffrn_standards_number         0
_exptl_absorpt_coefficient_mu    0.461
_exptl_absorpt_correction_type   none
_exptl_crystal_colour            colourless
_exptl_crystal_density_diffrn    1.383
_exptl_crystal_description       block
_exptl_crystal_F_000             232
_exptl_crystal_size_max          0.12
_exptl_crystal_size_mid          0.11
_exptl_crystal_size_min          0.09
_refine_diff_density_max         0.242
_refine_diff_density_min         -0.196
_refine_ls_abs_structure_details
;
 Refined as a perfect inversion twin.
;
_refine_ls_extinction_method     none
_refine_ls_goodness_of_fit_ref   1.034
_refine_ls_hydrogen_treatment    mixed
_refine_ls_matrix_type           full
_refine_ls_number_parameters     149
_refine_ls_number_reflns         2441
_refine_ls_number_restraints     7
_refine_ls_restrained_S_all      1.048
_refine_ls_R_factor_all          0.0545
_refine_ls_R_factor_gt           0.0468
_refine_ls_shift/su_max          0.000
_refine_ls_shift/su_mean         0.000
_refine_ls_structure_factor_coef Fsqd
_refine_ls_weighting_details
'w=1/[\s^2^(Fo^2^)+(0.0638P)^2^+0.1304P] where P=(Fo^2^+2Fc^2^)/3'
_refine_ls_weighting_scheme      calc
_refine_ls_wR_factor_gt          0.1137
_refine_ls_wR_factor_ref         0.1192
_reflns_number_gt                2124
_reflns_number_total             2441
_reflns_threshold_expression     'I > 2\s(I)'
_cod_data_source_file            ef3029sup1.cif
_cod_data_source_block           I
_cod_original_sg_symbol_H-M      'P c'
_cod_database_code               2022621
_shelx_space_group_comment
;
The symmetry employed for this shelxl refinement is uniquely defined
by the following loop, which should always be used as a source of
symmetry information in preference to the above space-group names.
They are only intended as comments.
;
_shelx_hkl_file
;
  2  0  0 2317.27  87.09
  2  0  0 2365.26  87.79
  2  0  0 2394.36  87.89
  2  0  0 2310.47  87.09
 -2  0  0 2288.37  86.99
  2  0  0 2268.87  87.69
 -2  0  0 2264.77  88.99
 -2  0  0 2175.98  87.59
 -2  0  0 2303.57  87.09
 -2  0  0 2297.07  87.49
 -2  0  0 2366.66  87.69
 -2  0  0 2314.07  85.99
 -3  0  0 446.76  18.60
  3  0  0 409.36  19.00
  3  0  0 411.16  18.30
  3  0  0 411.36  18.30
  3  0  0 438.86  19.40
 -3  0  0 448.26  18.30
  3  0  0 448.56  19.20
 -3  0  0 400.06  18.70
 -3  0  0 515.35  23.60
 -3  0  0 406.56  19.00
 -4  0  0 161.88  8.90
  4  0  0 152.28  10.20
  4  0  0 143.29  9.60
  4  0  0 141.89  8.90
 -4  0  0 160.98  9.30
 -4  0  0 154.58  10.20
 -4  0  0 164.58  10.60
  4  0  0 157.48  10.50
 -4  0  0 136.59  13.80
 -5  0  0  4.90  3.80
 -5  0  0  -0.80  5.10
  5  0  0  2.20  4.50
 -5  0  0  -2.40  3.30
  5  0  0  9.60  5.00
 -6  0  0  60.79  9.70
  6  0  0  45.90  8.80
  0 -1  0  0.10  0.20
  0 -1  0  0.30  0.20
  0  1  0  -0.10  0.20
  0  1  0  0.00  0.10
  1 -1  0 348.57  14.20
  1 -1  0 355.46  13.40
  1 -1  0 350.36  14.00
 -1 -1  0 358.76  14.40
 -1 -1  0 338.47  14.20
 -1 -1  0 346.57  14.00
  1 -1  0 349.27  14.20
  1 -1  0 355.66  14.10
  1 -1  0 351.06  14.30
 -1 -1  0 358.46  14.20
  1  1  0 354.36  14.00
 -1  1  0 356.86  14.10
  1  1  0 356.76  14.50
  1  1  0 358.76  13.90
  1  1  0 353.46  14.20
 -1  1  0 367.46  14.10
  1  1  0 352.16  14.10
 -1  1  0 350.66  14.40
 -1  1  0 375.56  14.30
 -2 -1  0 1264.07  48.90
 -2 -1  0 1237.08  49.00
 -2 -1  0 1207.88  48.60
 -2 -1  0 1222.38  48.10
  2 -1  0 1276.97  48.70
 -2 -1  0 1253.97  48.30
  2 -1  0 1292.77  49.00
  2 -1  0 1291.67  47.40
  2 -1  0 1199.28  49.50
  2 -1  0 1268.77  48.40
  2  1  0 1277.77  49.00
  2  1  0 1188.78  49.50
  2  1  0 1286.07  47.30
  2  1  0 1249.57  48.20
  2  1  0 1279.07  48.50
  2  1  0 1242.78  48.20
 -2  1  0 1186.98  48.60
 -2  1  0 1271.77  48.30
  2  1  0 1304.87  49.30
  2  1  0 1304.67  48.90
 -2  1  0 1274.57  48.80
 -2  1  0 1261.47  48.80
 -2  1  0 1300.07  48.40
 -3 -1  0 848.22  33.40
  3 -1  0 870.41  34.00
  3 -1  0 822.02  33.30
 -3 -1  0 788.52  33.70
  3 -1  0 816.02  34.00
  3 -1  0 836.42  32.00
 -3 -1  0 840.72  33.10
  3 -1  0 827.52  33.40
 -3 -1  0 838.02  34.30
 -3  1  0 883.31  33.60
 -3  1  0 847.82  34.00
  3  1  0 857.41  34.40
 -3  1  0 845.02  34.10
  3  1  0 848.02  34.10
  3  1  0 806.02  33.90
 -3  1  0 823.62  33.90
  3  1  0 818.42  33.20
 -3  1  0 796.02  34.20
  3  1  0 853.21  34.80
  3  1  0 827.22  33.40
  3  1  0 799.92  33.20
 -3  1  0 808.62  31.70
  4 -1  0 160.78  12.30
 -4 -1  0 144.09  9.90
 -4 -1  0 129.29  9.50
  4 -1  0 131.69  6.70
 -4 -1  0 138.19  8.60
  4 -1  0 144.89  9.70
 -4 -1  0 146.79  8.30
  4 -1  0 128.99  9.10
  4 -1  0 143.99  9.50
  4  1  0 126.09  8.30
  4  1  0 136.39  9.40
  4  1  0 117.69  8.30
  4  1  0 148.99  10.60
  4  1  0 124.19  8.90
 -4  1  0 136.89  8.60
 -4  1  0 137.09  9.70
 -4  1  0 125.19  9.30
 -4  1  0 132.99  8.30
  4  1  0 137.49  9.90
 -4  1  0 127.39  9.20
  5 -1  0  21.90  5.90
 -5 -1  0  31.30  5.10
 -5 -1  0  31.90  7.40
 -5 -1  0  29.50  5.70
  5  1  0  29.60  6.30
 -5  1  0  30.60  5.60
 -5  1  0  20.60  6.10
  5  1  0  24.80  6.00
 -6 -1  0  15.50  6.60
  6 -1  0  9.50  7.10
 -6 -1  0  20.70  7.10
  6 -1  0  3.20  6.60
  6  1  0  9.50  8.10
 -6  1  0  20.60  7.40
  6  1  0  10.10  7.50
  0 -2  0 1253.37  47.60
  0 -2  0 1278.57  47.50
  0 -2  0 1224.28  47.40
  0 -2  0 1273.87  47.50
  0 -2  0 1268.37  47.40
  0  2  0 1334.97  48.10
  0  2  0 1219.58  47.60
  0  2  0 1256.57  47.50
  0  2  0 1228.58  47.40
  0  2  0 1239.98  47.50
 -2 -2  0 461.45  18.50
 -2 -2  0 458.85  19.30
 -2 -2  0 446.76  19.10
 -2 -2  0 438.56  18.80
  2 -2  0 458.95  18.90
  2 -2  0 445.06  18.50
  2 -2  0 458.75  19.20
  2 -2  0 455.25  17.20
  2 -2  0 443.16  19.00
  2 -2  0 445.76  18.70
 -2 -2  0 455.15  18.30
  2  2  0 459.15  19.60
 -2  2  0 446.26  18.90
  2  2  0 453.75  19.00
 -2  2  0 450.25  18.90
  2  2  0 445.36  19.00
  2  2  0 453.15  18.20
 -2  2  0 435.56  19.30
  2  2  0 432.96  18.30
 -2  2  0 478.05  18.70
  2  2  0 445.56  18.50
  2  2  0 458.95  17.80
 -2  2  0 466.35  18.90
  3 -2  0 339.47  14.90
 -3 -2  0 302.47  14.10
  3 -2  0 344.17  15.20
 -3 -2  0 322.97  15.20
 -3 -2  0 287.27  14.90
 -3 -2  0 302.17  13.70
 -3 -2  0 281.27  14.40
  3 -2  0 318.37  12.40
  3 -2  0 308.47  14.30
  3 -2  0 322.37  14.20
  3  2  0 309.57  14.10
  3  2  0 323.17  15.00
  3  2  0 312.87  12.50
 -3  2  0 283.57  14.90
 -3  2  0 313.37  14.90
 -3  2  0 290.97  14.50
 -3  2  0 306.17  14.10
  3  2  0 332.67  15.40
 -3  2  0 295.97  12.90
  3  2  0 345.77  15.80
 -3  2  0 295.57  14.60
  3  2  0 321.87  13.80
  4 -2  0 312.97  17.30
  4 -2  0 393.56  18.20
  4 -2  0 323.47  14.30
  4 -2  0 347.67  16.90
  4 -2  0 380.86  17.90
 -4 -2  0 326.77  19.40
 -4 -2  0 383.56  17.10
 -4 -2  0 373.26  16.20
 -4 -2  0 385.56  18.30
  4  2  0 327.47  17.20
  4  2  0 354.26  18.80
  4  2  0 386.66  18.10
 -4  2  0 371.56  17.80
  4  2  0 336.47  16.50
  4  2  0 365.86  18.30
 -4  2  0 389.36  16.90
  4  2  0 343.77  16.20
 -4  2  0 333.57  17.80
 -5 -2  0  9.70  4.00
  5 -2  0  16.90  5.50
 -5 -2  0  12.10  4.50
 -5 -2  0  11.70  6.50
  5 -2  0  4.70  5.20
 -5  2  0  5.80  5.80
  5  2  0  8.60  5.10
  5  2  0  13.50  5.60
  5  2  0  19.60  6.00
 -5  2  0  10.30  4.20
 -6 -2  0  5.50  7.20
 -6 -2  0  15.10  6.10
  6 -2  0  4.90  6.50
  6 -2  0  -0.10  6.80
 -6  2  0  5.00  7.00
 -6  2  0  6.20  6.00
  6  2  0  8.30  8.10
  0 -3  0 192.48  8.60
  0 -3  0 200.58  8.60
  0 -3  0 195.28  8.50
  0 -3  0 191.38  8.80
  0 -3  0 199.78  8.70
  0 -3  0 198.38  8.50
  0 -3  0 206.38  8.20
  0  3  0 202.28  8.60
  0  3  0 190.28  8.80
  0  3  0 194.58  8.50
  0  3  0 196.98  8.60
  0  3  0 204.68  8.80
 -2 -3  0 3092.49 114.69
 -2 -3  0 3083.59 115.09
  2 -3  0 3129.49 115.19
  2 -3  0 2994.70 114.69
  2 -3  0 3010.10 115.09
 -2 -3  0 3012.00 115.39
  2 -3  0 3046.50 114.59
 -2 -3  0 3006.60 115.69
  2 -3  0 2937.71 115.09
 -2 -3  0 2913.21 114.99
 -2 -3  0 3053.19 114.49
  2 -3  0 3061.89 115.39
  2  3  0 3125.39 116.09
 -2  3  0 3157.78 115.19
 -2  3  0 2944.91 115.59
  2  3  0 3080.19 115.39
 -2  3  0 3088.49 113.29
  2  3  0 2984.00 115.09
  2  3  0 2948.51 114.49
  2  3  0 3001.70 114.79
 -2  3  0 3210.78 115.09
  3 -3  0 195.28  10.50
  3 -3  0 212.28  10.90
 -3 -3  0 185.78  10.30
 -3 -3  0 200.78  11.10
  3 -3  0 186.38  10.60
  3 -3  0 208.88  11.20
 -3 -3  0 201.28  10.20
 -3 -3  0 196.98  9.70
 -3 -3  0 183.88  11.10
  3 -3  0 204.48  10.10
  3  3  0 209.18  11.00
 -3  3  0 213.48  10.40
  3  3  0 212.88  11.90
 -3  3  0 201.08  10.70
  3  3  0 213.68  9.10
  3  3  0 207.98  10.60
 -3  3  0 216.98  11.00
  3  3  0 188.48  9.90
  3  3  0 205.68  10.30
 -3  3  0 180.38  11.00
 -3  3  0 195.58  10.60
  4 -3  0  84.89  8.10
 -4 -3  0  90.69  8.30
 -4 -3  0  80.39  6.00
  4 -3  0  66.39  7.00
  4 -3  0  73.49  7.30
 -4 -3  0  89.79  6.90
  4 -3  0  75.99  7.90
  4  3  0  84.89  8.40
 -4  3  0  84.09  8.10
  4  3  0  76.59  6.10
  4  3  0  72.39  7.00
  4  3  0  84.49  9.10
 -4  3  0  89.09  7.30
 -4  3  0  72.59  8.40
 -4  3  0  74.49  7.70
  4  3  0  81.29  8.20
 -5 -3  0  52.09  12.60
  5 -3  0  58.39  8.50
 -5 -3  0  66.09  8.00
  5  3  0  62.39  9.60
 -5  3  0  80.89  13.20
  5  3  0  60.39  8.30
  5  3  0  77.39  9.70
 -6 -3  0  7.70  6.40
 -6 -3  0  -1.70  8.00
  6 -3  0  7.80  6.70
  6 -3  0  -8.30  6.50
 -6  3  0  0.60  5.90
 -6  3  0  11.40  7.40
  6  3  0  15.40  7.90
  0 -4  0 600.04  24.20
  0 -4  0 604.44  24.00
  0 -4  0 616.84  23.40
  0 -4  0 601.24  24.30
  0 -4  0 602.44  24.00
  0 -4  0 593.54  23.80
  0 -4  0 595.44  23.80
  0  4  0 615.94  24.30
  0  4  0 592.24  24.90
  0  4  0 588.34  23.80
  0  4  0 598.14  24.00
  0  4  0 595.74  24.00
 -1 -4  0 1466.75  54.39
  1 -4  0 1343.97  54.09
 -1 -4  0 1446.96  54.19
 -1 -4  0 1416.36  54.09
 -1 -4  0 1336.27  54.59
  1 -4  0 1412.36  54.09
  1 -4  0 1382.36  54.59
  1 -4  0 1419.96  54.59
  1 -4  0 1381.16  53.79
 -1 -4  0 1457.15  53.69
 -1  4  0 1428.46  54.29
  1  4  0 1473.35  54.39
  1  4  0 1454.15  53.59
  1  4  0 1437.46  54.29
 -1  4  0 1394.66  54.59
 -1  4  0 1336.17  54.39
  1  4  0 1463.45  54.99
 -1  4  0 1400.66  53.99
  1  4  0 1374.26  53.99
 -1  4  0 1427.06  54.19
 -1  4  0 1345.97  54.09
 -2 -4  0 3034.30 113.29
 -2 -4  0 2862.41 114.49
  2 -4  0 3022.70 113.49
 -2 -4  0 3085.99 113.49
 -2 -4  0 2938.41 113.79
  2 -4  0 2982.40 116.99
  2 -4  0 3004.20 113.99
  2 -4  0 2915.91 113.99
  2 -4  0 3024.60 113.39
 -2 -4  0 3062.09 114.29
 -2  4  0 2953.20 112.09
 -2  4  0 2966.80 113.99
 -2  4  0 3107.99 113.99
 -2  4  0 2973.70 114.59
  2  4  0 3101.99 116.59
  2  4  0 3143.09 115.49
  2  4  0 2973.20 113.19
  2  4  0 2881.51 113.49
  2  4  0 3041.00 113.89
  3 -4  0  93.09  7.00
  3 -4  0  80.49  6.40
  3 -4  0  69.89  7.80
 -3 -4  0  94.09  5.80
  3 -4  0 103.39  7.80
 -3 -4  0  87.09  7.20
 -3 -4  0  95.39  6.40
 -3 -4  0  95.99  7.40
  3 -4  0  92.89  6.20
  3  4  0 101.29  7.30
 -3  4  0  98.99  7.30
  3  4  0  92.89  6.10
  3  4  0  94.99  7.90
  3  4  0  91.49  5.50
 -3  4  0  93.59  8.70
 -3  4  0  89.69  8.50
 -3  4  0  87.19  6.50
  3  4  0  91.29  7.50
 -3  4  0  89.79  6.70
 -4 -4  0  35.20  6.40
  4 -4  0  28.90  5.90
 -4 -4  0  31.50  4.80
  4 -4  0  38.40  5.30
  4 -4  0  29.00  6.00
 -4 -4  0  33.70  4.40
  4 -4  0  43.00  6.50
 -4  4  0  39.00  5.80
  4  4  0  29.50  7.30
  4  4  0  45.30  6.70
  4  4  0  39.70  6.80
 -4  4  0  30.20  6.20
 -4  4  0  31.30  4.80
  4  4  0  42.00  6.20
  5 -4  0  0.10  5.10
 -5 -4  0  1.80  5.00
 -5 -4  0  8.20  4.50
  5 -4  0  -7.60  4.90
  5 -4  0  0.30  4.20
  5  4  0  1.60  4.90
 -5  4  0  -6.80  4.30
  5  4  0  4.40  5.00
  5  4  0  10.80  6.30
 -5  4  0  -1.10  5.10
 -6 -4  0  4.00  5.90
 -6 -4  0  4.20  8.80
  6 -4  0 -10.50  8.60
  6 -4  0  0.70  7.20
  6  4  0  8.50  7.20
  6  4  0 -14.80  15.10
 -6  4  0  7.90  7.70
 -6  4  0  4.20  8.30
  0 -5  0  -0.90  1.20
  0 -5  0  1.30  1.40
  0 -5  0  0.80  1.20
  0 -5  0  -0.40  1.10
  0 -5  0  -1.50  1.40
  0  5  0  1.90  1.70
  0  5  0  -0.50  1.10
  0  5  0  1.00  1.30
  0  5  0  0.50  1.30
  0  5  0  -1.80  1.20
  1 -5  0  82.49  5.30
 -1 -5  0  81.39  5.30
  1 -5  0  87.49  5.90
  1 -5  0  87.59  5.20
  1 -5  0  82.99  5.40
  1 -5  0  83.09  5.30
 -1 -5  0  85.29  5.30
 -1 -5  0  96.09  4.90
 -1 -5  0  87.79  5.50
 -1 -5  0  82.79  5.70
 -1  5  0  87.59  5.20
 -1  5  0  83.89  5.40
  1  5  0  83.49  5.20
  1  5  0  87.59  5.50
 -1  5  0  84.99  6.00
 -1  5  0  89.49  5.30
 -1  5  0  92.99  5.50
  1  5  0  91.49  5.70
 -1  5  0  83.69  5.40
  1  5  0  85.09  5.40
  1  5  0  85.59  4.70
 -2 -5  0 1263.77  52.39
 -2 -5  0 1307.17  50.99
  2 -5  0 1355.46  51.69
 -2 -5  0 1368.06  52.99
  2 -5  0 1310.17  51.79
 -2 -5  0 1360.86  51.99
  2 -5  0 1346.47  51.09
  2 -5  0 1274.27  51.69
 -2 -5  0 1216.48  51.39
  2 -5  0 1398.16  52.39
 -2 -5  0 1316.87  51.09
  2  5  0 1431.36  53.39
  2  5  0 1317.77  51.59
 -2  5  0 1249.88  51.79
  2  5  0 1335.77  50.89
  2  5  0 1363.56  52.09
 -2  5  0 1279.87  52.49
 -2  5  0 1286.37  52.69
  2  5  0 1289.17  51.39
 -2  5  0 1261.57  49.80
 -2  5  0 1359.26  51.89
  3 -5  0 169.08  11.30
 -3 -5  0 173.78  9.60
 -3 -5  0 161.48  10.60
  3 -5  0 184.28  10.80
  3 -5  0 181.48  10.30
 -3 -5  0 166.28  9.00
 -3 -5  0 178.48  10.80
  3 -5  0 169.28  10.10
 -3 -5  0 164.78  9.90
  3 -5  0 179.38  9.50
 -3  5  0 194.28  10.60
 -3  5  0 167.28  10.20
 -3  5  0 196.58  10.40
  3  5  0 189.08  11.80
  3  5  0 177.68  10.60
 -3  5  0 164.28  10.80
  3  5  0 168.78  9.60
 -4 -5  0  14.40  5.10
 -4 -5  0  20.70  4.30
  4 -5  0  17.40  5.10
  4 -5  0  16.80  3.80
 -4 -5  0  13.80  3.10
  4 -5  0  12.90  5.10
 -4  5  0  10.10  4.60
 -4  5  0  14.80  4.60
  4  5  0  17.40  5.20
  4  5  0  11.60  4.60
  4  5  0  13.30  4.60
  5 -5  0  34.40  7.70
  5 -5  0  42.10  7.30
 -5 -5  0  39.00  8.00
  5 -5  0  47.10  7.90
 -5 -5  0  40.00  6.50
 -5  5  0  49.90  8.50
 -5  5  0  38.80  7.80
  5  5  0  34.00  8.30
  5  5  0  41.20  8.60
  5  5  0  48.30  8.30
  6 -5  0  -7.60  7.10
  6 -5  0  1.90  7.50
 -6 -5  0  14.90  9.30
 -6  5  0  11.40  7.60
  6  5  0  12.10  9.10
  6  5  0  -5.30  7.20
 -6  5  0  3.00  8.10
  0 -6  0 2412.76  91.69
  0 -6  0 2388.36  91.69
  0 -6  0 2392.36  91.89
  0 -6  0 2460.05  91.39
  0 -6  0 2414.86  90.69
  0 -6  0 2303.37  91.19
  0  6  0 2369.96  91.39
  0  6  0 2452.45  91.79
  0  6  0 2378.26  91.59
  0  6  0 2491.25  92.19
  0  6  0 2341.27  92.09
  1 -6  0 531.05  23.90
 -1 -6  0 577.74  24.00
  1 -6  0 546.15  24.10
  1 -6  0 577.54  24.10
  1 -6  0 573.84  24.60
 -1 -6  0 589.24  23.30
 -1 -6  0 576.14  24.70
 -1 -6  0 589.24  24.10
  1 -6  0 577.54  23.60
 -1  6  0 581.34  23.80
  1  6  0 561.54  24.30
 -1  6  0 577.64  24.80
  1  6  0 585.04  23.20
 -1  6  0 613.34  24.40
  1  6  0 571.84  24.00
 -1  6  0 553.64  24.00
 -1  6  0 594.14  24.10
  1  6  0 609.94  24.50
  2 -6  0 233.88  12.50
 -2 -6  0 262.47  12.80
  2 -6  0 260.87  12.00
  2 -6  0 263.67  12.60
 -2 -6  0 254.17  12.50
 -2 -6  0 249.78  12.90
 -2 -6  0 261.07  11.90
  2 -6  0 261.27  13.30
 -2 -6  0 240.98  13.20
  2  6  0 265.77  13.00
  2  6  0 259.57  12.40
  2  6  0 253.57  13.90
 -2  6  0 268.77  12.90
  2  6  0 248.28  11.60
 -2  6  0 250.17  12.10
 -2  6  0 269.77  12.80
 -2  6  0 240.48  12.10
  2  6  0 254.27  12.60
 -2  6  0 234.58  12.40
 -2  6  0 246.68  10.70
 -3 -6  0 1279.07  50.89
  3 -6  0 1272.87  49.30
  3 -6  0 1138.59  49.20
 -3 -6  0 1261.57  49.40
  3 -6  0 1138.29  50.09
  3 -6  0 1299.97  50.19
 -3 -6  0 1210.58  50.09
  3 -6  0 1295.57  50.99
  3  6  0 1155.18  49.70
  3  6  0 1151.68  48.80
 -3  6  0 1302.67  50.29
  3  6  0 1344.47  51.09
  3  6  0 1283.07  52.29
 -3  6  0 1303.67  50.39
  4 -6  0  12.60  3.70
 -4 -6  0  10.20  3.80
  4 -6  0  12.30  5.20
 -4 -6  0  14.80  4.00
 -4 -6  0  12.00  5.60
 -4  6  0  16.30  5.40
  4  6  0  5.90  4.90
  5 -6  0  -0.70  4.60
  5 -6  0  -2.50  5.70
 -5 -6  0  -0.10  6.30
 -5 -6  0  6.90  4.70
  5 -6  0  11.00  5.90
  5  6  0  -4.50  5.60
  5  6  0  10.20  6.10
  5  6  0  9.20  7.00
 -5  6  0  6.80  5.90
 -5  6  0  -1.30  5.70
  0 -7  0 1132.99  45.30
  0 -7  0 1100.29  44.50
  0 -7  0 1039.30  43.90
  0 -7  0 1140.79  44.30
  0 -7  0 1156.18  44.70
  0 -7  0 1148.09  43.50
  0 -7  0 1095.69  44.70
  0  7  0 1068.69  45.00
  0  7  0 1106.49  44.50
  0  7  0 1089.99  44.20
  0  7  0 1190.48  45.40
  0  7  0 1151.58  44.80
 -1 -7  0  69.99  5.80
  1 -7  0  68.79  5.40
 -1 -7  0  68.79  4.90
  1 -7  0  60.49  5.50
 -1 -7  0  69.19  5.50
  1 -7  0  68.29  6.50
 -1 -7  0  72.09  5.70
  1 -7  0  64.19  5.40
 -1 -7  0  64.59  5.90
  1 -7  0  68.49  5.60
 -1 -7  0  75.29  4.80
  1  7  0  65.59  6.30
 -1  7  0  66.69  5.70
 -1  7  0  62.89  7.30
 -1  7  0  68.49  5.60
  1  7  0  66.39  5.70
 -1  7  0  74.39  5.50
 -1  7  0  64.49  5.60
  1  7  0  66.19  5.80
  1  7  0  63.69  5.40
  1  7  0  68.89  4.60
  1  7  0  59.69  5.10
  2 -7  0 147.69  8.50
 -2 -7  0 135.19  8.70
 -2 -7  0 146.69  9.30
  2 -7  0 127.99  8.70
 -2 -7  0 149.29  9.20
 -2 -7  0 133.09  9.30
  2 -7  0 150.88  8.80
  2 -7  0 154.18  10.20
 -2 -7  0 142.29  8.00
  2  7  0 136.89  8.50
 -2  7  0 153.08  9.30
  2  7  0 153.38  11.60
  2  7  0 144.39  10.20
 -2  7  0 128.59  9.80
 -2  7  0 140.79  8.50
  2  7  0 144.79  7.80
 -2  7  0 128.99  8.90
 -2  7  0 126.59  6.90
 -2  7  0 153.48  9.20
 -2  7  0 149.09  8.60
  2  7  0 137.09  9.60
  2  7  0 144.99  9.40
 -3 -7  0  64.49  5.70
 -3 -7  0  61.89  5.70
 -3 -7  0  58.49  7.40
  3 -7  0  58.69  6.20
  3 -7  0  62.89  7.20
 -3 -7  0  66.79  7.10
  3 -7  0  61.99  8.10
  3  7  0  63.29  7.60
 -3  7  0  61.39  7.30
  3  7  0  57.49  5.40
 -3  7  0  57.99  5.90
  3  7  0  57.69  8.10
 -3  7  0  73.49  7.30
  4 -7  0  -0.30  5.00
 -4 -7  0  -7.80  9.50
 -4 -7  0  3.80  3.40
  4 -7  0  5.00  3.90
  4 -7  0  0.70  4.30
 -4  7  0  1.10  4.50
  4  7  0  5.60  5.60
  4  7  0  -1.00  4.10
 -4  7  0  2.10  5.00
 -5 -7  0  4.90  7.60
  5 -7  0  3.70  6.40
  5 -7  0  4.00  6.70
 -5 -7  0  -0.40  4.20
 -5  7  0  5.50  7.20
  5  7  0  2.80  6.00
 -5  7  0  10.00  7.10
  5  7  0  4.30  8.10
  0 -8  0  31.30  4.10
  0 -8  0  27.20  4.10
  0 -8  0  23.20  3.80
  0 -8  0  26.70  3.90
  0 -8  0  33.60  5.20
  0  8  0  31.00  4.70
  0  8  0  32.10  5.00
  0  8  0  36.20  6.50
  0  8  0  37.00  6.20
  0  8  0  35.50  4.90
 -1 -8  0 465.45  20.70
  1 -8  0 458.85  21.40
  1 -8  0 477.85  22.10
 -1 -8  0 490.85  21.60
 -1 -8  0 492.75  20.50
  1 -8  0 485.15  22.60
  1 -8  0 499.15  21.30
  1 -8  0 502.85  21.90
 -1 -8  0 520.45  22.10
 -1  8  0 517.45  22.10
 -1  8  0 451.35  22.50
  1  8  0 481.75  21.50
  1  8  0 475.65  22.00
  1  8  0 512.05  23.10
 -1  8  0 450.55  21.60
 -1  8  0 534.85  22.20
  1  8  0 467.35  21.50
  1  8  0 508.85  22.20
 -2 -8  0  27.50  4.90
  2 -8  0  24.40  4.30
 -2 -8  0  29.20  4.00
  2 -8  0  30.60  5.20
  2 -8  0  30.30  5.70
 -2 -8  0  38.50  6.20
  2 -8  0  24.40  4.10
  2  8  0  28.30  4.80
  2  8  0  22.20  4.40
  2  8  0  21.30  5.20
  2  8  0  29.70  4.00
 -2  8  0  24.20  5.10
 -2  8  0  19.40  3.90
 -2  8  0  27.00  4.90
 -2  8  0  23.80  3.90
  2  8  0  25.10  5.30
 -3 -8  0 175.98  10.60
 -3 -8  0 179.98  10.50
 -3 -8  0 196.78  12.80
  3 -8  0 196.18  12.10
  3 -8  0 205.28  15.00
  3 -8  0 181.38  10.90
 -3  8  0 187.08  11.00
  3  8  0 203.28  13.00
 -3  8  0 196.38  12.40
  3  8  0 195.38  15.80
  4 -8  0  76.29  11.00
 -4 -8  0  75.09  7.90
 -4 -8  0  90.19  11.10
  4 -8  0  76.99  9.00
  4 -8  0  70.79  8.30
  4  8  0  69.29  10.70
 -4  8  0  74.89  9.40
  4  8  0  79.29  10.70
 -4  8  0  81.29  10.70
 -5 -8  0  12.50  6.50
  5 -8  0  5.30  7.40
 -5 -8  0  27.30  9.00
  5 -8  0  15.10  7.40
  5  8  0  22.50  9.30
 -5  8  0  26.20  8.20
 -5  8  0  31.90  8.10
  5  8  0  8.60  7.80
  0 -9  0  40.50  6.00
  0 -9  0  38.90  4.80
  0 -9  0  36.90  5.00
  0 -9  0  34.80  3.90
  0 -9  0  39.90  5.90
  0 -9  0  38.60  5.00
  0 -9  0  29.30  4.90
  0  9  0  44.40  5.80
  0  9  0  37.70  5.90
  0  9  0  43.00  5.20
  0  9  0  39.20  5.30
 -1 -9  0 291.07  14.90
  1 -9  0 284.77  13.10
  1 -9  0 281.77  14.20
 -1 -9  0 285.07  13.20
  1 -9  0 277.17  15.30
 -1 -9  0 259.57  14.70
  1 -9  0 277.07  14.40
 -1 -9  0 282.07  14.50
 -1  9  0 302.17  15.10
 -1  9  0 244.78  13.90
 -1  9  0 285.27  14.50
  1  9  0 284.37  15.70
  1  9  0 312.07  15.30
 -2 -9  0 303.77  14.70
  2 -9  0 318.97  15.50
  2 -9  0 328.77  17.20
 -2 -9  0 317.67  16.90
 -2 -9  0 327.87  16.60
  2 -9  0 322.57  16.50
  2  9  0 327.57  17.10
  2  9  0 301.57  17.90
 -2  9  0 299.57  15.60
  2  9  0 293.17  14.40
 -2  9  0 318.47  16.60
 -3 -9  0  2.00  3.00
  3 -9  0  1.20  4.00
  3 -9  0  2.30  5.20
 -3 -9  0  8.10  4.30
  3 -9  0  0.90  3.50
  3  9  0  -1.30  4.00
 -3  9  0  2.00  4.70
 -3  9  0  7.70  6.90
  3  9  0  9.70  4.90
 -4 -9  0  69.09  10.30
 -4 -9  0  62.69  8.30
  4 -9  0  79.49  11.90
  4 -9  0  75.99  10.00
  4 -9  0  65.39  8.70
 -4  9  0  85.49  10.20
 -4  9  0  77.89  10.70
  4  9  0  57.29  10.30
  4  9  0  94.29  11.80
  5 -9  0  19.90  8.70
 -5 -9  0  28.60  10.20
  5 -9  0  6.90  7.20
 -5 -9  0  12.20  7.50
 -5  9  0  28.20  9.20
  5  9  0  40.70  11.70
 -5  9  0  18.00  8.10
  5  9  0  14.80  7.70
  0 -10  0  25.50  3.90
  0 -10  0  19.70  4.50
  0 -10  0  26.30  4.90
  0 -10  0  20.70  4.40
  0 10  0  24.20  4.60
  0 10  0  28.30  5.40
 -1 -10  0 142.39  9.60
 -1 -10  0 178.38  11.80
  1 -10  0 166.48  9.40
 -1 -10  0 181.08  11.40
  1 -10  0 180.18  11.20
 -1 -10  0 171.78  9.50
  1 -10  0 180.28  10.90
  1 -10  0 186.08  12.60
  1 10  0 175.18  11.70
 -1 10  0 178.78  11.60
  1 10  0 172.28  12.20
 -1 10  0 170.88  11.20
 -2 -10  0  48.10  8.00
  2 -10  0  41.10  6.70
  2 -10  0  56.69  7.90
 -2 -10  0  55.09  7.50
 -2 -10  0  47.80  5.40
  2 -10  0  50.99  6.30
  2 10  0  66.99  9.00
 -2 10  0  44.90  7.00
 -2 10  0  49.00  6.80
  3 -10  0  13.50  6.50
  3 -10  0  19.40  5.60
 -3 -10  0  11.50  5.10
 -3 -10  0  12.40  4.00
  3 -10  0  13.70  6.10
 -3 -10  0  20.20  6.50
 -3 10  0  19.20  6.30
  3 10  0  11.10  5.90
  3 10  0  11.40  5.30
 -4 -10  0  3.20  5.20
 -4 -10  0  -0.90  7.80
  4 -10  0  6.20  6.70
  4 -10  0  9.10  6.40
  4 10  0  4.50  8.30
  4 10  0  0.10  7.00
 -4 10  0  10.10  7.00
 -4 10  0  5.90  7.00
  0 -11  0  70.99  5.90
  0 -11  0  64.49  9.50
  0 11  0  65.29  8.20
 -1 -11  0  56.69  7.90
  1 -11  0  44.10  7.30
  1 -11  0  32.10  6.80
 -1 -11  0  37.90  5.00
 -1 -11  0  45.70  6.40
  1 -11  0  33.10  4.80
  1 -11  0  43.40  6.60
  1 11  0  36.00  6.70
 -1 11  0  43.50  7.30
  1 11  0  47.50  7.90
 -1 11  0  50.49  7.20
  2 -11  0  44.40  8.00
  2 -11  0  63.79  8.50
 -2 -11  0  67.89  8.80
  2 -11  0  58.69  8.90
 -2 -11  0  47.00  7.90
 -2 -11  0  43.80  6.10
  2 11  0  51.89  9.20
 -2 11  0  66.69  9.00
  2 11  0  62.09  9.30
 -3 -11  0  7.20  6.20
 -3 -11  0  14.10  6.60
  3 -11  0  12.40  5.70
  3 -11  0  22.90  7.40
  3 -11  0  11.30  5.30
  3 11  0  14.90  6.10
  3 11  0  0.70  6.50
 -3 11  0  14.90  7.10
  4 -11  0  27.10  11.70
  4 -11  0  7.10  7.90
 -4 -11  0  6.50  8.70
 -4 11  0  3.50  7.60
  4 11  0  2.40  7.90
  4 11  0  2.00  11.30
  0 -12  0  1.50  4.60
  0 -12  0  0.20  4.40
  0 12  0  1.30  4.10
  0 12  0  1.80  4.60
  1 -12  0  55.29  7.60
 -1 -12  0  78.19  10.00
  1 -12  0  75.49  9.50
 -1 -12  0  73.09  9.10
  1 -12  0  79.79  10.70
  1 12  0  77.09  10.20
 -1 12  0  72.59  9.50
  2 -12  0  11.30  4.80
 -2 -12  0  -2.80  5.80
  2 -12  0  8.30  6.20
  2 -12  0  6.50  5.60
 -2 -12  0  14.70  6.20
  2 12  0  5.70  5.30
  2 12  0  15.90  6.60
 -2 12  0  13.40  6.60
  3 -12  0  30.90  8.30
 -3 -12  0  27.40  8.40
  3 -12  0  30.60  14.00
 -3 -12  0  44.40  14.70
  3 12  0  9.80  7.70
  3 12  0  21.30  7.90
 -3 12  0  15.60  7.40
  0 -13  0  10.50  6.40
  0 -13  0  3.70  5.30
  0 13  0  3.70  6.10
  1 -13  0  26.10  8.10
  1 -13  0  33.20  6.70
 -1 -13  0  35.10  8.30
 -1 -13  0  23.20  6.90
  1 -13  0  26.40  7.00
  1 13  0  22.90  6.50
  1 13  0  26.20  8.00
 -1 13  0  26.90  7.50
  2 -13  0  31.30  7.20
  2 -13  0  47.80  8.40
 -2 -13  0  52.59  9.90
 -2 -13  0  42.00  8.90
 -2 13  0  53.49  8.90
  2 13  0  30.70  8.00
  2 13  0  34.60  9.40
  0 -14  0  50.09  8.60
  0 -14  0  30.70  10.40
  0 14  0  42.60  9.70
  1 -14  0  30.30  7.00
 -1 14  0  34.90  12.30
  1 14  0  12.30  15.20
 -6  0  1  1.60  6.90
  6  0 -1 -14.80  6.20
 -5  0  1  0.20  4.60
  5  0 -1  8.10  4.80
  5  0 -1  8.40  5.40
 -5  0  1  -0.70  3.00
  4  0 -1  -5.80  3.30
 -4  0  1  -1.40  2.60
  4  0 -1  2.30  2.90
  4  0 -1  -5.50  3.00
 -4  0  1  -5.30  3.00
  4  0 -1  -1.90  2.40
  4  0 -1  -2.20  3.10
 -4  0  1  -2.40  2.20
  4  0 -1  -4.50  3.00
 -3  0  1  -0.50  1.60
  3  0 -1  -1.70  1.70
  3  0 -1  1.60  2.30
  3  0 -1  1.90  2.10
 -3  0  1  -0.10  2.00
  3  0 -1  1.70  2.20
 -3  0  1  0.10  1.50
  3  0 -1  -0.30  2.10
  3  0 -1  0.40  1.70
 -3  0  1  0.10  2.00
 -2  0  1  -1.20  1.00
 -2  0  1  -1.70  1.10
 -2  0  1  -1.50  1.10
  2  0 -1  1.60  1.40
  2  0 -1  -1.60  1.00
 -2  0  1  -1.80  1.30
  2  0 -1  -3.00  1.20
  2  0 -1  -1.70  1.30
 -2  0  1  1.00  1.10
  2  0 -1  -2.50  1.20
 -2  0  1  1.80  1.00
  2  0 -1  -0.10  1.00
  1  0 -1  0.50  0.70
  1  0 -1  2.50  0.50
 -1  0  1  1.30  0.40
  1  0 -1  2.20  0.60
  1  0 -1  2.50  0.70
 -1  0  1  1.00  0.90
 -1  0  1  3.30  0.90
 -1  0  1  4.40  0.80
  1  0 -1  1.00  0.90
  0  0  1  -0.10  0.10
  0  0  1  0.00  0.10
  0  0  1  0.00  0.20
  0  0  1  -0.10  0.20
  0  0  1  0.70  0.20
  0  0  1  0.40  0.20
  0  0  1  0.10  0.10
 -1  0 -1  -1.70  0.80
 -1  0 -1  -1.20  0.80
  1  0  1  -0.50  0.70
 -1  0 -1  1.10  1.10
  1  0  1  -0.80  0.80
 -1  0 -1  -0.30  0.60
 -1  0 -1  -0.30  0.70
 -1  0 -1  0.60  0.80
  1  0  1  1.10  0.80
  1  0  1  -0.30  0.90
  1  0  1  -0.70  0.50
 -1  0 -1  -0.80  0.60
 -2  0 -1  -1.90  1.40
  2  0  1  1.80  1.30
 -2  0 -1  -2.30  1.40
  2  0  1  -2.10  1.40
 -2  0 -1  0.40  1.60
 -2  0 -1  -0.60  1.00
  2  0  1  0.70  1.10
  2  0  1  -0.50  1.00
  2  0  1  -1.70  1.20
 -2  0 -1  0.50  1.20
 -2  0 -1  0.30  1.30
 -2  0 -1  -1.00  0.80
  3  0  1  -0.80  1.80
  3  0  1  0.00  2.00
 -3  0 -1  4.20  2.40
 -3  0 -1  -4.10  2.40
  3  0  1  -1.40  2.00
  3  0  1  1.30  2.50
 -3  0 -1  -1.70  2.20
  3  0  1  0.90  1.90
 -3  0 -1  -0.50  2.30
 -3  0 -1  -1.30  1.90
 -3  0 -1  2.30  2.00
 -4  0 -1  -5.30  2.30
 -4  0 -1  0.60  3.90
 -4  0 -1  -3.80  2.90
  4  0  1  -2.00  2.30
  4  0  1  -1.10  2.70
  4  0  1  -0.80  2.50
  4  0  1  -1.20  3.40
 -4  0 -1  -4.70  3.60
  4  0  1  2.90  2.30
 -4  0 -1  -4.80  2.60
  4  0  1  -0.50  2.90
  5  0  1  3.70  5.10
 -5  0 -1  1.50  9.90
 -5  0 -1  6.30  4.40
 -5  0 -1  2.30  4.10
  5  0  1  -1.00  3.90
 -6  0 -1  -1.80  5.30
 -6  0 -1  12.10  7.90
 -6  0 -1  -5.50  7.10
 -6 -1  1  8.90  7.30
  6 -1 -1  10.40  6.80
  6 -1 -1  -3.50  6.30
  6  1 -1  0.90  6.70
  6  1 -1  -3.90  7.10
 -6  1  1  -0.60  6.70
  5 -1 -1  85.99  10.60
 -5 -1  1  85.09  6.80
 -5 -1  1  89.39  8.30
 -5 -1  1  87.09  9.80
  5  1 -1  88.29  10.90
 -5  1  1  88.29  7.70
 -5  1  1  85.79  9.80
  5  1 -1  89.59  10.00
  5  1 -1  91.99  9.70
  4 -1 -1 121.29  7.80
  4 -1 -1 120.79  8.70
 -4 -1  1 124.99  7.30
 -4 -1  1 125.69  8.20
 -4 -1  1 142.99  9.50
 -4 -1  1 107.59  8.60
  4 -1 -1 153.58  10.10
 -4  1  1 123.29  9.30
 -4  1  1 135.29  7.80
 -4  1  1 111.59  8.80
  4  1 -1 113.39  7.50
  4  1 -1 139.49  10.00
 -4  1  1 112.49  8.30
  4  1 -1 148.19  9.90
  4  1 -1 124.19  8.70
  4  1 -1 120.39  8.70
  4  1 -1 142.09  9.10
  3 -1 -1 221.58  10.80
 -3 -1  1 238.18  11.10
  3 -1 -1 242.68  12.40
 -3 -1  1 217.98  11.30
  3 -1 -1 225.38  11.60
 -3 -1  1 231.28  11.70
 -3 -1  1 231.38  10.40
  3 -1 -1 227.78  11.00
 -3 -1  1 234.58  11.80
  3 -1 -1 240.98  11.50
  3  1 -1 231.78  11.50
 -3  1  1 228.58  11.50
  3  1 -1 250.77  11.80
  3  1 -1 225.48  10.50
 -3  1  1 237.38  10.80
 -3  1  1 243.28  11.70
 -3  1  1 231.68  11.40
  3  1 -1 215.78  10.80
  3  1 -1 242.08  13.20
 -2 -1  1 2103.49  84.39
 -2 -1  1 2194.78  84.19
 -2 -1  1 2301.97  84.79
  2 -1 -1 2208.68  85.19
  2 -1 -1 2223.78  84.29
 -2 -1  1 2231.18  83.69
  2 -1 -1 2292.87  84.49
  2 -1 -1 2271.07  84.49
  2 -1 -1 2208.18  84.69
  2 -1 -1 2262.57  84.19
  2  1 -1 2216.58  84.59
 -2  1  1 2138.29  85.19
  2  1 -1 2347.57  84.69
 -2  1  1 2247.88  84.19
 -2  1  1 2136.89  84.49
 -2  1  1 2208.68  84.39
  2  1 -1 2163.38  84.29
 -2  1  1 2281.87  84.69
  2  1 -1 2337.97  85.09
  2  1 -1 2228.88  85.29
  2  1 -1 2213.08  83.79
  0 -1 -1 548.05  21.10
  0 -1 -1 565.94  21.20
  0 -1 -1 561.04  21.40
  0  1 -1 592.64  21.10
  0  1 -1 587.94  21.00
  0  1 -1 579.14  21.40
  0  1 -1 501.45  21.10
  0  1  1 522.25  21.20
  2 -1  1 1035.60  41.70
  2 -1  1 1072.79  42.00
 -2 -1 -1 1074.99  42.50
  2 -1  1 1101.29  41.20
  2 -1  1 1018.20  42.30
 -2 -1 -1 1081.79  42.80
 -2 -1 -1 1122.49  42.00
  2 -1  1 1057.49  42.10
  2 -1  1 1090.99  42.20
 -2 -1 -1 1078.69  42.30
 -2 -1 -1 1094.19  42.00
 -2  1 -1 1123.99  42.10
  2  1  1 1031.80  42.30
 -2  1 -1 1119.49  42.40
 -2  1 -1 1084.59  42.30
  2  1  1 1091.89  42.90
  2  1  1 1039.60  41.70
  2  1  1 1079.29  42.00
  2  1  1 1088.99  42.40
 -2  1 -1 1066.59  42.20
 -2  1 -1 1106.79  42.70
 -2  1 -1 1127.79  41.90
  3 -1  1 323.37  15.50
 -3 -1 -1 351.36  16.30
  3 -1  1 346.47  15.70
  3 -1  1 324.37  15.80
 -3 -1 -1 339.77  16.40
 -3 -1 -1 328.77  15.60
  3 -1  1 332.77  15.20
  3 -1  1 349.77  14.20
 -3 -1 -1 340.47  16.40
 -3 -1 -1 357.36  15.50
 -3  1 -1 334.37  15.90
 -3  1 -1 341.07  16.30
  3  1  1 342.97  15.90
  3  1  1 347.47  15.70
  3  1  1 364.76  16.20
  3  1  1 344.67  14.00
  3  1  1 341.87  15.00
 -3  1 -1 321.97  14.10
 -3  1 -1 323.27  15.70
 -3  1 -1 353.06  15.40
  3  1  1 337.57  15.20
 -3  1 -1 361.66  15.50
 -3  1 -1 363.66  16.20
  3  1  1 314.47  15.20
  3  1  1 359.06  16.90
  4 -1  1  55.59  6.50
  4 -1  1  46.20  5.40
  4 -1  1  45.30  4.00
  4 -1  1  51.99  6.30
  4 -1  1  46.60  6.10
 -4 -1 -1  42.00  5.60
 -4 -1 -1  54.99  7.20
 -4 -1 -1  44.70  5.60
 -4  1 -1  50.89  5.70
 -4  1 -1  48.20  5.60
  4  1  1  54.29  6.30
 -4  1 -1  46.40  9.60
 -4  1 -1  48.50  6.70
  4  1  1  57.19  7.00
  4  1  1  42.20  4.90
  4  1  1  45.70  6.30
 -4  1 -1  37.50  5.60
 -5 -1 -1 126.19  10.20
  5 -1  1 125.19  10.80
 -5 -1 -1 122.69  13.10
 -5 -1 -1 122.59  9.70
  5  1  1 114.79  10.40
 -5  1 -1 122.59  12.90
 -5  1 -1 124.09  9.80
 -5  1 -1 125.39  10.00
  5  1  1 136.59  11.60
 -6 -1 -1  18.50  6.40
 -6 -1 -1  11.90  8.10
  6 -1  1  -1.00  7.10
  6  1  1  -9.80  7.80
 -6  1 -1  2.40  7.40
 -6  1 -1  5.60  6.40
  6 -2 -1  -4.50  6.50
 -6 -2  1  17.60  8.00
  6 -2 -1  7.70  7.10
  6  2 -1  8.40  8.50
 -6  2  1  6.60  6.90
  6  2 -1  6.50  7.30
  5 -2 -1  49.99  10.10
 -5 -2  1  67.99  8.90
  5 -2 -1  55.49  7.60
 -5 -2  1  58.09  7.30
 -5  2  1  68.19  8.80
 -5  2  1  63.69  7.50
  5  2 -1  62.39  8.80
  5  2 -1  69.79  9.00
  5  2 -1  80.59  11.70
  4 -2 -1  59.39  6.60
 -4 -2  1  56.69  6.80
 -4 -2  1  59.19  5.70
  4 -2 -1  54.79  7.10
  4 -2 -1  63.99  6.90
 -4 -2  1  54.29  5.50
 -4 -2  1  48.10  6.30
  4 -2 -1  51.59  6.50
  4  2 -1  56.29  6.60
  4  2 -1  61.99  7.10
 -4  2  1  61.09  5.90
  4  2 -1  57.09  6.10
 -4  2  1  59.79  6.80
  4  2 -1  55.89  4.70
 -4  2  1  53.09  5.80
  4  2 -1  51.19  7.30
 -4  2  1  68.59  6.70
  4  2 -1  48.50  7.50
  4  2 -1  52.59  7.30
  3 -2 -1 522.65  22.40
  3 -2 -1 531.65  22.40
 -3 -2  1 520.35  23.20
 -3 -2  1 527.25  22.70
 -3 -2  1 545.45  22.30
  3 -2 -1 531.05  23.00
 -3 -2  1 550.84  23.20
 -3 -2  1 521.85  21.50
  3 -2 -1 557.24  23.70
  3 -2 -1 555.04  22.90
 -3  2  1 513.05  22.50
  3  2 -1 567.14  23.90
  3  2 -1 522.25  22.10
 -3  2  1 509.35  22.70
  3  2 -1 566.04  23.80
  3  2 -1 524.05  22.60
  3  2 -1 569.24  23.20
 -3  2  1 542.45  22.90
  3  2 -1 528.95  22.80
 -3  2  1 502.55  23.50
  2 -2 -1  51.39  3.60
  2 -2 -1  50.59  4.40
  2 -2 -1  52.49  3.90
 -2 -2  1  52.99  3.80
  2 -2 -1  51.19  3.60
 -2 -2  1  51.99  3.00
 -2 -2  1  52.29  3.50
  2 -2 -1  49.60  3.90
 -2 -2  1  50.09  3.90
 -2 -2  1  58.19  4.20
  2  2 -1  48.70  3.00
  2  2 -1  48.90  3.50
  2  2 -1  54.39  4.40
 -2  2  1  53.79  3.90
 -2  2  1  55.09  3.60
  2  2 -1  51.09  3.90
 -2  2  1  55.59  3.70
  2  2 -1  51.99  3.90
 -2  2  1  48.90  4.30
  2  2 -1  49.60  3.90
  1 -2 -1 3016.40 115.99
  1 -2 -1 3077.59 115.89
  1 -2 -1 3057.89 115.79
 -1 -2  1 3157.98 115.89
 -1 -2  1 3113.99 115.49
 -1 -2  1 3126.79 116.49
  1 -2 -1 3023.20 115.89
 -1 -2  1 3145.79 115.99
 -1 -2  1 3101.89 115.99
  1 -2 -1 3059.39 116.29
  1  2 -1 3108.29 115.89
  1  2 -1 3212.68 116.59
 -1  2  1 3111.69 115.79
  1  2 -1 3024.50 115.89
  1  2 -1 3057.99 115.49
  1  2 -1 3106.49 115.79
 -1  2  1 3087.99 115.89
 -1  2  1 3088.39 116.39
  2 -2  1 506.45  21.10
 -2 -2 -1 528.25  21.40
 -2 -2 -1 521.45  20.80
  2 -2  1 509.05  20.60
  2 -2  1 511.85  21.10
 -2 -2 -1 516.15  21.10
  2 -2  1 512.85  21.20
 -2 -2 -1 513.45  20.80
 -2 -2 -1 498.55  21.60
  2 -2  1 515.35  21.00
  2  2  1 515.15  21.30
 -2  2 -1 505.35  20.60
  2  2  1 487.05  21.50
 -2  2 -1 476.95  21.10
  2  2  1 528.55  22.00
  2  2  1 508.35  20.60
 -2  2 -1 476.05  20.90
  2  2  1 493.15  20.50
 -2  2 -1 512.15  21.10
  2  2  1 508.25  21.10
 -2  2 -1 511.05  20.90
  2  2  1 521.95  20.40
 -3 -2 -1 138.89  9.10
  3 -2  1 140.19  6.50
  3 -2  1 139.99  7.70
  3 -2  1 143.39  8.50
 -3 -2 -1 146.89  8.10
 -3 -2 -1 132.69  8.70
  3 -2  1 127.99  8.00
 -3 -2 -1 134.09  8.20
  3 -2  1 148.09  9.10
  3 -2  1 140.89  8.50
 -3 -2 -1 137.89  7.80
 -3  2 -1 132.79  8.60
 -3  2 -1 134.59  8.30
  3  2  1 134.59  7.60
  3  2  1 136.29  7.70
  3  2  1 145.89  8.30
 -3  2 -1 150.08  8.10
  3  2  1 144.89  8.70
 -3  2 -1 146.39  7.90
 -3  2 -1 130.59  8.30
 -3  2 -1 130.49  6.90
 -3  2 -1 136.89  8.70
  3  2  1 133.99  8.20
  3  2  1 145.89  6.80
  3  2  1 141.49  9.20
  3  2  1 137.19  7.70
  4 -2  1 206.08  14.30
  4 -2  1 229.58  13.00
 -4 -2 -1 239.18  12.50
  4 -2  1 255.77  13.60
  4 -2  1 280.57  14.00
 -4 -2 -1 249.88  14.10
 -4 -2 -1 262.87  13.00
  4 -2  1 220.18  10.40
 -4  2 -1 213.68  13.40
 -4  2 -1 215.88  13.20
 -4  2 -1 247.08  13.80
  4  2  1 224.58  14.50
  4  2  1 264.87  14.00
  4  2  1 245.38  14.70
 -4  2 -1 258.67  13.00
  4  2  1 253.87  13.50
 -4  2 -1 247.78  12.80
  4  2  1 230.58  12.10
  5 -2  1  10.70  5.20
 -5 -2 -1  8.20  6.60
  5 -2  1  17.80  5.70
 -5 -2 -1  20.20  4.80
 -5 -2 -1  21.70  5.00
 -5  2 -1  21.90  6.90
  5  2  1  23.30  6.90
  5  2  1  25.80  5.70
  6 -2  1  16.70  7.30
 -6 -2 -1  14.40  7.00
 -6 -2 -1  18.00  8.50
 -6  2 -1  13.50  6.80
 -6  2 -1  15.10  8.20
  6  2  1  20.10  8.70
 -6 -3  1  4.60  8.20
  6 -3 -1  6.10  6.50
  6 -3 -1 -12.20  6.20
 -6 -3  1  5.90  5.60
  6 -3 -1  -6.80  6.50
  6  3 -1  -3.30  7.40
 -6  3  1  -1.60  6.90
  6  3 -1  0.20  6.10
 -6  3  1  4.90  6.60
  6  3 -1  7.10  8.10
 -5 -3  1  42.00  6.20
  5 -3 -1  40.50  8.00
  5 -3 -1  40.50  7.30
 -5 -3  1  47.10  7.90
  5  3 -1  39.70  7.10
  5  3 -1  47.10  8.40
 -5  3  1  42.40  7.20
 -5  3  1  49.40  6.90
  5  3 -1  34.40  6.80
 -4 -3  1  9.50  4.10
  4 -3 -1  7.20  4.30
  4 -3 -1  11.80  4.60
  4 -3 -1  15.20  4.90
 -4 -3  1  7.00  2.50
 -4 -3  1  12.30  3.30
  4 -3 -1  7.20  3.70
 -4  3  1  12.00  3.40
  4  3 -1  4.10  3.70
  4  3 -1  8.90  3.90
  4  3 -1  10.30  4.10
 -4  3  1  7.50  2.90
  4  3 -1  13.40  2.90
  4  3 -1  17.10  4.80
 -4  3  1  14.60  4.60
 -3 -3  1  15.40  3.30
  3 -3 -1  14.80  4.00
  3 -3 -1  21.50  3.50
  3 -3 -1  21.40  4.00
  3 -3 -1  17.10  3.30
  3 -3 -1  19.40  3.30
 -3 -3  1  19.70  3.30
 -3 -3  1  15.90  2.30
  3 -3 -1  16.60  3.50
 -3 -3  1  14.30  3.00
  3  3 -1  15.70  2.70
  3  3 -1  17.60  3.70
  3  3 -1  21.60  3.80
 -3  3  1  13.50  3.40
 -3  3  1  16.60  5.50
  3  3 -1  13.90  3.10
 -3  3  1  23.50  4.00
 -3  3  1  16.70  2.90
  3  3 -1  13.20  2.90
 -3  3  1  23.30  3.40
  2 -3 -1 919.01  34.40
 -2 -3  1 869.51  34.60
  2 -3 -1 896.61  34.30
 -2 -3  1 846.82  33.80
  2 -3 -1 869.21  34.30
 -2 -3  1 829.32  34.20
 -2 -3  1 843.22  35.00
 -2 -3  1 841.32  33.30
  2 -3 -1 873.31  35.00
 -2  3  1 791.92  34.90
 -2  3  1 837.82  33.80
  2  3 -1 866.71  35.70
 -2  3  1 869.31  34.30
  2  3 -1 866.61  33.80
 -2  3  1 878.81  34.40
  2  3 -1 864.61  34.50
  2  3 -1 1000.60  35.80
 -1 -3  1 2133.59  77.69
  1 -3 -1 2088.99  77.69
  1 -3 -1 1980.20  77.79
  1 -3 -1 2012.70  77.99
  1 -3 -1 2026.30  77.59
 -1 -3  1 2055.19  77.09
 -1 -3  1 2033.90  78.39
 -1 -3  1 2020.20  77.69
 -1 -3  1 2078.99  77.69
  1 -3 -1 2015.80  77.59
  1  3 -1 2053.09  76.99
 -1  3  1 2010.20  77.69
 -1  3  1 2056.89  77.69
 -1  3  1 2049.70  78.19
  1  3 -1 2082.59  77.59
  1  3 -1 2128.89  77.79
  1  3 -1 2047.90  77.59
  1  3 -1 2103.69  78.59
 -1  3  1 2013.80  77.59
 -1  3  1 2101.19  77.99
  0 -3  1 2520.75  91.69
  0 -3  1 2432.06  91.19
  0 -3 -1 2443.56  91.29
  0 -3 -1 2358.66  90.99
  0 -3 -1 2393.46  91.19
  0 -3 -1 2404.16  91.09
  0 -3 -1 2416.76  90.99
  0 -3  1 2418.86  90.89
  0 -3  1 2456.45  91.19
  0 -3  1 2404.26  91.59
  0 -3  1 2399.06  90.89
  0 -3 -1 2405.26  91.19
  0  3 -1 2398.66  91.49
  0  3  1 2458.25  91.09
  0  3 -1 2421.06  91.19
  0  3 -1 2466.35  91.29
  0  3  1 2424.36  91.19
  0  3  1 2392.96  91.09
  0  3  1 2361.06  91.19
  0  3 -1 2420.76  90.89
  0  3 -1 2433.86  91.69
  0  3  1 2468.25  91.29
  0  3 -1 2427.06  90.89
 -1 -3 -1 433.56  17.00
  1 -3  1 416.36  16.60
  1 -3  1 433.16  17.50
  1 -3  1 432.86  17.80
  1 -3  1 413.06  17.10
 -1 -3 -1 415.96  17.10
 -1 -3 -1 416.96  17.30
  1 -3  1 424.76  17.80
  1 -3  1 426.26  16.70
 -1 -3 -1 428.46  17.10
 -1  3 -1 418.26  16.50
  1  3  1 404.06  17.50
  1  3  1 430.56  17.30
 -1  3 -1 405.66  17.20
  1  3  1 400.06  16.90
  1  3  1 412.06  17.90
 -1  3 -1 407.26  16.60
  1  3  1 435.76  16.90
  1  3  1 425.06  17.80
 -1  3 -1 417.66  17.50
 -1  3 -1 419.66  17.20
 -2 -3 -1 272.37  13.60
 -2 -3 -1 288.57  12.80
 -2 -3 -1 285.97  12.80
  2 -3  1 298.07  13.30
  2 -3  1 286.47  12.60
 -2 -3 -1 285.47  13.40
  2 -3  1 289.17  13.10
 -2 -3 -1 280.27  13.00
  2 -3  1 299.67  13.10
  2 -3  1 295.97  12.40
  2 -3  1 280.47  12.80
  2 -3  1 276.07  13.10
  2  3  1 297.37  12.70
 -2  3 -1 278.17  13.10
  2  3  1 302.27  12.60
 -2  3 -1 274.97  11.70
 -2  3 -1 300.17  13.30
  2  3  1 315.27  13.50
  2  3  1 275.47  13.00
 -2  3 -1 283.97  13.40
  2  3  1 305.77  14.20
  3 -3  1 181.38  7.80
 -3 -3 -1 197.88  9.90
 -3 -3 -1 174.18  9.90
  3 -3  1 178.08  9.40
 -3 -3 -1 188.48  10.70
  3 -3  1 194.88  10.30
  3 -3  1 168.68  10.10
  3 -3  1 194.58  10.40
  3 -3  1 190.48  10.20
 -3 -3 -1 178.08  10.50
 -3  3 -1 177.08  10.50
  3  3  1 189.08  8.80
  3  3  1 179.38  10.20
  3  3  1 175.58  9.30
  3  3  1 199.78  11.60
  3  3  1 187.58  10.20
 -3  3 -1 195.58  10.00
  3  3  1 180.48  10.00
 -3  3 -1 153.68  9.70
 -3  3 -1 176.98  10.40
 -3  3 -1 183.48  10.40
  3  3  1 166.18  9.90
  4 -3  1  3.50  4.10
  4 -3  1  0.00  3.40
 -4 -3 -1  -7.20  3.70
 -4 -3 -1  1.70  2.50
 -4 -3 -1  -1.50  2.80
 -4  3 -1  3.70  3.20
 -4  3 -1  -3.20  4.00
  4  3  1  4.00  5.30
  4  3  1  1.60  4.00
  4  3  1  -1.80  3.60
 -4  3 -1  0.80  3.20
  4  3  1  -0.40  3.10
 -4  3 -1  0.30  3.30
  4  3  1  0.10  2.10
  5 -3  1  81.69  10.10
  5 -3  1  95.49  10.40
 -5 -3 -1 114.29  11.40
 -5 -3 -1 104.89  8.80
 -5 -3 -1  99.99  9.40
 -5  3 -1  95.49  9.90
  5  3  1  94.79  11.20
  5  3  1 109.79  11.60
  5  3  1  96.39  10.10
 -5  3 -1  98.99  10.50
  6 -3  1  1.00  7.20
 -6 -3 -1  5.60  8.70
 -6 -3 -1  20.70  8.50
  6  3  1  13.50  8.00
 -6  3 -1  6.00  7.00
 -6  3 -1  11.70  7.40
  6 -4 -1  4.60  6.50
  6 -4 -1  5.10  7.20
 -6 -4  1  17.90  8.70
 -6 -4  1  10.40  6.70
  6 -4 -1  3.00  8.70
  6  4 -1  -3.90  12.10
  6  4 -1  1.90  6.30
 -6  4  1  0.10  6.80
 -6  4  1  8.40  7.20
  6  4 -1  1.00  8.50
 -5 -4  1  9.70  5.60
  5 -4 -1  5.00  5.20
 -5 -4  1  19.60  5.10
  5 -4 -1  3.30  5.60
  5  4 -1  8.20  5.40
 -5  4  1  1.10  5.30
  5  4 -1  10.80  6.10
  5  4 -1  9.70  6.90
 -5  4  1  14.60  5.60
 -4 -4  1 126.59  8.60
  4 -4 -1 137.49  10.80
  4 -4 -1 133.69  9.40
  4 -4 -1 127.29  9.60
  4 -4 -1 110.29  8.90
 -4 -4  1 136.39  10.00
 -4 -4  1 125.19  7.20
 -4  4  1 139.89  9.20
  4  4 -1 124.39  10.60
  4  4 -1 114.79  9.60
 -4  4  1 144.99  9.70
  4  4 -1 106.69  8.60
  4  4 -1 145.89  10.90
 -3 -4  1 359.46  17.90
  3 -4 -1 394.06  18.30
 -3 -4  1 372.46  15.90
  3 -4 -1 372.46  17.30
 -3 -4  1 392.06  17.80
 -3 -4  1 356.16  19.50
  3 -4 -1 356.16  20.10
  3 -4 -1 343.77  17.30
 -3 -4  1 390.56  16.80
  3 -4 -1 384.26  17.20
  3 -4 -1 398.06  17.50
  3  4 -1 415.26  19.00
 -3  4  1 384.06  16.80
  3  4 -1 359.86  16.40
  3  4 -1 398.76  17.90
 -3  4  1 401.36  17.50
 -3  4  1 417.36  17.50
  3  4 -1 368.76  17.20
 -3  4  1 384.96  17.60
  3  4 -1 354.86  17.10
 -2 -4  1 751.02  28.30
  2 -4 -1 694.53  29.30
 -2 -4  1 753.12  29.70
 -2 -4  1 773.12  28.80
  2 -4 -1 745.13  29.20
  2 -4 -1 709.23  29.40
 -2 -4  1 726.43  30.20
 -2 -4  1 721.33  29.30
 -2  4  1 708.33  29.40
 -2  4  1 693.83  30.10
  2  4 -1 707.03  29.10
  2  4 -1 639.74  32.60
  2  4 -1 744.73  28.60
  2  4 -1 732.03  29.30
 -2  4  1 779.82  29.50
 -1 -4  1 308.67  13.30
  1 -4 -1 288.87  13.20
  1 -4 -1 295.17  13.60
 -1 -4  1 327.07  12.50
 -1 -4  1 316.77  14.00
  1 -4 -1 304.87  13.20
 -1 -4  1 323.77  13.30
  1 -4 -1 287.97  13.20
 -1 -4  1 317.77  13.30
  1 -4 -1 299.47  13.20
  1  4 -1 307.57  13.20
  1  4 -1 312.97  12.40
 -1  4  1 312.17  13.30
 -1  4  1 305.67  12.70
 -1  4  1 321.87  13.90
 -1  4  1 303.87  13.20
  1  4 -1 317.57  14.20
  1  4 -1 298.47  13.30
 -1  4  1 300.57  13.20
  0 -4 -1 3926.01 148.69
  0 -4  1 4230.08 149.39
  0 -4 -1 3884.01 148.79
  0 -4  1 4013.80 147.79
  0 -4  1 3907.91 148.29
  0 -4  1 4073.69 149.29
  0 -4 -1 3937.01 148.59
  0 -4 -1 3918.51 148.59
  0 -4  1 3939.91 149.19
  0 -4 -1 3846.12 148.49
  0 -4  1 4076.19 148.69
  0 -4 -1 3926.71 148.29
  0  4  1 3882.71 148.69
  0  4 -1 3892.01 148.29
  0  4 -1 4069.09 148.79
  0  4 -1 3773.72 148.99
  0  4  1 3938.51 148.79
  0  4 -1 4033.10 149.29
  0  4  1 3649.03 148.79
  0  4 -1 3977.60 148.39
  0  4 -1 3943.71 148.59
  0  4  1 4251.17 149.39
  0  4  1 4011.90 148.59
  1 -4  1 1471.35  55.79
 -1 -4 -1 1506.45  55.99
 -1 -4 -1 1458.65  56.79
 -1 -4 -1 1518.25  55.59
  1 -4  1 1466.65  56.19
  1 -4  1 1420.06  55.09
  1 -4  1 1397.06  55.79
 -1 -4 -1 1378.36  56.09
 -1 -4 -1 1503.15  55.89
  1 -4  1 1394.56  55.79
  1  4  1 1469.85  56.49
  1  4  1 1438.66  55.69
  1  4  1 1436.46  55.69
 -1  4 -1 1434.46  55.19
  1  4  1 1447.46  55.39
 -1  4 -1 1503.15  55.79
 -1  4 -1 1412.76  55.89
  1  4  1 1515.55  55.99
 -1  4 -1 1489.65  55.79
 -1  4 -1 1452.35  54.99
 -1  4 -1 1433.06  56.19
  1  4  1 1407.76  55.69
 -1  4 -1 1443.56  55.89
  2 -4  1 1906.31  75.39
  2 -4  1 1950.50  73.99
  2 -4  1 1893.71  74.59
 -2 -4 -1 1845.02  75.09
  2 -4  1 1939.11  74.59
 -2 -4 -1 1946.11  74.19
 -2 -4 -1 2063.19  75.49
 -2 -4 -1 1779.92  74.29
  2 -4  1 1946.01  74.69
 -2 -4 -1 2022.00  75.59
  2 -4  1 1964.30  73.59
 -2  4 -1 1846.02  74.49
 -2  4 -1 2016.40  74.59
 -2  4 -1 1896.11  74.99
  2  4  1 2016.80  74.99
  2  4  1 1938.11  73.99
  2  4  1 1934.01  74.19
  2  4  1 1969.00  74.59
 -2  4 -1 1848.62  72.99
  2  4  1 2076.09  75.99
 -3 -4 -1 603.94  26.10
  3 -4  1 602.74  25.70
  3 -4  1 600.94  25.40
 -3 -4 -1 563.04  26.20
  3 -4  1 572.64  25.60
  3 -4  1 595.94  25.60
 -3 -4 -1 611.44  26.30
 -3 -4 -1 626.64  25.30
  3 -4  1 593.34  25.90
 -3  4 -1 615.04  25.50
  3  4  1 614.14  24.50
  3  4  1 612.74  26.10
 -3  4 -1 541.95  25.90
 -3  4 -1 625.24  25.80
  3  4  1 540.15  24.80
  3  4  1 596.94  27.10
  4 -4  1 107.59  9.30
 -4 -4 -1 101.29  7.70
 -4 -4 -1 127.19  10.50
  4 -4  1 129.79  9.90
 -4 -4 -1 120.29  8.70
  4 -4  1 109.59  7.90
 -4  4 -1 125.89  10.10
 -4  4 -1  99.69  9.20
  4  4  1 127.39  9.40
  4  4  1 138.89  10.90
 -4  4 -1 123.89  9.00
  4  4  1 120.19  10.00
  5 -4  1  11.70  5.70
  5 -4  1  16.30  5.10
 -5 -4 -1  14.50  5.30
  5 -4  1  9.70  5.40
 -5 -4 -1  16.70  6.80
 -5  4 -1  13.80  6.80
  5  4  1  20.00  6.70
  5  4  1  20.90  6.80
 -5  4 -1  23.00  6.40
  5  4  1  6.00  6.40
 -6 -4 -1  3.70  8.00
 -6 -4 -1  8.40  9.80
  6 -4  1 -19.30  8.70
 -6  4 -1  3.20  6.90
 -6  4 -1 -14.50  7.10
 -6 -5  1  3.00  6.50
  6 -5 -1  2.40  8.00
  6 -5 -1  -2.10  9.10
  6 -5 -1  6.40  7.00
 -6 -5  1  6.10  10.50
 -6  5  1  3.00  7.30
  6  5 -1  6.50  8.80
 -6  5  1  -0.30  10.50
  5 -5 -1  21.40  6.40
  5 -5 -1  9.80  4.80
 -5 -5  1  15.30  4.90
 -5 -5  1  11.20  7.30
  5 -5 -1  9.70  5.90
 -5  5  1  16.60  5.80
  5  5 -1  19.30  6.60
 -5  5  1  16.50  10.20
  5  5 -1  9.80  6.80
  5  5 -1  11.60  6.50
  4 -5 -1 116.79  9.40
 -4 -5  1 111.19  9.60
  4 -5 -1 109.09  10.80
 -4 -5  1 116.79  8.10
 -4 -5  1 107.29  7.90
  4 -5 -1  99.39  8.50
  4 -5 -1 113.79  9.00
 -4  5  1 118.69  9.20
  4  5 -1 119.19  10.50
 -4  5  1 118.29  9.10
  4  5 -1 124.49  10.80
  4  5 -1  98.19  8.70
  4  5 -1 123.69  9.70
  3 -5 -1  63.39  5.90
 -3 -5  1  58.39  6.40
  3 -5 -1  73.79  7.10
  3 -5 -1  77.09  6.10
  3 -5 -1  64.09  5.40
  3 -5 -1  59.79  5.80
 -3 -5  1  73.29  6.50
 -3 -5  1  65.09  4.50
  3 -5 -1  70.59  6.20
 -3 -5  1  61.59  5.10
 -3 -5  1  59.99  5.50
 -3  5  1  62.09  6.00
 -3  5  1  61.59  5.90
 -3  5  1  58.39  6.50
  3  5 -1  63.69  7.30
  3  5 -1  47.90  4.70
  3  5 -1  59.69  5.60
 -3  5  1  69.29  6.30
  3  5 -1  73.79  6.60
  3  5 -1  61.69  5.60
 -3  5  1  60.19  5.10
  2 -5 -1 813.52  34.90
  2 -5 -1 884.41  35.70
  2 -5 -1 912.81  35.10
  2 -5 -1 890.51  35.60
 -2 -5  1 906.81  35.40
 -2 -5  1 832.32  35.80
 -2 -5  1 847.52  34.80
 -2 -5  1 885.31  35.30
 -2 -5  1 876.01  34.20
 -2 -5  1 884.81  33.90
  2 -5 -1 812.82  34.90
 -2  5  1 837.82  35.90
  2  5 -1 845.82  34.70
 -2  5  1 932.41  35.50
  2  5 -1 925.41  36.70
  2  5 -1 842.52  34.70
 -2  5  1 850.71  34.00
  2  5 -1 850.21  33.90
  2  5 -1 893.51  35.30
 -2  5  1 883.91  34.90
 -2  5  1 854.91  35.10
  1 -5 -1 1024.40  40.10
  1 -5 -1 1030.50  40.80
 -1 -5  1 1009.60  41.10
 -1 -5  1 1053.29  40.30
  1 -5 -1 1007.50  40.30
  1 -5 -1 1023.70  40.30
 -1 -5  1 1063.99  40.50
 -1 -5  1 1033.10  40.30
  1 -5 -1 957.00  40.30
 -1 -5  1 1079.29  39.40
 -1 -5  1 1006.90  39.50
  1  5 -1 1057.29  40.50
 -1  5  1 1023.50  41.00
  1  5 -1 1013.60  39.20
 -1  5  1 1046.20  39.90
 -1  5  1 1037.40  40.30
  1  5 -1 1019.30  40.20
  1  5 -1 997.40  40.70
 -1  5  1 1047.00  40.40
  1  5 -1 1007.30  40.10
  1  5 -1 1049.49  41.50
 -1  5  1 989.70  40.20
  0 -5  1 736.43  29.20
  0 -5  1 760.02  28.50
  0 -5  1 739.63  29.20
  0 -5  1 737.23  29.50
  0 -5 -1 726.73  29.40
  0 -5 -1 719.23  29.50
  0 -5 -1 742.33  29.00
  0 -5 -1 703.33  29.40
  0 -5 -1 728.03  29.50
  0 -5  1 748.33  30.10
  0 -5  1 766.92  29.60
  0 -5  1 768.62  30.30
  0 -5 -1 719.23  29.80
  0  5  1 758.72  29.60
  0  5 -1 753.42  30.30
  0  5 -1 698.83  29.90
  0  5 -1 759.72  29.70
  0  5  1 743.73  29.80
  0  5 -1 724.13  29.40
  0  5  1 740.63  29.60
  0  5 -1 741.33  29.20
  0  5  1 728.43  29.50
  0  5  1 723.43  29.50
 -1 -5 -1 1768.02  65.09
 -1 -5 -1 1745.33  65.59
 -1 -5 -1 1783.32  65.79
  1 -5  1 1671.13  64.79
 -1 -5 -1 1646.74  65.29
  1 -5  1 1718.83  65.99
  1 -5  1 1623.34  65.39
  1 -5  1 1714.43  65.49
  1 -5  1 1663.33  65.49
 -1 -5 -1 1653.13  65.79
 -1  5 -1 1706.43  66.09
  1  5  1 1671.43  64.89
 -1  5 -1 1723.03  65.49
  1  5  1 1787.92  65.79
 -1  5 -1 1696.53  65.49
 -1  5 -1 1736.13  65.79
  1  5  1 1651.83  65.29
  1  5  1 1677.33  65.39
  1  5  1 1634.04  65.39
 -1  5 -1 1723.03  64.99
 -1  5 -1 1727.63  65.49
  1  5  1 1730.83  66.29
 -2 -5 -1 904.41  35.50
 -2 -5 -1 844.22  36.10
 -2 -5 -1 820.02  36.30
  2 -5  1 927.41  36.40
  2 -5  1 882.91  36.00
  2 -5  1 900.61  35.10
 -2 -5 -1 881.71  35.80
  2 -5  1 866.31  35.90
 -2 -5 -1 905.01  35.40
  2 -5  1 918.81  34.90
  2 -5  1 929.11  35.90
 -2 -5 -1 837.02  35.60
  2  5  1 894.41  35.60
  2  5  1 884.31  35.10
 -2  5 -1 832.92  35.90
  2  5  1 952.00  36.40
  2  5  1 878.41  35.70
 -2  5 -1 851.31  36.40
 -2  5 -1 929.61  36.00
 -2  5 -1 832.12  34.10
 -2  5 -1 911.71  35.90
  2  5  1 939.31  37.30
  3 -5  1  68.69  6.50
  3 -5  1  81.89  7.20
 -3 -5 -1  76.09  6.10
  3 -5  1  75.19  5.70
  3 -5  1  68.59  6.40
 -3 -5 -1  74.19  7.10
 -3 -5 -1  62.69  6.80
 -3 -5 -1  62.89  6.00
  3 -5  1  66.59  5.70
  3 -5  1  69.49  6.70
 -3 -5 -1  87.49  6.10
 -3  5 -1  81.49  6.60
  3  5  1  76.29  6.50
  3  5  1  87.49  7.10
 -3  5 -1  67.69  6.70
  3  5  1  69.19  5.80
 -3  5 -1  60.19  6.70
  3  5  1  76.59  8.10
  3  5  1  77.69  5.80
  3  5  1  69.29  5.50
 -3  5 -1  72.89  6.90
  4 -5  1 155.48  11.50
 -4 -5 -1 140.99  9.60
 -4 -5 -1 139.09  9.30
 -4 -5 -1 146.89  11.60
  4 -5  1 147.29  9.40
  4 -5  1 154.78  10.70
  4  5  1 159.88  14.90
 -4  5 -1 144.69  10.40
  4  5  1 150.68  10.70
 -4  5 -1 153.98  11.10
  4  5  1 140.79  11.10
  5 -5  1  7.80  5.70
 -5 -5 -1  10.10  4.80
  5 -5  1  5.00  5.10
 -5 -5 -1  2.70  6.70
 -5  5 -1  14.40  6.80
  5  5  1  6.20  5.60
 -5  5 -1  0.50  5.50
  5  5  1  12.30  7.10
 -6 -5 -1  16.10  16.00
  6 -5  1  -1.50  7.50
 -6 -5 -1  -4.60  6.70
  6 -5  1  -6.30  8.20
 -6  5 -1  6.20  16.30
 -6  5 -1  -9.60  12.90
  6  5  1  2.10  8.90
  6 -6 -1 -14.80  8.10
 -6 -6  1  0.80  12.80
 -6  6  1  9.30  11.10
  6  6 -1  -5.30  6.90
  6  6 -1  -8.90  9.30
  5 -6 -1  10.30  6.20
  5 -6 -1  21.10  7.20
  5 -6 -1  24.00  6.00
 -5 -6  1  13.90  4.80
 -5 -6  1  26.90  7.70
 -5  6  1  18.50  6.70
 -5  6  1  20.30  6.60
  5  6 -1  17.10  7.10
  5  6 -1  19.40  7.20
  5  6 -1  19.20  7.10
  4 -6 -1  98.49  12.90
  4 -6 -1 100.39  14.90
 -4 -6  1  83.69  9.10
 -4 -6  1  85.29  7.40
  4 -6 -1  94.09  8.30
 -4  6  1  99.59  9.00
  4  6 -1  89.89  11.30
 -4  6  1  90.29  8.90
  4  6 -1  92.49  13.90
 -3 -6  1 404.36  17.40
  3 -6 -1 331.97  17.30
 -3 -6  1 399.36  19.00
  3 -6 -1 387.26  17.80
  3 -6 -1 390.76  19.30
 -3 -6  1 379.06  16.60
  3 -6 -1 400.06  18.30
  3  6 -1 379.56  20.10
  3  6 -1 394.86  18.80
 -3  6  1 400.56  18.80
 -3  6  1 417.26  18.60
  3  6 -1 359.66  17.10
  2 -6 -1 182.78  10.10
 -2 -6  1 190.88  9.10
 -2 -6  1 174.98  10.50
  2 -6 -1 188.78  9.90
  2 -6 -1 181.78  10.00
 -2 -6  1 184.88  10.30
  2 -6 -1 197.88  10.90
 -2 -6  1 173.68  12.70
 -2 -6  1 192.58  10.50
 -2  6  1 188.38  10.20
  2  6 -1 194.78  10.00
 -2  6  1 181.28  9.90
  2  6 -1 186.38  9.00
  2  6 -1 188.58  11.40
 -2  6  1 166.18  12.60
 -2  6  1 190.88  9.30
  2  6 -1 196.78  10.50
 -2  6  1 199.28  10.50
  2  6 -1 232.48  12.20
  1 -6 -1  52.79  4.50
 -1 -6  1  57.29  5.00
 -1 -6  1  54.39  4.50
  1 -6 -1  46.20  4.40
 -1 -6  1  52.59  3.60
 -1 -6  1  52.49  4.60
 -1 -6  1  54.59  4.60
  1 -6 -1  52.69  5.20
 -1 -6  1  54.49  3.80
  1 -6 -1  48.90  4.30
  1 -6 -1  48.90  4.40
 -1  6  1  52.69  4.50
 -1  6  1  51.59  5.30
  1  6 -1  55.59  4.40
  1  6 -1  53.49  5.40
 -1  6  1  56.99  4.70
 -1  6  1  56.99  4.10
  1  6 -1  54.89  4.70
  1  6 -1  50.59  4.80
  1  6 -1  50.89  4.20
 -1  6  1  54.29  4.60
  0 -6 -1 345.47  16.00
  0 -6 -1 379.86  16.30
  0 -6 -1 338.67  15.50
  0 -6 -1 354.26  15.00
  0 -6 -1 348.77  15.60
  0 -6  1 360.46  15.60
  0 -6  1 357.86  14.40
  0 -6  1 342.07  15.10
  0 -6  1 357.66  16.30
  0 -6 -1 360.06  16.30
  0 -6  1 359.96  16.20
  0 -6  1 336.67  15.50
  0 -6  1 345.37  15.20
  0 -6 -1 337.17  15.30
  0  6  1 355.76  15.70
  0  6 -1 347.17  15.50
  0  6 -1 375.26  16.50
  0  6 -1 373.26  16.40
  0  6  1 334.07  15.50
  0  6 -1 341.27  15.20
  0  6 -1 343.57  16.10
  0  6  1 344.47  15.50
  0  6  1 350.26  16.10
  0  6  1 341.47  15.50
 -1 -6 -1 317.67  15.30
  1 -6  1 321.57  15.00
 -1 -6 -1 345.27  15.20
 -1 -6 -1 346.17  15.30
  1 -6  1 328.47  14.40
 -1 -6 -1 325.77  14.90
 -1 -6 -1 328.47  14.40
  1 -6  1 327.97  15.70
  1 -6  1 322.97  14.90
  1  6  1 332.27  14.40
  1  6  1 328.57  14.90
  1  6  1 332.67  15.00
 -1  6 -1 338.77  15.40
 -1  6 -1 336.87  14.60
  1  6  1 367.66  17.40
  1  6  1 319.97  15.10
 -1  6 -1 319.57  15.00
 -1  6 -1 325.77  15.70
 -1  6 -1 335.57  15.10
 -1  6 -1 343.57  15.30
  2 -6  1 486.85  21.40
 -2 -6 -1 500.05  21.00
  2 -6  1 488.25  20.60
  2 -6  1 473.05  20.60
  2 -6  1 532.25  22.30
  2 -6  1 478.55  21.70
 -2 -6 -1 485.45  21.90
  2 -6  1 523.15  23.10
 -2 -6 -1 473.05  21.30
 -2 -6 -1 503.45  21.70
 -2  6 -1 519.95  21.70
  2  6  1 483.15  21.40
  2  6  1 487.85  20.70
 -2  6 -1 519.15  21.70
 -2  6 -1 465.55  21.60
  2  6  1 497.85  22.90
  2  6  1 468.55  21.70
  2  6  1 467.25  21.10
  2  6  1 518.75  22.00
 -2  6 -1 472.35  19.70
 -3 -6 -1 543.65  24.80
 -3 -6 -1 538.25  23.30
  3 -6  1 561.54  24.70
 -3 -6 -1 575.64  24.50
  3 -6  1 555.54  22.80
  3 -6  1 493.15  22.90
  3 -6  1 521.95  24.70
 -3 -6 -1 466.75  23.60
 -3 -6 -1 552.64  23.50
  3 -6  1 572.54  24.20
  3  6  1 597.94  25.10
 -3  6 -1 526.25  28.50
  3  6  1 546.05  26.00
 -3  6 -1 584.34  24.50
  3  6  1 507.55  22.90
 -3  6 -1 557.84  24.30
  3  6  1 439.56  24.70
 -4 -6 -1 112.99  9.70
 -4 -6 -1 109.99  8.00
 -4 -6 -1 121.09  11.40
  4 -6  1  96.29  8.10
  4 -6  1 105.99  10.50
  4  6  1 117.29  11.20
 -4  6 -1 119.29  10.60
 -4  6 -1 113.29  10.10
 -5 -6 -1  21.00  6.00
  5 -6  1  16.30  6.20
  5 -6  1  7.60  6.00
 -5 -6 -1  7.60  7.30
 -5  6 -1  15.10  6.80
 -5  6 -1  5.20  6.70
  5  6  1  21.40  7.80
  5  6  1  13.00  6.50
 -5 -7  1  24.40  7.90
  5 -7 -1  20.20  6.50
 -5 -7  1  23.50  6.10
  5 -7 -1  17.80  6.50
  5 -7 -1  23.40  8.10
  5  7 -1  37.80  8.90
 -5  7  1  27.70  8.30
 -5  7  1  12.80  6.90
  5  7 -1  28.70  7.60
  5  7 -1  21.80  7.60
 -4 -7  1  28.20  5.10
  4 -7 -1  36.10  6.50
 -4 -7  1  30.70  6.60
  4 -7 -1  31.80  6.90
  4 -7 -1  32.30  5.70
 -4  7  1  37.90  6.60
  4  7 -1  30.50  6.50
 -4  7  1  29.30  6.00
  4  7 -1  26.10  6.50
 -3 -7  1  61.49  5.10
  3 -7 -1  54.99  6.70
  3 -7 -1  66.69  8.00
  3 -7 -1  57.09  6.50
 -3 -7  1  64.29  5.50
  3 -7 -1  52.19  6.60
 -3 -7  1  59.79  7.20
 -3  7  1  66.49  7.20
 -3  7  1  65.79  6.90
 -3  7  1  59.99  5.20
  3  7 -1  54.29  8.00
  3  7 -1  65.69  5.30
  3  7 -1  61.19  7.40
  3  7 -1  66.69  6.20
  2 -7 -1 560.04  23.00
 -2 -7  1 506.05  22.90
  2 -7 -1 498.85  23.10
 -2 -7  1 511.15  24.20
 -2 -7  1 550.64  23.70
  2 -7 -1 552.14  23.30
 -2 -7  1 567.64  23.70
  2 -7 -1 500.95  23.20
  2 -7 -1 562.04  24.30
  2  7 -1 521.35  21.80
 -2  7  1 553.04  23.40
  2  7 -1 569.04  25.20
 -2  7  1 536.75  22.30
  2  7 -1 518.85  23.50
  2  7 -1 525.05  23.00
  2  7 -1 565.44  23.90
 -2  7  1 516.45  24.50
  2  7 -1 492.65  22.70
 -2  7  1 497.85  23.20
  1 -7 -1 1429.26  59.09
  1 -7 -1 1579.24  59.49
 -1 -7  1 1533.35  59.09
 -1 -7  1 1463.75  58.19
  1 -7 -1 1537.95  58.99
 -1 -7  1 1611.14  59.59
 -1 -7  1 1493.05  59.19
 -1 -7  1 1451.45  59.99
 -1 -7  1 1550.94  57.99
  1 -7 -1 1574.74  59.99
  1 -7 -1 1386.06  59.09
 -1  7  1 1568.04  58.99
 -1  7  1 1438.06  59.19
  1  7 -1 1612.04  60.89
  1  7 -1 1490.75  59.79
 -1  7  1 1532.05  60.39
 -1  7  1 1553.14  59.49
  1  7 -1 1536.65  59.49
  1  7 -1 1463.05  58.89
  1  7 -1 1509.85  59.19
 -1  7  1 1451.35  59.09
  0 -7  1 643.24  27.40
  0 -7  1 604.84  26.00
  0 -7  1 622.04  26.50
  0 -7 -1 649.74  27.20
  0 -7  1 640.94  27.20
  0 -7 -1 662.93  26.80
  0 -7  1 644.64  25.20
  0 -7  1 632.44  26.10
  0 -7 -1 616.34  26.50
  0 -7 -1 600.64  26.50
  0 -7  1 657.93  26.70
  0 -7 -1 601.84  26.20
  0 -7 -1 664.03  26.60
  0  7  1 621.04  26.50
  0  7  1 630.44  27.10
  0  7 -1 577.14  26.90
  0  7  1 644.04  26.80
  0  7  1 634.94  26.50
  0  7 -1 684.43  27.70
  0  7 -1 619.84  26.10
  0  7  1 648.44  26.80
  0  7 -1 622.74  26.50
  0  7 -1 682.23  27.00
 -1 -7 -1 586.14  27.30
  1 -7  1 631.14  27.30
  1 -7  1 657.23  28.00
  1 -7  1 659.83  27.30
 -1 -7 -1 691.43  27.40
  1 -7  1 654.73  26.60
  1 -7  1 621.14  27.00
 -1 -7 -1 640.24  26.40
 -1 -7 -1 602.64  26.90
 -1 -7 -1 656.03  27.50
 -1  7 -1 644.04  26.60
  1  7  1 637.74  27.30
 -1  7 -1 690.53  27.40
  1  7  1 678.83  27.70
  1  7  1 625.74  27.00
  1  7  1 653.93  26.40
  1  7  1 702.83  28.40
 -1  7 -1 649.04  27.40
 -1  7 -1 602.04  27.10
 -1  7 -1 659.93  28.80
 -2 -7 -1 938.61  37.40
  2 -7  1 877.91  35.60
 -2 -7 -1 919.61  36.10
 -2 -7 -1 823.42  37.20
  2 -7  1 928.01  35.70
  2 -7  1 951.40  37.60
  2 -7  1 875.91  36.80
  2 -7  1 922.51  36.70
 -2 -7 -1 818.22  36.30
  2 -7  1 838.82  36.80
 -2 -7 -1 943.71  37.00
 -2  7 -1 940.11  37.00
 -2  7 -1 846.72  34.80
 -2  7 -1 862.71  35.90
  2  7  1 891.01  36.60
  2  7  1 857.31  36.40
 -2  7 -1 855.51  37.60
  2  7  1 847.62  36.30
 -2  7 -1 838.22  36.70
 -2  7 -1 972.70  37.10
 -2  7 -1 920.11  36.80
  2  7  1 797.62  38.40
  2  7  1 929.31  38.40
  2  7  1 962.10  37.40
 -3 -7 -1  40.80  5.40
 -3 -7 -1  49.80  6.80
  3 -7  1  47.50  6.70
  3 -7  1  38.30  5.00
  3 -7  1  50.89  6.50
 -3 -7 -1  47.00  6.70
  3 -7  1  45.40  5.40
 -3 -7 -1  42.50  5.40
  3  7  1  57.19  7.50
  3  7  1  50.59  5.30
 -3  7 -1  36.70  5.70
  3  7  1  35.20  6.40
 -3  7 -1  50.89  6.60
 -4 -7 -1  92.59  10.40
  4 -7  1  71.89  9.00
  4 -7  1  81.49  9.80
 -4 -7 -1  85.19  8.20
  4 -7  1  90.59  7.90
  4  7  1  94.99  10.80
 -4  7 -1  95.79  10.00
 -4  7 -1  86.09  9.80
  4  7  1  94.19  10.80
  5 -7  1  1.60  6.30
 -5 -7 -1  14.20  8.30
 -5 -7 -1  -0.50  5.10
  5 -7  1  -9.10  5.80
  5  7  1  14.10  8.30
 -5  7 -1  -9.10  6.70
  5  7  1  -1.80  5.40
 -5  7 -1  -1.40  6.80
 -5 -8  1  14.90  8.40
  5 -8 -1  -0.30  6.90
  5 -8 -1  -0.80  6.20
 -5 -8  1  2.50  5.10
  5 -8 -1  18.80  7.00
  5  8 -1  9.60  7.70
  5  8 -1  24.60  8.70
  5  8 -1  2.20  6.60
 -5  8  1  5.40  6.60
 -5  8  1  12.70  7.60
 -4 -8  1  25.70  9.60
  4 -8 -1  8.80  6.00
 -4 -8  1  14.70  4.30
  4 -8 -1  17.70  5.80
 -4  8  1  24.30  6.70
  4  8 -1  12.50  7.00
  4  8 -1  19.70  6.40
 -3 -8  1  37.70  4.80
  3 -8 -1  38.10  5.50
  3 -8 -1  40.50  8.20
  3 -8 -1  41.00  6.60
 -3 -8  1  46.60  8.40
 -3 -8  1  45.30  6.70
 -3  8  1  41.40  7.70
  3  8 -1  41.70  6.80
 -3  8  1  44.30  6.40
  3  8 -1  41.30  8.00
  3  8 -1  39.70  6.10
  2 -8 -1 123.89  8.30
 -2 -8  1 106.49  8.40
 -2 -8  1 103.49  6.40
 -2 -8  1 114.19  8.40
 -2 -8  1  95.19  6.10
  2 -8 -1 101.59  7.80
  2 -8 -1 107.69  9.40
  2 -8 -1  83.09  7.50
  2  8 -1 100.19  7.50
  2  8 -1 100.99  9.40
  2  8 -1 103.89  8.70
 -2  8  1  95.69  7.50
  2  8 -1 108.59  8.60
 -2  8  1  97.99  8.00
 -2  8  1 109.39  7.10
  2  8 -1  93.59  6.20
  1 -8 -1 100.79  7.20
  1 -8 -1  95.79  8.30
 -1 -8  1 107.49  7.70
  1 -8 -1 100.19  7.20
 -1 -8  1  98.29  7.10
 -1 -8  1 106.49  8.10
  1 -8 -1 112.69  7.70
 -1 -8  1 107.29  7.40
 -1 -8  1 108.59  6.10
 -1 -8  1 111.29  6.50
  1 -8 -1 110.59  7.60
 -1  8  1 120.49  7.90
 -1  8  1 102.09  7.60
  1  8 -1 109.79  8.20
  1  8 -1 102.59  7.20
 -1  8  1 105.29  7.50
 -1  8  1 110.89  7.20
  1  8 -1 108.19  7.90
 -1  8  1  85.89  8.20
  1  8 -1 122.59  7.80
  1  8 -1 109.09  8.50
  0 -8 -1  15.40  3.40
  0 -8  1  23.60  3.90
  0 -8 -1  21.80  3.20
  0 -8  1  23.40  4.20
  0 -8  1  21.50  3.90
  0 -8 -1  15.00  3.40
  0 -8 -1  22.70  4.10
  0 -8  1  21.80  3.70
  0 -8 -1  22.00  4.60
  0 -8  1  15.60  3.50
  0 -8  1  20.10  2.70
  0 -8  1  20.90  4.70
  0 -8 -1  12.70  3.00
  0  8 -1  19.80  3.70
  0  8  1  21.10  4.50
  0  8 -1  21.10  4.30
  0  8  1  13.20  3.00
  0  8 -1  19.70  3.90
  0  8  1  14.10  3.30
  0  8 -1  16.00  3.50
  0  8  1  27.00  4.00
  0  8  1  15.60  3.80
  0  8 -1  12.70  3.40
 -1 -8 -1 359.06  16.70
 -1 -8 -1 322.37  17.00
  1 -8  1 348.07  17.20
  1 -8  1 339.07  15.50
 -1 -8 -1 354.06  16.30
 -1 -8 -1 308.87  16.40
  1 -8  1 320.97  16.20
  1 -8  1 311.27  15.80
 -1 -8 -1 348.07  15.30
  1 -8  1 354.16  16.30
  1  8  1 339.37  16.00
  1  8  1 353.16  17.30
 -1  8 -1 322.77  16.90
 -1  8 -1 367.76  16.70
 -1  8 -1 351.56  16.80
 -1  8 -1 331.37  15.60
  1  8  1 351.16  16.70
  1  8  1 325.27  16.00
 -1  8 -1 300.27  16.00
  2 -8  1  26.30  4.60
 -2 -8 -1  23.90  4.40
  2 -8  1  26.30  5.40
 -2 -8 -1  37.10  5.60
  2 -8  1  28.70  4.20
 -2 -8 -1  34.40  4.40
 -2 -8 -1  29.50  5.40
 -2  8 -1  37.20  5.30
 -2  8 -1  31.30  4.80
 -2  8 -1  33.00  5.10
  2  8  1  31.20  4.10
  2  8  1  35.70  6.10
  2  8  1  37.20  6.10
  2  8  1  32.30  4.90
 -2  8 -1  20.70  4.70
  3 -8  1 125.89  8.40
 -3 -8 -1 119.69  10.60
  3 -8  1 126.09  9.70
 -3 -8 -1 117.89  8.60
  3 -8  1 129.89  12.30
 -3 -8 -1 117.29  8.60
  3  8  1 114.19  10.50
 -3  8 -1 120.49  10.20
 -3  8 -1 124.49  11.30
  3  8  1 153.98  17.80
 -3  8 -1 123.69  9.50
 -4 -8 -1  70.69  8.30
  4 -8  1  77.39  10.00
 -4 -8 -1  81.99  10.90
  4 -8  1  90.69  9.70
 -4  8 -1  85.29  10.10
  4  8  1  83.79  10.90
 -4  8 -1  81.49  10.00
  4  8  1  49.90  9.10
  5 -8  1  14.70  7.20
 -5 -8 -1  12.60  6.40
  5 -8  1  14.50  7.40
 -5 -8 -1  1.70  8.50
  5  8  1  14.60  9.10
 -5  8 -1  5.30  11.00
 -5  8 -1  13.60  7.70
  5 -9 -1  -0.20  7.00
 -5 -9  1  18.20  11.20
  5 -9 -1  8.50  9.00
 -5  9  1  17.80  9.60
  5  9 -1  0.20  7.80
  5  9 -1  20.50  10.20
 -5  9  1  5.20  7.90
  4 -9 -1  39.10  6.90
 -4 -9  1  30.90  8.10
 -4 -9  1  24.00  6.20
  4 -9 -1  34.00  8.20
  4 -9 -1  21.80  6.70
  4  9 -1  28.60  8.10
 -4  9  1  38.20  8.50
 -4  9  1  36.00  6.90
  4  9 -1  37.70  9.10
  3 -9 -1  9.80  5.50
  3 -9 -1  18.20  5.10
  3 -9 -1  18.80  4.90
 -3 -9  1  13.70  5.50
 -3 -9  1  15.00  5.30
 -3 -9  1  8.50  3.30
 -3  9  1  19.20  5.60
  3  9 -1  4.70  5.20
  3  9 -1  20.70  6.10
 -2 -9  1 178.68  9.70
 -2 -9  1 185.68  11.80
 -2 -9  1 184.08  11.80
  2 -9 -1 186.18  12.40
  2 -9 -1 189.58  11.70
  2 -9 -1 187.88  11.30
 -2  9  1 186.88  11.90
  2  9 -1 157.98  12.60
  2  9 -1 192.28  12.30
  1 -9 -1 412.16  19.10
 -1 -9  1 400.06  17.30
 -1 -9  1 412.66  19.30
  1 -9 -1 408.36  18.80
 -1 -9  1 406.46  18.90
  1 -9 -1 372.86  18.80
  1 -9 -1 411.26  17.90
 -1 -9  1 350.86  17.40
 -1 -9  1 357.06  22.00
  1 -9 -1 397.66  20.10
 -1  9  1 406.16  18.70
 -1  9  1 425.96  19.30
  1  9 -1 393.06  18.80
  1  9 -1 419.46  20.70
  1  9 -1 426.56  19.70
  0 -9 -1  49.80  6.10
  0 -9 -1  46.60  5.30
  0 -9  1  47.30  5.00
  0 -9  1  58.19  6.00
  0 -9 -1  53.09  6.30
  0 -9 -1  52.39  7.10
  0 -9  1  49.40  5.50
  0 -9 -1  37.90  5.20
  0 -9 -1  53.69  4.90
  0 -9 -1  45.20  5.40
  0 -9  1  47.30  6.00
  0  9  1  46.90  7.90
  0  9 -1  46.70  5.40
  0  9  1  55.79  6.10
  0  9 -1  52.49  6.60
  0  9 -1  54.29  6.20
  0  9  1  52.49  6.00
  0  9 -1  49.60  5.60
 -1 -9 -1  54.99  5.80
 -1 -9 -1  62.09  5.50
 -1 -9 -1  62.19  6.60
 -1 -9 -1  51.19  5.20
  1 -9  1  60.69  6.00
 -1 -9 -1  51.29  6.10
  1 -9  1  53.39  7.40
 -1 -9 -1  46.60  6.30
  1 -9  1  56.49  6.40
 -1  9 -1  57.99  5.70
 -1  9 -1  57.89  6.60
 -1  9 -1  63.69  7.00
  1  9  1  55.19  6.50
  1  9  1  48.80  6.60
  1  9  1  46.70  6.20
 -1  9 -1  72.59  10.30
  2 -9  1 321.57  17.30
 -2 -9 -1 313.97  16.10
 -2 -9 -1 319.47  16.80
 -2 -9 -1 304.07  15.00
  2 -9  1 317.97  16.20
  2 -9  1 302.07  15.00
 -2  9 -1 326.07  16.60
  2  9  1 315.77  17.00
  2  9  1 320.57  17.80
 -2  9 -1 320.87  16.60
 -2  9 -1 282.37  15.80
 -2  9 -1 268.87  15.00
 -3 -9 -1  58.49  7.90
 -3 -9 -1  55.39  7.00
  3 -9  1  55.09  7.50
  3 -9  1  60.29  8.00
 -3 -9 -1  58.49  8.50
 -3 -9 -1  38.30  5.50
  3 -9  1  48.70  6.40
  3  9  1  60.79  8.70
 -3  9 -1  48.80  7.20
 -3  9 -1  50.59  7.30
 -3  9 -1  49.99  7.10
  3  9  1  41.80  8.00
  4 -9  1  43.80  8.10
 -4 -9 -1  28.40  8.90
 -4 -9 -1  32.70  6.20
  4 -9  1  33.30  7.20
  4  9  1  47.70  9.80
 -4  9 -1  27.50  7.70
 -4  9 -1  53.89  8.80
  4  9  1  25.40  8.20
  5 -9  1  3.50  7.30
 -5 -9 -1  19.10  7.70
  5 -9  1  16.70  9.70
 -5 -9 -1  6.00  16.80
  5  9  1  40.30  11.00
  5  9  1  3.40  7.80
 -5  9 -1  24.30  9.30
 -4 -10  1  6.90  7.80
  4 -10 -1  16.60  7.00
  4 -10 -1  1.60  7.20
  4 -10 -1  14.70  6.30
  4 10 -1  5.90  6.80
  4 10 -1  -1.20  8.00
 -4 10  1  13.10  7.20
  3 -10 -1  41.50  7.20
  3 -10 -1  50.59  7.10
  3 -10 -1  58.79  8.60
 -3 -10  1  61.29  8.80
 -3 -10  1  50.89  8.40
  3 10 -1  32.90  7.20
 -3 10  1  53.49  8.00
  3 10 -1  47.30  7.80
 -2 -10  1 123.49  8.00
  2 -10 -1 127.49  11.30
  2 -10 -1 148.19  10.40
  2 -10 -1 134.09  10.00
 -2 -10  1 143.69  10.70
 -2 -10  1 129.39  10.80
  2 10 -1 144.09  14.70
  2 10 -1 129.09  10.80
 -2 10  1 136.99  10.60
 -1 -10  1 105.29  9.20
 -1 -10  1 100.59  8.40
 -1 -10  1  85.79  6.30
  1 -10 -1  95.99  6.90
  1 -10 -1  93.89  8.50
  1 -10 -1 101.19  8.50
  1 -10 -1 110.39  9.80
  1 10 -1  95.59  8.90
 -1 10  1  90.99  8.60
 -1 10  1  91.79  7.70
  1 10 -1 100.59  9.90
  0 -10 -1 262.07  15.30
  0 -10 -1 298.17  14.40
  0 -10 -1 331.87  16.50
  0 -10 -1 298.47  15.90
  0 -10  1 301.07  16.00
  0 -10  1 312.67  15.50
  0 -10 -1 298.27  17.10
  0 -10  1 303.77  13.70
  0 10 -1 320.37  16.50
  0 10  1 320.67  16.40
  0 10  1 299.67  16.10
  0 10 -1 309.67  17.00
  1 -10  1  13.40  2.90
  1 -10  1  11.90  3.70
 -1 -10 -1  10.30  3.30
 -1 -10 -1  9.30  4.10
  1 -10  1  12.20  8.20
  1 -10  1  16.90  4.70
 -1 -10 -1  12.80  4.80
 -1 10 -1  16.00  4.90
 -1 10 -1  9.80  3.80
  1 10  1  13.30  4.90
  1 10  1  17.30  4.40
  2 -10  1  13.50  5.20
 -2 -10 -1  8.40  4.70
  2 -10  1  14.70  4.20
 -2 -10 -1  14.40  3.70
 -2 -10 -1  12.40  4.80
  2 10  1  12.90  5.10
 -2 10 -1  11.80  4.30
 -2 10 -1  16.30  5.20
  3 -10  1  51.29  7.30
 -3 -10 -1  59.99  8.90
  3 -10  1  60.69  9.60
 -3 -10 -1  68.09  9.60
 -3 -10 -1  51.79  6.90
  3 -10  1  49.50  6.40
 -3 10 -1  43.70  7.20
  3 10  1  56.89  8.80
 -3 10 -1  45.70  7.60
  3 10  1  43.00  8.20
 -4 -10 -1  1.40  5.00
  4 -10  1  1.70  6.80
  4 -10  1  7.60  7.20
 -4 -10 -1  13.00  8.30
 -4 10 -1  3.60  6.80
 -4 10 -1  1.70  6.80
  4 10  1  -1.30  6.10
  4 10  1  1.80  8.10
  4 -11 -1  3.90  7.60
  4 -11 -1  14.90  8.70
 -4 -11  1  15.90  9.10
  4 11 -1  -5.70  7.50
 -4 11  1  11.20  7.90
  4 11 -1  -1.90  9.00
  3 -11 -1  -2.30  5.70
 -3 -11  1  11.10  6.50
 -3 -11  1  0.10  5.70
  3 -11 -1  4.70  6.10
  3 -11 -1  7.20  5.10
 -3 11  1  8.40  6.10
  3 11 -1  9.70  6.40
  3 11 -1  -0.50  7.00
  2 -11 -1  33.80  7.00
 -2 -11  1  42.50  8.00
  2 -11 -1  33.80  6.40
 -2 -11  1  43.20  7.20
  2 -11 -1  25.90  6.60
  2 11 -1  37.80  7.80
 -2 11  1  36.30  6.40
  2 11 -1  39.30  7.50
  1 -11 -1  7.30  4.00
  1 -11 -1  7.20  4.50
 -1 -11  1  -4.20  3.40
 -1 -11  1  -4.40  7.50
  1 -11 -1  -4.00  4.40
  1 -11 -1  -0.30  2.80
  1 11 -1  3.90  4.60
  1 11 -1  5.90  6.10
 -1 11  1  -4.00  4.00
  0 -11  1  8.00  4.80
  0 -11 -1  16.70  4.80
  0 -11 -1  5.70  3.10
  0 -11  1  7.30  3.90
  0 -11 -1  10.90  4.60
  0 11  1  8.00  3.70
  0 11 -1  15.90  4.80
  0 11 -1  3.80  4.00
  0 11  1  13.30  5.10
 -1 -11 -1  3.00  4.30
  1 -11  1  2.20  4.60
  1 -11  1  2.20  3.40
 -1 -11 -1  -1.20  4.70
 -1 -11 -1  3.90  3.30
  1 -11  1  1.60  4.30
  1 11  1  2.30  4.80
 -1 11 -1  1.60  3.40
 -1 11 -1  3.00  4.50
  1 11  1  2.60  3.80
  2 -11  1  40.10  6.90
 -2 -11 -1  45.50  7.40
 -2 -11 -1  45.00  6.20
  2 -11  1  46.10  8.10
 -2 -11 -1  39.30  7.30
  2 -11  1  46.70  6.30
  2 11  1  30.60  7.00
  2 11  1  42.20  8.30
 -2 11 -1  46.10  7.60
 -3 -11 -1  22.90  7.50
  3 -11  1  11.10  7.00
  3 -11  1  16.10  6.50
 -3 -11 -1  10.10  7.30
 -3 -11 -1  12.60  4.90
  3 11  1  3.40  5.80
  3 11  1  11.30  7.10
 -3 11 -1  22.60  7.30
  4 -11  1  32.40  13.60
  4 -11  1  24.30  9.50
  4 11  1  19.70  8.70
 -4 11 -1  19.60  15.70
  4 11  1  27.30  14.00
 -4 11 -1  38.30  10.30
  3 -12 -1  38.10  16.80
 -3 -12  1  24.20  8.30
  3 -12 -1  21.90  7.50
 -3 -12  1  12.00  8.70
  3 -12 -1  13.40  6.40
 -3 12  1  19.20  7.30
  3 12 -1  8.90  7.10
  3 12 -1  17.50  9.00
  2 -12 -1  38.70  8.60
 -2 -12  1  26.40  7.50
  2 -12 -1  38.20  7.80
  2 -12 -1  28.80  5.80
  2 -12 -1  32.20  6.50
 -2 -12  1  28.90  6.60
 -2 12  1  48.40  8.10
  2 12 -1  31.10  7.90
  2 12 -1  45.70  9.40
  1 -12 -1  27.70  5.00
 -1 -12  1  28.40  6.60
  1 -12 -1  37.50  8.10
 -1 -12  1  24.70  6.20
  1 -12 -1  32.40  6.90
  1 -12 -1  33.40  6.90
  1 12 -1  34.20  7.50
 -1 12  1  35.60  7.00
  1 12 -1  26.40  6.90
  0 -12 -1 146.29  11.40
  0 -12 -1 130.49  9.20
  0 -12  1 147.49  12.10
  0 -12 -1 127.39  11.80
  0 -12  1 148.99  10.90
  0 12 -1 145.39  14.60
  0 12  1 128.39  12.90
  0 12  1 144.19  12.00
  0 12 -1 159.28  11.90
 -1 -12 -1  68.09  9.70
  1 -12  1  53.79  7.10
 -1 -12 -1  40.00  5.90
  1 -12  1  39.80  7.70
  1 -12  1  62.49  8.70
 -1 -12 -1  48.90  7.60
  1 12  1  56.79  9.00
  1 12  1  42.00  7.50
 -1 12 -1  48.10  7.70
 -1 12 -1  64.59  8.90
  2 -12  1  38.70  6.50
  2 -12  1  57.59  9.20
  2 -12  1  50.69  8.90
 -2 -12 -1  33.50  7.50
 -2 -12 -1  48.50  8.90
  2 12  1  42.30  8.70
  2 12  1  34.30  7.80
 -2 12 -1  32.50  8.50
 -3 -12 -1  25.30  9.70
 -3 -12 -1  58.19  15.10
  3 -12  1  42.00  9.40
  3 12  1  36.70  9.60
 -3 12 -1  25.20  8.20
  3 12  1  31.60  9.70
  2 -13 -1  22.20  12.40
 -2 -13  1  11.30  6.40
 -2 -13  1  17.30  8.00
  2 -13 -1  10.90  6.00
  2 -13 -1  22.20  7.40
 -2 13  1  7.60  7.20
  2 13 -1  -7.00  7.20
  2 13 -1  2.40  5.90
 -1 -13  1  39.90  8.40
 -1 -13  1  17.70  6.60
  1 -13 -1  13.40  7.00
  1 -13 -1  23.20  6.70
  1 -13 -1  18.30  7.80
 -1 13  1  22.60  6.60
  1 13 -1  9.10  5.80
  1 13 -1  27.10  7.80
  0 -13  1  48.40  7.40
  0 -13 -1  48.40  8.10
  0 -13  1  44.90  8.90
  0 -13 -1  42.40  7.60
  0 13 -1  27.20  7.30
  0 13  1  51.99  8.80
  0 13 -1  43.60  8.00
  1 -13  1  31.70  7.70
 -1 -13 -1  29.40  7.40
  1 -13  1  17.40  5.90
 -1 -13 -1  22.30  7.70
  1 13  1  16.40  6.90
  1 13  1  18.80  7.90
 -1 13 -1  27.00  7.20
  2 -13  1  12.10  6.50
 -2 -13 -1  7.70  8.60
  2 -13  1  24.90  12.50
  2 13  1  7.10  6.30
  2 13  1  5.80  7.90
 -2 13 -1  14.00  7.40
  1 -14 -1  26.40  9.10
 -1 -14  1  11.40  9.50
 -1 -14  1  18.50  8.30
  1 -14 -1  34.60  9.00
  1 -14 -1  21.10  7.80
  1 14 -1  18.00  9.20
 -1 14  1  16.40  7.60
  1 14 -1  3.90  6.70
  0 -14  1  6.00  7.40
  0 -14  1  12.20  6.00
  0 -14 -1  6.10  8.00
  0 14 -1  8.70  13.30
  0 14  1  6.70  7.70
 -1 -14 -1  0.10  7.10
  1 -14  1  -0.70  7.40
 -1 -14 -1  12.80  8.50
  1 14  1 -10.00  10.40
 -1 14 -1  8.30  8.10
  6  0 -2  42.50  10.10
 -5  0  2 161.28  10.00
  5  0 -2 172.78  11.80
 -5  0  2 166.98  12.30
  5  0 -2 187.38  15.00
 -4  0  2  -2.00  2.30
  4  0 -2  1.60  3.20
  4  0 -2  -2.20  2.20
  4  0 -2  2.40  2.80
  4  0 -2  1.30  2.80
  4  0 -2  -5.00  2.80
 -4  0  2  -4.50  3.20
  4  0 -2  -1.70  2.70
  3  0 -2 2474.15  92.19
  3  0 -2 2322.27  91.89
  3  0 -2 2322.37  91.39
  3  0 -2 2430.76  91.29
  3  0 -2 2504.85  91.99
  3  0 -2 2465.75  93.29
 -3  0  2 2257.97  91.69
 -3  0  2 2479.25  90.89
 -3  0  2 2409.56  91.99
 -3  0  2 2355.76  91.89
  2  0 -2 3560.44 132.29
  2  0 -2 3643.14 132.19
  2  0 -2 3381.96 131.99
 -2  0  2 3334.27 131.99
 -2  0  2 3452.45 132.19
 -2  0  2 3584.24 131.59
  2  0 -2 3488.95 131.49
 -2  0  2 3547.25 132.29
  2  0 -2 3574.04 133.39
  2  0 -2 3606.74 132.39
  1  0 -2 827.92  33.20
  1  0 -2 852.91  32.30
 -1  0  2 879.21  32.50
  1  0 -2 842.12  32.30
 -1  0  2 838.82  32.30
  1  0 -2 836.82  32.20
  1  0 -2 864.31  32.60
 -1  0  2 873.31  32.70
  1  0 -2 851.21  32.40
  1  0 -2 855.41  32.30
 -1  0 -2 9923.01 370.76
 -1  0 -2 9999.00 370.16
 -2  0 -2 217.78  10.40
  2  0  2 220.48  9.60
 -2  0 -2 215.68  10.40
 -2  0 -2 226.48  10.60
  2  0  2 209.38  9.40
  2  0  2 219.78  10.40
 -2  0 -2 212.08  9.70
 -2  0 -2 211.68  9.90
  2  0  2 231.38  9.80
  2  0  2 211.68  9.70
  2  0  2 215.98  9.90
  2  0  2 213.38  10.30
  2  0  2 236.38  10.50
 -2  0 -2 210.58  9.70
 -2  0 -2 213.18  11.00
  3  0  2 827.72  35.30
 -3  0 -2 894.71  35.10
  3  0  2 878.81  34.10
 -3  0 -2 901.91  34.90
 -3  0 -2 816.32  35.10
  3  0  2 902.91  35.50
  3  0  2 874.81  34.60
 -3  0 -2 834.92  33.80
 -3  0 -2 847.72  36.10
 -3  0 -2 906.61  35.80
  3  0  2 827.72  34.00
  3  0  2 827.02  35.00
  4  0  2  54.19  5.70
 -4  0 -2  42.60  5.70
  4  0  2  51.79  5.60
  4  0  2  58.49  7.50
 -4  0 -2  51.89  7.60
  4  0  2  46.70  4.80
  4  0  2  43.50  5.80
 -4  0 -2  50.29  6.70
 -4  0 -2  47.70  6.20
 -5  0 -2  13.80  6.10
  5  0  2  26.20  6.60
  5  0  2  22.30  5.40
 -5  0 -2  24.10  5.20
 -6  0 -2  35.30  10.00
 -6  0 -2  33.00  8.20
 -6  0 -2  35.10  10.40
  6 -1 -2  27.00  8.50
  6 -1 -2  27.20  7.70
  6  1 -2  37.80  9.00
  6  1 -2  41.20  8.80
 -5 -1  2  92.99  9.90
  5 -1 -2 102.99  9.40
 -5  1  2  98.89  8.20
 -5  1  2 103.69  9.70
  5  1 -2  92.39  10.00
  5  1 -2  99.29  11.70
  5  1 -2 105.29  10.10
 -4 -1  2  45.70  6.10
 -4 -1  2  44.30  4.10
  4 -1 -2  39.60  5.40
  4 -1 -2  51.29  7.10
  4 -1 -2  32.00  4.60
 -4  1  2  46.20  5.10
  4  1 -2  43.50  6.30
  4  1 -2  31.50  4.90
  4  1 -2  46.30  6.80
  4  1 -2  38.80  4.10
 -4  1  2  44.30  6.00
  4  1 -2  44.80  5.80
 -4  1  2  51.29  4.90
  4  1 -2  41.10  4.70
  3 -1 -2  35.70  4.20
  3 -1 -2  34.50  5.30
 -3 -1  2  32.40  4.20
 -3 -1  2  41.40  3.80
  3 -1 -2  35.80  3.60
  3 -1 -2  36.60  4.30
 -3 -1  2  38.90  4.20
 -3 -1  2  36.00  4.30
  3 -1 -2  30.50  3.30
 -3 -1  2  38.30  3.00
  3  1 -2  26.50  3.80
  3  1 -2  38.90  4.60
 -3  1  2  30.70  3.80
  3  1 -2  25.00  3.70
  3  1 -2  31.60  3.10
 -3  1  2  35.60  4.40
 -3  1  2  37.80  4.70
 -3  1  2  34.00  3.40
  3  1 -2  37.20  5.40
  3  1 -2  44.00  3.80
 -3  1  2  36.70  4.30
 -2 -1  2  39.00  3.80
 -2 -1  2  33.30  3.20
  2 -1 -2  42.20  2.10
 -2 -1  2  37.80  2.90
  2 -1 -2  44.00  2.90
  2 -1 -2  42.90  3.10
 -2 -1  2  30.60  3.00
  2 -1 -2  44.50  4.30
  2 -1 -2  48.40  3.40
 -2 -1  2  43.50  2.40
  2 -1 -2  45.70  3.30
 -2  1  2  46.20  3.00
  2  1 -2  43.50  2.20
 -2  1  2  32.60  3.70
  2  1 -2  41.00  3.30
  2  1 -2  42.10  2.40
  2  1 -2  41.60  4.20
  2  1 -2  46.30  3.70
 -2  1  2  37.70  2.90
 -2  1  2  33.80  3.10
 -2  1  2  35.60  2.40
 -2  1  2  41.20  3.20
  2  1 -2  38.70  3.30
  1 -1 -2  11.90  1.10
  1 -1 -2  10.40  1.20
 -1 -1  2  12.10  1.60
 -1 -1  2  11.50  1.20
 -1 -1  2  15.00  1.30
  1 -1 -2  9.00  1.30
  1 -1 -2  12.20  1.00
  1 -1 -2  12.30  1.80
  1 -1 -2  12.40  1.20
 -1  1  2  11.30  1.00
  1  1 -2  12.30  1.20
  1  1 -2  12.50  1.60
  1  1 -2  10.30  1.30
  1  1 -2  9.00  1.10
  1  1 -2  11.70  1.30
 -1  1  2  11.30  1.70
 -1  1  2  11.80  1.40
 -1  1  2  13.30  1.00
  0 -1  2 3034.90 111.59
  0 -1  2 3104.89 111.09
  0 -1 -2 3008.30 111.89
  0 -1  2 3055.39 111.29
  0 -1 -2 2896.21 111.29
  0 -1 -2 2973.60 112.49
  0 -1 -2 2922.71 111.29
  0 -1 -2 2934.21 111.19
  0 -1 -2 2956.70 111.49
  0  1  2 2985.20 111.29
  0  1 -2 2956.50 112.49
  0  1 -2 2994.80 111.09
  0  1  2 2981.60 111.49
  0  1 -2 2958.40 111.59
  0  1 -2 2976.70 111.29
  0  1  2 2987.70 111.39
  0  1 -2 2985.40 111.29
  0  1 -2 3037.00 111.99
  0  1  2 2995.10 111.69
 -1 -1 -2 1697.13  65.29
 -1 -1 -2 1712.43  65.09
  1 -1  2 1732.03  65.09
  1 -1  2 1731.73  64.69
 -1 -1 -2 1733.43  65.69
  1 -1  2 1674.53  65.29
 -1 -1 -2 1699.83  64.89
  1 -1  2 1732.13  64.69
  1 -1  2 1769.12  64.79
 -1 -1 -2 1683.23  64.99
 -1 -1 -2 1703.53  64.59
 -1 -1 -2 1712.53  65.19
 -1  1 -2 1697.03  64.69
  1  1  2 1742.93  64.89
  1  1  2 1707.63  65.29
 -1  1 -2 1784.22  65.09
 -1  1 -2 1701.63  64.79
  1  1  2 1702.23  64.59
  1  1  2 1718.03  65.09
  1  1  2 1773.52  65.19
  1  1  2 1717.03  64.19
 -1  1 -2 1679.13  65.19
 -1  1 -2 1707.43  64.99
 -1  1 -2 1682.93  64.69
  1  1  2 1731.83  65.09
 -2 -1 -2 1325.37  51.49
  2 -1  2 1388.46  51.39
 -2 -1 -2 1407.66  52.59
  2 -1  2 1365.16  51.59
 -2 -1 -2 1345.27  52.29
  2 -1  2 1365.06  52.39
  2 -1  2 1380.86  52.19
  2 -1  2 1358.96  51.69
 -2 -1 -2 1300.57  52.89
 -2 -1 -2 1341.77  51.89
 -2 -1 -2 1323.27  52.19
  2 -1  2 1300.27  52.29
 -2  1 -2 1277.97  51.79
 -2  1 -2 1391.56  52.39
 -2  1 -2 1318.97  52.89
  2  1  2 1405.46  51.69
  2  1  2 1354.96  52.19
 -2  1 -2 1258.97  52.09
  2  1  2 1341.87  51.79
  2  1  2 1249.28  52.19
 -2  1 -2 1298.07  51.59
  2  1  2 1384.96  52.39
 -2  1 -2 1381.16  51.79
  2  1  2 1362.76  51.89
 -2  1 -2 1353.66  52.19
  2  1  2 1396.56  51.49
 -3 -1 -2 217.08  11.80
  3 -1  2 220.78  12.00
  3 -1  2 220.08  11.80
 -3 -1 -2 244.48  11.80
  3 -1  2 228.58  11.30
  3 -1  2 241.58  10.60
 -3 -1 -2 242.78  11.60
 -3 -1 -2 246.28  12.60
  3 -1  2 252.57  12.20
 -3 -1 -2 220.78  10.50
  3 -1  2 221.98  11.20
 -3 -1 -2 229.18  12.70
  3  1  2 245.18  11.40
 -3  1 -2 225.78  11.60
 -3  1 -2 226.08  10.70
 -3  1 -2 231.38  12.80
  3  1  2 243.78  10.60
 -3  1 -2 223.98  12.00
  3  1  2 227.58  10.80
  3  1  2 236.88  12.10
 -3  1 -2 246.58  11.60
  3  1  2 235.68  11.70
 -3  1 -2 246.58  11.90
 -3  1 -2 248.18  12.40
  3  1  2 221.28  11.60
  3  1  2 239.98  12.20
  4 -1  2  52.69  4.60
 -4 -1 -2  51.79  6.10
  4 -1  2  46.50  5.80
 -4 -1 -2  46.50  9.30
 -4 -1 -2  53.29  6.40
 -4 -1 -2  51.39  6.70
  4 -1  2  41.10  4.60
  4 -1  2  61.69  7.10
 -4  1 -2  43.20  6.40
  4  1  2  40.70  5.60
 -4  1 -2  51.49  6.10
  4  1  2  58.79  7.20
 -4  1 -2  46.90  6.00
  4  1  2  47.10  5.90
  4  1  2  45.00  5.00
 -4  1 -2  53.39  6.30
  4  1  2  60.39  5.40
 -5 -1 -2  12.50  6.40
 -5 -1 -2  17.90  5.60
 -5 -1 -2  19.60  5.10
  5 -1  2  11.00  4.60
 -5  1 -2  20.00  5.50
 -5  1 -2  9.00  5.20
  5  1  2  23.00  4.20
  5  1  2  15.40  6.10
 -5  1 -2  18.60  6.60
 -6 -1 -2  3.70  8.50
 -6 -1 -2  -1.70  9.80
  6 -1  2  1.50  6.90
 -6  1 -2  -2.50  7.90
 -6  1 -2  -9.60  6.50
  6  1  2  -8.90  8.00
  6 -2 -2  16.40  6.70
  6 -2 -2  17.10  8.00
  6  2 -2  9.10  7.30
  6  2 -2  18.90  6.90
  6  2 -2  10.10  7.70
  5 -2 -2  2.80  4.70
 -5 -2  2  4.10  5.00
  5 -2 -2  -2.90  5.20
 -5  2  2  6.30  3.90
  5  2 -2  3.00  4.70
  5  2 -2  1.40  4.00
 -5  2  2  -3.70  4.30
  5  2 -2  -5.60  6.30
  4 -2 -2  40.70  5.90
 -4 -2  2  37.20  3.90
  4 -2 -2  41.40  5.20
 -4 -2  2  44.80  5.00
  4 -2 -2  38.20  6.20
 -4 -2  2  33.00  5.50
 -4 -2  2  36.80  5.60
  4 -2 -2  37.80  5.50
  4  2 -2  45.20  6.80
  4  2 -2  44.50  6.40
 -4  2  2  46.10  5.20
  4  2 -2  39.90  5.60
 -4  2  2  37.30  4.70
 -4  2  2  33.70  5.50
  4  2 -2  31.80  4.90
  4  2 -2  39.80  4.00
  4  2 -2  47.20  4.80
 -3 -2  2 415.96  18.70
 -3 -2  2 420.46  17.90
 -3 -2  2 391.16  18.20
  3 -2 -2 406.26  18.50
 -3 -2  2 397.16  18.70
  3 -2 -2 459.25  18.70
  3 -2 -2 445.96  19.80
  3 -2 -2 414.46  17.90
 -3 -2  2 413.56  16.80
  3  2 -2 398.26  17.70
 -3  2  2 392.96  18.30
  3  2 -2 454.05  19.50
 -3  2  2 430.76  18.60
  3  2 -2 408.46  17.00
  3  2 -2 431.26  18.70
  3  2 -2 419.36  19.70
 -3  2  2 431.16  18.50
  3  2 -2 422.46  18.40
 -3  2  2 430.46  18.00
  2 -2 -2 195.08  9.50
 -2 -2  2 215.58  9.10
  2 -2 -2 210.18  9.50
 -2 -2  2 208.28  9.60
 -2 -2  2 214.68  10.20
  2 -2 -2 206.48  9.50
  2 -2 -2 207.58  10.40
 -2 -2  2 197.68  9.30
 -2  2  2 218.58  9.50
  2  2 -2 201.88  9.50
 -2  2  2 206.08  8.80
  2  2 -2 200.48  8.20
 -2  2  2 203.08  9.50
 -2  2  2 217.48  9.50
  2  2 -2 205.18  10.20
  2  2 -2 205.38  10.80
 -2  2  2 193.08  10.30
  2  2 -2 188.88  9.30
 -1 -2  2 2268.97  85.19
  1 -2 -2 2297.07  85.19
  1 -2 -2 2243.38  85.49
 -1 -2  2 2236.58  84.79
  1 -2 -2 2226.98  85.49
  1 -2 -2 2219.58  85.09
 -1 -2  2 2297.47  86.19
  1  2 -2 2285.87  84.69
 -1  2  2 2278.27  85.99
  1  2 -2 2237.08  85.09
 -1  2  2 2305.17  84.79
  1  2 -2 2307.67  86.19
 -1  2  2 2265.27  85.19
  1  2 -2 2259.07  85.39
  1  2 -2 2292.37  85.19
  0 -2 -2 493.85  19.70
  0 -2 -2 503.75  19.60
  0 -2  2 512.35  19.70
  0 -2  2 517.45  19.70
  0 -2 -2 495.25  19.80
  0 -2 -2 475.55  19.80
  0 -2 -2 489.05  19.60
  0 -2 -2 486.05  19.60
  0  2  2 520.45  19.60
  0  2 -2 507.85  19.60
  0  2  2 520.15  19.90
  0  2  2 534.25  20.10
  0  2 -2 503.45  19.60
  0  2 -2 491.05  20.40
  0  2  2 513.05  19.90
  0  2  2 525.15  19.70
  0  2 -2 502.05  19.80
  0  2 -2 509.65  19.70
  0  2  2 515.35  20.20
  0  2  2 530.95  19.90
  0  2 -2 490.65  20.10
  0  2 -2 497.25  19.30
  1 -2  2 785.62  30.40
 -1 -2 -2 792.02  30.50
 -1 -2 -2 800.42  30.20
  1 -2  2 774.32  29.90
  1 -2  2 773.22  30.00
  1 -2  2 752.52  31.00
 -1 -2 -2 815.72  30.40
 -1 -2 -2 781.32  30.90
  1 -2  2 755.62  30.60
  1 -2  2 767.42  30.30
 -1 -2 -2 756.42  30.30
 -1 -2 -2 796.42  30.70
 -1  2 -2 811.82  30.40
 -1  2 -2 774.92  30.30
  1  2  2 721.93  30.10
  1  2  2 767.12  30.80
 -1  2 -2 803.62  29.90
 -1  2 -2 790.32  30.00
  1  2  2 779.42  30.50
 -1  2 -2 807.62  30.60
  1  2  2 756.42  31.00
  1  2  2 780.72  30.60
  1  2  2 774.82  31.00
  2 -2  2  9.30  2.10
  2 -2  2  9.10  1.70
  2 -2  2  8.80  2.50
  2 -2  2  9.20  2.40
 -2 -2 -2  6.20  2.20
 -2 -2 -2  9.70  2.30
 -2 -2 -2  7.60  2.70
 -2 -2 -2  9.10  2.40
 -2 -2 -2  5.00  2.50
  2 -2  2  6.40  2.20
 -2 -2 -2  6.80  2.00
  2 -2  2  10.20  2.10
 -2  2 -2  7.20  2.50
 -2  2 -2  7.00  2.20
 -2  2 -2  4.50  2.10
  2  2  2  10.00  2.20
  2  2  2  10.30  2.30
  2  2  2  10.30  2.80
 -2  2 -2  6.40  1.90
  2  2  2  9.20  2.10
 -2  2 -2  8.60  1.70
  2  2  2  7.50  1.80
 -2  2 -2  7.40  2.50
  2  2  2  5.20  2.10
  2  2  2  9.00  1.90
  2  2  2  6.10  2.10
 -2  2 -2  6.90  2.10
 -3 -2 -2  82.29  10.90
  3 -2  2 111.19  6.90
  3 -2  2  99.39  7.20
  3 -2  2  91.09  7.80
 -3 -2 -2 105.19  6.90
 -3 -2 -2  93.49  7.10
 -3 -2 -2 108.09  7.60
  3 -2  2  96.79  6.30
 -3 -2 -2 119.09  7.10
  3 -2  2 100.69  5.50
  3 -2  2 107.69  7.40
  3  2  2  98.59  6.50
  3  2  2  94.79  7.90
 -3  2 -2  88.79  7.10
 -3  2 -2 113.39  6.80
 -3  2 -2  99.39  7.70
  3  2  2  99.29  6.90
  3  2  2 103.99  6.20
  3  2  2 100.49  7.30
  3  2  2 107.19  8.30
  3  2  2 113.89  8.30
  3  2  2  98.19  5.90
 -3  2 -2 109.69  7.20
 -3  2 -2 107.19  7.60
 -3  2 -2 103.09  6.20
 -3  2 -2  95.59  7.00
  4 -2  2 239.08  12.60
  4 -2  2 222.08  10.40
  4 -2  2 236.38  13.30
 -4 -2 -2 222.68  12.40
 -4 -2 -2 245.18  12.70
 -4 -2 -2 230.18  13.90
 -4  2 -2 247.08  13.10
 -4  2 -2 183.48  16.00
 -4  2 -2 234.68  12.40
  4  2  2 210.98  12.30
  4  2  2 205.78  10.40
  4  2  2 238.98  12.60
  4  2  2 250.67  13.90
  4  2  2 194.58  11.30
 -4  2 -2 241.68  13.70
  5 -2  2  4.50  4.50
 -5 -2 -2  10.00  6.20
 -5 -2 -2  9.70  4.80
  5 -2  2  0.90  4.60
 -5 -2 -2  7.00  4.30
 -5  2 -2  -6.20  5.40
  5  2  2  12.40  6.10
 -5  2 -2  9.00  4.40
  5  2  2  4.30  3.30
 -5  2 -2  1.90  5.20
  6 -2  2  3.30  7.40
 -6 -2 -2  17.60  11.20
 -6 -2 -2  22.80  9.90
  6  2  2  -1.10  8.70
 -6  2 -2  7.60  8.70
 -6  2 -2  10.10  7.30
  6 -3 -2  -4.10  6.20
  6 -3 -2  15.00  7.00
  6  3 -2  14.80  7.80
  6  3 -2 -10.70  7.50
  6  3 -2  5.80  6.80
 -5 -3  2  24.70  6.30
  5 -3 -2  18.80  6.80
  5 -3 -2  20.20  5.70
 -5 -3  2  30.90  5.40
  5  3 -2  26.50  13.60
  5  3 -2  8.00  5.00
  5  3 -2  10.40  6.00
 -5  3  2  26.80  5.40
 -5  3  2  20.70  5.50
 -4 -3  2 731.93  31.40
  4 -3 -2 705.63  32.20
  4 -3 -2 696.33  31.40
  4 -3 -2 787.32  33.70
 -4 -3  2 770.82  38.30
 -4 -3  2 796.52  32.90
  4 -3 -2 827.52  32.60
 -4 -3  2 754.42  30.00
 -4  3  2 714.73  33.30
 -4  3  2 812.42  31.90
  4  3 -2 679.63  31.00
  4  3 -2 792.32  34.20
  4  3 -2 706.53  32.00
  4  3 -2 784.32  32.70
  4  3 -2 782.12  33.80
 -4  3  2 801.12  32.60
  3 -3 -2 276.17  12.90
  3 -3 -2 266.57  12.70
 -3 -3  2 250.67  13.30
 -3 -3  2 268.17  13.10
  3 -3 -2 280.07  14.10
 -3 -3  2 260.47  11.00
 -3 -3  2 242.78  12.70
  3 -3 -2 253.77  12.40
  3 -3 -2 262.37  12.90
  3 -3 -2 265.57  13.10
 -3 -3  2 261.87  12.10
  3  3 -2 287.87  14.10
 -3  3  2 277.27  12.70
  3  3 -2 261.07  12.00
 -3  3  2 253.37  12.90
  3  3 -2 263.47  12.70
 -3  3  2 286.47  13.00
  3  3 -2 280.77  13.70
  3  3 -2 267.27  13.00
 -3  3  2 253.27  11.90
 -3  3  2 242.18  13.80
 -2 -3  2 965.90  38.10
  2 -3 -2 954.30  38.80
 -2 -3  2 951.80  37.70
 -2 -3  2 974.10  37.30
  2 -3 -2 978.50  37.80
  2 -3 -2 956.40  38.10
  2 -3 -2 931.31  37.90
 -2 -3  2 953.90  38.80
  2 -3 -2 942.41  37.90
  2  3 -2 1009.30  39.30
  2  3 -2 918.51  37.90
  2  3 -2 943.91  37.80
  2  3 -2 996.40  39.10
 -2  3  2 997.00  37.80
 -2  3  2 1024.00  38.20
 -2  3  2 983.60  36.90
  2  3 -2 964.70  38.00
 -2  3  2 934.91  38.90
  1 -3 -2 4128.29 153.18
  1 -3 -2 4038.60 152.88
  1 -3 -2 4016.80 152.58
  1 -3 -2 3957.70 152.48
 -1 -3  2 4185.98 154.48
 -1 -3  2 4032.00 151.88
 -1 -3  2 4093.99 151.68
 -1 -3  2 3986.50 152.68
 -1 -3  2 4111.29 152.68
  1  3 -2 4057.79 152.58
 -1  3  2 4106.59 154.18
  1  3 -2 4124.59 152.58
  1  3 -2 4256.27 152.78
 -1  3  2 3996.10 152.58
  1  3 -2 4095.99 153.78
 -1  3  2 4009.80 152.98
  1  3 -2 4100.89 151.78
  0 -3  2 228.88  9.50
  0 -3 -2 241.98  10.00
  0 -3 -2 238.28  10.10
  0 -3 -2 234.38  9.80
  0 -3  2 227.98  9.90
  0 -3  2 221.68  9.70
  0 -3 -2 228.18  9.70
  0 -3 -2 241.88  10.00
  0 -3  2 225.68  10.60
  0 -3  2 224.38  9.90
  0 -3 -2 227.28  9.90
  0  3 -2 233.28  9.90
  0  3  2 222.28  9.90
  0  3  2 228.18  9.80
  0  3 -2 243.68  10.80
  0  3  2 233.58  9.90
  0  3 -2 244.58  9.70
  0  3  2 222.48  10.00
  0  3  2 208.28  9.70
  0  3 -2 237.98  9.50
  0  3 -2 247.98  10.00
  0  3 -2 235.68  10.40
  1 -3  2 2650.53  99.29
  1 -3  2 2659.73  99.59
 -1 -3 -2 2617.94 100.39
  1 -3  2 2676.53 100.29
  1 -3  2 2708.33 100.59
  1 -3  2 2676.63 100.19
 -1 -3 -2 2550.94 100.09
  1 -3  2 2619.54 100.39
 -1 -3 -2 2676.33 100.19
 -1 -3 -2 2918.61 104.29
 -1 -3 -2 2671.83 100.19
 -1  3 -2 2546.05  99.79
  1  3  2 2574.34  99.69
 -1  3 -2 2642.64 100.39
  1  3  2 2554.54 100.19
 -1  3 -2 2585.94 100.29
 -1  3 -2 2731.13 100.29
 -1  3 -2 2704.23 100.59
  1  3  2 2659.03 100.89
 -1  3 -2 2555.84  99.29
  1  3  2 2655.43 100.29
  1  3  2 2732.93 100.19
  1  3  2 2690.93 100.59
  1  3  2 2713.53 100.69
 -2 -3 -2 4004.60 155.38
  2 -3  2 4066.59 155.68
  2 -3  2 4214.88 154.38
 -2 -3 -2 4258.07 155.28
 -2 -3 -2 4115.39 156.28
  2 -3  2 4142.19 155.38
 -2 -3 -2 4185.38 155.58
  2 -3  2 4080.49 154.88
 -2 -3 -2 4214.28 156.38
  2 -3  2 3964.40 155.58
  2 -3  2 4192.98 155.58
  2 -3  2 4171.98 154.28
 -2 -3 -2 4108.69 157.28
 -2  3 -2 4216.98 156.38
  2  3  2 4044.60 154.98
 -2  3 -2 4290.77 154.88
 -2  3 -2 4072.39 155.58
  2  3  2 4299.67 155.38
  2  3  2 4048.80 155.48
 -2  3 -2 4004.00 155.58
  2  3  2 4009.60 155.08
 -2  3 -2 4038.00 154.38
 -2  3 -2 4129.89 156.78
  2  3  2 4225.28 155.88
  2  3  2 4021.30 158.38
  3 -3  2  97.79  7.40
  3 -3  2 103.89  6.90
  3 -3  2  94.89  7.40
 -3 -3 -2 113.09  8.10
 -3 -3 -2 110.09  7.10
 -3 -3 -2  82.19  7.50
  3 -3  2  91.09  7.00
  3 -3  2 102.69  6.50
 -3 -3 -2  93.99  6.90
  3 -3  2 101.29  6.00
  3 -3  2  98.29  5.40
 -3 -3 -2  96.99  6.80
 -3  3 -2 106.59  7.20
  3  3  2 102.59  6.30
  3  3  2 101.59  6.20
 -3  3 -2 104.49  6.60
  3  3  2  97.59  6.40
 -3  3 -2 104.49  7.90
 -3  3 -2  89.99  7.00
 -3  3 -2  95.79  7.90
  3  3  2 101.29  6.70
  3  3  2 105.89  7.10
  3  3  2 109.49  7.70
 -3  3 -2  91.39  6.40
  3  3  2 103.69  8.30
 -3  3 -2  89.89  7.20
  4 -3  2  41.60  6.20
 -4 -3 -2  39.20  6.50
  4 -3  2  53.19  6.80
 -4 -3 -2  50.29  6.20
 -4 -3 -2  36.60  5.50
  4 -3  2  35.60  3.70
 -4  3 -2  33.10  5.40
  4  3  2  33.90  4.10
  4  3  2  54.99  7.20
 -4  3 -2  40.50  6.90
  4  3  2  49.30  7.60
 -4  3 -2  45.10  5.90
  4  3  2  38.50  5.50
  5 -3  2  26.80  7.10
 -5 -3 -2  31.40  7.60
 -5 -3 -2  17.70  5.50
  5 -3  2  31.40  6.30
 -5 -3 -2  29.30  5.90
 -5  3 -2  29.00  7.50
 -5  3 -2  31.10  6.70
  5  3  2  32.70  7.30
 -6 -3 -2  -3.50  8.80
 -6 -3 -2  1.10  6.40
  6 -3  2  -8.30  7.70
 -6  3 -2  0.60  7.00
 -6  3 -2  2.20  8.50
  6  3  2  8.10  9.70
 -6 -4  2  11.90  6.30
  6 -4 -2  16.80  7.30
  6 -4 -2  5.80  8.80
  6 -4 -2  -7.10  7.70
  6  4 -2  3.00  6.90
  6  4 -2  9.00  15.70
  6  4 -2  5.90  9.40
 -6  4  2  4.50  8.60
 -5 -4  2  5.90  4.00
  5 -4 -2  -2.60  4.90
  5 -4 -2  -3.50  4.50
  5 -4 -2  -0.40  5.50
 -5 -4  2  2.40  5.40
  5  4 -2  13.20  5.70
  5  4 -2  2.20  4.90
 -5  4  2  5.20  5.00
 -5  4  2  7.50  5.80
  5  4 -2  12.40  6.20
  4 -4 -2 332.67  15.90
  4 -4 -2 318.37  16.10
 -4 -4  2 297.97  14.70
 -4 -4  2 303.67  16.00
  4 -4 -2 316.57  17.30
  4 -4 -2 261.77  16.80
  4 -4 -2 246.28  15.80
 -4  4  2 311.97  15.50
  4  4 -2 267.07  14.50
  4  4 -2 318.67  17.50
 -4  4  2 321.37  15.60
  4  4 -2 325.37  17.60
  4  4 -2 296.77  16.00
 -3 -4  2  75.29  5.60
  3 -4 -2  61.09  5.20
  3 -4 -2  57.39  5.60
 -3 -4  2  70.39  6.50
 -3 -4  2  71.09  8.60
  3 -4 -2  63.79  5.20
 -3 -4  2  71.29  4.90
  3 -4 -2  78.09  7.60
  3 -4 -2  59.49  6.00
  3 -4 -2  66.19  5.80
 -3 -4  2  63.39  3.80
  3  4 -2  62.69  5.60
 -3  4  2  65.69  5.80
  3  4 -2  66.49  7.10
 -3  4  2  62.19  6.40
  3  4 -2  65.69  4.90
 -3  4  2  67.89  4.80
 -3  4  2  65.19  5.90
  3  4 -2  66.59  6.00
 -3  4  2  62.39  5.70
 -2 -4  2 773.12  31.80
 -2 -4  2 791.42  32.20
  2 -4 -2 781.22  32.10
 -2 -4  2 812.62  30.80
 -2 -4  2 778.02  33.00
  2 -4 -2 833.12  33.00
 -2 -4  2 784.52  31.20
  2 -4 -2 827.72  32.10
 -2  4  2 766.02  32.00
  2  4 -2 793.12  31.90
 -2  4  2 820.62  32.00
 -2  4  2 791.82  30.80
 -2  4  2 772.72  33.10
  2  4 -2 783.42  31.90
  2  4 -2 816.52  32.70
  2  4 -2 839.12  32.40
  2  4 -2 834.52  33.60
  1 -4 -2 314.57  13.70
 -1 -4  2 316.07  13.30
  1 -4 -2 313.47  13.30
  1 -4 -2 283.57  13.10
 -1 -4  2 310.27  12.30
  1 -4 -2 302.17  13.40
 -1 -4  2 315.47  12.20
  1 -4 -2 310.37  13.40
 -1 -4  2 312.07  13.30
 -1 -4  2 302.47  13.10
 -1 -4  2 321.07  14.30
 -1  4  2 304.17  13.40
 -1  4  2 302.77  13.20
 -1  4  2 295.27  13.10
  1  4 -2 311.87  12.20
  1  4 -2 304.07  13.10
  1  4 -2 312.27  13.30
 -1  4  2 307.77  13.90
  1  4 -2 305.37  13.00
  1  4 -2 315.37  14.40
  0 -4 -2 490.05  20.20
  0 -4  2 493.65  20.10
  0 -4 -2 488.65  20.40
  0 -4 -2 516.95  20.60
  0 -4 -2 496.05  20.40
  0 -4  2 508.25  20.00
  0 -4  2 524.25  21.40
  0 -4  2 517.25  20.50
  0 -4  2 506.15  20.50
  0 -4 -2 514.45  20.60
  0 -4 -2 502.15  20.50
  0  4  2 505.55  20.50
  0  4 -2 516.35  21.10
  0  4  2 490.35  20.50
  0  4 -2 528.65  20.60
  0  4 -2 501.15  21.30
  0  4 -2 516.15  20.20
  0  4  2 491.65  20.60
  0  4  2 498.15  20.40
  0  4  2 498.65  20.30
  0  4 -2 512.05  20.00
  0  4 -2 492.65  20.40
  1 -4  2 743.13  30.10
 -1 -4 -2 714.83  30.40
 -1 -4 -2 754.02  29.90
 -1 -4 -2 728.13  30.30
  1 -4  2 771.42  29.10
  1 -4  2 764.92  29.10
 -1 -4 -2 764.82  30.20
  1 -4  2 772.82  30.50
 -1 -4 -2 759.22  30.00
  1 -4  2 770.12  30.00
  1 -4  2 741.53  30.00
  1  4  2 761.62  29.80
  1  4  2 759.82  29.90
  1  4  2 770.22  30.20
  1  4  2 790.22  30.80
 -1  4 -2 750.02  30.00
 -1  4 -2 741.33  30.40
  1  4  2 752.42  29.70
 -1  4 -2 729.53  29.40
  1  4  2 759.22  30.10
 -1  4 -2 751.22  30.00
 -1  4 -2 734.73  29.10
 -2 -4 -2 266.37  13.70
 -2 -4 -2 256.07  12.80
  2 -4  2 282.77  13.00
  2 -4  2 270.47  13.10
  2 -4  2 274.37  12.30
 -2 -4 -2 285.97  13.50
 -2 -4 -2 287.07  13.20
  2 -4  2 273.27  11.80
 -2 -4 -2 297.07  13.00
 -2 -4 -2 282.27  13.00
  2 -4  2 295.37  13.50
  2 -4  2 278.97  13.30
 -2  4 -2 265.17  11.80
  2  4  2 285.67  13.40
  2  4  2 269.17  12.60
  2  4  2 278.57  14.10
  2  4  2 265.07  12.50
 -2  4 -2 294.37  13.30
 -2  4 -2 271.27  13.40
  2  4  2 256.47  12.80
 -2  4 -2 285.47  13.20
  2  4  2 280.27  13.00
 -3 -4 -2  82.19  6.20
  3 -4  2  72.69  6.50
 -3 -4 -2  70.09  6.10
  3 -4  2  75.79  6.40
 -3 -4 -2  70.09  6.80
  3 -4  2  73.09  4.40
  3 -4  2  83.39  6.80
  3 -4  2  73.89  6.40
 -3 -4 -2  63.59  6.80
  3 -4  2  78.19  5.20
 -3 -4 -2  64.59  7.10
  3  4  2  64.39  6.00
  3  4  2  77.29  6.00
 -3  4 -2  71.69  6.90
  3  4  2  72.19  5.50
 -3  4 -2  60.59  6.40
  3  4  2  67.29  5.50
  3  4  2  81.79  7.60
  3  4  2  71.29  6.60
  3  4  2  78.99  6.50
 -4 -4 -2  70.49  7.20
  4 -4  2  54.79  7.30
 -4 -4 -2  66.79  6.60
  4 -4  2  55.79  7.20
  4 -4  2  50.59  5.60
 -4 -4 -2  69.59  8.60
 -4  4 -2  62.29  8.30
  4  4  2  49.99  7.80
 -4  4 -2  57.39  7.10
  4  4  2  49.00  5.00
  4  4  2  54.69  7.60
  4  4  2  59.29  6.70
 -5 -4 -2  -3.20  4.60
  5 -4  2  7.10  8.30
 -5 -4 -2  4.70  6.40
  5 -4  2  -2.20  5.20
 -5 -4 -2  9.90  4.70
 -5  4 -2  2.70  5.90
 -5  4 -2  -7.50  5.50
  5  4  2  1.90  6.20
 -6 -4 -2  -3.90  6.60
 -6 -4 -2  13.90  16.00
  6 -4  2 -10.80  13.10
  6  4  2 -14.20  14.00
 -6  4 -2  14.30  13.50
  6 -5 -2  2.90  10.10
  6 -5 -2  6.90  6.90
  6 -5 -2  -2.90  6.90
 -6 -5  2  12.50  6.20
  6  5 -2  -5.00  7.50
  6  5 -2  -2.40  6.30
  6  5 -2  6.80  8.30
 -6  5  2  -6.40  6.90
 -5 -5  2  37.80  5.80
  5 -5 -2  33.10  6.80
  5 -5 -2  42.40  7.30
 -5 -5  2  30.10  7.20
  5 -5 -2  40.70  8.30
 -5  5  2  59.89  8.40
  5  5 -2  52.59  8.60
  5  5 -2  52.19  8.90
  5  5 -2  30.10  8.10
 -5  5  2  37.40  7.20
  4 -5 -2  31.50  5.40
  4 -5 -2  30.10  6.40
  4 -5 -2  25.10  4.70
 -4 -5  2  38.00  6.30
  4 -5 -2  31.80  5.30
 -4 -5  2  36.70  4.90
  4  5 -2  35.20  5.40
 -4  5  2  44.00  6.10
  4  5 -2  27.60  5.80
 -4  5  2  28.70  5.10
  4  5 -2  18.80  4.60
  3 -5 -2 253.37  13.70
  3 -5 -2 250.47  12.30
 -3 -5  2 218.38  11.70
 -3 -5  2 220.88  13.10
  3 -5 -2 209.78  11.90
  3 -5 -2 214.78  11.60
 -3 -5  2 230.58  11.20
  3 -5 -2 219.08  12.00
  3 -5 -2 249.18  12.30
 -3 -5  2 221.58  10.00
 -3 -5  2 253.97  12.80
  3  5 -2 217.78  11.00
 -3  5  2 241.88  12.50
  3  5 -2 257.37  14.20
 -3  5  2 224.78  10.70
  3  5 -2 215.68  11.70
 -3  5  2 232.38  12.10
 -3  5  2 262.37  12.60
  3  5 -2 233.68  12.00
  3  5 -2 256.17  12.80
 -3  5  2 208.78  13.20
 -2 -5  2 490.95  20.90
  2 -5 -2 480.25  21.00
  2 -5 -2 478.55  21.10
 -2 -5  2 496.05  21.30
 -2 -5  2 502.65  20.00
  2 -5 -2 504.45  21.10
  2 -5 -2 515.85  21.00
  2 -5 -2 553.14  22.10
 -2 -5  2 484.75  22.10
 -2  5  2 497.45  19.60
 -2  5  2 465.15  20.90
  2  5 -2 514.65  22.70
  2  5 -2 483.55  20.80
  2  5 -2 471.45  20.70
  2  5 -2 511.95  21.30
  2  5 -2 487.85  19.80
 -2  5  2 474.15  20.80
 -2  5  2 470.45  22.00
  1 -5 -2 853.31  34.30
  1 -5 -2 818.02  34.20
 -1 -5  2 872.71  34.20
  1 -5 -2 862.71  34.60
 -1 -5  2 895.41  35.40
 -1 -5  2 844.92  34.00
  1 -5 -2 830.32  34.90
 -1 -5  2 878.21  32.90
 -1 -5  2 856.91  33.10
 -1 -5  2 880.51  34.10
 -1  5  2 853.71  34.30
  1  5 -2 851.31  37.00
  1  5 -2 832.02  33.70
 -1  5  2 831.72  34.00
  1  5 -2 821.32  34.60
  1  5 -2 943.21  35.60
 -1  5  2 842.62  34.10
  1  5 -2 856.91  32.80
 -1  5  2 878.21  33.20
 -1  5  2 877.61  34.90
  0 -5 -2 1440.26  55.49
  0 -5 -2 1448.26  55.59
  0 -5 -2 1349.16  54.99
  0 -5  2 1505.45  55.49
  0 -5 -2 1436.26  55.19
  0 -5 -2 1434.86  55.39
  0 -5  2 1431.16  55.39
  0 -5  2 1483.55  56.39
  0 -5  2 1386.76  54.99
  0 -5 -2 1360.36  55.89
  0 -5  2 1425.66  54.89
  0 -5  2 1461.95  53.99
  0  5  2 1347.67  55.29
  0  5 -2 1488.45  55.59
  0  5  2 1426.76  55.49
  0  5 -2 1452.25  56.39
  0  5  2 1489.45  55.29
  0  5  2 1445.36  55.59
  0  5 -2 1447.46  54.99
  0  5 -2 1505.85  55.49
  0  5 -2 1365.66  55.89
  0  5  2 1431.36  55.59
  1 -5  2  51.79  4.10
 -1 -5 -2  50.29  4.30
  1 -5  2  44.80  5.00
 -1 -5 -2  47.20  4.20
  1 -5  2  44.50  4.10
 -1 -5 -2  57.09  4.20
  1 -5  2  46.30  3.20
 -1 -5 -2  53.89  5.10
  1 -5  2  47.70  4.10
  1 -5  2  46.80  3.40
  1  5  2  51.59  4.60
 -1  5 -2  53.99  3.60
 -1  5 -2  42.80  3.60
 -1  5 -2  46.90  4.10
  1  5  2  45.40  4.20
  1  5  2  38.80  3.90
  1  5  2  46.90  3.90
 -1  5 -2  47.70  4.60
  1  5  2  44.60  4.10
  1  5  2  52.19  3.90
 -1  5 -2  50.69  4.20
 -1  5 -2  51.39  5.00
 -1  5 -2  50.49  4.60
  2 -5  2 335.87  14.60
 -2 -5 -2 317.17  15.10
  2 -5  2 314.97  14.90
 -2 -5 -2 312.17  14.40
 -2 -5 -2 300.07  14.50
  2 -5  2 285.77  13.50
 -2 -5 -2 285.97  15.10
  2 -5  2 317.97  13.30
  2 -5  2 342.17  15.20
  2 -5  2 301.87  14.60
 -2 -5 -2 292.17  14.30
 -2 -5 -2 302.37  14.50
  2  5  2 328.77  15.00
  2  5  2 323.57  15.90
 -2  5 -2 331.27  14.90
  2  5  2 315.07  13.90
 -2  5 -2 321.37  14.60
  2  5  2 302.97  14.00
  2  5  2 317.07  14.30
 -2  5 -2 300.77  13.20
 -2  5 -2 289.67  14.90
  2  5  2 326.57  14.50
 -2  5 -2 282.67  14.40
 -3 -5 -2 122.49  8.30
  3 -5  2 119.89  8.40
  3 -5  2 115.79  8.80
  3 -5  2 121.19  6.90
 -3 -5 -2 113.29  9.00
 -3 -5 -2 118.29  7.90
  3 -5  2 114.99  8.10
 -3 -5 -2 107.79  7.80
  3 -5  2 113.19  7.40
 -3 -5 -2 111.09  7.90
  3  5  2 115.19  8.20
 -3  5 -2 106.09  8.30
 -3  5 -2 103.89  8.50
  3  5  2 130.89  8.90
  3  5  2 106.79  9.20
 -3  5 -2 116.89  8.30
  3  5  2 102.79  7.30
  3  5  2 117.99  9.80
  3  5  2 118.39  7.70
 -3  5 -2 116.39  8.70
  4 -5  2  8.50  4.40
 -4 -5 -2  8.70  3.50
  4 -5  2  7.00  4.00
  4 -5  2  7.90  2.90
 -4 -5 -2  10.10  6.70
  4  5  2  8.30  4.70
 -4  5 -2  5.90  6.50
  4  5  2  3.90  4.00
  4  5  2  11.40  5.30
 -4  5 -2  4.20  6.00
  4  5  2  7.70  3.60
 -5 -5 -2  33.40  8.60
 -5 -5 -2  21.70  6.10
  5 -5  2  16.20  6.90
  5 -5  2  20.90  6.30
  5  5  2  22.40  8.40
 -5  5 -2  19.40  7.30
  5  5  2  30.40  7.80
 -5  5 -2  42.70  7.50
  6 -6 -2  5.80  7.20
  6 -6 -2  1.60  8.70
  6 -6 -2  18.30  9.20
 -6 -6  2  19.00  7.70
  6  6 -2  -0.10  9.90
  6  6 -2  9.00  7.80
  6  6 -2  13.90  9.40
 -6  6  2  25.50  9.60
  5 -6 -2  46.10  8.30
 -5 -6  2  38.20  10.60
  5 -6 -2  29.50  6.70
 -5 -6  2  34.70  5.90
  5 -6 -2  37.10  8.30
 -5  6  2  43.70  8.30
  5  6 -2  21.00  7.60
  5  6 -2  25.40  7.10
  5  6 -2  33.10  7.70
  4 -6 -2  8.60  4.20
 -4 -6  2  16.10  5.40
 -4 -6  2  9.80  3.20
  4 -6 -2  12.70  6.90
  4 -6 -2  17.10  4.70
  4  6 -2  17.60  5.00
 -4  6  2  16.40  5.20
  4  6 -2  15.60  7.30
 -4  6  2  12.00  4.60
  3 -6 -2 386.06  18.30
 -3 -6  2 387.56  18.60
 -3 -6  2 399.66  17.10
 -3 -6  2 389.56  16.00
  3 -6 -2 398.06  19.40
  3 -6 -2 397.16  18.20
  3 -6 -2 348.07  18.00
  3  6 -2 383.46  20.20
  3  6 -2 341.77  17.50
  3  6 -2 389.26  18.60
 -3  6  2 383.46  16.30
 -3  6  2 426.56  18.90
  3  6 -2 360.26  16.60
 -3  6  2 409.86  18.30
  2 -6 -2 1044.30  41.20
 -2 -6  2 1010.80  40.60
 -2 -6  2 1023.20  39.10
 -2 -6  2 972.40  38.50
  2 -6 -2 1014.60  40.20
  2 -6 -2 964.60  40.20
  2 -6 -2 1030.80  40.30
 -2 -6  2 1032.00  41.70
 -2 -6  2 927.91  42.50
 -2  6  2 954.20  40.40
 -2  6  2 1012.70  40.60
  2  6 -2 1045.70  42.30
 -2  6  2 991.90  38.80
  2  6 -2 983.80  38.80
 -2  6  2 1028.50  41.70
  2  6 -2 980.70  40.00
  2  6 -2 1035.50  40.70
 -1 -6  2  13.10  2.40
  1 -6 -2  2.70  1.90
  1 -6 -2  6.90  2.40
  1 -6 -2  4.00  2.10
 -1 -6  2  3.80  1.90
 -1 -6  2  5.80  2.40
 -1 -6  2  4.40  1.40
 -1 -6  2  8.10  2.50
  1 -6 -2  0.90  1.80
 -1 -6  2  2.00  1.90
  1 -6 -2  3.60  2.50
  1  6 -2  0.20  1.60
 -1  6  2  4.70  2.40
 -1  6  2  7.40  2.20
 -1  6  2  3.90  1.90
 -1  6  2  1.50  1.90
  1  6 -2  0.10  1.90
  1  6 -2  5.50  2.70
 -1  6  2  4.20  1.60
  1  6 -2  1.00  2.20
  1  6 -2  4.90  2.30
  0 -6  2 1176.68  47.00
  0 -6 -2 1232.48  47.90
  0 -6 -2 1235.68  47.60
  0 -6  2 1217.88  46.00
  0 -6  2 1198.78  46.90
  0 -6 -2 1247.28  47.70
  0 -6  2 1256.87  47.60
  0 -6  2 1188.58  47.50
  0 -6  2 1232.08  48.50
  0 -6 -2 1121.49  47.20
  0 -6 -2 1158.28  47.50
  0  6  2 1236.48  47.50
  0  6 -2 1256.67  47.80
  0  6 -2 1321.47  50.09
  0  6 -2 1226.68  47.50
  0  6  2 1194.78  47.70
  0  6  2 1125.99  47.40
  0  6  2 1195.88  47.80
  0  6 -2 1225.08  47.20
  0  6 -2 1220.68  47.00
  0  6  2 1186.28  47.60
  0  6 -2 1189.88  48.20
  1 -6  2 392.36  18.00
  1 -6  2 430.76  19.00
 -1 -6 -2 399.06  18.00
 -1 -6 -2 425.86  18.30
  1 -6  2 412.06  17.20
 -1 -6 -2 412.46  18.50
 -1 -6 -2 427.06  17.90
  1 -6  2 381.06  18.00
 -1 -6 -2 436.86  18.50
  1 -6  2 423.86  18.40
 -1  6 -2 416.26  17.40
  1  6  2 404.36  17.60
 -1  6 -2 401.96  17.40
  1  6  2 385.26  18.00
 -1  6 -2 415.56  19.00
 -1  6 -2 424.46  19.00
  1  6  2 395.26  17.90
  1  6  2 399.46  17.90
 -1  6 -2 431.06  18.10
 -1  6 -2 395.96  18.10
  1  6  2 454.75  18.70
 -1  6 -2 435.26  18.40
 -2 -6 -2 133.99  8.40
  2 -6  2 142.59  8.60
  2 -6  2 137.89  7.50
  2 -6  2 146.39  7.40
 -2 -6 -2 137.59  8.30
  2 -6  2 139.89  9.00
 -2 -6 -2 150.28  8.90
 -2 -6 -2 154.48  8.80
 -2 -6 -2 149.19  9.20
  2 -6  2 147.69  9.30
  2 -6  2 147.39  8.50
 -2  6 -2 135.29  7.20
  2  6  2 141.79  8.00
 -2  6 -2 153.58  8.80
  2  6  2 140.79  8.50
  2  6  2 146.49  9.80
 -2  6 -2 140.89  8.90
 -2  6 -2 134.99  8.80
  2  6  2 149.09  8.50
  2  6  2 152.48  9.00
 -3 -6 -2 310.27  16.50
 -3 -6 -2 347.07  16.70
  3 -6  2 353.26  15.50
 -3 -6 -2 352.16  17.30
  3 -6  2 326.27  15.90
  3 -6  2 356.46  17.10
 -3 -6 -2 336.67  16.80
  3 -6  2 364.46  17.70
 -3 -6 -2 350.86  18.00
  3  6  2 365.36  18.00
 -3  6 -2 352.56  17.20
 -3  6 -2 352.76  17.20
 -3  6 -2 337.77  18.40
  3  6  2 366.96  19.10
  3  6  2 349.87  16.70
  3  6  2 328.77  16.20
 -4 -6 -2  46.50  6.20
 -4 -6 -2  41.90  7.40
 -4 -6 -2  35.40  5.70
  4 -6  2  30.50  6.60
  4  6  2  48.00  8.50
  4  6  2  20.90  6.00
 -4  6 -2  42.20  7.10
 -4  6 -2  34.50  6.20
 -5 -6 -2  1.60  7.30
  5 -6  2  4.70  6.20
  5 -6  2  1.60  5.70
 -5 -6 -2  5.80  5.70
 -5  6 -2  -1.40  6.30
  5  6  2  4.40  5.40
 -5  6 -2  -2.10  6.50
  5  6  2  10.00  7.80
 -5 -7  2  24.40  8.20
 -5 -7  2  19.30  5.30
  5 -7 -2  21.10  8.20
  5 -7 -2  13.40  6.50
  5 -7 -2  26.30  6.90
  5  7 -2  28.90  8.00
 -5  7  2  50.59  8.80
  5  7 -2  40.80  8.80
 -5  7  2  26.10  8.10
  5  7 -2  20.10  7.60
 -4 -7  2  20.20  6.30
  4 -7 -2  15.10  5.00
  4 -7 -2  17.50  7.20
 -4 -7  2  13.20  3.70
  4 -7 -2  12.20  5.90
 -4  7  2  12.40  5.20
  4  7 -2  16.50  5.60
 -4  7  2  16.80  5.20
  4  7 -2  15.20  5.60
  3 -7 -2  26.20  5.50
 -3 -7  2  39.20  4.10
  3 -7 -2  38.00  5.50
 -3 -7  2  49.80  6.30
  3 -7 -2  37.70  5.50
  3 -7 -2  18.40  5.70
  3  7 -2  44.80  6.30
  3  7 -2  31.20  4.10
 -3  7  2  41.90  5.90
  3  7 -2  33.40  6.00
  3  7 -2  43.60  5.50
 -2 -7  2 251.37  13.10
 -2 -7  2 291.57  14.00
  2 -7 -2 275.07  14.70
  2 -7 -2 271.27  13.50
  2 -7 -2 294.97  13.70
 -2 -7  2 277.57  12.00
 -2 -7  2 279.37  13.90
  2 -7 -2 244.18  13.40
 -2 -7  2 245.68  14.30
 -2 -7  2 273.97  12.30
  2 -7 -2 279.67  13.70
  2  7 -2 289.27  15.50
 -2  7  2 256.17  13.60
  2  7 -2 258.37  13.20
 -2  7  2 287.67  13.70
 -2  7  2 250.87  14.70
  2  7 -2 265.07  13.90
  2  7 -2 265.57  11.80
 -2  7  2 271.67  12.00
 -2  7  2 253.07  13.40
  2  7 -2 258.47  13.00
  2  7 -2 277.77  14.00
 -1 -7  2 175.68  9.40
  1 -7 -2 144.29  9.10
 -1 -7  2 174.98  7.80
  1 -7 -2 180.78  12.30
 -1 -7  2 181.98  10.10
  1 -7 -2 177.68  9.50
 -1 -7  2 172.18  8.40
  1 -7 -2 164.58  9.60
  1 -7 -2 172.88  10.30
 -1 -7  2 161.98  10.90
 -1 -7  2 172.88  11.20
 -1  7  2 170.98  10.40
  1  7 -2 168.48  10.70
  1  7 -2 171.28  9.30
 -1  7  2 167.68  10.30
  1  7 -2 174.18  9.70
  1  7 -2 163.28  8.80
 -1  7  2 171.58  8.60
  1  7 -2 178.38  11.90
  0 -7 -2 656.03  27.70
  0 -7 -2 660.93  27.20
  0 -7  2 678.93  25.90
  0 -7  2 709.53  28.80
  0 -7  2 652.83  27.90
  0 -7  2 690.63  27.90
  0 -7 -2 635.64  27.50
  0 -7 -2 677.13  27.80
  0 -7  2 643.64  27.10
  0 -7 -2 679.93  28.10
  0 -7  2 663.03  28.60
  0 -7 -2 609.44  27.20
  0  7  2 660.53  29.00
  0  7  2 677.23  27.70
  0  7  2 670.23  28.10
  0  7 -2 622.34  29.20
  0  7 -2 657.63  27.00
  0  7 -2 689.43  27.90
  0  7 -2 710.83  29.10
  0  7 -2 643.04  27.60
  0  7  2 629.64  28.40
  1 -7  2 297.07  13.70
  1 -7  2 290.37  12.80
 -1 -7 -2 269.77  13.40
 -1 -7 -2 248.28  13.50
  1 -7  2 279.67  13.60
 -1 -7 -2 289.27  14.00
  1 -7  2 287.67  14.60
 -1 -7 -2 297.07  13.90
 -1 -7 -2 282.47  13.20
  1 -7  2 253.67  13.50
  1  7  2 283.57  14.20
  1  7  2 279.77  13.00
 -1  7 -2 275.57  13.70
 -1  7 -2 269.97  12.80
 -1  7 -2 286.67  14.40
  1  7  2 281.37  13.70
 -1  7 -2 283.87  13.90
  1  7  2 265.67  13.50
 -1  7 -2 283.47  13.60
  1  7  2 316.07  14.20
  1  7  2 270.77  13.40
 -1  7 -2 276.97  14.60
 -2 -7 -2  10.00  4.20
 -2 -7 -2  8.90  3.00
 -2 -7 -2  10.70  4.20
  2 -7  2  12.70  3.40
  2 -7  2  8.20  3.60
  2 -7  2  4.20  3.30
  2 -7  2  7.20  3.60
  2 -7  2  10.90  2.70
 -2 -7 -2  12.90  3.20
 -2 -7 -2  14.90  3.60
  2  7  2  11.50  3.00
 -2  7 -2  13.00  3.70
 -2  7 -2  12.40  2.70
 -2  7 -2  10.40  3.50
  2  7  2  3.10  3.00
 -2  7 -2  9.70  2.90
 -2  7 -2  8.10  3.30
  2  7  2  5.20  3.30
 -2  7 -2  5.00  3.80
  2  7  2  11.80  3.50
 -2  7 -2  16.50  4.50
  2  7  2  10.40  3.60
  2  7  2  7.90  2.90
  3 -7  2  41.50  6.10
  3 -7  2  40.80  5.10
 -3 -7 -2  42.20  5.70
 -3 -7 -2  40.70  6.70
  3 -7  2  34.90  6.20
 -3 -7 -2  43.60  6.30
  3 -7  2  36.10  4.90
 -3 -7 -2  36.90  5.90
 -3  7 -2  42.40  6.00
  3  7  2  42.70  5.90
  3  7  2  32.00  6.50
 -3  7 -2  42.20  6.40
  3  7  2  45.50  7.30
 -4 -7 -2  13.50  4.40
  4 -7  2  14.50  5.40
 -4 -7 -2  4.30  4.30
 -4 -7 -2  6.80  6.00
  4 -7  2  13.60  5.20
 -4  7 -2  13.90  5.80
 -4  7 -2  5.80  5.60
  4  7  2  8.10  5.60
  4  7  2  8.90  6.50
  5 -7  2  2.80  6.90
  5 -7  2  0.60  6.30
 -5 -7 -2  7.40  6.10
 -5 -7 -2  11.30  9.20
  5  7  2  -3.20  8.10
 -5  7 -2  -0.60  6.70
  5  7  2  -7.80  6.00
 -5  7 -2 -11.00  7.10
  5 -8 -2  9.60  6.10
  5 -8 -2  12.40  6.50
  5 -8 -2  12.40  8.20
  5  8 -2  29.60  9.30
  5  8 -2  -2.80  6.60
  5  8 -2  9.50  9.20
  4 -8 -2 147.19  11.20
  4 -8 -2 165.68  12.00
  4 -8 -2 112.59  12.40
 -4 -8  2 130.59  9.30
 -4 -8  2 140.69  12.60
  4  8 -2 145.09  13.30
 -4  8  2 142.39  11.20
  4  8 -2 145.79  12.50
 -3 -8  2 172.88  9.40
  3 -8 -2 155.58  11.70
  3 -8 -2 193.18  11.50
 -3 -8  2 185.48  11.90
 -3  8  2 178.18  11.20
  3  8 -2 156.98  10.70
  2 -8 -2 181.98  11.70
  2 -8 -2 181.78  10.70
 -2 -8  2 173.88  8.80
  2 -8 -2 177.88  10.80
 -2 -8  2 173.28  10.90
  2 -8 -2 154.58  11.40
 -2 -8  2 179.08  11.00
 -2  8  2 180.18  8.90
  2  8 -2 169.98  8.60
  2  8 -2 161.08  10.90
  2  8 -2 165.38  12.10
 -2  8  2 175.78  10.80
 -1 -8  2  16.50  3.40
  1 -8 -2  14.00  3.70
  1 -8 -2  20.10  3.70
 -1 -8  2  21.60  2.90
  1 -8 -2  23.80  4.10
  1 -8 -2  18.00  4.60
 -1 -8  2  19.90  3.10
  1 -8 -2  15.30  3.10
  1 -8 -2  15.50  3.50
 -1 -8  2  18.60  4.30
 -1 -8  2  20.80  4.00
 -1 -8  2  16.60  3.90
 -1  8  2  14.10  3.80
 -1  8  2  15.60  3.40
 -1  8  2  12.20  3.50
 -1  8  2  15.80  4.20
  1  8 -2  15.20  3.40
  1  8 -2  15.20  4.10
 -1  8  2  18.60  3.20
  1  8 -2  14.70  4.00
  1  8 -2  17.30  3.30
  1  8 -2  15.70  3.90
  0 -8 -2 629.44  25.90
  0 -8 -2 556.44  26.00
  0 -8  2 622.54  25.90
  0 -8  2 673.43  26.70
  0 -8  2 581.34  25.70
  0 -8 -2 642.44  26.60
  0 -8 -2 583.24  26.30
  0 -8 -2 570.44  26.00
  0 -8  2 667.53  29.10
  0 -8  2 616.44  24.50
  0 -8  2 593.44  26.40
  0 -8 -2 639.94  27.10
  0 -8 -2 634.14  26.70
  0  8 -2 614.94  25.90
  0  8 -2 674.13  27.00
  0  8  2 662.43  28.10
  0  8 -2 676.03  28.00
  0  8 -2 579.84  27.10
  0  8  2 620.24  26.70
  0  8 -2 593.24  26.30
  0  8  2 603.14  26.40
  0  8  2 605.94  26.60
 -1 -8 -2 356.16  16.10
 -1 -8 -2 311.57  16.50
 -1 -8 -2 300.57  16.80
  1 -8  2 329.57  16.80
  1 -8  2 383.06  16.00
  1 -8  2 327.47  16.30
 -1 -8 -2 358.56  17.10
 -1 -8 -2 367.96  16.90
  1 -8  2 358.56  17.80
  1 -8  2 377.76  16.90
 -1  8 -2 355.76  17.50
 -1  8 -2 355.56  16.60
  1  8  2 344.27  16.70
 -1  8 -2 298.27  19.40
  1  8  2 372.76  17.60
  1  8  2 334.07  17.00
  1  8  2 372.76  17.30
 -1  8 -2 376.56  17.20
 -1  8 -2 336.57  15.80
  2 -8  2  2.10  3.90
  2 -8  2  6.10  2.40
 -2 -8 -2  3.20  3.00
  2 -8  2  1.10  2.30
 -2 -8 -2  6.20  3.90
 -2 -8 -2  2.30  2.70
 -2 -8 -2  2.40  3.10
  2 -8  2  3.80  3.10
  2  8  2  6.70  3.70
 -2  8 -2  7.60  2.80
 -2  8 -2  5.40  3.00
  2  8  2  8.40  4.00
 -2  8 -2  3.10  3.50
 -2  8 -2  7.50  3.60
 -2  8 -2  4.50  3.90
 -3 -8 -2  79.19  10.50
 -3 -8 -2  60.49  7.00
  3 -8  2  73.79  7.80
  3 -8  2  79.89  6.10
 -3 -8 -2  78.19  9.10
 -3 -8 -2  70.39  7.60
  3 -8  2  72.39  11.80
  3  8  2  76.49  9.00
 -3  8 -2  54.69  8.60
  3  8  2  81.39  7.80
 -3  8 -2  75.29  8.30
 -3  8 -2  76.49  8.30
 -4 -8 -2  12.10  5.00
  4 -8  2  24.20  6.00
  4 -8  2  22.00  6.80
 -4 -8 -2  19.20  7.40
 -4  8 -2  18.80  6.60
  4  8  2  26.90  8.20
 -4  8 -2  16.60  6.30
  4  8  2  12.40  6.30
  5 -8  2  7.80  7.30
 -5 -8 -2  11.60  6.80
  5 -8  2  18.50  7.40
 -5 -8 -2  14.40  17.00
 -5  8 -2  7.40  13.50
  5  8  2  0.60  10.70
 -5  8 -2  -0.80  7.90
  5  8  2  6.20  6.80
  5 -9 -2  1.40  6.60
  5 -9 -2  -6.50  8.40
  5 -9 -2  -4.40  6.60
  5  9 -2  1.30  8.60
  5  9 -2  -8.30  6.90
  4 -9 -2  20.90  5.80
 -4 -9  2  25.50  7.50
  4 -9 -2  24.50  6.70
  4 -9 -2  28.40  7.80
  4  9 -2  10.90  7.40
 -4  9  2  20.90  6.50
  4  9 -2  22.40  7.30
 -3 -9  2  73.99  9.00
 -3 -9  2  81.19  9.10
  3 -9 -2  94.99  9.10
  3 -9 -2  85.49  10.70
 -3  9  2  84.69  8.80
  3  9 -2  79.09  10.50
  3  9 -2  85.89  9.50
  2 -9 -2  81.19  7.60
 -2 -9  2  74.39  7.60
 -2 -9  2  66.69  5.10
  2 -9 -2  72.79  8.50
  2 -9 -2  66.29  7.10
  2 -9 -2  58.49  6.80
 -2 -9  2  68.59  7.40
  2  9 -2  59.09  6.60
  2  9 -2  66.59  7.60
 -2  9  2  59.59  7.10
  2  9 -2  56.79  8.00
  1 -9 -2 774.12  31.80
  1 -9 -2 753.22  32.80
  1 -9 -2 669.43  31.40
 -1 -9  2 697.93  30.20
 -1 -9  2 772.02  31.70
 -1 -9  2 797.82  32.10
  1 -9 -2 730.43  30.80
  1 -9 -2 733.13  31.60
 -1 -9  2 728.83  29.50
  1  9 -2 790.32  32.30
  1  9 -2 700.13  31.30
 -1  9  2 745.13  30.90
 -1  9  2 740.63  31.80
  1  9 -2 764.72  33.70
  0 -9  2  18.20  4.60
  0 -9 -2  23.90  3.90
  0 -9  2  26.50  3.10
  0 -9 -2  23.90  5.20
  0 -9 -2  29.20  4.80
  0 -9 -2  25.20  4.20
  0 -9  2  34.30  5.50
  0 -9  2  24.30  4.10
  0 -9 -2  29.20  5.20
  0 -9 -2  24.60  4.00
  0 -9  2  26.20  4.30
  0  9  2  24.10  5.00
  0  9  2  31.20  4.60
  0  9  2  34.10  5.20
  0  9 -2  16.70  4.00
  0  9 -2  26.00  4.80
  0  9 -2  36.30  4.90
  0  9 -2  30.30  5.20
  1 -9  2  -1.10  3.60
 -1 -9 -2  3.10  3.10
  1 -9  2  1.70  2.20
 -1 -9 -2  2.40  2.80
 -1 -9 -2  3.00  3.60
  1 -9  2  4.10  3.80
 -1 -9 -2  -0.50  2.80
 -1  9 -2  1.90  3.60
 -1  9 -2  2.00  3.20
  1  9  2  1.80  2.80
 -1  9 -2  -2.70  2.90
 -1  9 -2  6.20  3.40
 -1  9 -2  0.90  3.60
  1  9  2  1.40  3.30
  1  9  2  4.00  3.20
 -2 -9 -2  30.40  6.50
 -2 -9 -2  13.30  6.60
 -2 -9 -2  19.30  4.20
  2 -9  2  23.50  6.10
  2 -9  2  26.90  4.20
  2 -9  2  20.90  4.80
  2  9  2  27.70  6.00
 -2  9 -2  23.00  5.20
 -2  9 -2  21.80  4.60
 -2  9 -2  20.00  4.90
  2  9  2  14.70  4.90
 -3 -9 -2  13.80  5.50
 -3 -9 -2  16.00  4.80
 -3 -9 -2  9.40  4.30
 -3 -9 -2  14.80  5.60
  3 -9  2  13.50  5.70
  3 -9  2  13.50  5.00
 -3  9 -2  10.60  5.50
 -3  9 -2  14.40  4.80
 -3  9 -2  12.40  4.70
  3  9  2  3.00  4.80
  3  9  2  8.00  5.90
  4 -9  2  26.90  6.90
 -4 -9 -2  35.40  7.40
 -4 -9 -2  37.10  9.40
  4 -9  2  47.40  8.20
  4  9  2  40.60  8.50
 -4  9 -2  38.00  8.10
 -4  9 -2  30.70  7.70
  4  9  2  29.20  9.10
  4 -10 -2  11.80  6.80
  4 -10 -2  7.40  7.00
  4 -10 -2  9.70  6.20
 -4 -10  2  3.90  7.70
  4 10 -2  5.40  6.70
 -4 10  2  3.90  7.00
  4 10 -2  -1.60  7.50
  3 -10 -2  2.70  5.70
  3 -10 -2  9.90  5.50
  3 -10 -2  6.40  5.20
  3 10 -2  5.90  5.90
  3 10 -2  19.60  6.50
 -3 10  2  17.40  9.70
 -2 -10  2  31.80  6.40
  2 -10 -2  30.70  6.60
  2 -10 -2  35.50  8.80
 -2 -10  2  45.70  6.70
  2 -10 -2  31.20  5.90
  2 10 -2  41.90  7.50
  2 10 -2  40.30  6.80
 -2 10  2  44.00  6.80
 -1 -10  2 203.78  11.90
  1 -10 -2 162.48  10.30
  1 -10 -2 183.88  11.70
 -1 -10  2 185.68  11.40
  1 -10 -2 174.98  12.40
 -1 10  2 180.38  12.60
 -1 10  2 166.28  11.20
  1 10 -2 182.38  13.10
  0 -10 -2 335.17  18.00
  0 -10  2 349.17  17.40
  0 -10  2 328.27  16.30
  0 -10 -2 359.76  17.60
  0 -10 -2 304.57  15.90
  0 -10 -2 353.46  17.50
  0 -10  2 283.17  16.50
  0 10 -2 350.56  18.60
  0 10  2 326.47  17.10
  0 10 -2 381.06  18.00
  0 10  2 342.27  17.50
  1 -10  2  41.60  6.20
  1 -10  2  18.40  6.80
  1 -10  2  37.90  5.10
 -1 -10 -2  27.30  7.10
 -1 -10 -2  25.40  4.70
  1 10  2  37.40  6.70
  1 10  2  24.70  5.10
 -1 10 -2  32.40  5.70
  2 -10  2  12.00  8.10
  2 -10  2  2.50  3.00
 -2 -10 -2  2.60  3.20
 -2 -10 -2  -3.90  3.70
 -2 -10 -2  -3.50  4.20
  2 -10  2  5.10  5.00
 -2 10 -2  4.00  4.70
 -2 10 -2  2.20  4.40
  2 10  2  12.00  8.80
 -2 10 -2  6.50  4.30
  2 10  2  3.00  4.50
 -3 -10 -2  0.20  4.80
 -3 -10 -2  1.60  3.70
 -3 -10 -2  7.20  5.40
 -3 -10 -2  2.00  5.70
  3 -10  2  0.60  5.00
  3 -10  2  11.50  5.80
 -3 10 -2  12.80  5.90
 -3 10 -2  6.50  5.50
  3 10  2  3.30  5.00
 -4 -10 -2  22.70  6.50
  4 -10  2  27.20  8.80
 -4 -10 -2  26.10  8.90
  4 -10  2  28.50  8.20
  4 10  2  32.00  10.00
 -4 10 -2  29.30  8.90
  4 10  2  23.30  8.50
  4 -11 -2  2.50  6.40
  4 -11 -2  -9.70  6.40
  4 -11 -2  9.70  8.00
  4 11 -2  8.00  7.60
  4 11 -2  3.10  9.00
  3 -11 -2  1.50  6.80
  3 -11 -2  12.10  5.80
  3 -11 -2  11.40  5.90
 -3 -11  2  12.70  6.30
 -3 -11  2  13.90  6.90
 -3 11  2  14.70  6.80
  3 11 -2  2.50  6.30
  3 11 -2  13.70  6.70
  2 -11 -2  40.10  7.00
  2 -11 -2  47.40  7.90
  2 -11 -2  45.20  6.70
 -2 -11  2  56.29  13.30
  2 -11 -2  43.90  7.30
 -2 -11  2  44.50  7.20
  2 11 -2  57.29  8.90
  2 11 -2  29.80  7.10
 -1 -11  2  92.69  9.20
  1 -11 -2  91.39  9.50
 -1 -11  2  88.19  10.00
  1 -11 -2  95.49  10.10
  1 -11 -2  92.59  9.20
  1 -11 -2  81.19  7.60
 -1 11  2  99.49  9.20
  1 11 -2  94.09  9.60
  1 11 -2  81.69  10.10
  0 -11 -2  7.50  4.40
  0 -11  2  -0.10  2.90
  0 -11 -2  3.90  4.40
  0 -11  2  2.70  3.90
  0 -11 -2  0.30  3.00
  0 11  2  2.20  3.70
  0 11 -2  -0.70  4.10
  0 11  2  1.40  3.10
  0 11 -2  5.00  4.90
 -1 -11 -2 101.89  8.60
  1 -11  2 111.69  8.70
  1 -11  2 122.89  11.10
 -1 -11 -2 120.39  10.60
 -1 -11 -2 117.39  10.40
 -1 11 -2 130.39  10.90
 -1 11 -2 111.19  10.50
  1 11  2 104.79  9.90
  2 -11  2  18.50  6.50
  2 -11  2  13.50  5.50
 -2 -11 -2  16.30  4.40
 -2 -11 -2  19.90  6.60
 -2 -11 -2  10.90  5.10
 -2 11 -2  22.30  6.40
 -2 11 -2  15.40  5.20
  2 11  2  14.50  5.50
  2 11  2  15.10  6.40
  3 -11  2  35.30  8.00
 -3 -11 -2  33.10  8.10
 -3 -11 -2  38.30  7.20
 -3 -11 -2  47.70  9.50
  3 -11  2  38.30  8.90
 -3 11 -2  54.39  9.50
  3 11  2  25.40  7.70
  3 11  2  42.00  9.30
 -3 11 -2  51.19  9.00
 -4 -11 -2  16.70  10.40
 -4 -11 -2  19.50  8.10
  4 -11  2  14.40  10.40
 -4 11 -2  27.50  8.90
 -3 -12  2  24.20  9.20
  3 -12 -2  8.50  6.20
  3 -12 -2  16.30  15.70
 -3 -12  2  15.20  7.40
 -3 12  2  10.10  7.70
  3 12 -2  -4.10  6.70
 -2 -12  2  46.80  8.60
  2 -12 -2  62.09  9.70
  2 -12 -2  42.40  7.60
  2 -12 -2  44.90  7.50
  2 -12 -2  57.29  7.70
 -2 -12  2  39.60  7.90
 -2 12  2  58.99  9.00
  2 12 -2  38.10  8.80
  2 12 -2  60.89  9.70
  1 -12 -2  9.20  5.20
  1 -12 -2  -0.40  5.40
  1 -12 -2  4.10  3.70
 -1 -12  2  2.90  4.50
 -1 -12  2  3.30  4.90
  1 -12 -2  2.00  5.30
  1 12 -2  6.40  4.70
  1 12 -2  1.10  5.70
 -1 12  2  -1.70  4.60
  0 -12  2  41.70  6.20
  0 -12  2  45.30  7.30
  0 -12 -2  58.99  8.80
  0 -12 -2  46.30  7.60
  0 -12 -2  33.60  6.10
  0 12 -2  37.20  7.70
  0 12  2  48.50  8.00
  0 12 -2  43.80  7.40
 -1 -12 -2  21.40  4.90
  1 -12  2  21.70  5.20
  1 -12  2  28.10  6.40
 -1 -12 -2  21.40  7.20
 -1 -12 -2  28.10  6.80
 -1 12 -2  22.40  6.10
  1 12  2  29.90  6.80
 -1 12 -2  28.30  6.70
  2 -12  2  12.60  6.20
 -2 -12 -2  19.80  5.50
 -2 -12 -2  13.70  7.70
 -2 -12 -2  8.60  6.20
  2 -12  2  38.60  8.50
 -2 12 -2  11.90  6.70
  2 12  2  20.60  7.90
  2 12  2  13.30  6.50
  3 -12  2  17.10  11.60
 -3 -12 -2  10.80  7.20
  3 -12  2  15.10  7.40
 -3 -12 -2  11.30  7.60
  3 12  2  7.00  7.40
  3 12  2  -2.00  7.70
  2 -13 -2  43.50  8.30
 -2 -13  2  47.30  9.90
  2 -13 -2  55.29  13.80
  2 -13 -2  35.40  7.70
 -2 -13  2  42.50  8.40
  2 13 -2  19.20  7.30
 -2 13  2  25.70  8.30
 -1 -13  2  47.50  7.70
  1 -13 -2  83.29  11.70
  1 -13 -2  51.29  8.90
  1 -13 -2  51.59  8.70
  1 -13 -2  42.50  6.90
 -1 -13  2  46.00  8.50
 -1 13  2  39.80  8.50
  1 13 -2  37.10  8.90
  1 13 -2  47.10  9.20
  0 -13  2  4.90  4.90
  0 -13  2  -3.20  5.50
  0 -13 -2  1.10  6.50
  0 -13 -2  -0.10  6.20
  0 -13 -2  0.80  4.80
  0 13  2  12.10  6.50
  0 13 -2  2.00  5.50
  0 13 -2  -5.90  5.80
  1 -13  2  15.50  7.00
 -1 -13 -2  8.30  6.30
 -1 -13 -2  17.30  7.20
  1 13  2  -1.20  7.40
 -1 13 -2  6.00  6.30
  2 -13  2  33.90  9.40
 -2 -13 -2  15.00  7.60
  2 -13  2  23.10  7.30
  2 13  2  4.40  7.30
  2 13  2  10.60  8.50
  1 -14 -2  -0.10  7.60
 -1 -14  2  9.80  6.70
 -1 -14  2  1.30  7.60
  1 -14 -2  6.60  8.20
  1 -14 -2  0.00  7.60
  1 14 -2  10.40  8.30
  1 14 -2  2.10  6.30
 -1 14  2  -3.40  7.70
  0 -14 -2  7.30  7.30
  0 -14  2  7.70  8.00
  0 -14 -2  11.90  8.10
  0 -14  2  15.80  7.50
  0 14 -2  13.10  8.10
  0 14  2  3.40  8.10
 -1 -14 -2  41.60  9.30
  1 -14  2  32.20  10.70
 -1 -14 -2  35.70  9.60
  6  0 -3  12.80  6.30
  6  0 -3  -4.00  7.60
  5  0 -3  6.20  4.10
  5  0 -3  -1.20  5.10
 -5  0  3  7.90  4.10
  4  0 -3  -2.80  2.70
  4  0 -3  -6.80  3.60
  4  0 -3  -1.60  2.00
 -4  0  3  1.80  2.40
  4  0 -3  -6.30  2.80
  4  0 -3  0.40  2.60
 -4  0  3  0.20  2.20
  4  0 -3  -1.70  2.20
  3  0 -3  1.00  2.30
  3  0 -3  -1.40  1.50
  3  0 -3  0.20  1.60
 -3  0  3  0.40  2.10
  3  0 -3  1.10  2.20
 -3  0  3  1.00  1.50
  3  0 -3  -0.50  2.00
  3  0 -3  1.80  2.80
 -3  0  3  0.40  1.70
 -3  0  3  -2.00  1.50
 -2  0  3  -0.20  1.30
 -2  0  3  -3.00  1.10
  2  0 -3  1.10  1.20
  2  0 -3  -2.60  1.30
  2  0 -3  0.50  0.90
  2  0 -3  -0.50  0.90
 -2  0  3  0.80  1.20
  2  0 -3  1.20  1.30
  2  0 -3  -0.80  1.40
  2  0 -3  1.40  2.20
  2  0 -3  -2.10  0.90
  1  0 -3  1.60  1.10
 -1  0  3  4.00  0.70
 -1  0  3  8.00  1.30
 -1  0  3  1.80  1.00
  0  0  3  0.70  0.60
  0  0  3  0.00  0.50
  0  0 -3  0.70  0.90
  0  0 -3  2.30  0.50
  0  0  3  0.20  0.80
  0  0 -3  0.20  0.60
  0  0  3  0.70  0.40
  0  0 -3  1.20  0.70
  0  0 -3  1.40  1.00
  0  0 -3  1.50  1.20
  0  0 -3  -0.20  0.50
  0  0  3  0.00  0.80
 -1  0 -3  0.10  1.10
  1  0  3  1.10  1.10
 -1  0 -3  -0.30  0.60
  1  0  3  0.50  0.50
 -1  0 -3  1.00  1.10
  1  0  3  0.20  1.20
  1  0  3  0.90  0.90
 -1  0 -3  -0.50  1.20
  1  0  3  0.00  1.00
  1  0  3  1.00  1.20
 -1  0 -3  -0.10  1.10
  1  0  3  0.80  0.60
 -1  0 -3  -1.20  1.10
 -1  0 -3  0.40  1.00
  2  0  3  -2.70  1.30
  2  0  3  -3.30  1.60
  2  0  3  -1.30  1.80
 -2  0 -3  -3.30  2.10
 -2  0 -3  -0.90  1.30
  2  0  3  -2.70  1.60
 -2  0 -3  -0.90  1.70
  2  0  3  0.60  1.60
 -2  0 -3  0.20  2.50
  2  0  3  3.50  1.40
 -3  0 -3  -3.70  2.90
 -3  0 -3  5.20  2.80
  3  0  3  0.20  1.60
  3  0  3  -3.40  1.90
  3  0  3  0.50  2.50
 -3  0 -3  -2.60  2.80
  3  0  3  0.00  2.10
  3  0  3  2.20  2.00
 -3  0 -3  0.60  2.40
 -3  0 -3  -1.00  2.20
 -3  0 -3  -1.30  2.70
  3  0  3  0.70  1.50
 -4  0 -3  -2.10  3.40
 -4  0 -3  4.30  3.80
  4  0  3  -2.60  3.60
 -4  0 -3  3.30  4.40
  4  0  3  -1.30  2.50
 -4  0 -3  -1.20  4.00
  4  0  3  -2.40  2.30
 -5  0 -3  0.90  5.50
  5  0  3  6.30  5.80
 -5  0 -3  4.40  6.00
 -5  0 -3  2.70  4.50
 -6  0 -3  -1.20  6.40
 -6  0 -3  -5.80  7.30
  6 -1 -3  17.10  6.60
  6 -1 -3  9.50  8.20
  6  1 -3  16.80  8.60
  6  1 -3  14.00  7.00
  5 -1 -3 151.58  13.00
  5 -1 -3 141.99  10.70
 -5 -1  3 154.38  11.40
  5  1 -3 159.68  13.40
  5  1 -3 152.98  11.80
  5  1 -3 144.89  11.00
 -5  1  3 141.39  9.40
 -5  1  3 137.99  10.50
  4 -1 -3 463.05  22.20
  4 -1 -3 447.46  20.20
 -4 -1  3 458.55  25.50
  4 -1 -3 422.86  20.00
 -4 -1  3 460.85  18.50
 -4 -1  3 416.86  21.50
  4 -1 -3 408.26  18.90
  4  1 -3 400.46  18.50
  4  1 -3 422.76  20.00
  4  1 -3 468.55  22.40
  4  1 -3 398.76  19.20
 -4  1  3 469.15  19.30
  4  1 -3 462.95  20.40
 -4  1  3 430.46  19.60
  4  1 -3 482.25  21.20
  3 -1 -3 563.84  23.60
 -3 -1  3 597.34  24.60
 -3 -1  3 564.94  24.30
  3 -1 -3 605.14  24.30
  3 -1 -3 614.14  26.30
  3 -1 -3 569.24  24.50
  3 -1 -3 620.14  23.40
  3 -1 -3 558.04  24.10
 -3 -1  3 596.94  23.10
 -3 -1  3 580.44  24.90
  3  1 -3 569.04  24.00
 -3  1  3 535.95  25.60
 -3  1  3 570.94  24.40
  3  1 -3 567.44  24.40
 -3  1  3 598.54  24.50
  3  1 -3 620.64  25.20
  3  1 -3 608.64  24.60
 -3  1  3 584.44  24.10
  3  1 -3 558.04  23.10
 -3  1  3 607.64  24.00
 -3  1  3 614.14  23.10
  3  1 -3 611.64  26.40
  2 -1 -3 1529.55  57.49
  2 -1 -3 1491.75  57.49
  2 -1 -3 1496.65  57.79
 -2 -1  3 1510.55  57.79
  2 -1 -3 1542.65  57.69
 -2 -1  3 1494.15  57.59
  2 -1 -3 1525.05  59.29
  2  1 -3 1516.25  58.29
  2  1 -3 1504.95  59.29
 -2  1  3 1351.86  58.79
  2  1 -3 1523.25  57.19
 -2  1  3 1481.55  57.69
 -2  1  3 1553.24  57.69
  2  1 -3 1575.34  58.49
  2  1 -3 1506.85  57.69
 -2  1  3 1566.94  57.59
  2  1 -3 1484.55  56.69
 -2  1  3 1531.35  57.39
  2  1 -3 1546.15  57.79
  1 -1 -3 2974.30 114.59
 -1 -1  3 3027.90 114.39
  1 -1 -3 3115.59 114.29
  1 -1 -3 3029.20 115.19
  1 -1 -3 3049.40 114.39
  1 -1 -3 3108.59 115.69
 -1 -1  3 3103.29 115.59
  1 -1 -3 3051.19 114.69
  1 -1 -3 3115.79 115.19
  1  1 -3 2995.60 114.29
 -1  1  3 2936.41 115.59
 -1  1  3 3051.79 114.69
  1  1 -3 3023.20 115.59
  1  1 -3 3149.08 114.39
  1  1 -3 3117.79 114.29
  1  1 -3 3153.88 114.99
 -1  1  3 3054.99 115.29
  1  1 -3 3134.09 115.19
  0 -1 -3 1901.31  72.39
  0 -1  3 1926.81  71.99
  0 -1  3 1926.91  71.39
  0 -1 -3 1880.61  71.99
  0 -1 -3 1867.81  71.69
  0 -1  3 1958.90  71.39
  0 -1  3 1965.20  72.39
  0 -1 -3 1872.31  71.19
  0 -1  3 1959.80  71.99
  0 -1 -3 1907.91  71.89
  0 -1 -3 1900.61  71.49
  0 -1 -3 1914.21  71.39
  0  1  3 1850.11  71.69
  0  1  3 1948.31  71.99
  0  1 -3 1857.61  71.29
  0  1 -3 1882.61  71.29
  0  1 -3 1877.81  72.39
  0  1  3 1916.91  71.29
  0  1 -3 1898.11  71.99
  0  1  3 1909.61  71.89
  0  1 -3 1864.71  71.99
  0  1  3 1961.80  72.59
 -1 -1 -3  66.19  3.80
 -1 -1 -3  61.79  3.40
  1 -1  3  58.39  3.40
 -1 -1 -3  64.69  3.90
  1 -1  3  56.19  4.00
 -1 -1 -3  62.49  4.20
  1 -1  3  65.39  3.90
  1 -1  3  60.29  3.40
  1 -1  3  61.19  4.10
  1 -1  3  58.49  4.10
 -1 -1 -3  56.19  5.10
 -1 -1 -3  67.29  3.90
 -1 -1 -3  64.89  4.30
  1  1  3  66.89  4.30
 -1  1 -3  63.39  3.90
  1  1  3  58.09  3.70
  1  1  3  60.19  3.40
 -1  1 -3  62.49  3.50
  1  1  3  61.89  4.10
 -1  1 -3  62.09  3.40
 -1  1 -3  64.99  4.10
 -1  1 -3  68.59  4.30
  1  1  3  58.49  4.20
  1  1  3  60.59  4.00
  1  1  3  59.79  4.00
 -1  1 -3  60.69  3.80
 -1  1 -3  68.09  3.90
 -2 -1 -3 1630.44  69.39
  2 -1  3 1709.53  65.79
  2 -1  3 1762.62  66.39
  2 -1  3 1749.32  67.69
  2 -1  3 1763.62  67.29
 -2 -1 -3 1669.63  67.29
 -2 -1 -3 1767.42  68.39
  2 -1  3 1745.03  67.49
  2 -1  3 1727.03  66.79
 -2 -1 -3 1733.03  67.09
  2 -1  3 1802.72  66.69
  2  1  3 1773.22  66.99
 -2  1 -3 1748.13  67.19
 -2  1 -3 1731.53  67.49
  2  1  3 1674.53  67.29
  2  1  3 1757.82  67.59
  2  1  3 1746.13  66.29
  2  1  3 1806.22  67.29
 -2  1 -3 1809.52  66.89
  2  1  3 1754.82  65.89
  2  1  3 1801.62  67.49
 -2  1 -3 1731.13  66.69
  2  1  3 1799.12  66.99
  3 -1  3 336.87  16.40
  3 -1  3 355.36  15.00
 -3 -1 -3 302.87  16.90
 -3 -1 -3 359.26  16.00
 -3 -1 -3 356.86  16.80
  3 -1  3 345.47  16.10
  3 -1  3 322.47  16.10
  3 -1  3 330.17  14.40
 -3 -1 -3 372.06  16.50
 -3 -1 -3 324.37  15.10
 -3 -1 -3 317.77  16.00
  3 -1  3 353.66  15.20
  3  1  3 357.06  15.50
 -3  1 -3 375.46  16.80
  3  1  3 341.17  16.20
 -3  1 -3 385.06  15.90
 -3  1 -3 318.87  16.00
 -3  1 -3 325.27  15.30
 -3  1 -3 365.66  16.50
  3  1  3 314.37  15.40
 -3  1 -3 322.27  15.50
  3  1  3 358.56  15.20
  3  1  3 331.47  14.70
  3  1  3 354.46  14.90
  3  1  3 335.47  16.20
 -3  1 -3 340.77  17.50
 -4 -1 -3  34.10  5.50
 -4 -1 -3  26.90  4.80
 -4 -1 -3  11.30  6.00
  4 -1  3  25.80  3.70
 -4 -1 -3  26.70  6.00
  4 -1  3  25.90  4.30
 -4  1 -3  23.10  4.70
  4  1  3  26.40  4.50
 -4  1 -3  31.20  6.10
 -4  1 -3  19.90  4.80
  4  1  3  24.80  5.50
  4  1  3  25.80  4.20
 -5 -1 -3  11.60  6.70
 -5 -1 -3  6.40  4.90
 -5 -1 -3  16.50  5.60
 -5  1 -3  5.80  5.70
 -5  1 -3  6.00  4.70
  5  1  3  4.50  3.60
 -5  1 -3  3.60  5.70
  5  1  3  11.50  6.30
 -6 -1 -3  3.10  11.30
  6 -1  3  -2.10  7.40
 -6 -1 -3  -1.20  7.90
 -6 -1 -3  4.30  6.50
 -6  1 -3  -3.70  7.40
 -6  1 -3  -0.30  6.70
 -6  1 -3  5.90  10.90
  6  1  3  -9.80  8.80
  6 -2 -3  30.60  9.40
  6 -2 -3  32.00  7.80
  6  2 -3  38.10  8.80
  6  2 -3  28.30  9.00
  6  2 -3  40.60  8.10
  5 -2 -3  24.60  7.10
 -5 -2  3  43.20  7.30
  5 -2 -3  37.90  6.60
 -5  2  3  49.80  6.50
  5  2 -3  43.30  8.40
  5  2 -3  38.60  6.50
 -5  2  3  46.50  6.90
  5  2 -3  37.30  6.80
  4 -2 -3 141.09  10.90
  4 -2 -3 119.49  7.70
 -4 -2  3 126.59  9.10
 -4 -2  3 133.49  6.70
  4 -2 -3 128.89  9.10
 -4 -2  3 130.39  8.90
  4 -2 -3 120.59  8.90
  4  2 -3 115.59  7.70
  4  2 -3 138.79  9.40
 -4  2  3 128.19  8.50
  4  2 -3 133.69  9.90
 -4  2  3 119.99  8.60
 -4  2  3 133.99  8.20
  4  2 -3 117.09  8.40
  4  2 -3 140.79  11.10
 -3 -2  3 590.24  25.80
  3 -2 -3 699.63  26.30
 -3 -2  3 618.34  26.70
  3 -2 -3 607.04  25.40
 -3 -2  3 634.74  26.30
  3 -2 -3 600.54  25.80
  3 -2 -3 640.24  27.70
 -3 -2  3 631.44  24.20
  3  2 -3 608.34  24.10
 -3  2  3 622.34  24.60
 -3  2  3 599.74  25.90
 -3  2  3 635.74  26.00
  3  2 -3 647.44  26.20
  3  2 -3 596.64  24.20
  3  2 -3 651.53  28.00
  3  2 -3 674.03  27.20
  3  2 -3 608.44  25.40
 -3  2  3 663.83  25.90
 -3  2  3 634.54  25.30
 -3  2  3 586.04  27.30
  2 -2 -3 2827.12 106.99
  2 -2 -3 2905.21 106.29
  2 -2 -3 2759.72 105.29
  2 -2 -3 2786.72 106.39
 -2 -2  3 2731.83 106.19
 -2 -2  3 2790.42 106.49
 -2 -2  3 2880.61 107.49
  2 -2 -3 2805.12 105.49
  2 -2 -3 2729.03 106.29
  2 -2 -3 2871.21 107.79
  2  2 -3 2916.51 107.49
  2  2 -3 2880.01 106.49
 -2  2  3 2762.12 106.29
 -2  2  3 2817.72 106.19
 -2  2  3 2903.51 106.29
  2  2 -3 2795.02 105.99
  2  2 -3 2832.32 105.99
  2  2 -3 2778.42 106.19
 -2  2  3 2905.01 105.59
 -2  2  3 2709.63 107.69
  1 -2 -3 1437.46  55.39
 -1 -2  3 1502.55  55.49
  1 -2 -3 1459.95  56.49
 -1 -2  3 1488.05  56.89
 -1 -2  3 1489.65  55.49
  1 -2 -3 1441.76  55.39
  1 -2 -3 1449.06  56.09
 -1  2  3 1445.36  55.39
  1  2 -3 1445.86  54.89
 -1  2  3 1496.75  56.29
 -1  2  3 1463.95  56.59
  1  2 -3 1447.46  55.39
  1  2 -3 1479.85  55.49
  1  2 -3 1463.45  56.09
 -1  2  3 1472.75  55.49
  1  2 -3 1446.26  55.09
 -1  2  3 1522.35  55.49
  1  2 -3 1463.85  56.89
  1  2 -3 1501.35  55.99
  0 -2  3 2605.84  98.69
  0 -2  3 2636.34  98.59
  0 -2 -3 2609.74  98.69
  0 -2 -3 2644.14  98.59
  0 -2  3 2700.53  98.29
  0 -2 -3 2516.95  98.19
  0 -2  3 2639.54  98.19
  0 -2 -3 2600.04  98.19
  0 -2 -3 2619.64  98.69
  0 -2 -3 2584.94  98.19
  0  2  3 2613.14  98.59
  0  2 -3 2584.24  98.69
  0  2  3 2677.13  98.79
  0  2  3 2651.43  98.19
  0  2 -3 2610.54  99.49
  0  2  3 2565.34  98.69
  0  2 -3 2613.64  99.19
  0  2 -3 2585.24  98.79
  0  2 -3 2646.24  98.29
  0  2 -3 2628.84  98.49
  0  2 -3 2627.54  98.29
  0  2 -3 2609.34  97.89
  0  2  3 2670.03  98.29
  0  2  3 2726.43  99.39
  0  2  3 2626.34  98.39
  1 -2  3 1786.32  66.29
 -1 -2 -3 1730.13  66.89
  1 -2  3 1828.82  66.79
  1 -2  3 1765.12  66.79
 -1 -2 -3 1691.93  66.59
 -1 -2 -3 1706.43  67.19
 -1 -2 -3 1705.43  67.49
  1 -2  3 1715.13  67.19
  1 -2  3 1756.52  66.79
  1 -2  3 1765.82  66.69
 -1 -2 -3 1739.13  66.49
 -1 -2 -3 1770.72  66.89
 -1 -2 -3 1751.22  67.39
  1  2  3 1819.02  66.89
 -1  2 -3 1694.43  66.69
 -1  2 -3 1773.22  66.29
 -1  2 -3 1759.82  67.09
 -1  2 -3 1724.73  67.29
  1  2  3 1705.33  66.59
  1  2  3 1786.92  66.79
 -1  2 -3 1717.53  66.79
 -1  2 -3 1786.22  66.79
  1  2  3 1830.62  67.49
  1  2  3 1781.72  65.59
  1  2  3 1825.42  66.89
 -1  2 -3 1754.42  66.69
  2 -2  3 495.85  20.60
 -2 -2 -3 486.35  21.20
 -2 -2 -3 487.15  22.20
 -2 -2 -3 523.55  21.20
  2 -2  3 470.35  21.20
  2 -2  3 508.95  21.30
  2 -2  3 502.15  20.70
 -2 -2 -3 518.55  20.70
 -2 -2 -3 499.95  21.60
  2 -2  3 501.25  21.60
  2 -2  3 504.85  20.50
  2  2  3 514.35  21.50
 -2  2 -3 546.55  20.80
  2  2  3 498.05  21.30
  2  2  3 511.25  21.40
  2  2  3 502.85  20.90
  2  2  3 507.85  20.00
 -2  2 -3 492.15  21.30
  2  2  3 500.65  21.50
 -2  2 -3 525.45  21.50
  2  2  3 495.65  20.50
 -2  2 -3 490.75  21.20
 -2  2 -3 495.55  20.50
 -2  2 -3 527.85  21.60
 -3 -2 -3 212.18  10.90
 -3 -2 -3 175.98  10.30
  3 -2  3 166.08  12.70
 -3 -2 -3 180.08  11.50
  3 -2  3 173.38  10.30
 -3 -2 -3 186.68  11.10
  3 -2  3 179.98  10.60
 -3 -2 -3 199.78  10.40
  3 -2  3 187.58  9.00
  3 -2  3 193.58  10.50
  3 -2  3 184.38  9.70
 -3  2 -3 203.98  10.00
 -3  2 -3 206.78  10.70
 -3  2 -3 174.78  10.40
 -3  2 -3 205.18  11.00
  3  2  3 189.18  9.20
  3  2  3 181.38  10.40
 -3  2 -3 183.48  11.40
  3  2  3 184.48  9.30
  3  2  3 201.38  9.70
 -3  2 -3 173.78  9.80
  3  2  3 172.98  9.80
  3  2  3 188.08  10.70
 -3  2 -3 184.98  10.20
  4 -2  3  23.60  3.30
 -4 -2 -3  24.20  4.70
 -4 -2 -3  21.50  5.60
  4 -2  3  23.00  4.30
  4 -2  3  22.70  5.00
 -4 -2 -3  12.40  4.20
 -4  2 -3  16.70  5.60
  4  2  3  15.90  3.10
  4  2  3  19.00  3.50
  4  2  3  15.60  4.90
  4  2  3  10.20  3.50
 -4  2 -3  22.40  4.80
 -4  2 -3  16.40  4.80
  5 -2  3  22.70  6.30
 -5 -2 -3  18.20  5.70
 -5 -2 -3  31.20  7.50
 -5 -2 -3  24.60  6.20
  5  2  3  16.20  4.30
 -5  2 -3  21.50  6.30
 -5  2 -3  24.80  7.20
 -5  2 -3  20.60  5.80
  5  2  3  31.20  7.40
  6 -2  3  11.10  7.80
 -6 -2 -3  9.90  8.80
 -6 -2 -3  5.30  6.80
  6  2  3 -13.60  8.60
 -6  2 -3  -1.70  7.90
 -6  2 -3  14.30  8.80
  6 -3 -3  31.20  8.50
  6 -3 -3 -10.00  7.60
  6 -3 -3  7.60  7.10
  6  3 -3  12.60  8.60
  6  3 -3  -1.40  5.50
  6  3 -3  12.70  7.80
 -5 -3  3  6.30  5.10
  5 -3 -3  -4.40  4.30
  5 -3 -3  0.40  5.30
  5 -3 -3  -2.70  5.50
  5  3 -3  -1.00  4.60
 -5  3  3  8.90  4.80
  5  3 -3  7.40  6.20
 -5  3  3  -0.60  3.90
 -4 -3  3  42.00  5.90
 -4 -3  3  25.10  5.30
  4 -3 -3  28.20  5.20
 -4 -3  3  28.70  4.50
  4 -3 -3  40.40  5.80
  4 -3 -3  36.30  6.30
  4 -3 -3  33.70  5.30
  4 -3 -3  27.90  4.60
 -4  3  3  44.80  5.80
  4  3 -3  24.40  4.20
  4  3 -3  37.60  6.90
 -4  3  3  38.40  5.70
  4  3 -3  40.40  6.50
  4  3 -3  36.50  5.20
  4  3 -3  36.10  5.70
 -3 -3  3  53.39  5.30
  3 -3 -3  52.59  5.40
  3 -3 -3  46.40  6.20
  3 -3 -3  43.70  5.50
  3 -3 -3  46.50  5.00
  3 -3 -3  49.99  4.80
 -3 -3  3  55.89  4.80
  3 -3 -3  51.99  4.40
 -3 -3  3  50.89  4.90
  3  3 -3  58.89  5.70
 -3  3  3  53.39  4.90
  3  3 -3  41.80  5.90
 -3  3  3  47.50  6.50
 -3  3  3  56.59  3.80
  3  3 -3  53.19  3.90
  3  3 -3  56.49  5.00
  3  3 -3  50.89  4.10
  3  3 -3  42.30  4.70
 -3  3  3  55.69  4.70
 -2 -3  3 176.58  9.40
  2 -3 -3 167.38  8.30
 -2 -3  3 176.28  7.80
  2 -3 -3 164.58  8.40
 -2 -3  3 183.68  8.60
  2 -3 -3 173.58  8.30
 -2 -3  3 167.98  8.20
  2  3 -3 168.78  8.60
  2  3 -3 180.88  9.60
  2  3 -3 164.88  8.20
 -2  3  3 170.38  7.10
  2  3 -3 161.18  7.60
 -2  3  3 161.18  9.40
 -2  3  3 171.88  8.30
  2  3 -3 170.88  8.50
 -2  3  3 180.18  8.30
 -1 -3  3 1001.80  37.10
 -1 -3  3 1011.40  37.90
  1 -3 -3 979.10  37.90
  1 -3 -3 962.40  37.80
  1 -3 -3 962.40  38.40
 -1 -3  3 987.60  39.30
  1 -3 -3 1000.40  38.70
 -1 -3  3 986.00  37.90
 -1  3  3 963.80  38.50
 -1  3  3 972.60  37.80
 -1  3  3 973.80  39.60
  1  3 -3 1014.00  38.00
 -1  3  3 967.30  38.10
  1  3 -3 995.20  39.40
 -1  3  3 1042.60  37.70
  1  3 -3 939.11  38.00
  1  3 -3 972.40  37.00
  1  3 -3 984.20  37.80
  0 -3  3 1394.26  53.99
  0 -3 -3 1417.46  54.29
  0 -3 -3 1370.26  53.99
  0 -3  3 1396.86  53.99
  0 -3 -3 1454.65  53.99
  0 -3  3 1436.36  53.59
  0 -3 -3 1366.56  53.99
  0 -3 -3 1447.66  53.99
  0 -3  3 1508.65  54.49
  0 -3 -3 1394.76  54.29
  0  3 -3 1422.86  54.09
  0  3  3 1432.26  54.09
  0  3 -3 1397.36  53.39
  0  3 -3 1426.56  53.89
  0  3  3 1434.16  54.89
  0  3 -3 1436.26  53.99
  0  3 -3 1409.46  55.19
  0  3  3 1415.86  53.99
  0  3  3 1482.15  54.99
  0  3 -3 1387.06  54.29
  0  3  3 1389.46  54.29
 -1 -3 -3 352.46  14.70
 -1 -3 -3 343.27  15.20
 -1 -3 -3 321.07  14.40
 -1 -3 -3 333.87  14.50
  1 -3  3 349.07  14.50
 -1 -3 -3 332.77  15.20
  1 -3  3 343.97  14.90
 -1 -3 -3 333.37  14.70
  1 -3  3 351.96  14.40
  1 -3  3 345.67  14.90
  1 -3  3 338.87  13.80
  1 -3  3 345.67  14.60
  1  3  3 357.06  14.70
  1  3  3 349.67  15.40
  1  3  3 327.57  14.50
 -1  3 -3 328.97  14.30
  1  3  3 356.86  15.30
  1  3  3 350.56  14.60
  1  3  3 352.86  14.60
 -1  3 -3 351.66  14.60
 -1  3 -3 340.67  14.70
 -1  3 -3 343.47  13.80
  1  3  3 341.07  13.70
 -1  3 -3 331.37  14.50
 -2 -3 -3 683.23  27.50
  2 -3  3 659.63  27.10
  2 -3  3 659.83  28.00
  2 -3  3 709.23  27.00
 -2 -3 -3 706.63  28.40
 -2 -3 -3 673.33  28.30
  2 -3  3 658.23  28.20
  2 -3  3 708.63  28.00
  2 -3  3 673.73  26.20
 -2 -3 -3 713.53  27.90
  2 -3  3 670.73  27.60
 -2 -3 -3 650.03  28.70
 -2 -3 -3 636.14  27.60
 -2  3 -3 708.53  28.20
  2  3  3 670.13  27.90
 -2  3 -3 676.53  28.00
  2  3  3 691.53  28.10
  2  3  3 702.13  29.30
 -2  3 -3 640.04  27.00
 -2  3 -3 669.73  27.80
  2  3  3 659.43  27.50
 -2  3 -3 659.83  27.90
  2  3  3 691.33  28.10
  2  3  3 665.03  27.30
 -2  3 -3 720.73  27.30
 -2  3 -3 716.93  28.10
  3 -3  3  10.70  3.20
 -3 -3 -3  7.40  2.80
  3 -3  3  10.40  2.30
 -3 -3 -3  3.50  3.40
  3 -3  3  7.90  2.90
 -3 -3 -3  7.80  3.20
  3 -3  3  6.70  2.80
 -3 -3 -3  8.70  4.00
  3 -3  3  9.50  2.20
  3 -3  3  10.00  3.50
 -3 -3 -3  11.10  3.30
 -3  3 -3  5.30  3.40
 -3  3 -3  8.60  3.00
  3  3  3  8.30  3.60
 -3  3 -3  8.10  3.20
  3  3  3  4.90  2.90
  3  3  3  9.60  2.70
 -3  3 -3  6.80  3.70
  3  3  3  12.00  2.60
 -3  3 -3  8.70  3.20
  3  3  3  9.60  2.60
  3  3  3  9.20  2.60
 -3  3 -3  14.10  3.90
  4 -3  3  1.30  3.40
 -4 -3 -3  11.80  4.00
  4 -3  3  2.90  3.90
 -4 -3 -3  8.20  4.20
 -4 -3 -3  15.90  5.30
  4 -3  3  6.40  2.30
 -4  3 -3  10.30  3.70
 -4  3 -3  6.40  5.20
  4  3  3  5.30  2.70
 -4  3 -3  7.10  4.50
  4  3  3  13.00  4.80
 -5 -3 -3  45.00  7.70
 -5 -3 -3  42.10  8.10
 -5 -3 -3  52.59  8.30
  5 -3  3  53.09  8.00
 -5  3 -3  51.49  8.70
 -5  3 -3  61.99  8.90
  5  3  3  57.69  8.50
  5  3  3  49.00  6.80
 -6 -3 -3  8.50  8.70
 -6 -3 -3  6.60  6.70
 -6  3 -3  8.80  8.80
 -6  3 -3  31.30  11.50
  6 -4 -3  17.50  8.60
  6  4 -3  5.40  6.90
  6  4 -3  20.80  8.90
  5 -4 -3 100.89  11.40
  5 -4 -3  87.99  9.20
  5 -4 -3  80.29  11.20
 -5 -4  3  98.29  11.30
  5  4 -3 113.69  10.80
  5  4 -3 111.89  12.80
 -5  4  3  84.49  11.40
  5  4 -3  90.79  11.20
 -5  4  3  94.39  9.60
  4 -4 -3  28.70  4.90
 -4 -4  3  34.30  4.70
  4 -4 -3  28.20  6.10
 -4 -4  3  33.50  5.70
  4 -4 -3  24.10  4.50
  4 -4 -3  37.30  5.70
  4  4 -3  26.90  4.20
  4  4 -3  20.20  4.70
  4  4 -3  41.00  7.30
 -4  4  3  40.80  5.90
 -4  4  3  34.40  5.50
  4  4 -3  34.90  6.20
  3 -4 -3 1258.17  48.10
 -3 -4  3 1205.48  46.90
 -3 -4  3 1100.19  48.00
  3 -4 -3 1117.79  46.50
  3 -4 -3 1219.18  47.00
  3 -4 -3 1116.59  46.30
 -3 -4  3 1182.08  46.50
  3 -4 -3 1250.57  46.50
 -3 -4  3 1086.39  46.10
  3  4 -3 1270.87  48.60
  3  4 -3 1134.39  46.20
 -3  4  3 1180.08  44.80
 -3  4  3 1212.28  46.40
  3  4 -3 1112.99  46.40
 -3  4  3 1113.19  48.00
  3  4 -3 1137.59  45.40
  3  4 -3 1202.68  46.80
 -3  4  3 1128.49  46.40
 -2 -4  3 462.75  18.60
  2 -4 -3 483.25  20.80
 -2 -4  3 459.45  20.90
 -2 -4  3 475.55  19.80
  2 -4 -3 439.46  19.70
 -2 -4  3 468.45  19.40
  2 -4 -3 476.35  19.50
  2 -4 -3 488.25  20.10
  2 -4 -3 455.25  19.50
  2  4 -3 473.75  18.60
  2  4 -3 456.65  19.60
  2  4 -3 482.15  19.80
  2  4 -3 455.35  19.30
 -2  4  3 461.65  19.40
  2  4 -3 493.55  21.30
 -2  4  3 449.95  20.90
 -2  4  3 433.06  19.50
 -1 -4  3 412.36  16.80
  1 -4 -3 416.26  17.40
  1 -4 -3 406.76  16.80
  1 -4 -3 368.96  16.60
 -1 -4  3 399.66  18.10
 -1 -4  3 401.26  16.70
  1 -4 -3 404.06  17.10
 -1 -4  3 402.96  15.80
  1  4 -3 414.96  16.80
 -1  4  3 405.46  17.60
  1  4 -3 393.16  16.50
 -1  4  3 404.56  17.20
 -1  4  3 383.76  16.60
  1  4 -3 420.96  16.80
 -1  4  3 393.56  16.80
  1  4 -3 417.96  18.30
  0 -4 -3 2736.33 102.99
  0 -4 -3 2807.22 103.39
  0 -4 -3 2681.93 102.79
  0 -4  3 2651.33 102.99
  0 -4 -3 2726.43 102.99
  0 -4 -3 2718.63 103.19
  0 -4  3 2756.62 102.39
  0 -4 -3 2672.03 102.99
  0 -4  3 2691.53 102.79
  0 -4  3 2758.02 103.09
  0  4 -3 2794.72 102.69
  0  4 -3 2697.13 103.09
  0  4 -3 2741.33 102.39
  0  4  3 2726.03 103.09
  0  4  3 2661.13 102.89
  0  4 -3 2840.72 104.39
  0  4 -3 2682.43 103.69
  0  4  3 2758.62 102.99
  0  4 -3 2778.52 102.99
  0  4  3 2667.63 103.29
  0  4  3 2704.83 102.99
  0  4 -3 2791.82 103.19
  1 -4  3 1763.82  66.49
 -1 -4 -3 1768.92  67.59
  1 -4  3 1755.72  68.09
  1 -4  3 1790.72  67.49
 -1 -4 -3 1800.72  68.69
  1 -4  3 1780.82  67.69
 -1 -4 -3 1815.32  68.79
 -1 -4 -3 1660.13  67.89
  1 -4  3 1716.53  67.79
  1 -4  3 1759.92  66.29
 -1 -4 -3 1731.43  67.39
 -1  4 -3 1691.73  66.29
  1  4  3 1776.12  67.59
  1  4  3 1733.83  67.39
  1  4  3 1797.32  68.49
  1  4  3 1730.73  66.89
 -1  4 -3 1765.42  68.09
  1  4  3 1780.02  67.69
  1  4  3 1828.42  68.39
 -1  4 -3 1693.93  67.69
 -1  4 -3 1734.43  67.29
  1  4  3 1755.32  67.69
 -1  4 -3 1780.12  67.59
 -1  4 -3 1934.01  69.59
 -2 -4 -3 142.29  8.50
  2 -4  3 130.49  8.20
 -2 -4 -3 135.19  7.80
  2 -4  3 142.89  7.10
 -2 -4 -3 133.59  8.80
  2 -4  3 136.19  7.10
 -2 -4 -3 143.29  7.90
  2 -4  3 142.59  8.20
  2 -4  3 127.59  6.30
  2 -4  3 150.78  8.90
 -2 -4 -3 144.99  8.10
 -2 -4 -3 141.49  8.30
  2 -4  3 134.39  7.90
  2  4  3 139.19  8.20
 -2  4 -3 132.89  8.20
 -2  4 -3 157.98  8.50
  2  4  3 137.69  8.10
  2  4  3 134.29  6.70
  2  4  3 131.49  7.50
  2  4  3 137.99  7.90
 -2  4 -3 137.49  7.20
  2  4  3 128.69  7.40
 -2  4 -3 138.29  8.10
 -2  4 -3 142.49  8.20
  2  4  3 142.79  9.30
 -3 -4 -3 242.58  13.50
 -3 -4 -3 245.68  12.60
 -3 -4 -3 241.58  12.80
  3 -4  3 247.58  12.60
 -3 -4 -3 208.08  12.70
  3 -4  3 262.97  13.00
  3 -4  3 248.38  11.00
  3 -4  3 246.28  10.80
  3 -4  3 238.58  13.60
 -3 -4 -3 258.47  12.80
 -3  4 -3 247.28  12.80
  3  4  3 242.68  14.50
 -3  4 -3 259.37  13.30
  3  4  3 260.27  13.40
  3  4  3 241.28  11.70
  3  4  3 213.78  11.90
  3  4  3 245.88  12.30
 -3  4 -3 219.88  12.30
 -3  4 -3 222.18  12.80
 -3  4 -3 202.98  14.50
 -4 -4 -3  10.30  4.30
  4 -4  3  13.60  4.90
  4 -4  3  11.60  3.90
 -4 -4 -3  16.60  4.80
 -4  4 -3  12.90  6.50
  4  4  3  11.30  5.30
  4  4  3  18.20  3.40
  5 -4  3  7.20  5.30
 -5 -4 -3  7.60  5.50
 -5 -4 -3  -2.60  5.30
 -5 -4 -3  15.10  7.30
 -5  4 -3  10.70  6.30
  5  4  3  8.00  6.30
 -5  4 -3  18.40  7.30
  6 -5 -3  0.80  7.40
  6 -5 -3 -12.00  12.60
  6 -5 -3  10.90  7.30
  6  5 -3  -2.80  7.30
  6  5 -3  0.90  7.90
  6  5 -3  3.10  9.00
  5 -5 -3  59.29  8.40
  5 -5 -3  49.60  7.70
  5 -5 -3  45.20  8.90
 -5 -5  3  52.59  7.00
 -5  5  3  66.29  8.90
  5  5 -3  55.49  9.30
  5  5 -3  52.19  10.40
  5  5 -3  56.89  8.60
  4 -5 -3  5.90  5.20
 -4 -5  3  5.90  4.40
  4 -5 -3  8.70  3.90
  4 -5 -3  10.30  4.40
 -4 -5  3  8.60  3.00
 -4  5  3  6.00  3.90
  4  5 -3  6.00  3.10
 -4  5  3  16.30  4.60
  4  5 -3  4.70  3.80
  4  5 -3  9.70  4.70
  3 -5 -3 950.50  41.80
  3 -5 -3 1092.49  42.50
 -3 -5  3 1045.40  41.10
 -3 -5  3 976.70  41.60
 -3 -5  3 988.90  43.30
  3 -5 -3 1115.69  42.10
 -3 -5  3 1088.79  43.70
  3 -5 -3 974.90  41.90
  3 -5 -3 1122.59  43.70
 -3  5  3 968.60  43.70
  3  5 -3 1107.09  44.40
 -3  5  3 1144.89  42.30
 -3  5  3 990.70  40.80
  3  5 -3 1013.10  40.70
  3  5 -3 1001.50  41.60
  3  5 -3 995.80  41.80
  3  5 -3 1114.59  42.60
  2 -5 -3 159.98  9.50
 -2 -5  3 158.68  9.60
  2 -5 -3 161.28  8.80
 -2 -5  3 161.38  8.50
  2 -5 -3 155.68  8.20
 -2 -5  3 154.58  7.10
 -2 -5  3 154.48  6.20
 -2 -5  3 139.59  8.00
  2 -5 -3 140.99  8.10
  2 -5 -3 139.29  8.30
 -2  5  3 146.29  8.20
 -2  5  3 148.09  6.90
  2  5 -3 153.18  8.30
  2  5 -3 151.28  8.20
 -2  5  3 145.89  9.30
  2  5 -3 141.89  7.00
  2  5 -3 146.49  8.10
  2  5 -3 157.18  9.80
 -2  5  3 162.48  8.30
 -1 -5  3 2343.57  87.59
 -1 -5  3 2349.06  89.29
 -1 -5  3 2374.36  87.69
 -1 -5  3 2314.37  87.59
  1 -5 -3 2336.97  87.79
  1 -5 -3 2339.37  88.09
 -1 -5  3 2324.87  86.59
  1 -5 -3 2185.68  87.89
  1 -5 -3 2151.28  86.19
  1 -5 -3 2255.17  87.49
  1 -5 -3 2357.36  87.89
 -1  5  3 2237.38  87.99
 -1  5  3 2273.47  88.39
  1  5 -3 2276.47  87.19
 -1  5  3 2289.77  87.69
  1  5 -3 2287.87  87.59
  1  5 -3 2392.96  87.79
 -1  5  3 2208.88  87.49
  1  5 -3 2425.26  89.49
  0 -5 -3 358.16  15.40
  0 -5  3 331.97  15.10
  0 -5  3 360.26  15.30
  0 -5  3 354.66  15.00
  0 -5  3 357.76  14.60
  0 -5 -3 336.87  15.20
  0 -5 -3 334.97  14.80
  0  5 -3 358.46  15.30
  0  5  3 344.27  15.50
  0  5  3 338.87  15.20
  0  5 -3 367.96  14.80
  0  5  3 346.37  15.30
  0  5  3 359.76  15.20
  0  5 -3 371.26  14.90
  0  5  3 347.37  15.40
  0  5 -3 348.57  16.00
 -1 -5 -3 528.35  21.70
  1 -5  3 508.75  20.20
  1 -5  3 508.95  21.50
 -1 -5 -3 490.35  21.70
  1 -5  3 541.45  20.30
 -1 -5 -3 518.75  21.50
  1 -5  3 488.55  21.50
 -1 -5 -3 493.55  21.60
 -1 -5 -3 506.35  21.30
  1 -5  3 530.75  21.50
 -1  5 -3 487.15  21.00
 -1  5 -3 529.85  22.40
 -1  5 -3 502.15  22.40
  1  5  3 498.05  21.60
  1  5  3 505.85  21.30
  1  5  3 523.85  22.20
 -1  5 -3 515.75  22.20
  1  5  3 545.65  21.80
  1  5  3 511.65  21.40
 -1  5 -3 522.25  21.60
 -1  5 -3 480.75  20.20
  1  5  3 518.45  21.70
 -1  5 -3 498.15  21.60
 -2 -5 -3  73.39  6.70
 -2 -5 -3  73.89  6.30
  2 -5  3  85.39  6.70
  2 -5  3  74.99  5.90
 -2 -5 -3  82.59  6.10
  2 -5  3  85.99  5.20
 -2 -5 -3  92.49  6.40
  2 -5  3  84.99  4.60
 -2 -5 -3  88.69  6.60
 -2 -5 -3  87.79  6.40
  2 -5  3  75.59  6.10
  2 -5  3  91.69  8.10
  2  5  3  71.69  5.80
  2  5  3  90.89  6.50
  2  5  3  86.39  6.00
  2  5  3  86.59  5.70
  2  5  3  87.59  6.40
 -2  5 -3  87.79  6.40
  2  5  3  81.69  6.10
 -2  5 -3  77.49  6.70
 -2  5 -3  82.69  5.40
  2  5  3  88.79  7.50
 -2  5 -3  86.09  6.60
  3 -5  3 145.89  9.20
 -3 -5 -3 150.38  9.30
 -3 -5 -3 141.19  9.10
  3 -5  3 138.19  7.10
 -3 -5 -3 144.79  9.90
 -3 -5 -3 141.49  9.20
  3 -5  3 115.79  7.80
  3 -5  3 140.59  9.30
 -3  5 -3 115.99  9.20
  3  5  3 127.99  9.50
  3  5  3 134.09  10.70
 -3  5 -3 128.39  9.10
  3  5  3 130.19  8.60
  3  5  3 124.89  8.40
 -3  5 -3 138.39  9.40
 -3  5 -3 150.68  9.60
  4 -5  3  22.20  5.40
 -4 -5 -3  22.00  5.30
 -4 -5 -3  33.60  7.30
 -4 -5 -3  19.30  4.80
  4 -5  3  22.80  5.50
  4  5  3  24.80  6.50
  4  5  3  24.40  6.50
 -4  5 -3  26.30  5.80
  4  5  3  18.10  5.40
 -4  5 -3  21.10  5.80
  5 -5  3  14.50  9.50
  5 -5  3  23.50  6.70
 -5 -5 -3  12.30  6.20
 -5 -5 -3  32.00  9.00
 -5 -5 -3  29.50  6.90
  5  5  3  25.70  8.10
 -5  5 -3  24.60  8.20
  6 -6 -3  4.90  7.10
  5 -6 -3  0.50  7.10
 -5 -6  3  14.00  4.80
  5 -6 -3  11.40  6.70
  5 -6 -3  14.70  5.90
  5  6 -3  13.30  7.50
  5  6 -3  4.40  5.30
  5  6 -3  15.00  6.50
  4 -6 -3  46.40  8.40
 -4 -6  3  48.80  5.20
  4 -6 -3  51.69  6.70
  4 -6 -3  49.40  7.70
 -4 -6  3  49.80  7.00
 -4  6  3  34.90  6.00
  4  6 -3  56.59  7.40
  4  6 -3  34.60  7.20
  3 -6 -3 209.78  12.00
  3 -6 -3 220.58  12.70
 -3 -6  3 232.08  10.80
  3 -6 -3 236.08  14.00
  3 -6 -3 227.48  12.20
 -3 -6  3 230.38  12.50
  3  6 -3 204.98  11.50
  3  6 -3 225.58  14.00
 -3  6  3 235.78  11.90
  3  6 -3 202.68  10.40
  3  6 -3 233.68  12.70
  2 -6 -3 116.59  7.90
  2 -6 -3 111.39  7.60
 -2 -6  3 134.79  9.10
 -2 -6  3 138.99  8.30
  2 -6 -3 138.69  9.10
 -2 -6  3 144.39  6.00
 -2 -6  3 132.09  6.40
  2 -6 -3 130.69  8.50
 -2 -6  3 125.09  7.60
  2 -6 -3 143.89  8.20
 -2  6  3 121.39  7.80
 -2  6  3 122.99  9.00
  2  6 -3 127.09  8.30
  2  6 -3 139.59  9.70
 -2  6  3 129.09  8.30
  2  6 -3 132.09  7.70
 -2  6  3 142.09  8.10
 -1 -6  3 146.09  8.00
  1 -6 -3 149.39  8.40
 -1 -6  3 138.89  9.00
 -1 -6  3 142.19  6.90
  1 -6 -3 139.19  7.90
  1 -6 -3 139.79  6.70
 -1 -6  3 140.69  7.90
  1 -6 -3 132.29  7.80
  1 -6 -3 138.89  8.10
  1 -6 -3 157.78  8.80
 -1  6  3 137.59  8.70
  1  6 -3 149.19  8.00
  1  6 -3 136.19  7.50
  1  6 -3 159.28  8.30
 -1  6  3 136.49  7.90
 -1  6  3 143.99  8.30
  1  6 -3 150.38  9.60
  1  6 -3 144.39  8.70
 -1  6  3 141.39  8.00
 -1  6  3 147.59  6.70
  0 -6 -3 534.55  23.50
  0 -6 -3 571.24  23.40
  0 -6  3 532.85  22.70
  0 -6 -3 545.45  23.10
  0 -6  3 558.24  23.10
  0 -6  3 595.34  23.30
  0 -6 -3 548.95  23.10
  0 -6  3 556.14  22.40
  0 -6 -3 561.54  23.40
  0 -6 -3 547.95  23.10
  0  6 -3 532.75  22.50
  0  6  3 541.65  23.40
  0  6 -3 557.24  23.30
  0  6 -3 538.75  22.40
  0  6 -3 536.35  23.00
  0  6 -3 568.24  24.50
  0  6  3 564.54  23.40
  0  6  3 560.04  23.20
  0  6  3 540.35  23.10
  0  6  3 565.14  23.00
  0  6 -3 515.55  23.70
 -1 -6 -3 1060.19  42.20
  1 -6  3 1058.29  43.60
  1 -6  3 1092.49  42.30
  1 -6  3 1047.10  40.80
  1 -6  3 1107.99  43.40
 -1 -6 -3 1114.09  42.60
 -1 -6 -3 991.60  42.00
  1 -6  3 1088.19  41.10
  1 -6  3 1043.60  42.40
 -1 -6 -3 1010.70  42.50
 -1 -6 -3 1051.39  42.50
  1  6  3 1051.99  42.00
  1  6  3 1013.80  43.30
 -1  6 -3 1055.59  42.50
 -1  6 -3 1068.79  41.90
  1  6  3 1107.19  42.70
 -1  6 -3 1116.09  42.30
 -1  6 -3 1045.70  41.80
 -1  6 -3 1130.69  42.60
 -1  6 -3 1065.39  43.40
  1  6  3 992.20  42.30
 -1  6 -3 1035.50  43.10
  1  6  3 1035.00  42.10
  1  6  3 1124.89  44.80
  2 -6  3  5.70  3.20
 -2 -6 -3  4.20  2.90
 -2 -6 -3  5.70  3.10
 -2 -6 -3  4.90  2.80
  2 -6  3  4.70  2.10
 -2 -6 -3  10.50  3.20
  2 -6  3  10.30  3.10
 -2 -6 -3  0.40  2.50
  2 -6  3  7.70  3.00
  2 -6  3  6.10  1.90
  2 -6  3  2.20  3.00
 -2 -6 -3  7.00  3.40
  2  6  3  4.10  2.80
 -2  6 -3  6.70  3.60
  2  6  3  7.30  2.90
 -2  6 -3  6.20  2.60
 -2  6 -3  3.40  2.80
 -2  6 -3  6.80  3.30
  2  6  3  9.10  3.00
  2  6  3  6.80  2.30
 -2  6 -3  7.50  3.40
  2  6  3  4.30  2.80
  2  6  3  4.20  3.10
 -3 -6 -3  56.69  7.30
 -3 -6 -3  54.69  6.40
  3 -6  3  56.39  6.40
  3 -6  3  51.39  6.80
  3 -6  3  51.19  4.40
 -3 -6 -3  36.30  5.30
 -3 -6 -3  57.99  7.10
 -3 -6 -3  53.19  6.50
  3 -6  3  48.80  5.10
 -3  6 -3  46.30  6.90
  3  6  3  54.79  7.00
  3  6  3  56.89  6.20
 -3  6 -3  55.19  6.70
  3  6  3  45.40  7.00
 -3  6 -3  71.19  7.40
 -4 -6 -3  25.80  7.00
 -4 -6 -3  24.20  5.10
 -4 -6 -3  31.40  5.70
  4 -6  3  28.40  5.70
  4  6  3  33.40  7.60
 -4  6 -3  22.60  6.60
 -4  6 -3  21.60  6.50
 -5 -6 -3  27.60  8.90
  5 -6  3  6.10  6.40
  5 -6  3  9.80  6.70
 -5 -6 -3  7.90  6.00
 -5  6 -3  9.80  7.20
  5  6  3  19.50  8.80
 -5  6 -3  -7.10  6.40
  5 -7 -3  18.40  7.50
  5 -7 -3  -0.60  7.90
  5 -7 -3  20.70  6.80
  5  7 -3  7.50  6.20
  5  7 -3  22.70  8.00
  5  7 -3  15.70  7.70
  4 -7 -3 192.48  14.00
  4 -7 -3 195.18  12.50
 -4 -7  3 177.48  10.80
  4 -7 -3 205.68  13.40
 -4 -7  3 202.98  14.10
  4  7 -3 200.58  15.10
  4  7 -3 199.98  13.80
 -4  7  3 193.28  12.40
 -3 -7  3  2.40  1.90
  3 -7 -3  0.80  3.50
  3 -7 -3  1.20  4.10
 -3 -7  3  1.20  2.90
  3 -7 -3  7.00  3.50
  3  7 -3  -2.50  3.00
  3  7 -3  -0.10  3.70
 -3  7  3  -5.40  3.00
  3  7 -3  -1.70  3.20
  2 -7 -3 535.95  25.70
  2 -7 -3 589.94  25.00
 -2 -7  3 533.05  23.50
 -2 -7  3 603.44  23.10
  2 -7 -3 588.04  25.30
 -2 -7  3 580.54  25.20
 -2 -7  3 596.54  25.30
 -2 -7  3 588.44  29.80
  2 -7 -3 545.05  24.70
  2 -7 -3 618.24  26.10
 -2  7  3 569.04  25.50
  2  7 -3 574.14  22.90
  2  7 -3 602.14  25.40
 -2  7  3 592.74  25.00
  2  7 -3 554.24  24.60
  2  7 -3 598.74  27.10
  2  7 -3 537.95  24.30
  1 -7 -3 950.90  41.00
 -1 -7  3 1027.80  40.80
 -1 -7  3 1002.00  41.00
 -1 -7  3 995.10  39.70
 -1 -7  3 1040.30  42.60
  1 -7 -3 1001.10  39.60
  1 -7 -3 1006.40  40.80
  1 -7 -3 1074.79  41.30
  1 -7 -3 1085.59  41.70
 -1 -7  3 1077.19  41.20
  1 -7 -3 1006.60  40.90
  1 -7 -3 978.20  40.80
 -1  7  3 957.80  40.90
  1  7 -3 1069.39  41.30
  1  7 -3 1006.90  41.80
 -1  7  3 1042.00  41.10
  1  7 -3 1076.69  43.10
  1  7 -3 960.90  40.30
  1  7 -3 1025.60  40.90
 -1  7  3 981.70  41.20
 -1  7  3 1050.89  39.70
 -1  7  3 1004.80  42.00
  0 -7 -3 424.76  19.80
  0 -7 -3 478.15  20.40
  0 -7 -3 421.46  19.40
  0 -7  3 449.76  19.50
  0 -7 -3 481.35  20.50
  0 -7  3 478.25  20.60
  0 -7  3 447.56  20.00
  0 -7 -3 453.95  19.80
  0 -7 -3 458.85  20.10
  0 -7  3 465.05  19.30
  0  7  3 467.75  20.20
  0  7 -3 468.15  21.50
  0  7 -3 437.96  20.80
  0  7  3 443.76  20.20
  0  7  3 447.26  19.90
  0  7 -3 447.96  20.00
  0  7  3 456.95  20.40
  0  7 -3 483.65  20.30
  0  7  3 462.85  19.80
  0  7 -3 444.76  19.20
 -1 -7 -3 139.89  8.30
  1 -7  3 114.39  7.70
  1 -7  3 130.39  6.70
 -1 -7 -3 119.99  7.80
  1 -7  3 118.89  8.70
  1 -7  3 119.59  7.60
 -1 -7 -3 113.89  7.40
  1 -7  3  98.59  8.10
 -1 -7 -3 130.69  7.80
 -1 -7 -3 128.99  8.10
  1  7  3 124.59  8.00
 -1  7 -3 126.59  8.70
 -1  7 -3 120.99  6.90
 -1  7 -3 131.19  7.80
  1  7  3 106.89  7.40
  1  7  3 111.89  8.20
  1  7  3 115.09  7.40
  1  7  3 120.99  8.00
 -1  7 -3 115.49  7.20
 -1  7 -3 114.69  8.80
  1  7  3 113.79  7.40
 -1  7 -3 134.49  8.30
 -1  7 -3  98.69  7.50
 -2 -7 -3  5.00  2.90
 -2 -7 -3  -1.90  2.80
  2 -7  3  4.50  2.20
  2 -7  3  4.40  2.60
 -2 -7 -3  2.00  2.70
  2 -7  3  3.50  2.10
 -2 -7 -3  1.80  3.20
 -2 -7 -3  1.10  3.20
  2 -7  3  3.30  3.50
 -2  7 -3  4.90  3.70
 -2  7 -3  -4.60  3.00
 -2  7 -3  0.50  5.60
  2  7  3  3.50  3.30
 -2  7 -3  6.10  2.80
  2  7  3  5.40  3.00
  2  7  3  4.60  3.30
 -2  7 -3  0.80  3.00
  2  7  3  4.00  2.30
 -3 -7 -3  9.40  4.30
 -3 -7 -3  8.30  3.90
 -3 -7 -3  8.10  4.00
  3 -7  3  2.30  4.10
  3 -7  3  9.80  4.10
  3  7  3  7.80  4.40
  3  7  3  8.20  3.60
  3  7  3  11.60  4.80
 -4 -7 -3  10.70  6.20
  4 -7  3  -4.70  4.20
 -4 -7 -3  4.30  4.70
  4 -7  3  0.10  4.20
 -4 -7 -3  -0.30  5.00
  4  7  3  -5.10  4.60
  4  7  3  2.80  5.30
 -4  7 -3  -3.60  4.50
 -4  7 -3  -6.70  5.30
  5 -7  3  -1.30  6.90
 -5 -7 -3  7.90  7.30
  5 -7  3  12.60  7.90
 -5 -7 -3  25.20  12.70
  5  7  3  -5.70  9.60
 -5  7 -3  2.50  14.90
 -5  7 -3  0.90  11.30
  5  7  3  12.50  8.60
  5 -8 -3  -3.10  6.40
  5 -8 -3  -7.40  9.50
  5 -8 -3  0.90  6.20
  5  8 -3  16.20  8.60
  5  8 -3  11.70  11.80
  5  8 -3  0.00  6.80
  4 -8 -3  56.49  8.00
 -4 -8  3  40.60  8.20
  4 -8 -3  47.50  7.00
  4 -8 -3  43.20  7.80
  4  8 -3  34.50  7.90
  4  8 -3  34.50  7.40
 -4  8  3  43.80  8.00
  3 -8 -3  20.00  4.80
 -3 -8  3  11.80  4.30
 -3 -8  3  14.00  3.60
  3 -8 -3  15.80  6.50
  3 -8 -3  10.40  4.30
 -3  8  3  6.90  3.90
  3  8 -3  16.90  5.80
  3  8 -3  4.40  4.60
  2 -8 -3 532.95  24.20
  2 -8 -3 533.35  23.10
 -2 -8  3 522.95  23.30
  2 -8 -3 524.05  23.20
 -2 -8  3 511.85  23.10
 -2 -8  3 503.35  20.70
  2 -8 -3 441.96  22.40
 -2  8  3 519.15  23.00
  2  8 -3 527.85  25.20
  2  8 -3 470.85  22.40
  2  8 -3 512.25  23.40
 -1 -8  3 126.29  7.00
 -1 -8  3 136.89  8.30
  1 -8 -3 127.19  8.80
  1 -8 -3 122.19  8.20
  1 -8 -3 132.09  9.60
 -1 -8  3 130.59  8.60
 -1 -8  3 111.99  11.50
  1 -8 -3 136.69  8.20
  1 -8 -3 135.09  8.40
  1  8 -3 134.19  10.20
 -1  8  3 108.89  9.20
  1  8 -3 138.29  8.80
 -1  8  3 126.19  8.30
 -1  8  3 129.79  7.10
  1  8 -3 125.09  8.40
  1  8 -3 116.29  7.70
  0 -8 -3 163.48  9.00
  0 -8 -3 136.29  8.90
  0 -8 -3 158.28  10.00
  0 -8 -3 161.38  9.50
  0 -8  3 140.29  8.50
  0 -8 -3 136.49  8.50
  0 -8  3 143.19  12.00
  0 -8  3 167.58  9.50
  0 -8 -3 165.18  9.70
  0 -8  3 159.08  8.70
  0  8 -3 140.69  8.50
  0  8  3 158.88  10.80
  0  8 -3 167.98  14.70
  0  8 -3 163.08  9.60
  0  8 -3 155.18  9.40
  0  8 -3 161.78  10.60
  0  8  3 158.88  9.10
  0  8  3 169.38  9.70
 -1 -8 -3  16.10  3.80
 -1 -8 -3  15.60  4.30
  1 -8  3  21.00  5.00
  1 -8  3  12.50  3.80
 -1 -8 -3  13.80  3.70
  1 -8  3  18.30  3.00
 -1 -8 -3  14.00  3.40
 -1 -8 -3  16.40  3.80
  1 -8  3  20.50  3.90
 -1  8 -3  11.70  4.10
 -1  8 -3  16.10  4.20
  1  8  3  14.90  3.80
 -1  8 -3  21.20  3.30
 -1  8 -3  15.30  3.80
  1  8  3  15.70  4.10
  1  8  3  9.90  3.30
 -1  8 -3  15.80  4.00
  2 -8  3  75.49  6.90
 -2 -8 -3  67.79  6.70
 -2 -8 -3  72.89  7.60
 -2 -8 -3  64.79  6.70
  2 -8  3  80.69  5.50
 -2 -8 -3  75.59  7.60
  2 -8  3  78.19  8.30
  2  8  3  82.79  7.60
 -2  8 -3  73.49  7.60
 -2  8 -3  75.09  7.90
  2  8  3  74.09  8.10
 -2  8 -3  71.89  7.50
 -2  8 -3  78.69  7.50
 -3 -8 -3  0.60  3.70
 -3 -8 -3  -3.20  3.30
 -3 -8 -3  9.10  4.50
  3 -8  3  -1.50  3.40
 -3 -8 -3  2.90  5.00
  3  8  3  -1.10  4.00
  3  8  3  -1.30  3.00
 -3  8 -3  -3.40  3.90
  3  8  3  5.40  4.70
 -3  8 -3  -1.70  4.40
 -3  8 -3  -1.80  3.50
  4 -8  3  13.50  5.90
 -4 -8 -3  12.30  5.40
  4 -8  3  13.40  5.50
 -4 -8 -3  19.80  5.00
 -4 -8 -3  18.40  7.30
  4  8  3  11.10  6.00
  4  8  3  19.40  7.60
 -4  8 -3  16.20  6.50
 -4  8 -3  26.70  7.40
 -5 -8 -3  6.90  9.30
 -5 -8 -3  2.20  6.50
  5 -8  3  5.20  8.00
  5 -8  3  -4.00  8.10
 -5  8 -3  14.40  8.50
 -5  8 -3  14.70  9.00
  5  8  3  25.60  15.30
  5  8  3  -6.40  8.00
  5 -9 -3  3.90  7.00
  5 -9 -3  5.30  8.90
  5 -9 -3  11.40  7.60
  5  9 -3  14.10  8.70
  5  9 -3  -5.40  6.80
  4 -9 -3  27.60  6.70
  4 -9 -3  17.90  6.60
  4 -9 -3  30.00  8.10
  4  9 -3  30.40  8.20
  4  9 -3  26.90  8.40
  3 -9 -3  0.00  3.60
 -3 -9  3  5.40  4.70
  3 -9 -3  -3.80  4.50
  3 -9 -3  -5.20  4.70
  3  9 -3  -1.40  4.70
 -3  9  3  2.10  4.20
  3  9 -3  0.50  4.40
  2 -9 -3  18.10  7.60
  2 -9 -3  17.10  4.70
 -2 -9  3  12.50  3.90
 -2 -9  3  27.60  5.10
  2 -9 -3  20.20  5.60
  2  9 -3  7.40  5.00
 -2  9  3  23.80  5.10
  1 -9 -3 646.14  27.70
 -1 -9  3 641.34  27.20
 -1 -9  3 632.34  27.40
  1 -9 -3 616.14  26.80
  1 -9 -3 655.73  28.40
  1 -9 -3 629.14  27.40
 -1  9  3 613.94  27.40
  1  9 -3 635.14  29.60
  1  9 -3 658.43  27.90
  1  9 -3 606.84  29.80
  1  9 -3 569.84  27.20
 -1  9  3 592.94  26.90
  0 -9 -3 187.48  11.20
  0 -9  3 183.08  9.90
  0 -9  3 178.88  10.90
  0 -9 -3 177.68  10.50
  0 -9 -3 162.48  13.10
  0 -9 -3 179.68  10.80
  0 -9  3 195.28  11.10
  0 -9 -3 198.58  11.90
  0  9  3 145.69  10.90
  0  9 -3 178.98  10.10
  0  9 -3 194.38  11.30
  0  9 -3 167.28  11.10
  0  9 -3 187.18  12.70
  0  9  3 176.18  10.40
  0  9  3 188.48  11.00
  1 -9  3 167.68  11.60
 -1 -9 -3 179.28  10.90
  1 -9  3 157.98  10.20
 -1 -9 -3 171.38  10.80
 -1 -9 -3 155.58  9.80
 -1 -9 -3 153.78  9.80
 -1 -9 -3 141.89  9.80
  1 -9  3 175.18  9.20
  1  9  3 166.48  10.50
 -1  9 -3 159.98  10.60
 -1  9 -3 129.59  10.00
  1  9  3 161.18  10.80
 -1  9 -3 166.68  11.30
 -1  9 -3 171.38  10.30
  1  9  3 144.29  10.30
  2 -9  3 140.09  9.80
 -2 -9 -3 136.69  10.60
 -2 -9 -3 135.19  9.60
 -2 -9 -3 149.09  10.70
  2 -9  3 124.79  9.00
  2  9  3 145.29  10.70
 -2  9 -3 148.69  13.20
 -2  9 -3 138.99  10.40
 -2  9 -3 133.19  10.70
  2  9  3 134.39  11.10
 -3 -9 -3  43.00  8.90
  3 -9  3  43.40  7.60
 -3 -9 -3  40.50  8.60
  3 -9  3  38.80  6.50
 -3 -9 -3  40.10  7.10
 -3 -9 -3  60.59  8.40
 -3  9 -3  45.70  7.80
 -3  9 -3  41.70  8.00
 -3  9 -3  50.79  7.90
  3  9  3  44.40  8.40
  3  9  3  29.00  6.00
  3  9  3  48.70  8.50
  4 -9  3  17.10  6.90
 -4 -9 -3  12.70  6.30
 -4 -9 -3  23.90  8.30
  4 -9  3  18.50  6.50
  4  9  3  -2.70  8.10
  4  9  3  -1.40  6.30
 -4  9 -3  1.90  6.90
 -4  9 -3  8.30  6.80
  4 -10 -3  5.80  5.90
  4 -10 -3  14.30  6.00
  4 -10 -3  6.20  8.20
  4 10 -3  4.10  6.80
  4 10 -3  -1.60  7.00
  3 -10 -3  86.09  9.70
 -3 -10  3  74.39  9.80
  3 -10 -3  96.59  10.20
  3 -10 -3  98.99  11.30
 -3 10  3  79.99  9.30
  3 10 -3  80.79  10.00
  3 10 -3  85.09  11.40
  2 -10 -3 139.99  12.20
 -2 -10  3 140.39  10.80
 -2 -10  3 135.39  12.20
  2 -10 -3 135.19  11.30
  2 -10 -3 152.38  10.50
  2 10 -3 127.29  12.40
  2 10 -3 135.09  11.20
 -2 10  3 136.59  10.40
  1 -10 -3  48.00  6.50
  1 -10 -3  59.79  8.10
 -1 -10  3  58.29  7.10
  1 -10 -3  52.89  6.50
  1 -10 -3  50.49  7.90
 -1 -10  3  59.49  7.40
 -1 10  3  50.29  6.80
  1 10 -3  50.29  6.70
  1 10 -3  31.20  7.80
  0 -10 -3 181.58  12.10
  0 -10  3 156.88  9.80
  0 -10 -3 186.68  16.50
  0 -10 -3 167.88  10.20
  0 -10  3 166.28  10.70
  0 -10 -3 195.08  14.20
  0 10 -3 144.69  13.20
  0 10  3 133.19  9.80
  0 10 -3 156.08  12.00
  0 10  3 157.48  10.80
 -1 -10 -3  95.99  8.30
  1 -10  3  92.99  7.10
  1 -10  3 100.79  10.00
 -1 -10 -3  99.59  9.50
  1 -10  3 104.19  8.60
 -1 -10 -3 101.49  9.40
  1 10  3  90.49  8.70
 -1 10 -3 104.49  9.10
 -1 10 -3 102.79  9.80
  1 10  3  88.39  8.80
 -1 10 -3 116.49  8.90
 -2 -10 -3  19.00  5.10
 -2 -10 -3  11.30  5.60
  2 -10  3  3.50  5.50
  2 -10  3  16.00  5.80
 -2 -10 -3  14.10  4.80
  2 10  3  1.70  4.80
 -2 10 -3  9.10  5.40
 -2 10 -3  8.90  5.10
 -2 10 -3  8.70  4.60
 -3 -10 -3  5.00  4.80
  3 -10  3  3.60  5.50
 -3 -10 -3  10.90  6.90
 -3 -10 -3  11.80  6.10
 -3 -10 -3  1.10  4.80
  3 -10  3  10.20  6.30
  3 10  3  1.90  5.30
 -3 10 -3  16.60  5.90
  3 10  3  -3.40  4.60
  3 10  3  -2.90  6.70
 -3 10 -3  11.90  6.30
 -3 10 -3  4.90  4.90
 -4 -10 -3  -2.40  10.50
  4 -10  3  16.30  7.50
  4 -10  3  12.80  7.20
 -4 -10 -3  14.90  6.80
 -4 10 -3  18.40  7.80
  4 10  3  16.10  10.40
 -4 10 -3  15.80  10.50
  4 -11 -3  -3.70  6.80
  4 -11 -3  3.70  7.90
  4 -11 -3  5.00  7.40
  4 11 -3  -9.10  6.50
  4 11 -3  5.20  8.70
  3 -11 -3  16.60  6.70
  3 -11 -3  17.10  6.80
  3 -11 -3  23.90  7.80
  3 11 -3  13.30  7.10
  3 11 -3  14.20  7.70
 -2 -11  3  4.90  5.30
  2 -11 -3  12.70  6.00
  2 -11 -3  10.10  5.20
 -2 -11  3  6.90  4.80
  2 -11 -3  6.30  5.00
  2 -11 -3  3.30  4.50
 -2 11  3  15.10  5.30
  2 11 -3  4.10  5.10
  2 11 -3  -3.50  4.90
  1 -11 -3  24.40  5.10
  1 -11 -3  14.60  5.40
 -1 -11  3  18.40  5.50
  1 -11 -3  21.00  6.10
  1 -11 -3  16.70  5.00
  1 11 -3  24.70  5.80
  1 11 -3  17.20  6.40
 -1 11  3  23.00  5.70
  0 -11  3 122.19  9.10
  0 -11  3 135.39  10.50
  0 -11 -3 111.69  10.70
  0 -11 -3 115.49  10.40
  0 11  3 113.99  10.10
  0 11 -3 124.99  10.50
  0 11 -3 127.39  11.70
  1 -11  3  12.10  8.10
  1 -11  3  12.40  4.10
 -1 -11 -3  12.80  5.10
 -1 -11 -3  9.50  5.30
 -1 -11 -3  5.80  4.00
 -1 11 -3  12.70  6.40
  1 11  3  18.30  6.40
 -1 11 -3  14.40  5.60
  1 11  3  8.20  4.30
  2 -11  3  16.20  5.30
 -2 -11 -3  12.90  6.60
 -2 -11 -3  18.20  6.70
  2 -11  3  25.30  7.00
 -2 -11 -3  16.70  4.80
  2 11  3  11.30  6.00
 -2 11 -3  14.30  5.30
 -2 11 -3  25.50  7.10
  2 11  3  17.30  6.30
 -2 11 -3  29.10  7.10
 -3 -11 -3  5.90  5.70
  3 -11  3  14.90  7.70
  3 -11  3  13.10  6.80
 -3 -11 -3  19.70  8.30
 -3 -11 -3  12.40  7.00
  3 11  3  3.70  5.80
  3 11  3  3.10  4.80
 -3 11 -3  15.70  7.20
  3 11  3  18.40  8.60
 -3 11 -3  13.50  6.80
  3 -12 -3  -0.20  14.10
  3 -12 -3  2.90  7.00
  3 -12 -3  6.00  10.40
  3 12 -3  5.50  9.80
  2 -12 -3  55.09  8.10
 -2 -12  3  50.99  8.00
  2 -12 -3  61.49  9.30
  2 -12 -3  58.59  8.80
 -2 -12  3  45.70  8.20
  2 -12 -3  46.50  8.60
  2 12 -3  63.59  10.80
  2 12 -3  49.40  9.60
  1 -12 -3  12.50  5.50
 -1 -12  3  3.40  5.10
 -1 -12  3  7.40  4.10
  1 -12 -3  4.20  4.20
  1 -12 -3  4.20  5.70
  1 -12 -3  3.00  5.40
  1 12 -3  3.00  4.80
 -1 12  3  3.40  5.00
  1 12 -3  7.80  6.20
  0 -12  3 109.29  10.20
  0 -12  3 112.99  9.60
  0 -12 -3  99.29  11.50
  0 -12 -3 107.99  11.10
  0 -12 -3 102.49  9.40
  0 12 -3  96.29  11.60
  0 12 -3 128.39  11.30
  0 12  3 102.99  10.60
 -1 -12 -3  35.60  6.80
 -1 -12 -3  40.80  9.00
  1 -12  3  37.70  7.00
 -1 -12 -3  41.30  7.50
 -1 12 -3  41.60  7.80
 -1 12 -3  36.10  7.60
  1 12  3  34.60  7.70
 -2 -12 -3  14.00  7.50
  2 -12  3  7.00  5.90
  2 -12  3  18.80  6.80
 -2 -12 -3  4.80  6.70
 -2 -12 -3  2.10  5.00
 -2 12 -3  1.10  6.00
  2 12  3  -0.70  5.80
 -2 12 -3  -4.30  6.40
  2 12  3  13.30  7.40
 -3 -12 -3  23.60  9.60
 -3 -12 -3  17.80  7.80
  3 -12  3  13.60  8.30
  3 -12  3  15.30  8.30
 -3 -12 -3  11.70  6.70
  3 12  3  -3.50  9.50
 -3 12 -3  25.20  7.90
 -3 12 -3  8.10  8.60
  3 12  3  3.90  7.60
  3 12  3  5.60  5.80
  2 -13 -3  36.20  7.60
 -2 -13  3  30.30  7.70
  2 -13 -3  33.10  15.50
  2 -13 -3  25.80  8.60
  2 -13 -3  27.60  8.30
  2 13 -3  25.70  11.10
  2 13 -3  28.60  9.40
 -1 -13  3  11.00  5.30
  1 -13 -3  7.50  4.90
 -1 -13  3  4.90  7.00
  1 -13 -3  -1.60  6.10
  1 -13 -3  7.00  7.00
  1 -13 -3  11.90  6.20
  1 13 -3  2.90  5.60
  1 13 -3  6.20  7.30
  0 -13 -3  -4.00  6.60
  0 -13  3  7.80  6.50
  0 -13 -3  -1.20  5.00
  0 -13 -3  4.90  6.50
  0 13 -3  0.70  6.40
  0 13 -3  -0.40  6.50
  0 13  3  5.90  6.70
 -1 -13 -3  29.10  6.50
 -1 -13 -3  40.10  11.90
 -1 -13 -3  37.50  11.50
  1 -13  3  30.10  7.50
 -1 13 -3  19.90  7.20
 -1 13 -3  25.40  8.20
  1 13  3  21.90  8.40
  2 -13  3  35.00  9.80
 -2 -13 -3  13.90  7.90
 -2 -13 -3  13.00  6.90
 -2 -13 -3  23.60  9.50
  2 -13  3  17.90  7.80
  2 13  3  18.80  9.50
 -2 13 -3  24.20  8.50
  0 -14 -3  0.60  7.30
  0 -14 -3  5.30  8.30
  0 14 -3  1.30  8.10
  6  0 -4  15.90  8.80
  6  0 -4  20.60  7.00
  5  0 -4 202.28  15.70
  5  0 -4 200.88  12.80
  4  0 -4  24.30  4.40
 -4  0  4  24.80  4.80
  4  0 -4  24.20  4.40
 -4  0  4  27.10  4.20
  4  0 -4  32.20  6.50
  4  0 -4  28.30  4.90
  3  0 -4 1999.40  76.89
  3  0 -4 1857.51  74.29
  3  0 -4 1904.91  74.49
 -3  0  4 1973.60  74.99
  3  0 -4 1981.10  74.39
 -3  0  4 2057.09  74.69
  3  0 -4 1897.61  73.39
  3  0 -4 1878.41  73.39
 -3  0  4 1854.21  74.29
  3  0 -4 2015.50  74.89
  2  0 -4 6637.14 248.88
 -2  0  4 6620.24 249.38
 -2  0  4 6745.73 248.88
  2  0 -4 6605.94 248.58
 -2  0  4 6752.82 248.68
  2  0 -4 6484.65 248.38
  2  0 -4 6642.94 248.68
 -2  0  4 6483.35 248.58
  2  0 -4 6878.71 249.38
  2  0 -4 6815.42 250.87
 -1  0  4 555.64  22.20
  1  0 -4 536.35  22.00
 -1  0  4 553.14  20.60
  1  0 -4 545.85  22.50
 -1  0  4 562.84  21.70
  1  0 -4 543.05  21.70
  1  0 -4 522.55  22.10
  0  0 -4 2120.99  77.09
  0  0 -4 2073.29  78.19
  0  0 -4 1999.10  76.79
  0  0 -4 2077.29  77.69
  0  0  4 2024.60  77.09
  0  0  4 2077.79  76.59
  0  0  4 2050.89  77.59
  0  0 -4 2096.09  76.39
  0  0  4 2026.90  78.19
  0  0 -4 1922.71  77.49
  1  0  4 1830.62  69.19
 -1  0 -4 1701.23  68.59
  1  0  4 1808.62  68.29
 -1  0 -4 1816.82  68.39
 -1  0 -4 1733.73  67.19
 -1  0 -4 1757.42  68.29
 -1  0 -4 1776.12  67.39
 -1  0 -4 1759.02  69.19
  1  0  4 1833.72  67.39
  1  0  4 1858.41  69.39
  1  0  4 1865.61  68.29
  1  0  4 1851.11  68.49
  1  0  4 1893.11  68.79
 -1  0 -4 1683.03  69.19
 -1  0 -4 1818.92  68.29
  2  0  4 1383.26  52.59
 -2  0 -4 1291.27  53.59
  2  0  4 1386.86  52.19
  2  0  4 1340.37  50.79
 -2  0 -4 1304.67  52.59
  2  0  4 1395.36  52.49
  2  0  4 1346.67  51.99
 -2  0 -4 1353.86  52.19
  2  0  4 1307.97  52.39
 -2  0 -4 1400.16  52.69
  2  0  4 1307.87  52.89
 -2  0 -4 1270.37  50.89
  2  0  4 1330.37  50.89
 -2  0 -4 1365.16  52.99
  3  0  4  95.89  6.40
  3  0  4  82.79  6.70
  3  0  4  88.19  6.20
 -3  0 -4  75.59  6.80
 -3  0 -4  92.69  7.60
  3  0  4  84.39  6.80
  3  0  4  92.99  5.20
 -3  0 -4  88.89  6.60
  3  0  4  78.69  6.90
  3  0  4  86.89  5.30
 -3  0 -4  89.59  7.60
 -3  0 -4  75.39  7.90
 -3  0 -4 105.39  6.80
 -4  0 -4 259.67  20.90
 -4  0 -4 183.98  16.70
 -4  0 -4 240.08  13.90
 -4  0 -4 229.58  13.20
  4  0  4 249.97  13.70
  4  0  4 222.98  12.10
 -5  0 -4  9.20  5.40
 -5  0 -4  8.60  7.10
 -5  0 -4  1.80  6.20
  5  0  4  10.90  6.20
  6 -1 -4  10.40  8.90
  6 -1 -4  23.80  7.10
  6  1 -4  12.30  8.50
  5 -1 -4 118.89  12.90
  5 -1 -4 124.99  10.30
  5  1 -4 137.99  10.60
  5  1 -4 121.89  10.50
  5  1 -4 123.09  12.90
 -4 -1  4  29.30  4.80
  4 -1 -4  28.10  4.90
 -4 -1  4  31.70  4.90
  4 -1 -4  30.90  3.90
  4 -1 -4  39.40  8.30
  4 -1 -4  36.10  6.60
  4  1 -4  37.40  6.80
  4  1 -4  29.20  4.90
  4  1 -4  33.50  5.00
  4  1 -4  23.70  3.90
 -4  1  4  23.10  4.50
 -3 -1  4 361.66  15.70
  3 -1 -4 359.86  15.40
  3 -1 -4 382.96  15.60
  3 -1 -4 339.97  15.40
  3 -1 -4 379.46  17.90
 -3 -1  4 342.47  16.10
  3 -1 -4 330.57  14.70
  3 -1 -4 348.27  14.20
  3 -1 -4 346.87  15.50
 -3 -1  4 325.17  15.20
  3  1 -4 336.77  15.40
  3  1 -4 367.36  16.30
  3  1 -4 350.16  15.00
  3  1 -4 327.47  15.00
  3  1 -4 323.67  14.00
 -3  1  4 367.46  15.50
  3  1 -4 371.56  18.00
 -3  1  4 341.27  15.40
  3  1 -4 330.77  14.70
  3  1 -4 364.86  15.60
 -3  1  4 336.67  14.30
 -2 -1  4 655.03  27.30
  2 -1 -4 670.83  28.20
 -2 -1  4 648.14  26.70
  2 -1 -4 674.23  26.20
  2 -1 -4 689.33  26.10
  2 -1 -4 659.63  26.20
  2 -1 -4 660.83  25.90
 -2 -1  4 641.34  26.00
  2 -1 -4 708.03  26.20
 -2  1  4 669.73  26.30
  2  1 -4 676.73  25.30
 -2  1  4 680.13  26.50
  2  1 -4 689.13  26.20
  2  1 -4 605.94  28.70
 -2  1  4 636.14  27.80
 -2  1  4 654.23  26.10
  2  1 -4 651.53  26.20
 -2  1  4 661.83  26.40
  2  1 -4 709.13  27.40
  2  1 -4 662.23  26.40
  2  1 -4 647.74  26.00
  2  1 -4 667.93  26.30
  1 -1 -4 2020.80  76.39
  1 -1 -4 2031.80  77.79
 -1 -1  4 2085.89  76.59
  1 -1 -4 2011.10  77.99
 -1 -1  4 2092.19  76.59
  1 -1 -4 2071.89  78.29
 -1 -1  4 2101.39  77.99
  1 -1 -4 1977.70  76.49
 -1 -1  4 2100.99  77.59
  1 -1 -4 1939.41  77.29
  1 -1 -4 1967.90  77.29
  1  1 -4 2079.39  76.49
 -1  1  4 2180.28  78.29
  1  1 -4 2035.00  77.99
 -1  1  4 2009.20  76.49
  1  1 -4 2101.19  77.09
  1  1 -4 2038.30  77.59
  1  1 -4 2035.00  78.29
  1  1 -4 2025.10  76.99
 -1  1  4 2087.39  77.39
  0 -1 -4 1584.14  58.89
  0 -1  4 1565.94  58.19
  0 -1 -4 1593.64  58.19
  0 -1 -4 1539.05  59.69
  0 -1 -4 1498.75  58.99
  0 -1 -4 1534.65  57.99
  0 -1  4 1557.44  59.09
  0 -1 -4 1529.05  58.59
  0 -1 -4 1538.45  59.39
  0 -1 -4 1541.65  58.49
  0 -1  4 1571.04  59.09
  0 -1  4 1552.04  58.39
  0 -1  4 1561.14  59.69
  0  1 -4 1536.45  58.29
  0  1  4 1546.75  58.09
  0  1 -4 1562.54  58.09
  0  1  4 1602.64  59.89
  0  1  4 1505.25  58.59
  0  1  4 1607.04  59.19
  0  1 -4 1539.65  58.09
  0  1 -4 1522.25  59.09
  0  1 -4 1447.56  59.59
  0  1  4 1549.74  58.99
  0  1 -4 1545.95  58.09
  0  1 -4 1566.74  59.09
 -1 -1 -4 1104.89  42.50
  1 -1  4 1158.08  42.70
 -1 -1 -4 1058.89  42.30
  1 -1  4 1123.19  43.20
  1 -1  4 1097.89  42.70
 -1 -1 -4 1056.39  43.20
 -1 -1 -4 1083.79  41.80
  1 -1  4 1109.79  42.50
 -1 -1 -4 1069.29  43.20
 -1 -1 -4 1128.99  42.60
  1 -1  4 1137.59  43.30
 -1  1 -4 1124.39  42.20
 -1  1 -4 1079.89  43.30
 -1  1 -4 1072.69  41.80
  1  1  4 1109.99  42.50
  1  1  4 1090.09  41.80
  1  1  4 1096.29  43.20
  1  1  4 1124.29  42.90
 -1  1 -4 1028.40  42.60
 -1  1 -4 1115.79  43.10
 -1  1 -4 1075.09  42.40
  1  1  4 1093.99  42.40
 -1  1 -4 1065.89  42.30
  1  1  4 1130.29  43.50
  1  1  4 1109.59  42.40
  2 -1  4 188.68  10.20
  2 -1  4 187.48  8.70
  2 -1  4 192.38  9.20
 -2 -1 -4 198.98  10.60
 -2 -1 -4 183.68  10.80
 -2 -1 -4 178.48  10.60
  2 -1  4 191.78  8.00
 -2 -1 -4 179.88  9.90
  2 -1  4 196.38  9.50
  2 -1  4 190.88  9.60
  2 -1  4 191.08  9.80
 -2 -1 -4 204.48  9.70
 -2 -1 -4 199.58  10.20
 -2  1 -4 188.68  10.10
  2  1  4 185.48  9.90
  2  1  4 182.18  10.00
  2  1  4 199.38  9.80
 -2  1 -4 192.88  10.40
  2  1  4 185.78  9.70
  2  1  4 185.88  9.40
  2  1  4 196.38  9.70
 -2  1 -4 189.48  8.90
 -2  1 -4 201.18  10.10
 -2  1 -4 186.08  10.90
  2  1  4 192.88  8.70
  3 -1  4  11.60  1.90
  3 -1  4  4.50  2.70
  3 -1  4  9.80  2.80
  3 -1  4  6.10  2.30
  3 -1  4  0.80  2.60
 -3 -1 -4  1.30  2.70
 -3 -1 -4  3.60  2.90
 -3 -1 -4  5.50  3.40
  3 -1  4  6.00  2.50
  3 -1  4  5.90  2.90
 -3 -1 -4  0.10  3.00
 -3 -1 -4  2.70  3.70
 -3 -1 -4  -0.20  3.00
  3  1  4  3.00  2.60
 -3  1 -4  5.70  3.40
  3  1  4  9.30  2.70
 -3  1 -4  -2.20  3.30
 -3  1 -4  3.90  2.30
 -3  1 -4  5.10  4.10
  3  1  4  8.70  3.60
 -3  1 -4  7.20  3.70
  3  1  4  8.50  3.00
  3  1  4  5.10  1.80
 -3  1 -4  0.70  2.70
 -3  1 -4  12.70  3.40
  3  1  4  9.00  3.20
  3  1  4  11.50  3.50
  3  1  4  9.20  2.20
  4 -1  4 130.59  8.60
 -4 -1 -4 152.88  11.80
 -4 -1 -4 145.19  11.20
  4  1  4 137.19  9.20
 -4  1 -4 146.29  11.00
 -4  1 -4 138.89  9.80
  4  1  4 134.69  10.10
 -5 -1 -4  14.50  7.30
  5 -1  4  6.80  5.40
 -5 -1 -4  20.10  6.10
 -5 -1 -4  22.40  7.10
 -5  1 -4  19.90  7.20
  5  1  4  10.00  6.20
  5  1  4  12.00  4.20
 -5  1 -4  13.80  5.60
 -5  1 -4  3.30  6.70
  6 -2 -4  39.50  7.90
  6 -2 -4  38.50  10.30
  6  2 -4  34.40  8.40
  6  2 -4  29.60  8.50
  6  2 -4  24.90  9.70
  5 -2 -4  4.90  6.10
  5 -2 -4  11.60  4.90
  5  2 -4  -2.30  5.80
  5  2 -4  10.40  4.90
  5  2 -4  6.40  4.60
 -4 -2  4  60.19  6.50
  4 -2 -4  56.49  5.10
 -4 -2  4  60.29  6.20
  4 -2 -4  64.79  7.10
  4 -2 -4  57.79  7.90
  4  2 -4  63.19  8.30
 -4  2  4  62.89  6.50
  4  2 -4  69.19  7.10
  4  2 -4  47.80  6.50
  4  2 -4  52.19  5.30
 -3 -2  4  46.70  4.60
  3 -2 -4  54.49  4.60
  3 -2 -4  49.50  4.50
  3 -2 -4  50.09  3.90
  3 -2 -4  49.40  7.20
  3 -2 -4  51.79  6.40
 -3 -2  4  42.40  5.00
 -3 -2  4  39.30  4.20
  3 -2 -4  47.90  4.00
 -3  2  4  39.60  4.30
 -3  2  4  48.90  4.50
  3  2 -4  45.20  6.40
  3  2 -4  44.40  4.80
  3  2 -4  43.10  4.40
  3  2 -4  57.59  5.50
 -3  2  4  43.60  3.60
  3  2 -4  46.10  3.30
 -3  2  4  37.30  5.50
 -3  2  4  51.99  3.60
  3  2 -4  43.50  3.90
  2 -2 -4 972.60  36.50
  2 -2 -4 1000.80  39.20
 -2 -2  4 951.80  37.10
  2 -2 -4 946.51  37.30
  2 -2 -4 989.90  37.10
  2 -2 -4 913.71  37.50
 -2 -2  4 986.10  38.80
  2 -2 -4 1004.60  41.80
  2 -2 -4 921.71  36.70
 -2  2  4 939.41  39.00
 -2  2  4 994.20  37.70
  2  2 -4 952.40  37.50
  2  2 -4 992.70  38.90
  2  2 -4 921.61  37.40
  2  2 -4 980.60  37.30
  2  2 -4 932.51  37.00
 -2  2  4 953.50  37.20
 -2  2  4 957.20  36.50
 -2  2  4 951.90  36.70
  2  2 -4 942.81  37.40
  1 -2 -4 746.63  28.90
 -1 -2  4 778.22  30.80
  1 -2 -4 741.73  28.80
  1 -2 -4 774.02  30.30
  1 -2 -4 730.43  29.40
 -1 -2  4 766.72  29.00
  1 -2 -4 738.43  29.90
  1 -2 -4 726.63  28.90
 -1  2  4 771.52  30.30
 -1  2  4 754.22  28.90
  1  2 -4 758.42  28.90
  1  2 -4 749.62  30.70
  1  2 -4 774.82  29.90
 -1  2  4 777.12  29.50
  1  2 -4 766.52  28.90
  1  2 -4 737.33  28.90
  1  2 -4 753.82  30.10
  0 -2 -4 1066.09  41.40
  0 -2 -4 1037.70  41.20
  0 -2 -4 1101.09  41.40
  0 -2  4 1125.59  42.00
  0 -2 -4 1081.89  41.80
  0 -2 -4 1063.59  42.10
  0 -2 -4 1096.69  42.00
  0 -2 -4 975.00  42.40
  0 -2  4 1125.89  42.10
  0 -2  4 1149.89  41.40
  0  2  4 1071.69  41.80
  0  2  4 1136.89  41.40
  0  2 -4 1087.19  43.00
  0  2 -4 1066.29  41.30
  0  2 -4 1066.39  42.10
  0  2 -4 1071.19  42.70
  0  2  4 1099.19  41.50
  0  2 -4 1058.99  40.90
  0  2  4 1136.69  42.20
  0  2 -4 1087.59  41.90
  0  2 -4 1083.59  41.30
  0  2  4 1123.99  42.90
  1 -2  4 3296.77 122.09
 -1 -2 -4 3195.78 122.79
 -1 -2 -4 2992.90 122.49
 -1 -2 -4 3314.57 122.19
  1 -2  4 3329.27 121.39
 -1 -2 -4 3218.78 121.59
  1 -2  4 3314.87 121.79
  1 -2  4 3251.37 122.59
  1 -2  4 3173.58 121.89
 -1 -2 -4 3197.18 122.99
 -1 -2 -4 3102.99 121.69
 -1 -2 -4 3278.57 122.09
  1  2  4 3187.48 121.59
 -1  2 -4 3310.77 121.79
  1  2  4 3238.78 121.89
 -1  2 -4 3146.89 121.89
 -1  2 -4 3234.28 121.69
 -1  2 -4 3096.59 121.99
  1  2  4 3371.06 122.49
 -1  2 -4 3234.68 122.89
 -1  2 -4 3272.17 121.39
 -1  2 -4 3286.77 122.49
  1  2  4 3318.37 122.09
  1  2  4 3264.17 121.99
  1  2  4 3312.77 122.99
 -2 -2 -4 132.19  6.90
 -2 -2 -4 124.19  7.80
 -2 -2 -4 126.79  7.90
  2 -2  4 132.39  7.00
  2 -2  4 120.39  7.80
 -2 -2 -4 130.49  7.40
  2 -2  4 125.29  6.80
  2 -2  4 120.49  7.40
  2 -2  4 128.79  7.40
 -2 -2 -4 133.49  8.20
 -2 -2 -4 129.69  7.40
  2 -2  4 122.99  6.80
 -2 -2 -4 120.49  8.60
  2  2  4 119.99  7.40
  2  2  4 126.79  7.20
 -2  2 -4 134.59  7.80
  2  2  4 127.19  7.60
  2  2  4 134.99  7.80
 -2  2 -4 122.99  8.10
 -2  2 -4 129.59  8.00
 -2  2 -4 125.59  7.50
  2  2  4 133.69  7.60
  2  2  4 123.49  6.70
 -2  2 -4 148.79  7.20
  3 -2  4 201.48  9.80
 -3 -2 -4 208.28  11.70
 -3 -2 -4 177.68  10.70
  3 -2  4 205.08  10.00
 -3 -2 -4 184.18  11.20
  3 -2  4 194.68  10.90
  3 -2  4 188.88  9.00
  3 -2  4 182.58  10.00
 -3 -2 -4 197.18  10.70
  3  2  4 188.28  11.10
  3  2  4 201.88  10.50
 -3  2 -4 181.58  12.30
 -3  2 -4 178.28  10.50
  3  2  4 176.18  9.40
 -3  2 -4 182.78  10.10
  3  2  4 179.98  10.90
 -3  2 -4 210.78  11.40
 -3  2 -4 173.78  10.90
  3  2  4 181.18  8.70
  3  2  4 189.48  10.40
 -3  2 -4 196.08  11.40
 -3  2 -4 195.28  10.20
  4 -2  4  -0.10  2.80
 -4 -2 -4  3.10  4.40
  4 -2  4  5.10  3.80
 -4 -2 -4  0.90  4.00
 -4 -2 -4  -5.30  5.70
 -4  2 -4  4.70  3.90
 -4  2 -4  -2.90  5.50
  4  2  4  0.50  3.10
  4  2  4  12.10  4.40
  4  2  4  1.30  2.50
 -5 -2 -4  11.10  6.10
  5 -2  4  13.50  6.00
 -5 -2 -4  13.70  5.60
 -5 -2 -4  10.70  7.40
  5  2  4  13.50  4.30
 -5  2 -4  23.80  6.50
 -5  2 -4  14.00  7.40
  5  2  4  18.40  6.80
 -5  2 -4  27.10  7.50
  6 -3 -4  11.40  7.00
  6 -3 -4  10.50  7.70
  6 -3 -4  2.30  8.30
  6  3 -4  -2.00  9.10
  6  3 -4  11.70  8.00
  6  3 -4  2.30  6.10
  5 -3 -4  16.20  5.20
  5 -3 -4  20.30  7.30
  5 -3 -4  21.30  6.30
  5  3 -4  19.40  7.20
  5  3 -4  14.70  5.50
 -4 -3  4 809.52  36.70
  4 -3 -4 842.62  35.20
  4 -3 -4 842.22  34.20
  4 -3 -4 866.01  36.50
  4 -3 -4 737.13  33.70
  4  3 -4 821.92  35.60
  4  3 -4 812.62  37.00
 -4  3  4 872.81  35.10
  4  3 -4 841.82  34.60
  4  3 -4 702.53  32.80
  3 -3 -4 275.17  12.30
 -3 -3  4 255.67  12.40
  3 -3 -4 252.27  13.30
  3 -3 -4 269.77  14.30
 -3 -3  4 277.67  13.20
  3 -3 -4 247.68  12.00
  3 -3 -4 249.08  12.40
 -3 -3  4 262.47  13.60
  3  3 -4 249.28  12.80
 -3  3  4 225.88  13.60
  3  3 -4 248.18  11.20
 -3  3  4 254.87  10.90
  3  3 -4 286.57  14.00
  3  3 -4 248.48  12.10
 -3  3  4 253.37  11.70
  3  3 -4 273.27  12.60
  3  3 -4 236.78  11.50
 -3  3  4 250.47  12.00
 -3  3  4 236.58  14.80
  2 -3 -4 734.83  28.90
 -2 -3  4 694.83  29.50
 -2 -3  4 685.33  27.70
 -2 -3  4 702.03  28.00
  2 -3 -4 711.43  29.50
  2 -3 -4 683.93  28.30
  2 -3 -4 690.73  27.80
  2 -3 -4 687.63  28.50
 -2  3  4 691.03  27.70
 -2  3  4 700.93  29.60
  2  3 -4 698.73  28.40
 -2  3  4 722.03  28.40
  2  3 -4 677.33  28.00
  2  3 -4 730.73  29.00
 -2  3  4 698.23  27.00
  2  3 -4 702.93  27.20
  2  3 -4 692.23  27.60
  1 -3 -4 3105.29 122.59
 -1 -3  4 3304.77 124.69
 -1 -3  4 3300.57 122.89
  1 -3 -4 3245.28 122.79
  1 -3 -4 3343.67 123.79
  1 -3 -4 3255.57 123.59
 -1 -3  4 3307.37 122.39
 -1  3  4 3297.97 123.29
  1  3 -4 3278.07 123.49
  1  3 -4 3376.76 122.89
 -1  3  4 3233.28 123.69
  1  3 -4 3279.67 124.69
 -1  3  4 3317.47 124.09
  1  3 -4 3252.67 122.19
 -1  3  4 3257.07 122.79
  1  3 -4 3293.87 123.79
  1  3 -4 3288.47 122.79
 -1  3  4 3285.87 122.99
 -1  3  4 3197.58 123.99
  0 -3 -4 1037.40  40.10
  0 -3  4 1032.70  40.00
  0 -3 -4 1048.50  40.30
  0 -3 -4 1013.60  40.00
  0 -3 -4 1006.50  39.60
  0 -3 -4 1029.00  39.50
  0 -3  4 1074.09  39.70
  0 -3 -4 1000.50  39.50
  0  3  4 1017.90  40.10
  0  3 -4 1000.90  40.20
  0  3  4 1067.79  40.30
  0  3 -4 1004.90  40.40
  0  3 -4 1035.70  39.60
  0  3  4 1019.90  39.60
  0  3 -4 1010.40  39.00
  0  3 -4 1036.90  39.80
  0  3 -4 1047.70  41.30
  0  3  4 1068.19  41.10
  0  3 -4 1054.89  39.70
  0  3  4 1026.00  39.80
  0  3 -4 1012.00  40.80
 -1 -3 -4 1031.10  39.70
  1 -3  4 1016.30  39.30
  1 -3  4 1012.30  39.40
  1 -3  4 989.70  39.80
  1 -3  4 1012.20  38.50
 -1 -3 -4 1009.50  39.20
  1 -3  4 979.80  39.50
 -1 -3 -4 988.80  41.40
  1 -3  4 1012.00  39.20
 -1 -3 -4 968.80  39.10
 -1 -3 -4 983.00  40.10
 -1  3 -4 1034.40  39.70
  1  3  4 1010.30  39.50
 -1  3 -4 1037.70  41.40
 -1  3 -4 967.50  39.30
 -1  3 -4 1017.60  38.50
  1  3  4 1008.90  39.40
  1  3  4 975.80  39.10
  1  3  4 983.20  39.20
 -1  3 -4 988.30  39.40
  1  3  4 1031.30  40.40
 -1  3 -4 1048.20  39.60
  1  3  4 1001.80  37.90
 -2 -3 -4 896.31  36.10
  2 -3  4 830.82  35.70
  2 -3  4 856.61  35.50
  2 -3  4 912.51  35.10
  2 -3  4 894.71  35.30
 -2 -3 -4 812.62  35.00
 -2 -3 -4 884.01  34.70
 -2 -3 -4 899.71  35.40
  2 -3  4 907.11  34.70
 -2 -3 -4 840.72  36.30
 -2 -3 -4 885.31  35.70
  2 -3  4 869.01  34.50
  2  3  4 847.82  34.70
  2  3  4 931.71  36.00
 -2  3 -4 892.01  37.70
 -2  3 -4 808.62  35.20
 -2  3 -4 828.12  35.60
  2  3  4 848.32  33.20
 -2  3 -4 883.81  35.60
 -2  3 -4 901.11  34.50
 -2  3 -4 824.72  34.90
  2  3  4 862.01  35.20
 -2  3 -4 930.41  35.50
  2  3  4 877.11  35.40
  2  3  4 926.81  35.60
 -3 -3 -4 689.93  29.60
  3 -3  4 698.93  29.00
  3 -3  4 639.64  27.80
 -3 -3 -4 706.93  29.50
 -3 -3 -4 623.24  28.50
  3 -3  4 656.73  27.40
  3 -3  4 671.73  26.40
 -3 -3 -4 677.13  28.70
  3 -3  4 677.33  28.10
 -3  3 -4 639.24  28.90
 -3  3 -4 715.43  28.20
 -3  3 -4 706.63  29.30
  3  3  4 687.73  28.60
  3  3  4 663.43  26.80
 -3  3 -4 679.73  29.70
  3  3  4 679.03  28.60
  3  3  4 685.13  29.30
 -3  3 -4 605.84  28.30
 -3  3 -4 763.12  29.50
  3  3  4 619.54  27.60
 -4 -3 -4  12.90  5.00
  4 -3  4  3.70  4.00
 -4 -3 -4  2.90  3.90
 -4 -3 -4  8.70  5.70
  4 -3  4  9.90  3.70
  4 -3  4  2.60  2.60
 -4  3 -4  9.30  4.00
  4  3  4  10.40  3.60
 -4  3 -4  -1.80  4.10
 -4  3 -4  10.10  5.00
  4  3  4  10.00  3.60
  4  3  4  11.10  4.70
 -5 -3 -4  24.40  7.30
 -5 -3 -4  23.00  6.40
 -5 -3 -4  15.20  7.10
  5 -3  4  9.10  6.00
  5  3  4  11.90  5.00
 -5  3 -4  22.30  6.70
 -5  3 -4  19.60  7.60
 -5  3 -4  26.60  7.50
  5  3  4  23.80  7.60
  6 -4 -4  -0.30  8.30
  6  4 -4  -7.30  9.00
  6  4 -4  -3.80  6.20
  5 -4 -4  6.70  4.70
  5 -4 -4  16.10  6.90
  5 -4 -4  14.00  6.00
  5  4 -4  15.70  5.90
  5  4 -4  11.90  7.00
  5  4 -4  13.10  5.50
 -4 -4  4 316.97  16.30
  4 -4 -4 329.57  18.20
  4 -4 -4 336.57  16.20
  4 -4 -4 274.57  15.20
  4 -4 -4 346.17  17.40
  4  4 -4 317.57  19.10
  4  4 -4 310.97  16.30
 -4  4  4 346.87  15.90
  4  4 -4 344.77  18.20
  4  4 -4 290.37  14.70
  3 -4 -4 220.18  11.60
  3 -4 -4 242.58  13.80
 -3 -4  4 221.38  11.30
  3 -4 -4 256.87  11.70
  3 -4 -4 216.68  12.70
  3 -4 -4 238.38  12.70
 -3 -4  4 218.28  12.80
 -3 -4  4 238.38  11.90
  3  4 -4 210.98  11.90
  3  4 -4 241.98  13.60
  3  4 -4 241.88  12.00
  3  4 -4 228.88  10.80
  3  4 -4 215.78  10.60
 -3  4  4 210.88  13.20
  3  4 -4 230.18  11.40
 -3  4  4 241.58  11.30
 -3  4  4 251.27  11.60
 -3  4  4 229.18  11.70
  2 -4 -4 620.94  24.40
  2 -4 -4 633.14  26.00
 -2 -4  4 607.74  24.30
  2 -4 -4 561.24  24.70
 -2 -4  4 621.44  24.60
 -2 -4  4 589.74  26.10
  2 -4 -4 590.54  24.30
  2 -4 -4 596.24  25.10
  2  4 -4 594.54  24.20
  2  4 -4 611.94  26.50
 -2  4  4 566.14  24.30
 -2  4  4 591.64  24.30
 -2  4  4 566.34  25.80
 -2  4  4 605.74  23.40
  2  4 -4 594.04  23.40
 -2  4  4 614.54  25.00
  2  4 -4 608.84  24.60
  2  4 -4 593.84  24.60
  1 -4 -4 712.43  28.80
  1 -4 -4 702.83  28.80
 -1 -4  4 727.93  29.00
  1 -4 -4 745.73  29.70
  1 -4 -4 732.23  30.50
 -1 -4  4 725.83  28.90
 -1 -4  4 743.23  28.20
 -1 -4  4 722.73  30.80
  1  4 -4 739.63  28.00
  1  4 -4 757.42  31.10
  1  4 -4 711.83  28.80
 -1  4  4 711.63  28.90
  1  4 -4 750.22  28.90
 -1  4  4 714.93  28.90
 -1  4  4 743.53  28.90
  1  4 -4 729.63  29.50
  1  4 -4 759.12  29.00
 -1  4  4 717.23  29.90
 -1  4  4 752.42  30.10
  0 -4 -4 334.87  14.50
  0 -4 -4 349.47  15.10
  0 -4 -4 312.97  14.40
  0 -4  4 352.66  14.80
  0 -4 -4 348.27  14.50
  0 -4  4 352.36  14.60
  0 -4 -4 333.97  14.50
  0 -4  4 343.67  14.60
  0  4 -4 341.57  13.80
  0  4  4 351.66  14.50
  0  4 -4 345.17  14.40
  0  4  4 333.47  14.90
  0  4 -4 316.77  15.20
  0  4  4 351.06  14.60
  0  4 -4 350.76  17.40
  0  4  4 368.56  15.90
  0  4 -4 342.17  14.60
  0  4  4 342.67  14.50
  0  4 -4 337.37  14.50
 -1 -4 -4 162.58  8.40
  1 -4  4 160.28  8.00
 -1 -4 -4 151.88  8.20
 -1 -4 -4 139.09  8.40
 -1 -4 -4 148.79  7.80
  1 -4  4 156.58  8.40
  1 -4  4 150.18  8.00
  1 -4  4 160.48  6.90
  1 -4  4 159.98  8.60
 -1 -4 -4 159.38  8.30
  1  4  4 155.88  8.20
  1  4  4 154.88  8.10
  1  4  4 150.28  8.90
  1  4  4 155.78  7.00
 -1  4 -4 148.49  8.40
  1  4  4 151.48  8.00
  1  4  4 145.79  7.70
 -1  4 -4 155.98  8.10
 -1  4 -4 143.99  8.00
  2 -4  4 233.18  12.10
 -2 -4 -4 219.18  13.10
  2 -4  4 230.48  12.90
 -2 -4 -4 250.57  12.90
 -2 -4 -4 263.07  12.30
 -2 -4 -4 245.28  12.50
  2 -4  4 250.87  11.30
 -2 -4 -4 228.28  11.80
  2 -4  4 253.27  12.00
  2 -4  4 246.78  11.10
 -2 -4 -4 260.57  11.90
 -2  4 -4 238.38  12.20
  2  4  4 250.87  12.60
  2  4  4 233.68  11.70
  2  4  4 242.08  11.90
 -2  4 -4 243.38  12.30
 -2  4 -4 240.38  12.60
  2  4  4 227.48  11.90
  2  4  4 259.07  12.40
 -2  4 -4 224.08  11.30
 -2  4 -4 245.48  11.10
  2  4  4 235.88  10.30
 -2  4 -4 233.38  12.10
 -2  4 -4 252.57  12.40
  3 -4  4  60.09  6.00
  3 -4  4  63.79  6.20
 -3 -4 -4  53.19  6.10
 -3 -4 -4  44.50  6.10
 -3 -4 -4  57.09  5.90
  3 -4  4  55.89  5.40
  3 -4  4  53.89  4.80
 -3 -4 -4  51.99  7.00
  3 -4  4  50.59  4.70
 -3 -4 -4  65.59  6.90
 -3  4 -4  52.69  6.50
  3  4  4  52.49  5.50
 -3  4 -4  62.59  6.90
  3  4  4  64.19  5.90
 -3  4 -4  73.69  7.20
  3  4  4  52.19  6.70
 -3  4 -4  46.90  7.00
 -3  4 -4  72.29  5.80
  3  4  4  68.89  6.60
 -4 -4 -4  85.69  8.40
  4 -4  4  70.39  7.70
 -4 -4 -4  78.39  9.30
  4 -4  4  82.49  8.50
 -4 -4 -4  93.89  10.80
  4  4  4  70.49  9.20
  4  4  4  83.69  7.10
 -4  4 -4  88.19  9.10
 -4  4 -4  79.79  9.30
 -5 -4 -4  -4.00  6.00
 -5 -4 -4  3.40  7.60
 -5 -4 -4  3.40  5.60
  5 -4  4  -5.40  5.90
 -5  4 -4  5.40  7.20
 -5  4 -4  1.80  6.60
  5  4  4  -8.80  6.50
  5  4  4  -1.10  4.20
  6 -5 -4 -17.40  8.30
  6 -5 -4 -15.60  12.70
  6 -5 -4  -8.80  6.20
  6  5 -4  -5.80  7.40
  6  5 -4  -0.30  6.80
  5 -5 -4  53.69  8.60
  5 -5 -4  56.69  9.50
  5 -5 -4  43.40  7.50
  5  5 -4  60.29  9.20
  5  5 -4  42.70  7.80
  5  5 -4  44.50  9.50
  4 -5 -4  55.69  10.60
  4 -5 -4  45.20  8.80
 -4 -5  4  51.99  6.80
  4 -5 -4  57.19  7.80
  4  5 -4  46.90  7.20
 -4  5  4  48.50  6.40
  4  5 -4  60.99  9.60
 -3 -5  4  3.20  3.10
  3 -5 -4  -0.70  2.70
  3 -5 -4  6.30  4.10
  3 -5 -4  1.10  3.50
  3 -5 -4  0.70  2.80
 -3 -5  4  5.80  3.10
  3 -5 -4  2.40  2.80
 -3  5  4  4.80  2.70
  3  5 -4  5.30  2.70
  3  5 -4  9.30  5.10
  3  5 -4  1.20  3.30
  3  5 -4  -1.70  2.80
  3  5 -4  2.70  1.90
 -2 -5  4 428.96  18.80
 -2 -5  4 463.05  19.10
  2 -5 -4 403.86  19.10
  2 -5 -4 464.25  20.40
  2 -5 -4 460.25  19.50
  2 -5 -4 413.36  18.70
  2 -5 -4 447.56  18.80
  2  5 -4 468.15  21.20
  2  5 -4 442.16  19.00
  2  5 -4 416.66  17.30
 -2  5  4 426.36  18.80
  2  5 -4 435.66  18.60
 -2  5  4 441.86  18.70
  2  5 -4 418.66  18.80
 -2  5  4 444.36  20.60
 -2  5  4 437.96  17.60
 -1 -5  4 865.41  33.60
 -1 -5  4 882.91  36.50
  1 -5 -4 858.71  35.30
  1 -5 -4 842.62  34.40
  1 -5 -4 858.31  34.40
 -1 -5  4 881.51  34.60
 -1 -5  4 868.41  34.50
  1 -5 -4 888.21  35.10
  1  5 -4 901.81  34.70
  1  5 -4 848.22  34.10
 -1  5  4 834.82  34.40
  1  5 -4 871.51  34.50
 -1  5  4 863.81  34.60
 -1  5  4 857.71  35.50
  1  5 -4 926.21  36.80
 -1  5  4 853.01  35.10
  1  5 -4 884.41  33.50
  0 -5 -4 1351.96  54.79
  0 -5 -4 1437.96  55.09
  0 -5 -4 1417.96  55.49
  0 -5 -4 1438.26  55.09
  0 -5 -4 1448.66  55.59
  0 -5  4 1466.15  54.39
  0 -5 -4 1374.86  54.99
  0 -5  4 1470.55  55.19
  0 -5  4 1381.76  54.99
  0 -5  4 1462.95  55.29
  0  5  4 1433.56  55.09
  0  5 -4 1464.85  56.99
  0  5  4 1370.16  55.49
  0  5 -4 1398.16  54.69
  0  5  4 1433.06  55.19
  0  5 -4 1399.86  55.09
  0  5 -4 1404.06  55.39
  0  5  4 1401.16  55.09
  0  5 -4 1423.76  54.29
  0  5  4 1517.65  56.59
  0  5 -4 1394.06  55.99
  0  5  4 1424.16  55.09
  0  5 -4 1465.75  55.29
 -1 -5 -4  41.60  4.40
 -1 -5 -4  35.80  4.50
  1 -5  4  33.60  3.70
  1 -5  4  42.50  2.70
  1 -5  4  36.30  4.10
 -1 -5 -4  38.50  3.90
  1 -5  4  47.90  2.80
  1 -5  4  39.10  4.40
 -1 -5 -4  32.10  4.20
 -1 -5 -4  34.10  4.40
  1 -5  4  40.30  4.60
 -1  5 -4  35.70  4.00
  1  5  4  36.60  3.90
  1  5  4  30.00  3.90
 -1  5 -4  42.10  5.30
 -1  5 -4  39.10  2.80
  1  5  4  33.50  4.40
  1  5  4  36.40  3.40
  1  5  4  38.50  4.10
 -1  5 -4  41.00  4.30
 -1  5 -4  39.70  4.30
  1  5  4  35.90  5.10
  1  5  4  43.40  4.90
 -1  5 -4  38.60  4.80
 -1  5 -4  43.30  4.30
  2 -5  4 250.47  13.30
 -2 -5 -4 249.88  12.90
  2 -5  4 269.97  13.10
  2 -5  4 259.67  13.70
 -2 -5 -4 282.07  13.80
 -2 -5 -4 257.17  13.90
  2 -5  4 260.97  11.90
 -2 -5 -4 281.77  13.20
  2 -5  4 264.87  11.00
 -2 -5 -4 274.87  13.90
  2 -5  4 282.67  13.70
 -2  5 -4 258.87  13.30
  2  5  4 275.67  14.60
 -2  5 -4 291.37  13.70
  2  5  4 285.87  14.60
 -2  5 -4 243.48  13.50
 -2  5 -4 297.97  13.70
 -2  5 -4 259.17  12.50
  2  5  4 252.17  12.80
  2  5  4 243.78  11.60
  2  5  4 249.28  13.90
  2  5  4 262.27  13.00
  3 -5  4  35.70  5.10
 -3 -5 -4  44.70  6.20
 -3 -5 -4  31.30  5.10
 -3 -5 -4  24.40  4.50
  3 -5  4  37.10  5.50
 -3 -5 -4  33.80  5.40
  3 -5  4  34.10  4.50
 -3 -5 -4  39.40  5.50
 -3  5 -4  30.00  5.30
  3  5  4  41.70  5.60
 -3  5 -4  20.30  4.90
 -3  5 -4  39.90  5.50
  3  5  4  27.80  4.60
  3  5  4  25.00  5.70
  3  5  4  38.90  5.90
 -3  5 -4  35.60  5.50
  4 -5  4  13.30  5.00
 -4 -5 -4  9.50  4.90
  4 -5  4  8.20  4.10
 -4 -5 -4  4.40  5.50
 -4  5 -4  9.40  5.40
 -4  5 -4  4.80  5.40
  4  5  4  12.00  5.90
  4  5  4  2.90  3.20
 -5 -5 -4  4.20  7.90
  5 -5  4  8.60  6.30
 -5 -5 -4  10.60  6.10
 -5 -5 -4  1.70  6.40
  5  5  4  5.60  8.30
 -5  5 -4  -5.00  6.90
  5  5  4  -6.90  3.70
 -5  5 -4  8.10  7.50
  5 -6 -4 127.69  11.80
  5 -6 -4 149.59  13.10
  5 -6 -4 118.79  14.00
  5  6 -4 144.39  12.40
  5  6 -4 140.29  14.50
  5  6 -4 120.29  13.20
  4 -6 -4  3.30  5.40
  4 -6 -4  5.60  4.60
 -4 -6  4  18.10  6.40
  4 -6 -4  12.10  4.60
 -4 -6  4  10.90  3.00
  4  6 -4  6.80  4.90
  4  6 -4  7.50  4.50
  3 -6 -4 159.18  9.70
 -3 -6  4 160.78  8.90
  3 -6 -4 151.68  10.80
  3 -6 -4 161.88  12.00
  3  6 -4 160.48  10.10
  3  6 -4 157.38  11.70
  2 -6 -4 660.53  27.80
  2 -6 -4 616.94  26.40
 -2 -6  4 658.93  26.80
  2 -6 -4 655.93  26.60
 -2 -6  4 632.34  28.50
 -2 -6  4 633.54  26.40
  2 -6 -4 650.43  27.10
  2 -6 -4 585.44  26.80
 -2  6  4 655.93  25.20
 -2  6  4 619.64  28.00
 -2  6  4 580.04  27.00
  2  6 -4 668.33  29.10
 -2  6  4 617.84  26.50
  2  6 -4 662.33  26.90
 -2  6  4 645.14  26.50
  2  6 -4 592.44  26.20
 -1 -6  4  70.39  4.30
  1 -6 -4  69.59  6.00
  1 -6 -4  61.99  3.70
 -1 -6  4  74.29  5.70
 -1 -6  4  79.29  7.60
  1 -6 -4  67.79  5.10
 -1 -6  4  78.39  5.20
  1 -6 -4  77.79  6.30
  1 -6 -4  70.99  5.70
  1 -6 -4  67.59  5.80
  1  6 -4  64.39  5.20
 -1  6  4  67.89  5.80
 -1  6  4  70.89  5.20
  1  6 -4  65.09  4.80
  1  6 -4  66.99  6.50
  1  6 -4  70.39  6.90
 -1  6  4  64.79  5.80
 -1  6  4  77.59  7.00
  0 -6 -4 1021.30  40.40
  0 -6 -4 911.61  39.50
  0 -6 -4 1048.60  40.30
  0 -6  4 1049.00  40.20
  0 -6 -4 1050.29  40.70
  0 -6  4 1020.50  39.30
  0 -6  4 983.80  39.80
  0 -6 -4 1026.30  40.20
  0 -6 -4 1023.00  41.10
  0 -6  4 1010.40  40.50
  0  6 -4 1023.90  42.00
  0  6  4 973.90  40.60
  0  6 -4 1020.80  39.60
  0  6 -4 990.20  40.10
  0  6  4 987.60  40.10
  0  6  4 1031.70  40.00
  0  6 -4 1059.89  40.40
  0  6 -4 968.30  41.00
  0  6  4 1015.00  40.30
  0  6 -4 989.10  39.20
  0  6  4 970.60  40.10
  1 -6  4 731.83  31.10
  1 -6  4 770.92  32.00
 -1 -6 -4 775.52  31.10
 -1 -6 -4 769.02  31.20
 -1 -6 -4 792.02  31.30
 -1 -6 -4 713.33  31.10
  1 -6  4 746.33  30.70
 -1 -6 -4 719.53  30.60
  1 -6  4 750.72  29.30
  1 -6  4 747.43  29.10
  1 -6  4 727.13  30.90
 -1  6 -4 796.62  31.20
 -1  6 -4 723.73  31.00
  1  6  4 733.13  30.70
 -1  6 -4 743.63  31.70
 -1  6 -4 708.53  29.30
 -1  6 -4 769.62  32.50
  1  6  4 695.83  30.70
  1  6  4 792.52  32.20
 -1  6 -4 753.62  31.70
  1  6  4 770.22  31.20
 -1  6 -4 794.52  30.90
  1  6  4 733.93  30.20
  1  6  4 763.32  31.80
  2 -6  4  70.49  6.20
 -2 -6 -4  65.89  7.20
  2 -6  4  75.49  4.30
 -2 -6 -4  70.59  7.20
  2 -6  4  86.99  7.40
  2 -6  4  72.69  5.30
 -2 -6 -4  79.59  6.80
 -2 -6 -4  72.39  7.00
 -2 -6 -4  73.89  6.50
 -2 -6 -4  77.99  6.70
 -2  6 -4  76.69  6.10
  2  6  4  76.39  6.70
 -2  6 -4  79.79  6.70
 -2  6 -4  72.49  6.80
 -2  6 -4  66.59  7.10
  2  6  4  73.79  6.80
  2  6  4  76.59  7.30
 -3 -6 -4  5.30  3.60
 -3 -6 -4  -0.40  6.50
  3 -6  4  5.60  3.30
 -3 -6 -4  1.60  4.40
 -3 -6 -4  5.10  4.20
 -3 -6 -4  -0.80  4.00
  3 -6  4  -1.20  2.90
 -3  6 -4  3.10  4.60
  3  6  4  4.70  3.90
 -3  6 -4  3.70  6.50
 -3  6 -4  2.20  4.70
  3  6  4  1.70  2.90
  3  6  4  -0.80  3.80
 -4 -6 -4  91.29  11.40
 -4 -6 -4  86.09  9.10
  4 -6  4 105.59  13.90
 -4 -6 -4 101.49  10.20
  4 -6  4  93.59  9.60
 -4  6 -4  95.39  10.10
  4  6  4  83.59  14.60
  4  6  4  70.09  10.70
 -4  6 -4 111.29  11.00
  5 -6  4  1.50  6.20
 -5 -6 -4  1.90  15.70
 -5 -6 -4  4.20  8.70
 -5  6 -4 -22.60  16.00
  5  6  4 -11.50  7.90
  5 -7 -4  10.30  6.00
  5 -7 -4  1.20  7.30
  5 -7 -4  3.00  7.50
  5  7 -4  12.60  7.10
  5  7 -4  5.40  6.60
  5  7 -4  20.00  8.00
  4 -7 -4  13.60  5.70
  4 -7 -4  28.40  7.10
  4 -7 -4  25.20  5.40
  4  7 -4  14.50  6.10
  4  7 -4  23.80  6.20
  3 -7 -4  27.80  4.80
 -3 -7  4  36.50  5.80
  3 -7 -4  28.30  6.10
  3 -7 -4  25.50  5.30
  3  7 -4  28.80  5.40
 -3  7  4  21.80  4.40
  3  7 -4  17.70  5.00
  2 -7 -4 333.07  16.00
 -2 -7  4 336.67  16.60
  2 -7 -4 317.37  15.20
  2 -7 -4 267.57  14.60
  2 -7 -4 320.57  16.50
 -2  7  4 313.77  18.20
  2  7 -4 312.77  15.00
 -2  7  4 315.27  13.70
  2  7 -4 275.47  14.40
  2  7 -4 334.27  15.80
 -2  7  4 323.27  15.40
  2  7 -4 334.07  17.90
  1 -7 -4  41.80  4.90
  1 -7 -4  36.80  4.60
 -1 -7  4  34.40  3.60
  1 -7 -4  37.70  4.50
  1 -7 -4  39.70  3.10
  1 -7 -4  54.49  6.10
 -1 -7  4  40.70  4.70
 -1 -7  4  37.80  4.30
  1 -7 -4  44.30  4.80
  1 -7 -4  39.40  5.30
 -1 -7  4  43.20  4.80
 -1 -7  4  47.80  6.10
  1  7 -4  37.50  4.10
  1  7 -4  40.30  4.90
 -1  7  4  41.30  4.70
  1  7 -4  41.30  5.20
 -1  7  4  42.10  5.20
  1  7 -4  45.20  6.30
 -1  7  4  45.80  6.50
 -1  7  4  37.70  4.80
  1  7 -4  40.70  4.60
 -1  7  4  38.60  3.40
  0 -7 -4 109.49  7.40
  0 -7  4 130.49  7.60
  0 -7  4 114.89  7.50
  0 -7 -4 127.99  7.80
  0 -7 -4 118.29  7.60
  0 -7  4 129.69  6.80
  0 -7 -4 130.79  8.30
  0 -7 -4 128.09  8.00
  0 -7  4 118.49  7.20
  0 -7 -4 115.09  7.00
  0  7 -4 115.69  6.80
  0  7 -4 127.39  7.10
  0  7 -4 115.79  7.50
  0  7 -4 117.79  9.00
  0  7  4 106.99  7.40
  0  7 -4 122.09  8.40
  0  7  4 109.39  7.40
  0  7  4 113.39  7.70
  0  7 -4 118.19  7.70
  0  7  4 108.29  7.90
  0  7  4 113.89  7.20
 -1 -7 -4 237.78  12.80
  1 -7  4 283.47  14.50
 -1 -7 -4 274.17  13.70
 -1 -7 -4 283.07  13.50
 -1 -7 -4 265.17  13.50
  1 -7  4 246.08  13.40
  1 -7  4 266.07  13.00
 -1 -7 -4 234.88  13.00
  1 -7  4 267.47  11.60
 -1  7 -4 250.87  11.60
  1  7  4 240.78  13.30
 -1  7 -4 240.08  13.80
  1  7  4 263.97  12.70
  1  7  4 278.27  13.50
 -1  7 -4 251.37  14.50
 -1  7 -4 245.28  13.30
 -1  7 -4 272.77  13.10
  1  7  4 273.27  14.00
 -1  7 -4 282.37  13.70
  1  7  4 265.17  13.30
 -2 -7 -4  29.30  5.20
  2 -7  4  32.20  4.70
 -2 -7 -4  22.00  6.50
 -2 -7 -4  36.20  5.20
  2 -7  4  34.20  4.00
  2 -7  4  40.60  6.10
 -2 -7 -4  38.00  5.40
 -2 -7 -4  32.20  5.40
 -2 -7 -4  30.10  5.50
  2  7  4  37.50  5.60
 -2  7 -4  30.40  5.80
 -2  7 -4  38.10  5.60
 -2  7 -4  28.60  5.00
  2  7  4  39.70  6.20
  2  7  4  27.60  5.10
 -3 -7 -4  10.80  4.50
  3 -7  4  14.80  4.50
  3 -7  4  10.30  4.30
 -3 -7 -4  3.00  4.50
 -3 -7 -4  11.00  4.10
 -3 -7 -4  7.40  4.60
 -3  7 -4  10.20  4.70
  3  7  4  4.20  4.60
 -3  7 -4  10.50  4.50
  3  7  4  9.50  3.90
  3  7  4  10.60  6.00
 -4 -7 -4  14.10  5.20
 -4 -7 -4  10.50  7.60
 -4 -7 -4  14.00  5.70
  4 -7  4  17.60  5.20
  4 -7  4  6.00  5.70
  4  7  4  18.20  7.30
  4  7  4  17.80  6.50
 -4  7 -4  16.90  6.40
 -4  7 -4  5.80  6.50
 -5 -7 -4  3.20  6.70
  5 -7  4  0.90  7.30
 -5 -7 -4 -12.60  8.20
 -5  7 -4  -0.70  8.60
  5  7  4  13.30  10.50
 -5  7 -4 -11.30  7.60
  5 -8 -4  17.50  17.00
  5 -8 -4  20.00  8.00
  5  8 -4  14.40  9.30
  4 -8 -4  6.30  5.50
  4 -8 -4  3.40  4.70
  4 -8 -4  2.10  5.90
  4  8 -4  -1.30  5.40
  4  8 -4  3.60  5.60
  3 -8 -4 324.77  17.30
  3 -8 -4 310.97  16.10
 -3 -8  4 300.47  16.50
  3 -8 -4 308.37  18.00
 -3  8  4 302.17  16.10
  3  8 -4 300.67  18.50
  3  8 -4 306.97  16.50
  2 -8 -4  91.39  8.70
  2 -8 -4  86.69  7.90
 -2 -8  4 102.39  7.80
  2 -8 -4  92.39  9.30
  2  8 -4  98.19  9.50
  2  8 -4  89.39  7.90
 -2  8  4  94.89  7.70
 -1 -8  4  60.69  5.60
  1 -8 -4  38.50  5.30
 -1 -8  4  58.59  5.50
  1 -8 -4  53.19  6.90
  1 -8 -4  49.80  5.70
  1 -8 -4  47.30  6.50
  1 -8 -4  53.09  5.80
  1  8 -4  53.19  7.20
 -1  8  4  50.59  6.70
 -1  8  4  49.00  5.40
  1  8 -4  56.69  5.70
  1  8 -4  46.70  5.30
 -1  8  4  52.79  4.70
  1  8 -4  53.39  6.00
  0 -8 -4 168.38  9.70
  0 -8 -4 200.88  10.70
  0 -8  4 174.68  10.00
  0 -8 -4 200.08  11.10
  0 -8 -4 196.58  11.30
  0 -8  4 200.98  9.80
  0 -8 -4 180.38  10.70
  0 -8 -4 165.08  10.20
  0 -8  4 205.08  10.70
  0  8 -4 175.68  10.40
  0  8  4 177.18  10.50
  0  8 -4 180.68  9.60
  0  8  4 175.08  11.00
  0  8 -4 185.58  9.90
  0  8 -4 192.38  12.50
  0  8  4 194.68  10.50
  0  8 -4 209.58  11.30
  1 -8  4 161.18  9.70
  1 -8  4 161.28  8.20
 -1 -8 -4 150.08  9.60
 -1 -8 -4 166.18  10.10
  1 -8  4 144.59  9.90
 -1 -8 -4 171.18  10.50
 -1 -8 -4 174.68  10.30
  1  8  4 150.28  11.40
  1  8  4 163.18  10.30
  1  8  4 160.28  9.90
 -1  8 -4 159.48  11.30
 -1  8 -4 159.48  9.70
 -1  8 -4 162.68  10.20
 -1  8 -4 133.29  9.60
  2 -8  4  80.59  8.50
  2 -8  4  75.39  7.20
 -2 -8 -4  72.59  8.00
 -2 -8 -4  64.99  7.80
 -2 -8 -4  74.79  7.90
  2  8  4  85.59  7.50
  2  8  4  77.79  8.80
  2  8  4  80.69  7.90
 -2  8 -4  82.89  7.90
 -2  8 -4  89.89  9.10
  3 -8  4  12.60  5.60
 -3 -8 -4  3.00  5.40
 -3 -8 -4  6.00  4.30
  3 -8  4  2.40  3.80
 -3 -8 -4  7.30  4.70
 -3 -8 -4  12.40  5.80
 -3  8 -4  8.10  5.70
 -3  8 -4  3.80  4.50
 -3  8 -4  7.60  5.00
  3  8  4  4.70  3.90
  3  8  4  -5.30  4.50
  3  8  4  5.30  4.60
 -4 -8 -4  9.80  7.50
 -4 -8 -4  1.30  5.30
 -4 -8 -4  6.60  4.70
  4 -8  4  9.20  5.40
  4 -8  4  1.70  5.00
 -4  8 -4  0.30  6.10
  4  8  4  1.60  6.80
 -4  8 -4  2.00  6.50
  4  8  4  -3.60  5.50
  5 -9 -4  3.50  8.60
  5 -9 -4  12.70  7.10
  5 -9 -4  5.00  9.20
  5  9 -4  -6.20  6.90
  4 -9 -4  10.40  6.20
  4 -9 -4  10.20  5.50
  4 -9 -4  7.60  7.50
  4  9 -4  6.40  6.50
  4  9 -4  3.60  6.30
  3 -9 -4  89.59  11.10
  3 -9 -4  70.49  9.80
  3 -9 -4  78.99  8.70
  3  9 -4  79.99  10.70
  3  9 -4  66.89  8.90
  2 -9 -4  2.80  3.50
  2 -9 -4  6.30  4.60
 -2 -9  4  4.30  3.50
  2 -9 -4  0.20  4.20
  2  9 -4  -1.50  3.70
 -2  9  4  3.90  3.60
  2  9 -4  -0.50  3.70
  1 -9 -4 534.65  24.60
  1 -9 -4 557.24  25.10
  1 -9 -4 558.54  25.50
 -1 -9  4 540.95  24.60
  1 -9 -4 560.24  24.50
 -1 -9  4 562.14  24.40
  1  9 -4 491.35  23.60
 -1  9  4 554.04  24.70
  1  9 -4 560.64  24.90
  1  9 -4 571.84  27.30
  0 -9 -4 254.57  14.10
  0 -9 -4 254.47  13.90
  0 -9 -4 293.27  14.80
  0 -9  4 276.27  14.10
  0 -9  4 231.18  14.70
  0 -9 -4 281.57  14.70
  0 -9  4 274.77  13.20
  0  9  4 265.07  13.70
  0  9  4 258.27  14.10
  0  9  4 241.98  14.50
  0  9 -4 280.07  16.20
  0  9 -4 264.47  14.40
 -1 -9 -4  33.80  6.50
  1 -9  4  43.80  4.40
  1 -9  4  44.40  5.70
 -1 -9 -4  39.50  6.20
  1  9  4  53.09  7.10
  1  9  4  35.50  5.60
 -1  9 -4  35.10  5.20
 -1  9 -4  32.20  6.00
 -2 -9 -4 105.39  9.90
 -2 -9 -4 109.19  9.60
 -2 -9 -4 118.19  10.10
  2 -9  4 134.09  11.50
  2 -9  4 103.69  9.00
  2  9  4  99.99  9.70
 -2  9 -4 122.69  10.00
  2  9  4 115.29  10.30
  2  9  4 112.29  9.80
 -2  9 -4 128.29  10.20
 -2  9 -4 107.79  11.10
 -3 -9 -4  7.20  5.40
 -3 -9 -4  14.90  5.70
  3 -9  4  10.20  5.20
  3 -9  4  4.30  4.80
 -3 -9 -4  6.80  4.90
 -3 -9 -4  6.50  6.80
 -3  9 -4  8.50  5.40
  3  9  4  3.60  5.90
 -3  9 -4  2.00  5.70
  3  9  4  1.30  5.10
  3  9  4  9.10  4.80
 -3  9 -4  1.80  5.20
  4 -9  4  15.00  6.60
 -4 -9 -4  9.00  14.40
 -4 -9 -4  4.80  5.60
  4 -9  4  -5.30  5.90
 -4 -9 -4  4.10  6.50
  4  9  4  -2.20  6.50
 -4  9 -4  -0.40  14.70
  4  9  4  4.70  9.10
 -4  9 -4  -3.50  6.00
  4 -10 -4  1.60  6.90
  4 -10 -4  4.40  9.00
  4 -10 -4  3.00  6.70
  4 10 -4  -2.90  9.40
  4 10 -4  -3.40  9.30
  3 -10 -4  13.80  6.20
  3 -10 -4  20.80  5.70
  3 -10 -4  16.20  6.80
  3 10 -4  11.10  5.90
  3 10 -4  26.00  7.00
  2 -10 -4  12.30  5.40
  2 -10 -4  8.00  4.70
  2 -10 -4  15.70  4.60
  2 -10 -4  14.40  6.00
 -2 -10  4  9.40  4.80
  2 10 -4  5.00  4.80
 -2 10  4  9.80  5.60
  2 10 -4  9.70  5.40
 -1 -10  4 108.59  8.80
  1 -10 -4 121.59  11.60
  1 -10 -4 104.79  9.10
  1 -10 -4 129.19  10.60
  1 -10 -4 130.29  10.70
 -1 -10  4 111.19  9.10
 -1 10  4 114.09  9.30
  1 10 -4 106.69  11.10
  1 10 -4 130.59  10.10
  0 -10 -4 168.88  11.70
  0 -10  4 169.08  11.10
  0 -10  4 152.68  9.70
  0 -10 -4 177.18  11.90
  0 -10 -4 154.78  11.10
  0 10 -4 150.38  18.60
  0 10 -4 168.28  11.40
  0 10  4 150.48  11.00
 -1 -10 -4  17.60  5.50
 -1 -10 -4  18.70  5.30
  1 -10  4  14.30  4.30
 -1 -10 -4  14.40  4.80
 -1 10 -4  25.20  5.60
 -1 10 -4  14.30  6.50
 -1 10 -4  16.80  4.70
  1 10  4  14.10  4.70
  1 10  4  6.30  4.50
 -2 -10 -4  41.40  7.40
 -2 -10 -4  29.60  6.00
 -2 -10 -4  22.00  6.90
  2 -10  4  17.90  6.00
  2 -10  4  29.80  6.50
 -2 10 -4  19.20  5.70
  2 10  4  25.10  6.50
  2 10  4  25.00  6.70
 -2 10 -4  27.90  6.20
  2 10  4  25.60  6.40
 -2 10 -4  31.30  7.10
 -3 -10 -4  10.50  5.70
  3 -10  4  10.80  6.10
 -3 -10 -4  11.30  7.30
  3 -10  4  14.00  6.30
 -3 -10 -4  2.10  5.40
 -3 -10 -4  20.50  6.90
 -3 10 -4  16.90  6.60
 -3 10 -4  11.70  5.50
  3 10  4  3.90  5.00
 -3 10 -4  20.60  7.90
  3 10  4  15.90  7.80
 -4 -10 -4  10.30  9.20
 -4 -10 -4  24.00  7.70
  4 -10  4  14.50  8.50
  4 -10  4  14.20  8.10
 -4 -10 -4  21.60  8.00
 -4 10 -4  17.20  8.70
 -4 10 -4  16.00  8.40
  4 -11 -4  6.80  8.60
  4 -11 -4  23.60  7.70
  4 -11 -4  36.10  9.60
  4 11 -4  17.80  8.60
  4 11 -4  31.50  9.30
  3 -11 -4  6.70  7.00
  3 -11 -4  11.20  7.10
  3 -11 -4  9.00  6.10
  3 11 -4  7.40  6.80
  3 11 -4  6.00  6.70
  2 -11 -4  75.09  11.10
  2 -11 -4  82.79  9.80
  2 -11 -4 100.99  10.30
  2 -11 -4  89.59  10.40
  2 11 -4  82.39  10.10
  2 11 -4  77.99  11.60
  1 -11 -4  72.69  8.90
 -1 -11  4  67.59  9.30
  1 -11 -4  81.29  10.00
  1 -11 -4  87.29  9.10
  1 -11 -4  90.89  10.10
 -1 -11  4  65.79  8.80
 -1 11  4  57.19  9.50
  1 11 -4  84.29  9.90
  1 11 -4  75.89  10.70
  0 -11  4  8.90  3.80
  0 -11 -4  19.90  5.90
  0 -11 -4  5.80  4.70
  0 -11 -4  4.80  4.80
  0 -11  4  18.10  5.60
  0 -11 -4  11.80  6.30
  0 11  4  15.70  5.20
  0 11 -4  12.00  5.40
  0 11 -4  11.20  5.00
  1 -11  4  4.80  4.30
 -1 -11 -4  3.70  4.70
 -1 -11 -4  -0.20  5.00
 -1 -11 -4  3.70  5.20
 -1 11 -4  6.30  4.70
  1 11  4  -4.20  4.50
 -1 11 -4  -1.10  4.20
 -2 -11 -4  34.90  7.80
 -2 -11 -4  40.20  7.50
  2 -11  4  31.40  7.10
 -2 -11 -4  38.20  7.80
  2 -11  4  48.50  8.30
 -2 11 -4  27.10  6.70
 -2 11 -4  38.60  7.70
  2 11  4  18.70  6.40
  2 11  4  25.00  7.40
 -2 11 -4  37.80  7.70
  2 11  4  27.80  6.90
 -3 -11 -4  16.40  7.40
  3 -11  4  48.30  9.50
 -3 -11 -4  25.00  10.60
 -3 -11 -4  28.40  7.50
  3 -11  4  30.40  8.50
  3 11  4  21.50  8.00
 -3 11 -4  19.50  8.40
 -3 11 -4  45.40  8.90
  3 11  4  27.30  6.80
  3 -12 -4  15.00  7.20
  3 -12 -4  16.00  7.70
  3 -12 -4  3.60  8.10
  3 12 -4  -0.80  7.60
  3 12 -4  12.40  8.30
  2 -12 -4  49.80  8.80
  2 -12 -4  29.70  7.50
  2 -12 -4  33.90  7.30
  2 -12 -4  37.80  8.60
  2 12 -4  34.40  8.90
  2 12 -4  17.90  6.80
  1 -12 -4  49.00  8.10
 -1 -12  4  43.00  7.20
  1 -12 -4  55.59  8.50
  1 -12 -4  52.39  8.70
  1 -12 -4  34.60  6.60
  1 12 -4  38.40  8.30
  1 12 -4  46.30  8.60
  0 -12  4  23.70  7.60
  0 -12 -4  17.20  7.10
  0 -12 -4  20.40  6.40
  0 -12 -4  20.60  6.80
  0 12 -4  19.00  6.80
  0 12 -4  25.80  7.20
 -1 -12 -4  86.89  11.30
 -1 -12 -4  83.09  10.40
 -1 -12 -4  82.29  11.00
  1 -12  4  72.39  10.00
 -1 12 -4  81.89  12.10
 -1 12 -4  92.69  10.80
  2 -12  4  13.30  10.20
 -2 -12 -4  7.80  10.40
 -2 -12 -4  6.70  5.70
 -2 12 -4  6.60  6.70
 -2 12 -4  14.20  6.90
  2 12  4  7.70  6.10
  2 -13 -4  11.90  8.00
  2 -13 -4  20.20  15.80
  2 -13 -4  17.70  7.90
  2 -13 -4  18.00  7.50
  2 13 -4  16.50  8.70
  2 13 -4  10.70  7.20
  1 -13 -4  52.09  9.20
  1 -13 -4  32.70  7.10
  1 13 -4  25.20  9.20
  0 -13 -4  41.80  7.70
  0 13 -4  28.70  8.10
 -1 -13 -4  43.50  8.40
 -1 -13 -4  54.49  10.00
 -1 -13 -4  46.70  8.70
 -1 13 -4  43.60  9.10
 -1 13 -4  36.50  8.50
  6  0 -5  5.30  5.80
  6  0 -5 -12.10  7.20
  5  0 -5  4.30  4.20
  5  0 -5  -0.20  5.60
  5  0 -5  -2.20  5.60
  4  0 -5  1.80  2.70
  4  0 -5  -8.90  3.80
 -4  0  5  -4.30  3.00
  3  0 -5  -0.80  2.00
 -3  0  5  -3.80  1.80
  3  0 -5  0.10  1.70
  3  0 -5  -6.10  2.90
 -3  0  5  -0.10  1.60
  3  0 -5  -2.60  1.30
  3  0 -5  3.10  1.80
 -3  0  5  -0.20  1.80
  3  0 -5  5.20  2.10
  2  0 -5  0.80  1.30
  2  0 -5  1.30  2.60
  2  0 -5  0.40  1.60
  2  0 -5  1.80  1.40
  2  0 -5  -0.60  1.10
 -2  0  5  -0.70  1.10
 -2  0  5  4.30  3.00
  2  0 -5  3.80  1.70
  2  0 -5  0.80  1.20
 -2  0  5  -0.20  0.60
 -2  0  5  0.50  1.60
  1  0 -5  -1.90  1.20
 -1  0  5  -2.70  1.10
  1  0 -5  -0.70  1.50
  1  0 -5  2.20  1.40
 -1  0  5  -2.70  1.40
  1  0 -5  -1.70  1.80
  1  0 -5  -2.10  1.40
  0  0 -5  -1.70  1.30
  0  0 -5  0.20  0.70
  0  0 -5  -0.30  1.70
  0  0 -5  -1.00  1.30
  0  0 -5  0.70  1.10
  0  0 -5  1.20  0.60
  0  0  5  -2.30  1.40
  0  0 -5  -1.10  0.90
  0  0  5  -2.40  1.20
  1  0  5  -2.30  1.50
  1  0  5  -0.70  1.30
  1  0  5  0.40  0.80
 -1  0 -5  -3.20  1.80
  1  0  5  -0.40  1.20
  1  0  5  -0.70  1.80
  1  0  5  -2.30  1.50
 -1  0 -5  0.80  0.80
 -1  0 -5  -1.40  1.30
 -1  0 -5  -0.90  1.80
 -1  0 -5  -1.60  1.10
  1  0  5  -0.60  1.20
 -2  0 -5  -2.90  2.30
 -2  0 -5  -1.80  2.50
  2  0  5  -2.40  2.00
 -2  0 -5  -1.60  2.60
  2  0  5  -2.70  1.80
  2  0  5  1.40  2.20
  2  0  5  3.20  1.70
 -2  0 -5  -1.00  2.70
  2  0  5  -0.40  1.70
 -2  0 -5  6.60  2.40
  2  0  5  2.40  1.20
  3  0  5  -4.80  4.60
  3  0  5  -1.60  2.60
 -3  0 -5  -3.70  2.90
 -3  0 -5  -5.30  3.30
 -3  0 -5  -0.90  2.50
  3  0  5  -1.00  1.80
  3  0  5  -0.60  2.50
  3  0  5  -4.10  2.80
 -4  0 -5  -4.30  4.70
  4  0  5  2.20  4.00
  4  0  5  -0.50  3.00
 -4  0 -5  5.90  5.10
 -4  0 -5  5.20  4.00
 -5  0 -5  -3.80  5.10
 -5  0 -5  17.30  7.40
 -5  0 -5  -7.00  6.30
  6 -1 -5  -0.40  5.80
  6 -1 -5 -14.30  7.80
  6  1 -5  -4.20  8.20
  5 -1 -5  8.60  4.80
  5 -1 -5  9.80  6.40
  5  1 -5  2.40  6.30
  5  1 -5  3.20  3.60
  5  1 -5  9.70  4.70
 -4 -1  5 269.57  14.70
  4 -1 -5 313.57  14.20
  4 -1 -5 291.47  16.90
  4 -1 -5 259.87  14.20
  4  1 -5 244.78  13.40
  4  1 -5 287.37  16.90
  4  1 -5 287.17  14.00
  4  1 -5 283.47  14.70
  3 -1 -5 524.55  22.90
  3 -1 -5 578.04  25.40
  3 -1 -5 509.85  22.00
 -3 -1  5 517.85  22.30
  3 -1 -5 573.94  22.50
 -3 -1  5 540.35  23.60
 -3 -1  5 558.24  22.70
  3 -1 -5 555.24  22.50
  3 -1 -5 520.25  21.70
  3 -1 -5 548.25  22.50
 -3  1  5 516.05  22.30
 -3  1  5 573.04  22.50
  3  1 -5 511.85  21.10
  3  1 -5 541.25  22.30
  3  1 -5 515.05  22.30
  3  1 -5 575.94  22.60
  3  1 -5 575.04  25.60
  3  1 -5 566.64  22.70
 -3  1  5 551.44  22.10
  3  1 -5 533.95  21.90
  2 -1 -5 478.15  20.50
 -2 -1  5 512.05  21.30
 -2 -1  5 492.45  19.50
  2 -1 -5 511.75  19.50
  2 -1 -5 478.65  20.00
  2 -1 -5 488.05  19.60
  2 -1 -5 463.65  20.40
  2 -1 -5 517.15  20.10
  2 -1 -5 505.55  22.50
  2  1 -5 511.95  21.20
  2  1 -5 475.25  19.30
  2  1 -5 487.55  19.40
  2  1 -5 484.95  20.30
  2  1 -5 496.45  22.40
 -2  1  5 506.55  20.80
  2  1 -5 513.75  19.60
 -2  1  5 487.15  19.60
 -2  1  5 507.25  20.00
  2  1 -5 476.75  20.60
 -1 -1  5 2308.97  85.59
  1 -1 -5 2278.07  87.09
 -1 -1  5 2333.17  87.09
  1 -1 -5 2206.78  86.89
  1 -1 -5 2245.48  86.99
  1 -1 -5 2288.17  87.69
  1 -1 -5 2360.46  87.79
 -1 -1  5 2253.27  85.59
 -1 -1  5 2318.07  87.69
 -1  1  5 2400.86  87.99
 -1  1  5 2357.36  86.99
  1  1 -5 2262.67  87.79
  1  1 -5 2262.37  87.69
  1  1 -5 2278.87  87.19
  1  1 -5 2285.37  86.59
  0 -1  5 338.67  14.20
  0 -1  5 348.07  13.00
  0 -1  5 354.16  14.90
  0 -1 -5 324.97  13.80
  0 -1 -5 322.27  14.40
  0 -1 -5 317.47  13.40
  0 -1 -5 310.47  14.70
  0 -1  5 334.77  12.80
  0 -1 -5 288.67  14.00
  0 -1 -5 317.97  12.80
  0 -1 -5 308.07  13.40
  0 -1  5 333.87  14.10
  0  1  5 345.87  12.80
  0  1  5 339.47  13.60
  0  1 -5 321.97  14.80
  0  1  5 327.97  14.90
  0  1 -5 320.77  13.20
  0  1  5 335.57  14.20
  0  1 -5 320.97  14.10
  0  1 -5 311.07  12.70
  0  1 -5 302.37  14.10
  0  1  5 327.37  12.80
  0  1 -5 305.37  12.90
 -1 -1 -5  14.40  2.40
 -1 -1 -5  14.30  3.70
  1 -1  5  18.00  3.10
 -1 -1 -5  13.40  2.80
 -1 -1 -5  18.60  2.50
 -1 -1 -5  14.80  2.10
  1 -1  5  16.40  2.40
  1 -1  5  8.70  2.20
 -1 -1 -5  14.30  2.20
  1 -1  5  14.40  2.90
  1 -1  5  13.90  2.10
  1 -1  5  15.50  2.50
  1  1  5  17.00  2.40
  1  1  5  14.90  2.20
 -1  1 -5  12.80  1.90
 -1  1 -5  15.90  3.40
 -1  1 -5  22.10  3.30
 -1  1 -5  14.60  2.40
  1  1  5  11.60  2.70
  1  1  5  13.90  2.80
 -1  1 -5  13.40  2.30
  1  1  5  17.50  2.70
 -1  1 -5  17.70  2.30
  1  1  5  15.30  2.00
 -1  1 -5  13.60  3.40
 -2 -1 -5 508.05  21.70
  2 -1  5 499.65  24.80
  2 -1  5 486.85  20.30
 -2 -1 -5 538.85  24.70
 -2 -1 -5 508.15  22.00
  2 -1  5 510.35  21.20
  2 -1  5 528.25  23.10
 -2 -1 -5 466.55  22.10
 -2 -1 -5 496.95  20.40
 -2 -1 -5 507.55  22.60
  2 -1  5 530.85  21.70
 -2  1 -5 476.95  20.30
  2  1  5 521.55  24.00
 -2  1 -5 518.45  22.50
 -2  1 -5 526.25  21.90
  2  1  5 513.15  21.00
  2  1  5 538.95  22.00
 -2  1 -5 490.45  22.40
  2  1  5 510.75  21.70
  2  1  5 499.75  21.40
  2  1  5 486.15  22.80
 -2  1 -5 518.35  21.30
  2  1  5 526.35  22.50
  3 -1  5 150.88  7.70
 -3 -1 -5 150.08  10.50
 -3 -1 -5 149.88  9.40
 -3 -1 -5 143.39  10.10
  3 -1  5 147.69  8.80
 -3 -1 -5 138.09  9.30
  3 -1  5 162.28  9.00
  3  1  5 154.88  9.50
 -3  1 -5 146.79  10.00
  3  1  5 154.98  9.20
 -3  1 -5 144.49  9.50
 -3  1 -5 150.68  9.10
 -3  1 -5 142.89  10.40
  4 -1  5  16.00  4.10
 -4 -1 -5  19.30  5.20
 -4 -1 -5  12.50  5.70
 -4 -1 -5  25.40  6.70
 -4  1 -5  23.20  6.00
 -4  1 -5  18.10  8.80
 -4  1 -5  18.80  6.30
  4  1  5  22.40  4.60
  4  1  5  18.90  5.50
 -5 -1 -5  27.40  7.80
 -5 -1 -5  38.70  8.60
  5 -1  5  21.10  6.80
 -5 -1 -5  23.80  6.80
 -5  1 -5  24.20  7.90
  5  1  5  23.00  5.30
 -5  1 -5  35.80  8.90
  5  1  5  22.80  7.40
 -5  1 -5  25.60  6.60
  6 -2 -5  10.20  6.40
  6 -2 -5  -4.20  10.70
  6  2 -5  -1.30  8.20
  6  2 -5  -7.00  6.10
  5 -2 -5  9.90  4.70
  5 -2 -5  2.00  6.00
  5  2 -5  6.50  4.50
  5  2 -5  12.60  5.20
  5  2 -5  1.10  6.40
 -4 -2  5  14.50  3.80
  4 -2 -5  16.70  3.20
  4 -2 -5  8.90  5.30
  4 -2 -5  16.00  4.00
  4  2 -5  7.00  3.60
  4  2 -5  17.60  5.60
  4  2 -5  12.10  3.60
  4  2 -5  10.60  4.00
 -3 -2  5 503.35  22.90
  3 -2 -5 534.55  24.10
  3 -2 -5 497.15  21.50
 -3 -2  5 524.55  21.70
  3 -2 -5 478.75  21.20
  3 -2 -5 484.25  20.30
  3 -2 -5 549.85  23.10
  3 -2 -5 520.65  20.80
 -3 -2  5 524.25  22.10
  3 -2 -5 529.75  21.30
 -3  2  5 500.55  21.50
 -3  2  5 516.05  20.80
  3  2 -5 482.15  20.90
 -3  2  5 535.85  21.40
  3  2 -5 548.55  21.70
  3  2 -5 528.05  23.00
 -3  2  5 480.65  23.50
  3  2 -5 504.55  21.20
 -3  2  5 519.05  21.30
  3  2 -5 478.05  21.20
  3  2 -5 495.95  21.10
  3  2 -5 533.05  24.60
  2 -2 -5 517.75  20.10
  2 -2 -5 499.55  20.40
  2 -2 -5 534.95  22.80
 -2 -2  5 534.85  22.50
  2 -2 -5 522.05  20.30
  2 -2 -5 478.25  21.00
  2 -2 -5 521.75  22.00
  2 -2 -5 501.55  20.50
 -2 -2  5 503.55  20.30
 -2 -2  5 523.55  20.70
 -2  2  5 481.85  22.30
  2  2 -5 526.65  22.30
 -2  2  5 491.75  20.40
 -2  2  5 539.15  21.70
  2  2 -5 501.15  21.30
  2  2 -5 502.45  20.20
  2  2 -5 524.65  22.30
 -2  2  5 517.65  20.50
  2  2 -5 491.95  21.30
  2  2 -5 526.45  20.50
 -2  2  5 488.35  22.00
  1 -2 -5 2114.69  81.19
  1 -2 -5 2073.29  80.09
  1 -2 -5 2076.89  80.89
  1 -2 -5 2078.99  81.69
  1 -2 -5 2095.79  80.59
 -1 -2  5 2129.39  79.99
  1 -2 -5 2177.58  81.69
  1 -2 -5 2180.38  79.79
  1  2 -5 2162.08  79.89
 -1  2  5 2169.78  80.99
  1  2 -5 2166.98  80.39
 -1  2  5 2063.59  81.59
  1  2 -5 2108.09  81.79
 -1  2  5 2121.19  79.89
 -1  2  5 2241.88  82.19
  1  2 -5 2178.78  82.39
  0 -2 -5 1211.08  46.80
  0 -2 -5 1254.07  48.40
  0 -2 -5 1155.98  46.60
  0 -2  5 1255.47  46.80
  0 -2 -5 1160.78  48.80
  0 -2 -5 1198.18  46.90
  0 -2  5 1222.68  47.80
  0 -2 -5 1217.88  47.40
  0 -2 -5 1217.28  47.70
  0 -2  5 1249.57  47.80
  0  2 -5 1220.88  46.50
  0  2 -5 1231.68  48.80
  0  2  5 1292.07  48.90
  0  2 -5 1218.58  46.80
  0  2  5 1239.48  46.70
  0  2  5 1212.08  47.40
  0  2 -5 1219.18  47.70
  0  2 -5 1396.26  51.09
  0  2  5 1295.87  48.00
  0  2 -5 1182.08  46.70
 -1 -2 -5 810.32  32.10
 -1 -2 -5 811.42  33.60
  1 -2  5 827.72  32.50
 -1 -2 -5 771.82  32.10
 -1 -2 -5 857.31  32.80
 -1 -2 -5 753.02  33.30
  1 -2  5 813.52  33.30
 -1 -2 -5 811.32  33.70
 -1 -2 -5 819.02  33.50
  1 -2  5 838.62  32.80
  1 -2  5 840.12  32.30
 -1  2 -5 841.92  31.90
  1  2  5 863.31  34.00
  1  2  5 822.22  32.70
 -1  2 -5 830.22  33.40
 -1  2 -5 793.22  32.80
  1  2  5 834.82  33.10
 -1  2 -5 817.72  32.40
  1  2  5 832.52  32.30
  1  2  5 885.81  32.80
 -1  2 -5 783.72  32.10
  1  2  5 834.02  32.40
 -1  2 -5 759.22  33.50
  2 -2  5  82.79  5.10
 -2 -2 -5  50.39  9.40
  2 -2  5  86.19  5.80
  2 -2  5  74.49  6.40
 -2 -2 -5  78.59  6.50
  2 -2  5  84.99  5.40
  2 -2  5  87.99  6.90
 -2 -2 -5  79.29  6.60
 -2 -2 -5  78.69  6.80
 -2 -2 -5  82.79  5.90
 -2 -2 -5  80.79  5.20
 -2 -2 -5  64.79  5.70
  2 -2  5  86.19  5.70
  2  2  5  90.09  6.80
 -2  2 -5  87.09  6.70
  2  2  5  81.89  5.20
 -2  2 -5  87.89  5.60
 -2  2 -5  87.99  6.90
  2  2  5  86.79  6.60
 -2  2 -5  80.39  6.10
 -2  2 -5  72.19  6.30
 -2  2 -5  79.19  6.10
  2  2  5  81.19  5.80
 -2  2 -5  74.39  5.90
  3 -2  5 197.58  10.90
 -3 -2 -5 211.68  12.70
 -3 -2 -5 204.78  12.90
  3 -2  5 227.58  10.70
  3 -2  5 203.38  11.70
 -3 -2 -5 219.78  11.90
  3 -2  5 220.28  12.20
 -3 -2 -5 187.48  11.60
 -3  2 -5 222.68  11.40
 -3  2 -5 201.88  12.00
 -3  2 -5 216.88  12.60
  3  2  5 222.88  12.70
  3  2  5 219.98  12.20
 -3  2 -5 210.88  12.40
  3  2  5 218.98  11.90
  4 -2  5  47.30  6.80
 -4 -2 -5  51.39  7.20
 -4 -2 -5  57.39  8.70
 -4 -2 -5  58.59  8.20
  4 -2  5  52.29  6.00
 -4  2 -5  73.69  9.50
  4  2  5  60.79  6.60
 -4  2 -5  56.39  7.80
  4  2  5  54.89  7.70
  4  2  5  60.89  6.70
 -5 -2 -5  34.40  8.50
 -5 -2 -5  39.70  8.80
 -5 -2 -5  31.00  7.20
  5 -2  5  23.40  6.70
 -5  2 -5  41.50  7.70
  5  2  5  36.60  5.90
 -5  2 -5  39.60  8.90
 -5  2 -5  19.30  8.10
  5  2  5  32.70  8.80
  6 -3 -5  1.40  6.60
  6 -3 -5  2.40  15.40
  6 -3 -5 -25.40  16.40
  6  3 -5  -3.80  8.70
  6  3 -5  9.90  12.80
  5 -3 -5  9.20  6.30
  5 -3 -5  16.60  5.00
  5 -3 -5  8.90  6.70
  5  3 -5  13.60  5.60
  5  3 -5  20.00  7.50
  4 -3 -5  44.40  7.60
  4 -3 -5  43.80  5.50
  4 -3 -5  50.99  6.90
  4  3 -5  34.00  4.60
  4  3 -5  37.90  5.50
  4  3 -5  42.60  6.30
  4  3 -5  49.80  7.70
  3 -3 -5  91.49  6.20
  3 -3 -5 101.39  6.10
 -3 -3  5  84.39  5.90
 -3 -3  5  94.99  8.60
  3 -3 -5  92.49  8.70
  3 -3 -5 103.39  6.40
 -3 -3  5  97.79  6.50
  3 -3 -5  93.49  7.80
  3  3 -5  81.09  5.70
 -3  3  5  95.59  6.10
  3  3 -5  90.89  5.80
  3  3 -5  98.79  6.50
 -3  3  5  99.09  6.20
  3  3 -5 100.69  7.90
 -3  3  5  86.89  6.30
  3  3 -5  93.09  6.00
  2 -3 -5  65.89  5.50
 -2 -3  5  70.09  5.90
  2 -3 -5  67.19  4.80
  2 -3 -5  64.29  6.20
  2 -3 -5  68.89  4.40
 -2 -3  5  64.09  4.20
  2  3 -5  74.99  6.00
  2  3 -5  62.79  5.00
 -2  3  5  67.69  5.10
  2  3 -5  61.59  3.80
  2  3 -5  66.09  4.20
  2  3 -5  66.09  6.30
 -2  3  5  62.79  5.70
 -2  3  5  65.59  4.00
  2  3 -5  66.29  4.90
  1 -3 -5 606.74  25.10
  1 -3 -5 651.73  26.60
 -1 -3  5 661.33  25.50
 -1 -3  5 660.23  25.30
  1 -3 -5 625.04  25.10
  1 -3 -5 651.03  25.20
 -1  3  5 672.43  27.20
  1  3 -5 654.83  25.40
  1  3 -5 645.74  25.20
  1  3 -5 637.44  26.90
  1  3 -5 632.44  25.30
 -1  3  5 628.44  26.70
 -1  3  5 654.03  25.30
 -1  3  5 683.03  26.10
  1  3 -5 619.34  25.70
 -1  3  5 668.63  26.60
  1  3 -5 691.93  29.10
  1  3 -5 633.24  26.40
 -1  3  5 655.83  26.60
  0 -3  5 217.08  9.90
  0 -3  5 208.28  9.10
  0 -3 -5 214.18  10.50
  0 -3 -5 200.08  9.00
  0 -3 -5 196.08  10.90
  0 -3 -5 197.48  9.00
  0 -3  5 202.68  9.70
  0 -3 -5 211.28  9.80
  0 -3 -5 210.78  9.10
  0  3  5 206.68  9.30
  0  3 -5 194.78  9.90
  0  3  5 217.38  10.10
  0  3 -5 215.18  9.20
  0  3 -5 211.78  9.60
  0  3  5 199.48  9.60
  0  3  5 208.88  10.80
  0  3  5 202.68  9.00
  0  3  5 204.18  9.20
  0  3 -5 201.58  10.50
  0  3 -5 201.78  9.10
  0  3 -5 202.18  10.00
  0  3 -5 202.18  11.00
  0  3 -5 190.68  8.40
  1 -3  5 104.49  5.30
 -1 -3 -5 108.79  6.40
  1 -3  5 105.59  5.80
  1 -3  5 105.89  6.70
 -1 -3 -5  95.79  7.00
  1 -3  5 101.49  6.10
 -1 -3 -5 105.39  6.10
 -1 -3 -5 115.69  6.70
  1 -3  5 101.39  6.20
 -1 -3 -5 106.09  7.30
 -1 -3 -5 102.19  5.90
 -1  3 -5  94.49  7.10
  1  3  5 102.89  6.30
  1  3  5 104.49  6.60
  1  3  5  95.59  5.90
 -1  3 -5 100.19  6.50
  1  3  5  95.39  6.00
 -1  3 -5 111.79  5.30
 -1  3 -5  96.69  6.20
 -1  3 -5 105.79  6.20
  1  3  5 105.09  7.10
  1  3  5 101.29  5.90
 -1  3 -5 101.59  6.20
 -1  3 -5 102.39  6.50
  2 -3  5 129.49  7.60
 -2 -3 -5 128.39  8.70
 -2 -3 -5 118.59  9.10
  2 -3  5 119.69  7.20
 -2 -3 -5 129.59  8.70
  2 -3  5 119.79  8.30
  2 -3  5 118.19  7.10
 -2 -3 -5 125.59  7.70
  2 -3  5 119.49  7.80
 -2 -3 -5 127.99  8.40
  2 -3  5 123.39  6.80
 -2 -3 -5 129.19  7.80
  2  3  5 123.49  7.10
 -2  3 -5 137.59  8.20
 -2  3 -5 113.19  7.50
  2  3  5 123.29  7.90
 -2  3 -5 125.69  8.60
  2  3  5 115.39  7.60
  2  3  5 137.59  7.80
  2  3  5 123.09  7.60
 -2  3 -5 124.19  8.20
  2  3  5 110.69  9.30
 -2  3 -5 125.79  7.90
 -3 -3 -5 196.88  12.40
  3 -3  5 175.08  10.30
 -3 -3 -5 203.38  12.50
 -3 -3 -5 184.38  11.40
 -3 -3 -5 202.68  11.60
  3 -3  5 205.98  11.50
  3 -3  5 193.78  11.50
 -3  3 -5 182.78  11.60
 -3  3 -5 213.48  10.80
  3  3  5 185.48  10.90
 -3  3 -5 198.98  12.20
  3  3  5 209.38  11.60
 -3  3 -5 225.48  12.30
  3  3  5 193.68  11.80
  3  3  5 191.38  11.40
  4 -3  5  11.00  3.30
  4 -3  5  10.70  4.40
 -4 -3 -5  14.10  6.00
 -4 -3 -5  6.60  4.40
 -4 -3 -5  12.40  5.50
 -4  3 -5  10.10  5.60
  4  3  5  4.90  3.50
 -4  3 -5  8.70  5.90
  4  3  5  8.60  4.20
 -4  3 -5  17.90  6.50
  4  3  5  5.90  4.80
 -5 -3 -5  25.80  8.50
 -5 -3 -5  13.30  6.70
 -5 -3 -5  11.70  8.40
  5 -3  5  18.20  6.60
 -5  3 -5  2.90  7.40
 -5  3 -5  12.10  6.10
  5  3  5  8.80  8.10
 -5  3 -5  10.70  7.40
  5  3  5  1.60  9.00
  6 -4 -5  0.60  8.50
  6 -4 -5  23.00  10.20
  6 -4 -5  22.60  11.10
  6  4 -5  29.80  8.20
  6  4 -5  32.80  11.40
  6  4 -5  26.00  10.40
  5 -4 -5  36.80  8.10
  5 -4 -5  39.20  8.00
  5 -4 -5  32.20  5.90
  5  4 -5  34.40  7.30
  5  4 -5  31.40  6.50
  5  4 -5  37.20  9.20
  4 -4 -5  21.80  4.30
  4 -4 -5  13.20  4.50
  4  4 -5  18.60  5.30
  4  4 -5  20.00  4.90
  3 -4 -5 394.86  22.40
 -3 -4  5 461.85  19.80
 -3 -4  5 428.46  19.10
  3 -4 -5 479.45  19.50
 -3 -4  5 441.96  21.30
  3 -4 -5 468.45  20.90
  3 -4 -5 468.65  21.90
  3  4 -5 475.15  21.90
 -3  4  5 459.25  19.70
  3  4 -5 398.96  19.80
  3  4 -5 427.26  18.40
 -3  4  5 438.16  19.40
  3  4 -5 461.15  19.70
 -3  4  5 455.75  19.30
  3  4 -5 414.36  21.60
  2 -4 -5 666.73  26.60
  2 -4 -5 672.13  27.20
  2 -4 -5 601.74  26.00
  2 -4 -5 660.03  25.40
 -2 -4  5 624.84  25.50
  2 -4 -5 620.44  25.20
 -2 -4  5 607.24  27.40
 -2 -4  5 595.14  25.10
 -2  4  5 629.14  24.80
  2  4 -5 640.54  25.50
 -2  4  5 636.24  26.40
  2  4 -5 628.04  26.10
  2  4 -5 622.44  24.30
  2  4 -5 644.24  27.80
  2  4 -5 604.04  25.70
 -2  4  5 604.94  25.30
 -2  4  5 589.14  27.10
 -2  4  5 613.74  25.20
  2  4 -5 613.94  25.10
 -1 -4  5 369.96  14.90
 -1 -4  5 341.77  14.60
 -1 -4  5 354.76  16.90
 -1 -4  5 354.76  14.20
  1 -4 -5 329.37  14.40
  1 -4 -5 353.86  15.60
  1 -4 -5 328.57  13.60
  1 -4 -5 332.77  15.50
  1 -4 -5 348.57  15.60
  1 -4 -5 336.87  14.80
 -1  4  5 362.66  15.00
 -1  4  5 353.06  15.80
 -1  4  5 373.66  16.30
  1  4 -5 363.26  17.00
  1  4 -5 319.27  14.50
  1  4 -5 348.17  13.90
 -1  4  5 343.77  15.70
  1  4 -5 333.67  15.80
 -1  4  5 333.17  14.50
  1  4 -5 343.37  14.50
  1  4 -5 337.47  15.50
  0 -4 -5 1462.15  55.99
  0 -4  5 1472.75  56.19
  0 -4  5 1453.55  56.49
  0 -4 -5 1456.85  56.89
  0 -4  5 1490.25  56.19
  0 -4 -5 1425.36  55.99
  0 -4 -5 1523.65  57.89
  0  4 -5 1505.35  56.79
  0  4 -5 1482.05  56.29
  0  4 -5 1380.46  56.79
  0  4 -5 1484.85  56.19
  0  4 -5 1464.15  55.29
  0  4  5 1509.85  56.89
  0  4  5 1455.05  56.09
  0  4  5 1505.65  57.99
  0  4 -5 1469.15  58.29
  0  4 -5 1412.26  57.59
  0  4  5 1457.75  56.29
  0  4 -5 1435.66  57.09
  0  4  5 1439.86  56.09
  0  4  5 1425.16  56.69
 -1 -4 -5 363.36  16.00
  1 -4  5 371.36  14.60
  1 -4  5 351.36  16.30
 -1 -4 -5 368.86  17.00
  1 -4  5 350.46  15.70
  1 -4  5 370.96  15.90
  1 -4  5 371.56  15.60
 -1 -4 -5 360.06  16.10
 -1 -4 -5 351.86  15.80
 -1 -4 -5 339.57  15.40
 -1 -4 -5 347.57  16.50
  1  4  5 360.76  15.70
  1  4  5 352.46  16.80
 -1  4 -5 344.27  16.00
 -1  4 -5 362.76  14.50
  1  4  5 392.26  18.30
 -1  4 -5 355.56  15.60
  1  4  5 354.86  15.50
 -1  4 -5 332.57  15.80
  1  4  5 359.26  14.30
  1  4  5 370.26  16.40
 -1  4 -5 328.97  16.00
  1  4  5 356.66  15.90
  2 -4  5 479.95  19.90
 -2 -4 -5 439.36  20.10
 -2 -4 -5 457.25  20.60
  2 -4  5 444.26  20.60
  2 -4  5 454.35  21.10
 -2 -4 -5 504.35  20.20
 -2 -4 -5 460.55  21.50
  2 -4  5 485.15  20.30
  2 -4  5 453.05  19.30
 -2 -4 -5 429.06  21.40
 -2 -4 -5 457.35  20.90
 -2  4 -5 478.15  21.00
  2  4  5 452.35  20.40
  2  4  5 472.95  20.70
 -2  4 -5 464.15  20.50
 -2  4 -5 447.36  20.50
  2  4  5 464.65  21.30
  2  4  5 454.65  20.20
  2  4  5 446.96  20.00
 -2  4 -5 495.25  20.60
  2  4  5 486.05  20.90
 -2  4 -5 435.06  20.30
 -3 -4 -5  2.40  4.20
  3 -4  5  8.90  2.90
  3 -4  5  11.90  3.00
 -3 -4 -5  4.70  3.00
 -3 -4 -5  9.90  4.10
 -3 -4 -5  14.50  4.40
  3 -4  5  4.20  3.30
  3 -4  5  4.80  3.10
  3  4  5  7.00  3.60
 -3  4 -5  10.80  4.30
 -3  4 -5  12.20  3.60
 -3  4 -5  -2.00  3.70
  3  4  5  5.50  3.10
  3  4  5  6.00  3.60
  3  4  5  8.30  3.30
 -4 -4 -5  82.49  9.90
  4 -4  5  51.79  7.00
  4 -4  5  53.59  7.70
 -4 -4 -5  85.99  9.40
 -4 -4 -5  59.59  8.90
 -4  4 -5  57.79  8.10
  4  4  5  65.59  8.80
 -4  4 -5  93.49  13.60
  4  4  5  63.19  7.90
  4  4  5  71.59  7.90
 -4  4 -5  88.49  10.00
 -5 -4 -5  10.60  7.30
 -5 -4 -5  7.70  8.00
 -5 -4 -5  14.40  7.40
  5 -4  5  5.10  8.40
 -5  4 -5  5.50  7.40
 -5  4 -5  3.70  7.60
  5  4  5  9.90  5.40
  6 -5 -5  5.60  6.70
  6 -5 -5  0.10  8.60
  6 -5 -5  2.40  9.40
  6  5 -5  10.00  9.70
  5 -5 -5  -1.50  4.70
  5 -5 -5 -13.20  5.50
  5 -5 -5  -3.20  6.70
  5  5 -5  4.00  7.10
  5  5 -5  -0.30  4.40
  5  5 -5  -0.30  5.30
  4 -5 -5 100.79  10.00
  4 -5 -5  90.89  10.40
  4  5 -5  88.39  9.90
  4  5 -5  86.79  13.10
  3 -5 -5  77.29  6.70
  3 -5 -5  97.49  6.90
  3 -5 -5 101.89  9.40
 -3 -5  5 108.29  7.40
  3 -5 -5  93.29  8.30
 -3  5  5  97.39  6.60
  3  5 -5  90.89  8.90
 -3  5  5 105.19  7.20
  3  5 -5 102.19  7.40
  2 -5 -5 193.08  9.90
  2 -5 -5 213.78  10.30
 -2 -5  5 210.28  10.40
 -2 -5  5 204.88  10.80
  2 -5 -5 217.88  11.30
 -2 -5  5 192.68  12.00
  2 -5 -5 195.78  11.00
  2 -5 -5 211.48  12.10
  2  5 -5 215.18  10.40
 -2  5  5 202.58  10.10
 -2  5  5 199.08  9.30
  2  5 -5 215.88  12.60
 -2  5  5 220.98  11.40
  2  5 -5 198.98  9.90
  2  5 -5 196.08  10.20
  1 -5 -5 296.57  13.90
  1 -5 -5 271.07  12.80
  1 -5 -5 291.07  13.80
  1 -5 -5 275.67  12.90
 -1 -5  5 304.87  12.40
 -1 -5  5 298.97  13.00
 -1 -5  5 291.17  13.10
  1  5 -5 291.97  12.10
 -1  5  5 307.17  14.80
 -1  5  5 290.07  13.00
 -1  5  5 282.27  13.00
  1  5 -5 275.87  12.90
 -1  5  5 284.47  14.10
  1  5 -5 299.47  13.20
 -1  5  5 304.77  15.00
 -1  5  5 306.27  13.20
  1  5 -5 272.47  12.60
  1  5 -5 297.17  15.30
  0 -5 -5 1385.06  52.79
  0 -5 -5 1358.96  52.59
  0 -5 -5 1316.87  52.59
  0 -5 -5 1393.66  53.39
  0 -5  5 1353.56  52.79
  0 -5  5 1331.27  52.79
  0 -5  5 1357.46  52.69
  0 -5 -5 1344.57  53.29
  0 -5 -5 1261.37  52.69
  0  5 -5 1292.17  53.59
  0  5 -5 1404.46  54.99
  0  5  5 1371.86  52.79
  0  5  5 1320.87  53.29
  0  5  5 1308.57  52.59
  0  5 -5 1354.06  52.69
  0  5  5 1386.36  53.19
  0  5 -5 1389.46  52.49
  0  5 -5 1333.77  51.69
  0  5  5 1549.54  58.29
  0  5  5 1336.67  52.79
  0  5 -5 1413.06  52.89
 -1 -5 -5 307.17  14.30
  1 -5  5 302.87  14.00
 -1 -5 -5 300.77  14.20
  1 -5  5 308.27  13.80
  1 -5  5 287.87  14.30
 -1 -5 -5 277.77  16.50
 -1 -5 -5 317.17  14.40
 -1 -5 -5 266.77  14.30
  1 -5  5 314.67  12.40
  1  5  5 292.47  13.70
 -1  5 -5 280.57  14.40
 -1  5 -5 301.57  14.00
 -1  5 -5 283.47  15.20
  1  5  5 312.27  15.40
  1  5  5 299.37  12.80
 -1  5 -5 317.97  14.20
 -1  5 -5 310.57  15.80
  1  5  5 313.87  14.10
  1  5  5 297.07  14.20
 -2 -5 -5 515.15  23.60
 -2 -5 -5 544.55  25.10
  2 -5  5 587.74  24.80
 -2 -5 -5 522.85  24.90
 -2 -5 -5 549.45  24.70
  2 -5  5 550.94  22.70
  2 -5  5 572.34  24.50
 -2 -5 -5 573.54  24.50
 -2 -5 -5 575.24  24.00
 -2  5 -5 513.85  24.30
  2  5  5 561.44  25.10
 -2  5 -5 536.45  24.30
 -2  5 -5 592.24  24.50
  2  5  5 534.75  23.80
 -2  5 -5 584.54  24.60
  3 -5  5  44.40  6.20
  3 -5  5  36.00  5.70
  3 -5  5  38.40  4.90
 -3 -5 -5  41.50  5.70
 -3 -5 -5  37.30  6.00
  3  5  5  50.19  6.80
  3  5  5  38.10  5.70
 -4 -5 -5  20.80  6.90
  4 -5  5  14.60  5.00
 -4 -5 -5  8.40  6.10
 -4 -5 -5  15.60  5.30
  4  5  5  12.80  4.30
  4  5  5  22.30  5.20
  4  5  5  5.80  5.40
 -4  5 -5  24.30  6.40
 -4  5 -5  13.20  5.60
 -5 -5 -5  26.40  8.60
 -5 -5 -5  5.90  9.90
 -5 -5 -5  5.50  6.90
 -5  5 -5  8.10  8.30
 -5  5 -5  13.70  11.60
  5  5  5  16.70  5.60
  5 -6 -5  31.50  8.00
  5 -6 -5  23.90  7.90
  5 -6 -5  26.70  6.20
  5  6 -5  23.90  8.60
  5  6 -5  23.40  7.30
  5  6 -5  38.10  7.50
  4 -6 -5  1.50  3.90
  4 -6 -5  0.70  4.90
  4 -6 -5  4.70  5.60
  4  6 -5  5.10  4.40
  4  6 -5  -2.00  4.40
 -3 -6  5  60.39  6.50
  3 -6 -5  57.49  6.20
  3 -6 -5  56.39  7.50
  3 -6 -5  46.90  7.20
  3  6 -5  43.20  6.70
 -3  6  5  55.99  5.80
 -3  6  5  59.09  9.00
  3  6 -5  54.79  6.50
  2 -6 -5 370.96  18.70
  2 -6 -5 432.86  19.40
 -2 -6  5 448.36  18.60
  2 -6 -5 411.66  19.60
  2 -6 -5 421.56  18.40
  2 -6 -5 396.66  18.60
 -2 -6  5 394.56  18.10
  2  6 -5 369.76  18.10
 -2  6  5 435.96  18.40
 -2  6  5 438.96  19.60
 -2  6  5 404.96  18.20
  2  6 -5 417.26  18.50
 -2  6  5 418.26  17.30
  2  6 -5 429.66  21.10
 -2  6  5 396.76  20.00
  1 -6 -5  90.29  7.00
  1 -6 -5  85.19  5.90
  1 -6 -5  75.89  6.40
 -1 -6  5  82.09  7.70
 -1 -6  5  79.59  5.80
  1 -6 -5  84.49  5.80
 -1 -6  5  83.79  5.70
  1 -6 -5  88.99  6.90
 -1 -6  5  93.19  5.90
  1  6 -5  83.79  6.80
  1  6 -5  79.09  7.70
 -1  6  5  87.09  5.80
  1  6 -5  91.19  6.10
 -1  6  5  88.29  5.80
 -1  6  5  87.19  6.80
 -1  6  5  80.69  5.80
  1  6 -5  86.49  5.70
 -1  6  5  84.79  6.70
 -1  6  5  93.29  7.10
  1  6 -5  84.99  5.50
  1  6 -5  79.29  4.80
  0 -6 -5 170.38  9.30
  0 -6 -5 183.68  9.60
  0 -6 -5 182.88  10.30
  0 -6  5 193.28  9.50
  0 -6 -5 155.88  8.90
  0 -6 -5 174.58  9.60
  0 -6 -5 190.58  10.10
  0 -6  5 186.78  9.60
  0 -6  5 168.78  9.30
  0  6  5 183.88  9.50
  0  6 -5 191.28  9.70
  0  6  5 179.38  9.60
  0  6  5 192.48  11.00
  0  6  5 179.08  10.10
  0  6 -5 179.08  8.50
  0  6  5 180.58  9.40
  0  6 -5 194.38  11.60
 -1 -6 -5 543.95  23.80
  1 -6  5 566.04  21.60
 -1 -6 -5 509.45  23.80
  1 -6  5 536.85  23.70
 -1 -6 -5 498.05  23.10
 -1 -6 -5 549.85  23.90
  1 -6  5 576.14  23.50
 -1 -6 -5 595.74  24.20
  1  6  5 527.65  23.30
  1  6  5 568.14  23.80
 -1  6 -5 578.24  23.70
 -1  6 -5 511.25  21.50
  1  6  5 575.54  23.00
  1  6  5 547.75  23.90
 -1  6 -5 545.95  25.60
 -1  6 -5 587.04  23.90
  1  6  5 476.35  25.10
  1  6  5 562.14  25.10
 -1  6 -5 554.04  23.80
 -2 -6 -5 199.28  11.90
  2 -6  5 193.28  10.90
 -2 -6 -5 200.28  12.30
  2 -6  5 202.38  11.80
 -2 -6 -5 199.48  11.70
 -2 -6 -5 201.48  11.40
 -2 -6 -5 168.18  14.10
 -2  6 -5 204.68  11.90
  2  6  5 192.78  11.50
  2  6  5 196.18  12.00
 -2  6 -5 181.28  12.80
 -2  6 -5 211.68  11.50
 -2  6 -5 178.28  11.70
  2  6  5 187.68  11.80
 -3 -6 -5  15.50  4.10
  3 -6  5  11.40  4.00
 -3 -6 -5  6.60  5.10
  3 -6  5  10.50  4.10
 -3 -6 -5  18.40  5.00
  3  6  5  23.80  5.80
 -3  6 -5  6.20  4.80
  3  6  5  18.40  4.50
 -3  6 -5  17.50  5.50
 -4 -6 -5  28.70  6.50
  4 -6  5  19.50  5.40
 -4 -6 -5  29.30  8.10
 -4 -6 -5  22.80  5.80
 -4  6 -5  42.30  7.40
 -4  6 -5  32.50  7.80
  4  6  5  34.70  9.40
 -5 -6 -5  1.30  8.50
 -5 -6 -5  6.80  8.90
 -5 -6 -5  -4.50  6.90
 -5  6 -5 -13.30  8.20
 -5  6 -5  13.40  8.30
  5  6  5  2.90  5.40
  5 -7 -5  16.20  8.10
  5 -7 -5  3.90  5.80
  5 -7 -5  -4.70  8.60
  5  7 -5  12.60  7.80
  5  7 -5  27.40  7.80
  5  7 -5  5.20  6.30
  4 -7 -5 133.69  12.80
  4 -7 -5 140.69  12.20
  4 -7 -5 132.79  10.30
  4  7 -5 130.29  13.30
  4  7 -5 130.39  11.20
  3 -7 -5  53.69  9.00
  3 -7 -5  78.69  10.40
  3 -7 -5  66.39  6.80
  3  7 -5  80.59  8.80
  2 -7 -5 177.08  11.10
 -2 -7  5 178.08  9.90
  2 -7 -5 162.88  10.80
  2 -7 -5 158.78  9.80
 -2  7  5 164.18  8.40
  2  7 -5 164.08  10.20
  2  7 -5 157.08  12.00
  2  7 -5 153.18  9.30
 -2  7  5 176.38  9.80
  1 -7 -5 443.66  20.40
  1 -7 -5 489.55  21.10
  1 -7 -5 462.35  20.30
  1 -7 -5 481.55  21.00
  1 -7 -5 475.35  20.90
 -1 -7  5 466.15  20.30
 -1  7  5 410.66  21.50
  1  7 -5 436.06  20.10
  1  7 -5 433.16  19.50
  1  7 -5 500.55  23.00
  1  7 -5 471.25  20.50
 -1  7  5 446.46  20.20
  0 -7 -5  98.19  7.20
  0 -7 -5  80.59  5.90
  0 -7  5 104.89  6.70
  0 -7  5 100.39  5.90
  0 -7 -5  94.89  7.20
  0 -7  5 104.09  6.90
  0 -7 -5  76.59  6.30
  0 -7 -5 101.89  7.80
  0 -7 -5  93.09  7.20
  0  7 -5  99.99  7.10
  0  7  5 101.79  8.00
  0  7 -5  90.89  5.70
  0  7 -5  94.29  7.40
  0  7  5  92.09  7.00
  0  7 -5  96.79  8.90
  0  7  5 102.79  6.90
  0  7 -5 101.49  6.50
  0  7 -5  82.99  6.70
 -1 -7 -5 458.25  21.10
 -1 -7 -5 465.25  21.10
  1 -7  5 470.55  19.00
  1 -7  5 479.05  20.90
 -1 -7 -5 404.66  20.60
  1 -7  5 445.66  21.10
 -1 -7 -5 493.45  21.60
 -1 -7 -5 415.86  21.80
 -1  7 -5 490.85  21.00
 -1  7 -5 469.05  23.00
 -1  7 -5 449.66  21.50
 -1  7 -5 469.95  22.00
  1  7  5 476.05  22.50
 -1  7 -5 490.25  21.30
  1  7  5 482.75  21.80
 -2 -7 -5  81.89  7.60
  2 -7  5  85.39  8.00
 -2 -7 -5  79.49  8.20
 -2 -7 -5  69.89  7.80
 -2 -7 -5  71.59  8.10
  2 -7  5  66.99  6.60
 -2  7 -5  76.09  8.70
 -2  7 -5  74.39  7.40
 -2  7 -5  83.39  7.80
  2  7  5  67.49  7.60
  2  7  5  69.79  8.00
  2  7  5  69.29  7.10
 -3 -7 -5  61.79  8.50
 -3 -7 -5  49.90  7.00
  3 -7  5  58.09  7.60
  3 -7  5  68.19  8.10
 -3 -7 -5  58.69  9.20
 -3 -7 -5  63.09  8.80
  3  7  5  53.39  7.80
  3  7  5  43.00  6.50
 -3  7 -5  54.19  7.70
 -3  7 -5  61.09  8.30
  4 -7  5  -1.40  5.60
 -4 -7 -5  -1.30  5.00
 -4 -7 -5  -4.50  5.50
 -4 -7 -5  7.60  7.20
 -4  7 -5  -2.80  6.00
 -4  7 -5  2.10  6.50
  5 -8 -5  24.20  11.00
  5 -8 -5  11.70  9.30
  5  8 -5  28.70  13.60
  5  8 -5  25.10  8.60
  4 -8 -5  67.79  10.60
  4 -8 -5  73.19  9.40
  4 -8 -5  76.99  9.10
  4  8 -5  80.49  10.40
  4  8 -5  63.19  10.10
  3 -8 -5  12.30  5.10
  3 -8 -5  2.50  3.80
  3 -8 -5  5.30  5.60
  3  8 -5  4.50  4.20
  3  8 -5  8.20  4.40
  2 -8 -5 100.29  9.40
  2 -8 -5 115.79  8.30
 -2 -8  5 112.69  8.40
  2 -8 -5 109.59  11.90
 -2  8  5 117.49  11.00
 -2  8  5 105.59  6.80
  2  8 -5 103.79  8.60
  2  8 -5 104.19  13.30
  1 -8 -5 119.59  8.60
  1 -8 -5 117.29  8.80
  1 -8 -5 117.59  9.20
  1 -8 -5 138.49  9.50
  1  8 -5 113.29  10.40
  1  8 -5 121.89  8.70
 -1  8  5 105.59  9.10
 -1  8  5 125.59  9.00
  0 -8 -5 265.87  14.70
  0 -8 -5 268.57  14.00
  0 -8  5 281.37  13.80
  0 -8 -5 274.67  14.30
  0 -8  5 275.87  13.90
  0 -8  5 270.97  12.80
  0 -8 -5 264.97  14.10
  0  8 -5 286.27  14.40
  0  8  5 258.17  14.60
  0  8 -5 259.17  15.90
  0  8 -5 267.87  13.10
  0  8  5 272.07  13.50
  0  8  5 276.57  15.00
 -1 -8 -5 347.67  17.40
  1 -8  5 338.47  16.80
 -1 -8 -5 363.26  17.60
 -1 -8 -5 350.66  17.50
 -1  8 -5 343.17  17.30
  1  8  5 347.47  18.50
  1  8  5 331.47  17.50
 -1  8 -5 355.26  16.90
  1  8  5 340.87  17.20
 -1  8 -5 344.67  18.90
  2 -8  5  9.90  4.50
  2 -8  5  9.00  3.70
 -2 -8 -5  7.50  4.50
 -2 -8 -5  6.10  4.70
 -2  8 -5  1.00  7.80
  2  8  5  9.20  4.20
 -2  8 -5  7.80  4.20
  2  8  5  3.30  3.30
  3 -8  5  46.90  7.20
 -3 -8 -5  44.10  7.60
 -3 -8 -5  43.60  7.70
 -3 -8 -5  60.59  7.90
 -3 -8 -5  57.89  8.60
  3 -8  5  46.70  7.60
 -3  8 -5  59.49  8.50
  3  8  5  54.69  8.40
  3  8  5  47.90  8.60
  3  8  5  29.70  6.00
 -3  8 -5  60.69  8.50
 -3  8 -5  30.90  7.10
 -4 -8 -5  -2.90  7.50
 -4 -8 -5  -0.10  5.50
 -4 -8 -5  6.90  6.40
 -4  8 -5  -2.40  7.90
 -4  8 -5  -3.10  8.00
  4 -9 -5  40.60  8.90
  4 -9 -5  30.30  9.00
  4 -9 -5  23.60  6.90
  4  9 -5  23.40  8.10
  4  9 -5  19.90  7.80
  3 -9 -5  16.90  6.70
  3 -9 -5  19.60  6.60
  3 -9 -5  27.60  5.80
  3  9 -5  17.50  6.10
  3  9 -5  23.00  6.30
  2 -9 -5  8.40  4.10
  2 -9 -5  -2.50  5.40
  2 -9 -5  3.80  4.20
  2 -9 -5  -2.60  3.50
  2  9 -5  -1.60  4.10
  2  9 -5  8.20  4.40
  1 -9 -5 135.99  10.40
 -1 -9  5 143.79  9.40
  1 -9 -5 132.79  11.40
  1  9 -5 132.69  12.60
 -1  9  5 142.29  10.80
  0 -9  5 335.97  16.40
  0 -9  5 329.27  15.40
  0 -9 -5 319.17  19.30
  0 -9 -5 344.57  16.90
  0  9  5 323.67  16.70
  0  9 -5 322.27  15.70
 -1 -9 -5  14.70  4.50
 -1 -9 -5  7.40  4.60
  1 -9  5  6.80  3.40
 -1 -9 -5  15.00  4.80
  1  9  5  16.20  4.40
  1  9  5  7.30  4.10
 -1  9 -5  18.20  4.90
 -1  9 -5  8.20  4.80
 -1  9 -5  15.00  4.10
  1  9  5  10.80  3.90
  2 -9  5  64.39  7.90
 -2 -9 -5  74.49  8.80
 -2 -9 -5  57.79  8.60
 -2 -9 -5  62.99  8.70
 -2 -9 -5  64.89  8.60
  2 -9  5  61.09  9.00
  2  9  5  58.79  8.00
  2  9  5  54.19  8.50
 -2  9 -5  57.09  7.80
 -2  9 -5  74.89  9.30
 -2  9 -5  72.79  10.00
  2  9  5  59.79  8.50
 -3 -9 -5  34.60  7.80
 -3 -9 -5  38.00  7.70
 -3 -9 -5  52.39  9.50
  3 -9  5  36.10  7.30
 -3 -9 -5  46.20  7.90
  3  9  5  37.70  7.80
 -3  9 -5  39.90  7.50
  3  9  5  35.60  8.00
 -3  9 -5  29.00  7.70
 -3  9 -5  42.70  7.80
 -4 -9 -5  -4.50  6.40
 -4 -9 -5  5.70  7.70
 -4 -9 -5  10.30  7.20
 -4 -9 -5  -1.50  5.90
 -4  9 -5  3.70  7.50
 -4  9 -5  -9.10  6.10
 -4  9 -5  11.70  7.90
  4 -10 -5 -13.60  14.50
  4 10 -5  0.00  8.80
  3 -10 -5  42.50  8.40
  3 -10 -5  41.40  7.00
  3 -10 -5  46.40  8.70
  3 10 -5  29.60  7.90
  3 10 -5  54.29  8.70
  2 -10 -5  59.09  8.80
  2 -10 -5  55.29  8.00
  2 -10 -5  51.29  7.20
  2 -10 -5  46.80  7.70
  2 10 -5  56.19  8.30
  2 10 -5  28.70  7.60
  1 -10 -5  29.70  5.80
  1 -10 -5  35.10  6.50
  1 -10 -5  31.70  6.20
  1 -10 -5  31.20  6.50
 -1 -10  5  27.80  5.20
  1 10 -5  28.50  7.40
  1 10 -5  32.60  6.20
  0 -10 -5  86.09  9.20
  0 -10  5  86.49  10.40
  0 -10 -5  81.99  8.50
  0 -10 -5  84.39  8.50
  0 -10 -5  97.79  9.70
  0 10 -5  80.29  8.10
  0 10 -5  92.89  10.70
 -1 -10 -5  43.80  6.90
 -1 -10 -5  39.00  6.40
  1 -10  5  35.70  6.90
 -1 -10 -5  35.70  7.00
 -1 10 -5  24.60  6.40
 -1 10 -5  42.70  8.20
 -1 10 -5  31.40  6.20
  1 10  5  38.70  7.80
 -2 -10 -5  69.19  9.30
 -2 -10 -5  81.09  10.00
 -2 -10 -5  42.90  8.20
 -2 -10 -5  54.19  8.90
  2 10  5  52.99  8.40
 -2 10 -5  56.69  8.20
 -2 10 -5  65.99  8.40
 -2 10 -5  36.70  7.40
  2 10  5  40.80  8.30
 -3 -10 -5  11.00  6.50
  3 -10  5  10.80  7.00
 -3 -10 -5 -14.50  7.30
 -3 -10 -5  -0.50  5.80
 -3 -10 -5  -0.90  5.70
  3 10  5  7.10  7.10
 -3 10 -5  5.10  6.30
 -3 10 -5  6.70  6.90
 -3 10 -5  -6.20  6.60
  3 10  5  -2.10  4.70
  3 -11 -5  16.10  6.30
  3 -11 -5  20.50  7.90
  3 -11 -5  19.80  7.60
  3 11 -5  9.40  7.00
  3 11 -5  22.00  7.90
  2 -11 -5  29.50  7.10
  2 -11 -5  27.00  6.50
  2 -11 -5  40.00  7.60
  2 -11 -5  19.80  6.90
  2 11 -5  24.40  7.50
  2 11 -5  15.60  6.30
  1 -11 -5  42.00  7.30
 -1 -11  5  28.10  5.40
  1 -11 -5  35.80  7.00
  1 -11 -5  27.60  6.10
  1 -11 -5  34.40  6.90
  1 11 -5  26.50  7.00
  1 11 -5  26.30  6.90
  0 -11 -5  56.59  8.10
  0 -11 -5  53.69  7.80
  0 -11 -5  45.40  7.80
  0 -11 -5  59.49  8.60
  0 11 -5  35.10  8.10
  0 11 -5  53.49  8.00
 -1 -11 -5  3.80  5.70
 -1 -11 -5  -1.90  6.00
 -1 -11 -5  -0.60  5.20
 -1 11 -5  5.10  5.70
 -1 11 -5  -2.70  4.40
  1 11  5  -1.50  4.10
 -1 11 -5  13.00  6.00
 -2 -11 -5  24.10  6.60
 -2 -11 -5  9.10  6.70
 -2 -11 -5  9.20  7.20
 -2 -11 -5  8.40  6.00
 -2 11 -5  30.40  7.30
 -2 11 -5  20.20  6.60
 -2 11 -5  16.30  6.80
  2 11  5  8.00  4.90
 -3 -11 -5  -6.50  6.90
 -3 -11 -5  -7.40  8.20
 -3 -11 -5  0.00  7.00
  3 -11  5  7.70  8.00
 -3 -11 -5  7.00  7.20
 -3 11 -5  4.40  7.20
  3 11  5  2.40  5.40
  3 11  5  3.30  7.90
 -3 11 -5  16.60  8.50
 -3 11 -5  9.00  7.50
  3 -12 -5  22.10  8.50
  3 -12 -5  19.80  8.30
  3 -12 -5  33.60  9.10
  3 -12 -5  35.80  8.40
  3 12 -5  8.90  8.20
  2 -12 -5 116.99  14.10
  2 -12 -5 120.89  14.00
  2 -12 -5 118.79  12.90
  2 -12 -5  96.59  12.10
  2 12 -5  95.49  14.70
  2 12 -5 132.39  17.30
  1 -12 -5  43.70  8.70
  1 -12 -5  46.10  8.40
  1 -12 -5  41.90  8.10
  1 -12 -5  44.00  7.90
  1 12 -5  50.59  8.90
  1 12 -5  32.00  7.90
  0 -12 -5  7.60  6.70
  0 -12 -5  13.70  6.50
  0 -12 -5  14.10  6.30
  0 12 -5  11.80  6.80
  0 12 -5  17.20  7.00
 -1 -12 -5  32.60  8.90
 -1 -12 -5  69.39  10.00
 -1 -12 -5  51.99  9.20
 -1 12 -5  55.59  9.40
 -1 12 -5  44.90  8.50
  1 12  5  27.00  7.60
 -2 -12 -5  -5.70  11.40
 -2 -12 -5  1.60  7.30
 -2 -12 -5  4.20  8.10
 -2 -12 -5  6.00  7.30
 -2 12 -5  1.30  6.30
 -2 12 -5  6.50  7.60
 -2 12 -5  5.40  6.70
  2 12  5  1.80  5.60
  1 -13 -5  11.50  8.30
  1 -13 -5  14.10  7.70
  1 -13 -5  26.10  8.90
  1 -13 -5  36.40  7.90
  1 13 -5  22.90  10.40
  1 13 -5  28.60  8.90
  0 -13 -5  3.20  6.90
  0 -13 -5  -0.90  6.70
  0 -13 -5  -6.60  7.50
  0 13 -5  -2.00  7.00
  0 13 -5  -4.50  8.70
 -1 -13 -5  20.50  12.20
 -1 -13 -5  8.40  8.70
 -1 -13 -5  28.00  7.50
  6  0 -6  21.20  6.30
  6  0 -6  -0.90  13.50
  5  0 -6  19.70  7.30
  5  0 -6  29.80  5.50
  4  0 -6 191.68  13.80
  4  0 -6 189.08  10.50
  4  0 -6 189.28  10.90
  3  0 -6 239.58  14.20
 -3  0  6 232.38  10.70
  3  0 -6 215.08  11.10
  3  0 -6 239.98  11.70
 -3  0  6 236.28  11.90
  3  0 -6 226.78  11.10
 -3  0  6 245.18  11.10
  3  0 -6 230.38  10.60
  3  0 -6 243.28  10.80
  2  0 -6 2096.09  89.99
  2  0 -6 2277.67  88.19
  2  0 -6 2429.76  89.89
  2  0 -6 2255.57  88.09
  2  0 -6 2194.88  85.89
 -2  0  6 2395.16  88.29
  2  0 -6 2369.56  85.99
 -2  0  6 2298.17  86.29
 -2  0  6 2397.96  86.29
  1  0 -6 112.49  5.90
 -1  0  6  95.49  6.60
  1  0 -6 114.99  7.00
  1  0 -6 104.09  6.40
  1  0 -6 115.39  6.70
  1  0 -6 113.99  6.20
  1  0 -6 110.49  6.20
 -1  0  6  96.59  6.00
  0  0 -6 468.65  19.40
  0  0 -6 456.15  18.50
  0  0 -6 463.15  18.40
  0  0  6 440.66  19.10
  0  0 -6 432.36  17.90
  0  0  6 446.46  19.90
  0  0 -6 464.45  17.10
  0  0 -6 436.36  20.00
  0  0  6 434.46  17.30
  0  0 -6 429.26  19.10
 -1  0 -6 163.48  9.50
  1  0  6 171.38  9.40
  1  0  6 184.78  10.00
  1  0  6 168.88  8.40
 -1  0 -6 153.88  7.00
 -1  0 -6 155.38  8.70
 -1  0 -6 168.28  9.30
 -1  0 -6 141.39  10.40
  1  0  6 181.38  9.10
  1  0  6 177.78  8.20
 -1  0 -6 150.78  7.90
  2  0  6 370.66  16.10
  2  0  6 357.66  16.80
 -2  0 -6 363.86  16.30
 -2  0 -6 358.26  16.00
  2  0  6 328.87  16.00
  2  0  6 337.87  17.00
  2  0  6 376.96  17.20
  2  0  6 371.76  16.60
  2  0  6 350.46  14.20
 -2  0 -6 367.76  17.40
 -2  0 -6 296.17  15.80
  3  0  6  29.30  4.90
 -3  0 -6  24.10  4.50
 -3  0 -6  25.50  5.50
  3  0  6  25.80  4.70
  3  0  6  30.30  4.70
 -3  0 -6  21.60  5.50
 -4  0 -6 205.38  13.10
 -4  0 -6 213.68  15.00
 -4  0 -6 213.48  13.90
  4  0  6 186.88  12.00
 -5  0 -6  5.80  8.30
 -5  0 -6  14.60  9.40
 -5  0 -6  20.20  7.10
  6 -1 -6  15.00  6.20
  6 -1 -6  1.00  12.30
  6  1 -6  18.80  6.60
  6  1 -6  -1.80  13.20
  5 -1 -6  4.90  4.20
  5 -1 -6  8.80  7.10
  5  1 -6  6.00  6.90
  4 -1 -6  31.60  4.50
  4 -1 -6  27.90  6.60
  4 -1 -6  26.60  4.80
  4  1 -6  22.20  6.30
  4  1 -6  22.60  4.50
  3 -1 -6 135.59  6.90
  3 -1 -6 137.19  10.50
  3 -1 -6 126.69  7.10
  3 -1 -6 133.99  7.40
 -3 -1  6 123.29  6.90
  3 -1 -6 128.49  7.00
  3 -1 -6 129.39  6.90
 -3 -1  6 141.99  8.60
  3  1 -6 123.29  7.50
  3  1 -6 145.59  7.20
  3  1 -6 126.29  6.00
  3  1 -6 120.09  6.80
  3  1 -6 125.99  10.90
 -3  1  6 131.39  7.40
  3  1 -6 137.99  8.50
  3  1 -6 120.09  7.20
 -3  1  6 130.49  7.10
  3  1 -6 131.59  7.50
 -3  1  6 130.59  7.40
  2 -1 -6 112.39  5.00
 -2 -1  6 109.49  5.40
  2 -1 -6 110.69  6.50
 -2 -1  6 108.09  7.10
 -2 -1  6 106.69  5.20
  2 -1 -6 118.39  6.30
  2 -1 -6 119.49  8.50
 -2 -1  6 119.09  6.90
  2 -1 -6 115.59  5.00
  2 -1 -6 115.09  7.60
  2 -1 -6 107.49  7.00
  2  1 -6 124.09  7.30
 -2  1  6 117.89  6.30
 -2  1  6 116.79  5.20
  2  1 -6 101.39  7.00
 -2  1  6 110.69  7.00
  2  1 -6 115.69  5.70
  2  1 -6 111.49  6.50
 -2  1  6 117.89  5.30
  2  1 -6  99.79  5.00
  2  1 -6 117.59  8.50
 -1 -1  6  65.09  4.70
  1 -1 -6  66.49  4.70
  1 -1 -6  72.69  5.10
  1 -1 -6  65.19  4.70
 -1 -1  6  68.99  5.30
  1 -1 -6  76.09  5.40
  1 -1 -6  61.79  5.40
  1 -1 -6  73.29  4.80
  1  1 -6  67.59  5.00
  1  1 -6  66.09  4.10
  1  1 -6  75.99  6.60
 -1  1  6  64.09  5.40
 -1  1  6  70.19  4.80
  1  1 -6  71.99  4.50
  1  1 -6  69.89  5.40
  0 -1  6 697.03  28.30
  0 -1 -6 659.33  28.20
  0 -1  6 668.83  25.60
  0 -1 -6 679.33  26.40
  0 -1 -6 641.04  25.40
  0 -1 -6 693.13  26.90
  0 -1  6 680.53  25.80
  0 -1  6 685.53  27.40
  0 -1 -6 686.73  25.50
  0 -1 -6 661.73  28.90
  0 -1 -6 671.43  26.40
  0 -1 -6 611.04  27.20
  0  1  6 675.23  25.60
  0  1 -6 664.73  25.50
  0  1  6 680.43  27.40
  0  1 -6 660.53  28.30
  0  1 -6 699.13  27.50
  0  1 -6 650.23  25.90
  0  1 -6 650.23  25.50
  0  1  6 711.53  28.60
  0  1 -6 641.54  27.40
  0  1  6 653.53  25.70
  0  1 -6 665.43  26.20
  1 -1  6 394.96  15.90
 -1 -1 -6 370.96  15.80
  1 -1  6 352.46  15.50
  1 -1  6 364.86  18.10
 -1 -1 -6 345.47  15.30
  1 -1  6 363.56  16.80
  1 -1  6 371.46  16.40
 -1 -1 -6 368.86  15.00
  1 -1  6 368.46  15.70
 -1 -1 -6 376.66  16.10
 -1 -1 -6 374.46  17.20
 -1  1 -6 353.36  15.50
  1  1  6 354.96  16.50
 -1  1 -6 382.26  17.00
  1  1  6 365.66  15.50
  1  1  6 370.86  17.60
 -1  1 -6 358.46  15.50
 -1  1 -6 371.66  15.60
  1  1  6 373.16  16.00
  1  1  6 380.56  16.10
  1  1  6 344.07  14.90
 -1  1 -6 365.06  15.00
  2 -1  6 218.28  11.10
  2 -1  6 191.98  10.20
 -2 -1 -6 202.78  9.50
 -2 -1 -6 179.38  10.80
  2 -1  6 206.98  10.60
 -2 -1 -6 214.98  11.20
 -2 -1 -6 227.58  11.00
 -2 -1 -6 214.28  12.10
  2 -1  6 202.68  11.70
 -2 -1 -6 202.48  12.70
  2 -1  6 223.28  11.10
 -2  1 -6 219.88  10.60
  2  1  6 185.98  11.40
  2  1  6 218.18  11.30
 -2  1 -6 205.78  9.20
 -2  1 -6 218.58  11.00
  2  1  6 206.58  10.70
  2  1  6 218.68  10.80
 -2  1 -6 220.48  12.00
  2  1  6 204.68  10.80
  2  1  6 214.38  11.80
 -2  1 -6 208.38  11.90
 -3 -1 -6  43.30  6.60
 -3 -1 -6  49.10  6.40
  3 -1  6  51.59  5.60
 -3 -1 -6  43.50  6.70
 -3  1 -6  42.80  6.50
 -3  1 -6  51.19  6.00
 -3  1 -6  46.20  6.70
  3  1  6  49.60  6.20
  3  1  6  45.70  5.70
  3  1  6  52.39  6.20
 -4 -1 -6 114.59  11.30
  4 -1  6 100.99  8.70
 -4 -1 -6 133.49  12.20
 -4 -1 -6 122.49  10.20
 -4  1 -6 115.99  10.70
 -4  1 -6 137.59  10.10
 -4  1 -6 125.69  11.80
  4  1  6 106.59  9.30
 -5 -1 -6  22.60  6.80
 -5 -1 -6  -2.50  13.60
 -5 -1 -6  33.20  8.70
 -5  1 -6  26.10  11.70
  5  1  6  28.50  7.50
 -5  1 -6  23.00  9.20
 -5  1 -6  11.50  6.40
  6 -2 -6  9.80  6.00
  6 -2 -6  -9.90  9.00
  6 -2 -6  16.50  9.90
  6  2 -6  3.60  10.00
  5 -2 -6  80.19  11.10
  5 -2 -6  68.99  8.10
  5 -2 -6  82.59  11.70
  5  2 -6  84.49  8.60
  5  2 -6  62.49  9.00
  5  2 -6  61.79  10.00
  4 -2 -6  27.50  4.30
  4 -2 -6  21.60  7.40
  4  2 -6  28.70  4.60
  4  2 -6  28.70  4.60
  4  2 -6  28.90  5.10
  4  2 -6  12.20  7.60
  3 -2 -6 275.27  15.50
  3 -2 -6 235.68  12.10
 -3 -2  6 268.57  13.00
  3 -2 -6 267.17  11.90
 -3 -2  6 251.77  13.90
  3 -2 -6 274.67  14.50
  3 -2 -6 256.67  11.60
  3  2 -6 249.68  14.10
  3  2 -6 268.77  12.20
 -3  2  6 249.08  12.40
  3  2 -6 246.88  11.90
  3  2 -6 277.17  14.00
  3  2 -6 279.77  16.10
 -3  2  6 279.27  13.30
  2 -2 -6 531.15  23.20
 -2 -2  6 518.35  22.70
  2 -2 -6 543.35  22.30
 -2 -2  6 513.05  20.20
  2 -2 -6 525.55  20.10
  2 -2 -6 508.35  20.40
  2 -2 -6 482.85  20.90
  2  2 -6 511.15  22.10
  2  2 -6 508.15  22.70
 -2  2  6 534.45  22.20
 -2  2  6 470.55  20.10
  2  2 -6 504.75  20.50
  2  2 -6 536.05  20.20
 -2  2  6 525.95  20.90
  2  2 -6 483.85  21.40
 -2  2  6 488.65  20.20
  2  2 -6 501.95  19.90
  1 -2 -6 133.59  7.50
 -1 -2  6 128.49  5.80
  1 -2 -6 147.19  8.00
  1 -2 -6 134.19  6.90
  1 -2 -6 140.39  8.20
  1 -2 -6 125.29  7.80
 -1 -2  6 135.09  5.90
  1 -2 -6 156.38  10.70
 -1  2  6 130.49  8.20
  1  2 -6 134.59  7.60
 -1  2  6 130.79  7.20
  1  2 -6 146.29  6.80
  1  2 -6 145.49  8.70
 -1  2  6 138.39  6.70
  1  2 -6 131.39  8.10
 -1  2  6 130.99  5.70
  1  2 -6 142.09  6.30
  1  2 -6 133.69  5.60
  0 -2  6 253.67  12.30
  0 -2 -6 266.37  11.90
  0 -2 -6 271.07  11.10
  0 -2 -6 255.87  13.20
  0 -2 -6 258.47  11.40
  0 -2 -6 286.57  13.30
  0 -2  6 275.17  11.30
  0 -2  6 275.87  12.50
  0 -2 -6 267.57  12.30
  0  2 -6 256.37  13.30
  0  2  6 269.27  11.10
  0  2 -6 260.57  12.60
  0  2  6 269.77  12.00
  0  2  6 289.67  12.80
  0  2 -6 271.67  12.40
  0  2 -6 266.47  13.60
  0  2 -6 259.47  11.10
  0  2 -6 253.67  10.90
  0  2 -6 265.87  11.10
  0  2 -6 276.07  11.10
  0  2  6 275.67  13.60
  1 -2  6 316.77  13.90
 -1 -2 -6 333.37  15.70
 -1 -2 -6 316.67  13.80
 -1 -2 -6 336.77  14.40
 -1 -2 -6 343.87  14.80
  1 -2  6 313.27  14.10
 -1 -2 -6 308.27  15.70
  1 -2  6 313.67  13.70
 -1 -2 -6 319.67  13.80
  1 -2  6 316.47  15.10
  1 -2  6 332.77  14.90
  1  2  6 315.27  14.50
  1  2  6 326.47  14.10
 -1  2 -6 339.77  13.80
 -1  2 -6 340.17  15.30
 -1  2 -6 317.77  14.00
  1  2  6 311.67  13.90
 -1  2 -6 326.47  14.20
 -1  2 -6 326.97  14.00
  1  2  6 307.87  13.80
 -2 -2 -6  60.29  6.60
  2 -2  6  52.59  4.90
 -2 -2 -6  64.49  8.00
  2 -2  6  47.40  4.40
 -2 -2 -6  47.50  6.50
  2 -2  6  54.29  5.20
  2 -2  6  59.89  5.30
 -2 -2 -6  49.70  5.60
 -2 -2 -6  51.29  5.10
 -2 -2 -6  48.90  4.40
  2 -2  6  51.29  5.80
  2  2  6  52.29  5.00
 -2  2 -6  49.00  6.70
  2  2  6  48.80  5.10
  2  2  6  47.30  6.00
 -2  2 -6  43.50  6.10
  2  2  6  50.69  5.00
 -2  2 -6  53.59  4.80
 -2  2 -6  55.49  4.70
  2  2  6  49.90  5.40
  2  2  6  53.09  4.40
 -2  2 -6  51.59  5.50
  3 -2  6  91.49  6.90
 -3 -2 -6  86.49  9.10
 -3 -2 -6  72.79  8.00
 -3 -2 -6  91.09  7.80
  3 -2  6  77.69  7.30
 -3  2 -6  71.49  8.50
  3  2  6  91.99  7.90
  3  2  6  82.19  7.40
 -3  2 -6  80.39  6.80
 -3  2 -6  95.89  8.60
  3  2  6  85.79  7.50
 -4 -2 -6  1.50  5.40
  4 -2  6  19.70  4.20
 -4 -2 -6  15.70  5.40
 -4 -2 -6  25.60  6.80
 -4  2 -6  32.00  7.50
  4  2  6  21.00  4.70
  4  2  6  25.10  5.40
 -4  2 -6  9.80  5.90
 -4  2 -6  23.10  5.10
 -5 -2 -6  19.30  9.10
 -5 -2 -6  24.50  8.50
 -5  2 -6  32.70  12.30
 -5  2 -6  30.60  7.20
  5  2  6  13.10  5.00
  6 -3 -6  16.70  9.90
  6 -3 -6  32.10  10.60
  6  3 -6  0.80  9.40
  5 -3 -6  31.90  8.20
  5 -3 -6  13.60  4.90
  5 -3 -6  18.80  7.90
  5  3 -6  10.80  7.00
  5  3 -6  21.30  5.80
  5  3 -6  22.90  6.70
  4 -3 -6  19.30  7.60
  4 -3 -6  30.00  4.60
  4 -3 -6  34.30  6.60
  4  3 -6  28.70  7.30
  4  3 -6  34.30  6.00
  4  3 -6  37.70  5.30
 -3 -3  6 595.34  25.80
  3 -3 -6 647.14  26.00
  3 -3 -6 682.03  28.30
  3 -3 -6 688.73  29.40
  3 -3 -6 587.04  26.50
 -3 -3  6 641.14  28.50
 -3  3  6 638.74  26.90
  3  3 -6 684.23  26.50
  3  3 -6 650.33  28.50
 -3  3  6 596.54  26.00
  3  3 -6 582.94  25.60
  3  3 -6 689.43  30.20
  2 -3 -6 117.99  7.70
 -2 -3  6 114.69  7.10
 -2 -3  6 111.99  8.00
  2 -3 -6 108.29  8.10
  2 -3 -6 106.99  5.60
 -2 -3  6 108.39  5.60
 -2  3  6 110.19  5.90
  2  3 -6  99.99  7.00
  2  3 -6 108.09  7.80
  2  3 -6 104.89  5.50
  2  3 -6 104.59  6.50
 -2  3  6  95.79  5.50
 -2  3  6 113.09  7.30
 -2  3  6 106.99  7.60
  2  3 -6  95.29  5.30
 -1 -3  6 440.86  17.80
  1 -3 -6 433.46  18.10
  1 -3 -6 454.65  19.20
  1 -3 -6 441.86  19.20
  1 -3 -6 463.65  19.40
  1 -3 -6 452.55  17.60
 -1  3  6 440.86  20.10
  1  3 -6 453.45  17.70
  1  3 -6 444.16  20.50
  1  3 -6 455.15  18.00
  1  3 -6 424.36  19.70
 -1  3  6 447.86  18.80
 -1  3  6 432.56  19.30
  1  3 -6 425.46  18.30
 -1  3  6 436.26  17.60
  1  3 -6 458.65  17.70
  0 -3 -6 585.14  22.70
  0 -3 -6 550.54  22.50
  0 -3 -6 560.64  23.70
  0 -3  6 599.24  23.80
  0 -3  6 586.64  22.70
  0 -3  6 559.94  22.50
  0 -3  6 573.14  23.60
  0 -3 -6 583.74  23.70
  0 -3 -6 532.05  22.40
  0 -3 -6 581.14  23.80
  0  3 -6 580.14  23.40
  0  3 -6 570.84  22.60
  0  3 -6 532.05  23.50
  0  3 -6 568.94  25.10
  0  3  6 595.84  23.90
  0  3  6 561.74  23.40
  0  3  6 561.74  22.50
  0  3  6 557.44  26.50
  0  3 -6 541.25  21.80
  1 -3  6  67.49  4.70
 -1 -3 -6  69.39  5.50
  1 -3  6  74.29  5.80
  1 -3  6  64.09  4.10
 -1 -3 -6  62.79  4.90
 -1 -3 -6  71.59  5.20
  1 -3  6  73.19  5.10
 -1 -3 -6  63.69  4.60
 -1 -3 -6  58.99  6.00
 -1 -3 -6  72.69  6.20
 -1  3 -6  72.89  5.90
 -1  3 -6  70.39  4.90
 -1  3 -6  67.89  5.30
  1  3  6  66.49  4.80
  1  3  6  63.49  6.00
  1  3  6  61.39  4.70
 -1  3 -6  66.19  5.00
  1  3  6  62.69  5.40
 -1  3 -6  63.89  4.10
  1  3  6  62.99  4.60
  2 -3  6  58.39  6.30
 -2 -3 -6  50.29  5.00
  2 -3  6  51.09  4.50
 -2 -3 -6  50.19  5.30
 -2 -3 -6  34.10  5.60
 -2 -3 -6  56.49  5.80
  2 -3  6  58.19  5.20
  2 -3  6  55.79  5.10
 -2 -3 -6  45.80  6.00
 -2 -3 -6  53.99  7.00
 -2  3 -6  63.39  6.10
  2  3  6  56.99  6.10
  2  3  6  55.49  5.80
 -2  3 -6  49.50  6.20
  2  3  6  59.19  5.50
 -2  3 -6  46.00  4.70
 -2  3 -6  39.80  5.00
  2  3  6  54.19  4.80
  2  3  6  59.09  6.40
 -2  3 -6  48.60  5.50
  3 -3  6 263.77  14.10
 -3 -3 -6 282.87  15.30
 -3 -3 -6 275.37  15.80
  3 -3  6 235.28  14.40
  3 -3  6 270.37  13.50
 -3 -3 -6 257.27  17.60
  3  3  6 264.57  14.40
  3  3  6 288.87  14.90
  3  3  6 263.77  14.30
 -3  3 -6 255.37  15.70
 -3  3 -6 272.67  13.50
 -4 -3 -6  3.00  5.90
 -4 -3 -6  0.10  4.60
  4 -3  6  7.70  3.20
 -4 -3 -6  6.70  5.90
  4  3  6  1.60  3.90
  4  3  6  7.40  3.90
 -4  3 -6  7.10  6.10
 -4  3 -6  13.10  4.40
 -5 -3 -6  14.30  8.30
 -5 -3 -6  7.70  9.10
 -5 -3 -6  15.80  9.10
  5  3  6  24.00  5.60
 -5  3 -6  22.40  7.00
 -5  3 -6  25.60  11.30
 -5  3 -6  10.60  8.00
  6 -4 -6  9.40  9.50
  6 -4 -6  -3.20  6.00
  6 -4 -6  2.80  8.20
  6  4 -6  18.10  10.00
  5 -4 -6  1.60  6.70
  5 -4 -6  -2.90  4.30
  5 -4 -6  -8.00  7.10
  5  4 -6  0.00  4.90
  5  4 -6  19.50  6.00
  5  4 -6  7.80  7.60
  4 -4 -6  52.09  7.50
  4 -4 -6  47.60  5.90
  4 -4 -6  50.19  8.50
  4  4 -6  59.09  9.00
  4  4 -6  54.29  6.90
  4  4 -6  42.30  7.10
  3 -4 -6  25.50  3.60
  3 -4 -6  26.40  6.10
 -3 -4  6  21.50  4.80
  3 -4 -6  24.40  4.10
  3 -4 -6  28.10  5.10
 -3 -4  6  27.90  3.80
  3  4 -6  30.70  4.30
 -3  4  6  25.20  4.00
 -3  4  6  21.20  3.70
  3  4 -6  21.70  4.80
 -2 -4  6 182.78  10.30
  2 -4 -6 167.18  8.10
  2 -4 -6 167.98  10.20
  2 -4 -6 139.79  9.60
  2 -4 -6 153.48  7.90
 -2 -4  6 154.98  7.90
 -2 -4  6 160.88  10.40
  2 -4 -6 173.78  10.00
  2  4 -6 165.38  8.20
 -2  4  6 165.48  7.90
 -2  4  6 154.08  10.50
  2  4 -6 153.08  8.70
  2  4 -6 172.88  10.80
 -2  4  6 149.39  7.90
  2  4 -6 147.19  9.10
  2  4 -6 159.88  8.00
 -2  4  6 157.78  9.50
  1 -4 -6 138.89  8.10
 -1 -4  6 134.39  6.70
 -1 -4  6 116.19  7.90
  1 -4 -6 139.89  7.70
  1 -4 -6 125.99  6.30
  1 -4 -6 122.59  6.40
  1 -4 -6 140.89  8.00
 -1 -4  6 130.39  6.70
  1 -4 -6 124.89  7.90
 -1  4  6 128.59  6.60
  1  4 -6 124.09  6.80
 -1  4  6 133.59  6.60
  1  4 -6 129.99  9.00
  1  4 -6 135.39  6.60
  1  4 -6 132.19  6.30
 -1  4  6 127.59  7.30
  1  4 -6 138.89  6.80
 -1  4  6 127.99  7.80
 -1  4  6 121.49  7.80
  1  4 -6 148.59  10.40
  0 -4  6  45.60  4.00
  0 -4  6  54.29  4.50
  0 -4  6  49.50  3.80
  0 -4 -6  50.99  4.00
  0 -4 -6  48.30  3.80
  0 -4 -6  35.60  4.50
  0 -4 -6  49.20  4.80
  0 -4 -6  47.80  3.90
  0 -4 -6  53.99  4.90
  0  4 -6  43.60  3.00
  0  4  6  50.49  4.70
  0  4 -6  46.00  3.90
  0  4 -6  41.80  5.90
  0  4  6  43.60  3.80
  0  4  6  41.50  5.00
  0  4 -6  45.70  4.10
  0  4 -6  50.49  3.90
  0  4  6  44.30  3.70
  0  4  6  41.00  4.30
  0  4 -6  47.30  4.80
 -1 -4 -6  74.39  5.00
  1 -4  6  68.89  4.10
 -1 -4 -6  70.59  5.90
  1 -4  6  71.89  5.00
 -1 -4 -6  71.79  5.70
 -1 -4 -6  62.69  6.20
 -1 -4 -6  76.09  6.80
  1 -4  6  73.19  5.50
 -1 -4 -6  69.99  5.60
  1 -4  6  66.49  6.20
  1 -4  6  67.99  5.40
 -1  4 -6  72.19  5.60
  1  4  6  58.89  5.20
  1  4  6  72.69  5.40
  1  4  6  79.19  6.20
  1  4  6  78.49  5.40
 -1  4 -6  69.89  4.20
 -1  4 -6  67.59  5.30
  1  4  6  69.79  5.60
 -1  4 -6  75.69  6.00
  1  4  6  68.19  6.50
 -1  4 -6  65.89  5.90
 -2 -4 -6 423.66  19.10
 -2 -4 -6 419.26  18.90
  2 -4  6 427.96  18.30
 -2 -4 -6 379.56  20.60
  2 -4  6 376.46  18.00
 -2 -4 -6 406.46  18.00
  2 -4  6 402.86  18.10
 -2 -4 -6 403.16  19.90
 -2  4 -6 419.76  18.70
  2  4  6 390.36  19.60
 -2  4 -6 360.06  18.10
  2  4  6 394.46  18.40
 -2  4 -6 419.26  17.50
  2  4  6 398.46  19.00
  2  4  6 366.46  17.70
 -2  4 -6 427.46  19.40
 -3 -4 -6 139.99  10.10
  3 -4  6 127.79  8.60
 -3 -4 -6 133.69  9.00
 -3 -4 -6 139.49  13.60
 -3 -4 -6 128.59  11.50
  3 -4  6 129.49  9.20
  3  4  6 138.99  9.70
 -3  4 -6 138.39  10.60
  3  4  6 137.99  9.80
 -3  4 -6 128.29  8.60
 -3  4 -6 138.49  10.20
  3  4  6 130.79  9.80
 -4 -4 -6  14.80  6.80
 -4 -4 -6  21.10  5.50
 -4 -4 -6  9.10  6.60
  4 -4  6  10.70  4.50
 -4  4 -6  17.00  4.80
  4  4  6  18.60  5.30
  4  4  6  24.70  5.70
 -4  4 -6  27.50  7.40
 -4  4 -6  12.90  6.30
 -5 -4 -6  4.30  6.90
 -5 -4 -6  8.90  8.60
 -5 -4 -6  16.60  9.10
  5  4  6  2.90  5.20
 -5  4 -6  -0.50  7.90
 -5  4 -6  1.60  7.90
  5 -5 -6  33.80  6.60
  5 -5 -6  39.00  8.90
  5 -5 -6  19.90  8.40
  5  5 -6  31.00  8.60
  5  5 -6  30.20  6.90
  5  5 -6  28.80  7.00
  4 -5 -6 140.59  11.70
  4 -5 -6 133.99  12.30
  4 -5 -6 139.69  10.30
  4  5 -6 151.48  13.20
  4  5 -6 113.09  10.00
  4  5 -6 132.59  16.90
  3 -5 -6 160.08  9.30
  3 -5 -6 188.28  11.50
  3 -5 -6 166.18  12.10
  3  5 -6 145.29  11.50
 -3  5  6 165.38  10.00
  3  5 -6 167.48  9.70
 -2 -5  6  27.00  3.70
  2 -5 -6  17.50  3.60
 -2 -5  6  26.80  5.40
  2 -5 -6  28.90  3.70
  2 -5 -6  17.60  4.40
 -2 -5  6  20.30  3.40
  2 -5 -6  18.70  4.50
  2  5 -6  23.00  3.60
 -2  5  6  18.80  4.40
  2  5 -6  21.80  4.10
 -2  5  6  27.80  3.60
 -2  5  6  21.20  4.20
 -2  5  6  25.20  3.10
 -2  5  6  19.80  3.40
  2  5 -6  18.30  4.90
  1 -5 -6 852.11  34.40
 -1 -5  6 849.02  33.20
  1 -5 -6 863.51  33.10
  1 -5 -6 826.02  34.30
  1 -5 -6 886.31  34.40
  1 -5 -6 782.42  32.80
 -1 -5  6 852.11  33.50
 -1 -5  6 828.02  33.20
  1 -5 -6 784.32  31.90
 -1  5  6 826.52  34.40
  1  5 -6 843.12  33.20
 -1  5  6 817.82  33.10
 -1  5  6 861.31  33.70
  1  5 -6 828.62  32.40
 -1  5  6 840.02  33.10
  1  5 -6 821.22  33.00
 -1  5  6 802.52  34.40
  1  5 -6 774.02  32.70
  1  5 -6 851.11  36.10
 -1  5  6 892.21  35.60
  0 -5 -6 143.09  7.70
  0 -5  6 143.59  8.20
  0 -5 -6 133.89  7.90
  0 -5 -6 138.99  7.70
  0 -5 -6 147.09  7.90
  0 -5 -6 156.58  9.00
  0 -5 -6 145.69  8.80
  0 -5  6 150.38  7.80
  0  5 -6 153.58  10.20
  0  5 -6 142.49  6.70
  0  5  6 145.99  7.90
  0  5  6 153.68  7.90
  0  5 -6 147.49  7.90
  0  5 -6 152.98  10.60
  0  5  6 131.89  8.20
  0  5  6 145.39  9.60
  0  5  6 145.59  9.50
  0  5 -6 146.19  7.90
  0  5 -6 140.89  8.90
 -1 -5 -6 138.59  9.40
 -1 -5 -6 124.89  7.50
  1 -5  6 131.79  7.40
 -1 -5 -6 121.89  8.20
 -1 -5 -6 125.69  8.30
  1 -5  6 137.79  8.80
 -1 -5 -6 126.99  8.10
 -1 -5 -6 111.99  8.50
  1 -5  6 135.09  7.90
 -1  5 -6 137.49  7.90
  1  5  6 126.59  7.50
 -1  5 -6 120.79  8.50
 -1  5 -6 132.79  8.40
  1  5  6 133.59  8.60
  1  5  6 133.69  7.70
  1  5  6 128.49  9.20
 -1  5 -6 132.09  9.80
 -2 -5 -6 145.59  11.30
  2 -5  6 158.08  9.30
 -2 -5 -6 157.28  10.20
 -2 -5 -6 151.68  10.40
 -2 -5 -6 174.58  9.70
  2  5  6 159.98  10.20
 -2  5 -6 167.88  10.30
 -2  5 -6 173.68  10.90
  2  5  6 141.69  9.30
  2  5  6 169.28  10.80
 -2  5 -6 144.99  10.90
  3 -5  6  50.09  8.60
  3 -5  6  41.10  5.40
 -3 -5 -6  60.99  7.50
 -3 -5 -6  57.59  6.80
 -3 -5 -6  50.09  7.70
  3 -5  6  49.00  6.60
 -3 -5 -6  68.69  8.40
  3  5  6  45.50  6.80
 -3  5 -6  52.19  7.10
  3  5  6  51.29  6.60
  3  5  6  52.79  10.90
 -3  5 -6  52.49  7.20
 -4 -5 -6  7.60  5.50
 -4 -5 -6  14.90  6.80
 -4 -5 -6  -5.00  6.60
 -4  5 -6  -4.80  5.80
  4  5  6  6.40  4.90
  4  5  6  3.10  4.20
 -4  5 -6  1.90  6.00
  5 -6 -6  68.49  9.40
  5 -6 -6  89.19  11.70
  5 -6 -6  70.99  10.90
  5  6 -6  82.19  12.80
  5  6 -6  56.99  10.30
  5  6 -6  91.09  10.90
  4 -6 -6  42.20  7.70
  4 -6 -6  48.00  6.40
  4 -6 -6  50.49  8.80
  4  6 -6  41.80  7.30
  4  6 -6  51.29  6.60
  3 -6 -6  32.60  9.40
  3 -6 -6  30.80  4.80
  3 -6 -6  36.40  7.20
 -3  6  6  25.40  4.70
  3  6 -6  42.10  5.20
  3  6 -6  30.40  6.20
  2 -6 -6 136.69  9.30
  2 -6 -6 120.49  9.50
  2 -6 -6 122.29  7.40
  2  6 -6 102.39  9.50
 -2  6  6 117.29  8.60
 -2  6  6 100.69  8.90
  2  6 -6 117.59  7.50
  2  6 -6 108.79  7.30
 -2  6  6 113.49  6.60
 -2  6  6  95.89  9.40
  1 -6 -6 219.88  10.80
 -1 -6  6 217.88  10.80
  1 -6 -6 234.58  12.40
  1 -6 -6 232.58  12.00
 -1 -6  6 226.18  11.00
  1 -6 -6 229.28  11.80
  1  6 -6 221.98  11.00
 -1  6  6 221.08  11.10
  1  6 -6 202.18  10.30
  1  6 -6 215.78  9.80
 -1  6  6 203.78  10.80
 -1  6  6 222.68  12.70
 -1  6  6 212.98  10.70
 -1  6  6 210.58  11.90
  1  6 -6 204.48  12.00
  1  6 -6 231.28  13.70
  0 -6 -6  16.40  3.00
  0 -6  6  27.60  3.60
  0 -6 -6  19.70  3.60
  0 -6  6  32.90  4.40
  0 -6 -6  24.30  3.90
  0 -6 -6  28.80  4.60
  0 -6 -6  17.70  4.30
  0 -6  6  30.30  4.00
  0  6  6  22.50  3.70
  0  6 -6  24.40  4.90
  0  6 -6  26.20  3.70
  0  6  6  29.60  3.90
  0  6  6  31.70  4.60
  0  6 -6  29.10  4.00
  0  6  6  27.20  4.90
  0  6  6  27.60  4.60
  0  6  6  28.30  3.70
 -1 -6 -6 506.15  23.70
  1 -6  6 520.15  21.80
  1 -6  6 490.25  22.60
 -1 -6 -6 446.36  22.20
 -1 -6 -6 509.45  22.60
 -1 -6 -6 511.75  22.40
 -1 -6 -6 493.55  22.30
  1  6  6 481.25  22.20
  1  6  6 502.95  22.00
  1  6  6 510.65  22.70
 -1  6 -6 522.25  22.20
 -1  6 -6 446.36  22.50
 -1  6 -6 529.65  22.20
 -1  6 -6 518.05  24.50
  1  6  6 533.45  24.10
  2 -6  6  55.79  5.80
 -2 -6 -6  47.50  6.50
 -2 -6 -6  56.09  6.10
 -2 -6 -6  56.79  11.10
 -2 -6 -6  53.89  7.30
  2  6  6  46.50  5.90
  2  6  6  46.70  6.60
 -2  6 -6  38.50  5.90
 -2  6 -6  40.20  9.00
  2  6  6  49.60  6.30
 -2  6 -6  50.69  6.60
 -3 -6 -6  -2.10  5.10
 -3 -6 -6  -2.50  4.30
 -3 -6 -6  -0.90  4.10
  3 -6  6  3.70  3.90
 -3 -6 -6  5.80  3.90
 -3  6 -6  -3.30  4.30
 -3  6 -6  -3.90  4.40
  3  6  6  -0.30  3.10
  3  6  6  -1.40  3.50
 -4 -6 -6  21.80  8.20
 -4 -6 -6  25.40  8.00
 -4 -6 -6  22.50  6.60
 -4  6 -6  25.00  7.90
 -4  6 -6  14.20  7.20
  4  6  6  10.00  4.90
  5 -7 -6  5.70  5.70
  5 -7 -6  -2.70  11.30
  5  7 -6  15.70  7.00
  5  7 -6  17.70  7.90
  4 -7 -6  12.90  5.10
  4 -7 -6  17.70  7.50
  4 -7 -6  19.70  6.50
  4  7 -6  7.90  5.70
  4  7 -6  21.30  5.50
  3 -7 -6  29.20  7.50
  3 -7 -6  32.20  6.30
  3  7 -6  32.60  7.10
  3  7 -6  27.40  9.00
 -3  7  6  22.50  4.80
  2 -7 -6  34.40  5.60
  2 -7 -6  38.10  6.10
  2 -7 -6  37.00  5.00
 -2  7  6  36.20  5.90
  2  7 -6  41.60  5.40
  2  7 -6  28.70  4.10
 -2  7  6  34.00  3.90
  2  7 -6  32.00  5.90
  1 -7 -6 112.79  8.60
  1 -7 -6 121.69  9.10
 -1 -7  6 106.79  8.50
  1 -7 -6 108.59  7.30
  1 -7 -6 107.39  8.10
  1  7 -6  98.69  7.50
  1  7 -6 126.19  10.20
 -1  7  6 101.49  8.70
  1  7 -6 124.39  7.70
  1  7 -6 107.19  6.10
 -1  7  6 100.69  9.40
 -1  7  6 106.69  8.20
  0 -7 -6  40.60  5.20
  0 -7 -6  33.60  5.40
  0 -7  6  45.70  5.50
  0 -7 -6  34.60  4.90
  0 -7 -6  40.90  5.00
  0 -7  6  39.90  4.40
  0  7  6  45.50  4.90
  0  7 -6  39.00  4.70
  0  7 -6  44.50  5.20
  0  7  6  36.70  6.10
  0  7  6  41.60  5.10
  0  7 -6  31.80  5.70
 -1 -7 -6  64.99  7.60
 -1 -7 -6  73.99  7.10
 -1 -7 -6  71.99  7.20
  1 -7  6  70.79  10.60
 -1  7 -6  56.99  8.70
 -1  7 -6  76.29  6.90
 -1  7 -6  59.79  6.80
  1  7  6  83.19  8.00
  1  7  6  68.39  7.70
 -2 -7 -6  34.80  5.60
 -2 -7 -6  46.00  7.70
 -2 -7 -6  42.30  6.00
 -2 -7 -6  51.89  7.20
  2  7  6  39.90  6.40
 -2  7 -6  29.90  5.80
 -2  7 -6  26.20  5.90
 -2  7 -6  28.30  7.50
  3 -7  6  38.00  6.40
 -3 -7 -6  43.10  7.50
 -3 -7 -6  47.10  6.60
 -3 -7 -6  39.10  7.90
 -3 -7 -6  41.10  7.30
  3  7  6  27.90  5.80
 -3  7 -6  41.30  7.90
 -3  7 -6  33.10  6.60
 -4 -7 -6  33.50  11.00
 -4 -7 -6  21.50  7.10
 -4 -7 -6  24.20  11.00
 -4  7 -6  29.20  15.30
 -4  7 -6  24.40  8.70
  4  7  6  7.90  4.90
  5 -8 -6  21.50  10.20
  5 -8 -6  28.20  7.10
  5 -8 -6  33.20  9.90
  5  8 -6  35.00  8.70
  5  8 -6  47.40  11.30
  5  8 -6  40.30  8.60
  4 -8 -6  8.90  5.20
  4 -8 -6  8.60  7.20
  4 -8 -6  6.30  6.80
  4  8 -6  14.40  6.00
  4  8 -6  3.50  5.60
  3 -8 -6  20.00  5.00
  3 -8 -6  20.80  6.20
  3 -8 -6  25.70  6.10
  3  8 -6  23.20  6.60
 -3  8  6  22.30  5.20
  3  8 -6  24.80  5.60
  2 -8 -6 138.59  10.30
  2 -8 -6 117.19  10.40
  2 -8 -6 127.39  10.20
  2 -8 -6 142.69  10.20
  2  8 -6 128.49  11.60
 -2  8  6 111.19  9.70
  1 -8 -6  61.89  7.20
  1 -8 -6  66.69  8.00
  1 -8 -6  56.99  6.30
  1  8 -6  67.99  6.50
 -1  8  6  59.29  5.70
 -1  8  6  58.99  7.90
  0 -8 -6 251.37  14.10
  0 -8 -6 247.08  13.40
  0 -8 -6 249.58  18.50
  0 -8 -6 238.28  12.90
  0  8 -6 209.48  17.50
  0  8 -6 246.38  12.30
  0  8 -6 267.27  13.40
 -1 -8 -6 158.88  15.00
 -1 -8 -6 151.18  11.30
 -1 -8 -6 147.39  10.20
 -1  8 -6 140.19  11.80
 -1  8 -6 138.19  9.50
  1  8  6 118.29  10.20
 -1  8 -6 141.99  10.60
 -2 -8 -6  59.79  8.20
 -2 -8 -6  60.89  8.10
 -2 -8 -6  55.19  7.60
 -2 -8 -6  66.79  9.00
 -2  8 -6  37.60  7.00
  2  8  6  43.00  7.40
 -2  8 -6  48.80  7.30
 -2  8 -6  53.49  7.50
 -3 -8 -6  12.70  6.10
  3 -8  6  13.90  5.00
 -3 -8 -6  32.50  6.40
 -3 -8 -6  6.70  7.00
 -3 -8 -6  36.30  7.80
 -3  8 -6  12.60  6.60
  3  8  6  13.60  5.20
 -3  8 -6  21.40  6.50
 -3  8 -6  18.90  6.80
 -4 -8 -6  -8.20  6.20
 -4 -8 -6  -3.50  6.10
 -4 -8 -6  7.60  8.20
 -4  8 -6  -4.50  7.40
 -4  8 -6  7.80  7.40
  4  8  6  -1.30  4.10
  4 -9 -6  38.10  8.90
  4 -9 -6  56.89  8.20
  4 -9 -6  44.10  9.70
  4  9 -6  35.30  9.40
  4  9 -6  54.49  8.90
  3 -9 -6  53.79  7.20
  3 -9 -6  50.19  8.20
  3 -9 -6  35.60  8.10
 -3  9  6  32.90  6.60
  3  9 -6  32.40  6.50
  3  9 -6  43.60  7.90
  2 -9 -6  48.60  7.10
  2 -9 -6  45.60  6.60
  2 -9 -6  47.60  7.70
  2 -9 -6  39.70  8.10
 -2  9  6  35.70  6.90
  2  9 -6  39.90  7.40
  2  9 -6  47.80  6.70
  1 -9 -6  69.59  8.10
  1 -9 -6  59.29  7.90
  1 -9 -6  56.59  7.40
  1 -9 -6  56.89  7.10
 -1  9  6  53.69  6.20
  1  9 -6  62.19  9.40
 -1  9  6  56.59  7.70
  1  9 -6  56.49  7.20
  0 -9 -6 166.68  11.70
  0 -9 -6 143.29  11.20
  0 -9 -6 144.19  10.40
  0 -9 -6 146.89  10.00
  0  9 -6 150.58  9.20
  0  9  6 133.79  11.20
  0  9 -6 145.99  12.50
  0  9 -6 168.58  10.70
 -1 -9 -6  5.80  4.30
 -1 -9 -6  3.40  4.30
 -1 -9 -6  2.20  4.40
 -1  9 -6  7.40  4.70
  1  9  6  0.60  3.70
 -1  9 -6  3.60  4.10
 -1  9 -6  9.00  4.70
 -2 -9 -6  80.09  9.30
 -2 -9 -6  75.99  9.90
 -2 -9 -6  76.59  10.10
 -2 -9 -6  67.29  9.60
 -2  9 -6  59.19  9.00
 -2  9 -6  59.39  8.40
 -2  9 -6  77.79  9.40
 -3 -9 -6  8.40  7.70
  3 -9  6  25.60  7.10
 -3 -9 -6  21.40  7.30
 -3 -9 -6  21.70  6.60
 -3 -9 -6  19.50  7.40
 -3  9 -6  3.90  6.40
  3  9  6  12.40  5.50
 -3  9 -6  21.30  7.60
 -3  9 -6  9.20  6.60
  4 -10 -6  8.40  8.50
  4 -10 -6  11.50  6.70
  4 -10 -6  19.00  8.70
  4 10 -6  19.40  8.40
  4 10 -6  12.60  7.90
  3 -10 -6  97.89  12.70
  3 -10 -6  57.99  9.70
  3 -10 -6  76.99  9.40
 -3 10  6  41.20  8.00
  3 10 -6  74.99  9.50
  3 10 -6  57.09  10.80
  2 -10 -6  16.60  5.80
  2 -10 -6  16.00  6.90
  2 -10 -6  16.30  5.20
  2 -10 -6  23.70  6.60
  2 10 -6  6.10  5.70
  2 10 -6  12.70  5.40
  1 -10 -6  98.59  10.60
  1 -10 -6 104.19  10.30
  1 -10 -6  93.39  9.40
  1 -10 -6  87.89  9.70
  1 10 -6  85.99  11.80
 -1 10  6  85.89  7.60
  1 10 -6 103.49  9.20
  0 -10 -6  21.10  6.00
  0 -10 -6  15.60  6.10
  0 -10 -6  17.40  6.00
  0 10 -6  23.30  5.90
  0 10 -6  16.30  5.60
  0 10  6  11.70  5.30
 -1 -10 -6  58.99  8.60
 -1 -10 -6  74.49  9.10
 -1 -10 -6  70.09  9.30
 -1 10 -6  75.69  8.20
 -1 10 -6  51.99  7.90
  1 10  6  50.69  8.10
 -1 10 -6  44.70  8.30
 -2 -10 -6  15.00  7.70
 -2 -10 -6  13.40  6.50
 -2 -10 -6  24.30  6.60
 -2 -10 -6  27.30  7.30
 -2 10 -6  12.60  6.20
 -2 10 -6  2.30  5.60
 -2 10 -6  10.20  6.60
  2 10  6  10.00  4.90
 -3 -10 -6  9.40  7.80
 -3 -10 -6  22.50  7.60
 -3 -10 -6  16.40  7.60
 -3 -10 -6  3.40  8.40
 -3 10 -6  22.40  15.10
  3 10  6  4.30  5.00
 -3 10 -6  15.60  6.50
 -3 10 -6  18.10  8.00
  3 -11 -6  10.60  8.90
  3 -11 -6  16.20  11.70
  3 -11 -6  20.60  7.90
 -3 11  6  3.90  5.50
  3 11 -6  14.10  7.00
  2 -11 -6  19.40  6.70
  2 -11 -6  9.90  7.00
  2 -11 -6  1.90  5.40
  2 -11 -6  6.50  6.80
  2 11 -6  17.40  6.70
  2 11 -6  8.40  6.80
  1 -11 -6 119.19  12.00
  1 -11 -6 118.69  10.90
  1 -11 -6 115.89  11.50
  1 -11 -6 110.89  11.20
 -1 11  6  82.99  10.60
  1 11 -6 128.79  10.90
  1 11 -6 102.79  13.40
  0 -11 -6  55.59  8.70
  0 -11 -6  52.89  8.60
  0 -11 -6  42.50  7.60
  0 11  6  40.10  8.20
  0 11 -6  66.29  8.60
  0 11 -6  44.70  10.70
 -1 -11 -6  11.30  7.20
 -1 -11 -6  19.20  6.90
 -1 -11 -6  15.10  6.60
 -1 11 -6  14.50  5.60
 -1 11 -6  12.80  6.20
  1 11  6  9.80  5.10
 -1 11 -6  18.60  6.50
 -2 -11 -6  14.00  9.20
 -2 -11 -6  15.30  8.70
 -2 -11 -6  23.80  7.80
  2 11  6  13.40  5.80
 -2 11 -6  48.10  16.20
 -2 11 -6  23.70  7.00
 -2 11 -6  19.40  6.70
  2 -12 -6  -1.50  7.30
  2 -12 -6  13.50  10.70
  2 -12 -6  8.80  7.50
  2 -12 -6  5.50  12.20
  2 12 -6  8.60  8.00
  2 12 -6  4.30  7.00
  1 -12 -6  12.30  7.40
  1 -12 -6  6.50  6.60
  1 -12 -6  18.00  6.30
  1 12 -6  7.10  8.10
 -1 12  6  8.50  5.90
  1 12 -6  7.20  7.80
  0 -12 -6  10.30  7.30
  0 -12 -6  5.80  6.30
  0 -12 -6  14.80  12.10
  0 12 -6  -2.20  5.60
  0 12  6  3.20  5.60
  0 12 -6  -3.30  8.10
 -1 -12 -6  7.50  7.80
 -1 -12 -6  12.50  7.60
 -1 -12 -6  12.50  12.30
  1 12  6  1.60  5.30
 -1 12 -6  18.00  7.50
 -1 12 -6  12.30  7.40
  6  0 -7  1.00  5.90
  6  0 -7  6.00  8.70
  5  0 -7 -10.30  6.50
  5  0 -7  -2.90  3.90
  4  0 -7  -2.30  2.70
  4  0 -7  -9.50  4.70
  3  0 -7  0.30  4.30
 -3  0  7  -2.10  2.10
  3  0 -7  -1.00  2.00
 -3  0  7  -0.50  1.70
  2  0 -7  3.10  2.10
  2  0 -7  -1.50  1.90
 -2  0  7  -0.10  1.70
  2  0 -7  0.60  2.60
 -2  0  7  -1.40  1.90
  2  0 -7  -4.10  2.10
  2  0 -7  -5.50  2.40
  2  0 -7  -5.60  2.80
 -1  0  7  -1.00  1.60
  1  0 -7  -2.20  2.10
  1  0 -7  -1.10  1.60
 -1  0  7  -1.80  2.00
  1  0 -7  0.00  2.70
  1  0 -7  -2.60  1.60
  1  0 -7  -3.80  1.70
  1  0 -7  1.80  1.50
  0  0 -7  2.40  1.70
  0  0 -7  -1.60  1.50
  0  0  7  -2.60  1.00
  0  0 -7  -2.60  1.70
  0  0  7  -2.20  0.90
  0  0  7  -3.50  2.20
  0  0 -7  -2.50  2.30
  0  0  7  -1.70  3.10
 -1  0 -7  1.10  1.20
  1  0  7  1.30  2.30
  1  0  7  2.30  1.90
  1  0  7  -1.00  2.50
 -1  0 -7  -0.90  1.70
  1  0  7  2.20  2.00
 -1  0 -7  -1.20  2.00
 -1  0 -7  2.00  2.00
 -1  0 -7  0.00  2.90
 -2  0 -7  -2.60  2.80
  2  0  7  -1.60  2.20
 -2  0 -7  -5.80  2.50
 -2  0 -7  2.10  4.20
  2  0  7  -4.40  2.50
  2  0  7  0.60  2.70
 -3  0 -7  -8.10  6.70
 -3  0 -7  -5.50  3.70
  3  0  7  -0.20  2.90
 -3  0 -7  -1.50  3.20
 -4  0 -7  -3.30  6.40
 -4  0 -7  5.20  4.70
  4  0  7  2.70  3.60
 -4  0 -7  -5.80  5.20
 -5  0 -7  3.40  12.10
 -5  0 -7 -17.50  8.30
 -5  0 -7  20.20  8.20
  6 -1 -7  5.30  9.30
  6 -1 -7  30.80  7.10
  6  1 -7  27.70  7.10
  6  1 -7  23.00  9.90
  5 -1 -7  22.10  4.90
  5 -1 -7  27.30  9.10
  5  1 -7  27.50  5.20
  5  1 -7  31.60  9.10
  4 -1 -7 215.38  15.50
  4 -1 -7 201.48  10.40
  4  1 -7 190.38  11.60
  4  1 -7 197.18  10.60
  4  1 -7 213.28  15.30
  3 -1 -7 369.46  18.00
 -3 -1  7 329.27  14.70
  3 -1 -7 372.86  19.30
 -3 -1  7 354.36  17.20
  3 -1 -7 347.77  15.60
  3 -1 -7 356.66  14.60
  3  1 -7 363.66  14.80
  3  1 -7 320.17  15.40
  3  1 -7 366.06  17.00
  3  1 -7 342.77  16.40
 -3  1  7 326.17  14.80
 -3  1  7 373.76  16.30
  3  1 -7 370.26  19.70
 -2 -1  7  87.99  3.90
  2 -1 -7  83.99  5.70
  2 -1 -7  78.59  6.50
  2 -1 -7  88.29  6.00
  2 -1 -7  87.79  7.80
 -2 -1  7  84.69  6.30
  2 -1 -7  91.69  6.90
 -2  1  7  88.19  5.70
  2  1 -7  83.39  5.20
 -2  1  7  77.99  6.30
  2  1 -7  87.89  6.70
  2  1 -7  75.19  6.40
  2  1 -7  99.39  8.30
  1 -1 -7 699.83  29.00
 -1 -1  7 656.23  28.80
  1 -1 -7 742.93  31.50
  1 -1 -7 682.13  28.60
 -1 -1  7 714.63  30.50
  1 -1 -7 700.43  28.30
  1 -1 -7 698.03  29.00
  1  1 -7 683.53  27.50
  1  1 -7 699.53  29.50
  1  1 -7 697.63  28.00
  1  1 -7 689.33  31.20
 -1  1  7 685.23  31.30
 -1  1  7 701.83  28.50
  1  1 -7 693.33  28.20
  0 -1  7 748.63  30.60
  0 -1  7 813.72  33.70
  0 -1  7 814.92  33.00
  0 -1  7 791.42  30.80
  0 -1 -7 798.22  31.60
  0 -1 -7 807.52  31.60
  0 -1 -7 819.42  33.30
  0 -1 -7 820.72  32.20
  0  1  7 800.32  33.90
  0  1 -7 832.12  33.00
  0  1 -7 773.52  31.00
  0  1 -7 799.92  31.50
  0  1  7 778.72  30.60
  0  1 -7 788.02  30.40
  0  1  7 880.91  36.50
  1 -1  7 512.35  23.30
  1 -1  7 550.04  24.10
  1 -1  7 523.05  22.00
  1 -1  7 539.15  23.10
  1 -1  7 519.35  22.00
 -1 -1 -7 551.04  22.60
 -1 -1 -7 507.25  21.50
 -1 -1 -7 565.04  22.00
 -1 -1 -7 535.75  21.30
 -1 -1 -7 544.15  24.00
 -1  1 -7 531.55  22.90
  1  1  7 572.34  23.50
  1  1  7 548.45  24.30
 -1  1 -7 538.25  23.70
 -1  1 -7 526.65  21.20
  1  1  7 519.85  21.80
 -1  1 -7 501.05  21.70
 -1  1 -7 533.35  21.70
  1  1  7 537.25  21.70
  1  1  7 520.35  22.50
  2 -1  7  15.30  3.60
  2 -1  7  6.40  2.80
 -2 -1 -7  22.00  4.20
  2 -1  7  14.30  3.60
 -2 -1 -7  13.60  2.20
 -2 -1 -7  18.80  4.50
 -2 -1 -7  10.10  3.60
  2  1  7  21.50  4.70
 -2  1 -7  16.10  3.90
  2  1  7  18.30  3.80
  2  1  7  14.10  3.50
  2  1  7  17.10  3.90
 -2  1 -7  13.10  4.10
 -2  1 -7  14.60  3.40
  3 -1  7  38.30  5.50
 -3 -1 -7  44.20  6.10
 -3 -1 -7  23.60  7.40
 -3 -1 -7  34.90  6.50
 -3  1 -7  32.70  7.30
  3  1  7  34.60  5.50
  3  1  7  31.70  5.50
 -3  1 -7  35.60  7.00
 -3  1 -7  28.40  5.00
  4 -1  7  4.90  4.10
 -4 -1 -7  -4.80  6.30
 -4 -1 -7  3.10  4.60
 -4 -1 -7  -5.40  5.60
 -4  1 -7  -2.60  6.00
 -4  1 -7  4.10  5.60
 -4  1 -7  5.50  4.70
  4  1  7  2.50  4.00
 -5 -1 -7  13.90  8.00
 -5 -1 -7  13.40  9.40
 -5 -1 -7  13.40  6.60
  5  1  7  9.60  4.90
 -5  1 -7  -0.10  8.60
 -5  1 -7  8.50  7.80
  6 -2 -7 -18.30  8.50
  6 -2 -7  10.60  8.80
  6 -2 -7  0.50  7.70
  6  2 -7  0.00  9.70
  6  2 -7  2.30  10.40
  5 -2 -7  61.89  7.50
  5 -2 -7  60.89  10.70
  5  2 -7 100.79  14.10
  4 -2 -7  48.30  5.60
  4 -2 -7  58.29  8.50
  4 -2 -7  58.09  8.00
  4  2 -7  67.59  9.40
  4  2 -7  55.59  6.00
  4  2 -7  64.59  7.30
  3 -2 -7  7.70  4.60
  3 -2 -7  20.90  2.70
  3 -2 -7  18.00  5.20
  3 -2 -7  15.70  3.60
 -3  2  7  16.10  3.50
  3  2 -7  23.10  3.80
  3  2 -7  19.00  3.00
  3  2 -7  8.30  5.40
  3  2 -7  14.70  3.90
  2 -2 -7 1176.98  45.50
 -2 -2  7 1133.69  42.60
  2 -2 -7 1040.30  43.20
  2 -2 -7 1059.79  42.70
 -2 -2  7 1097.09  41.90
  2 -2 -7 1175.38  44.50
 -2  2  7 1139.99  44.70
 -2  2  7 1063.09  41.80
  2  2 -7 1011.00  44.20
  2  2 -7 1066.09  42.20
  2  2 -7 1115.19  45.20
 -2  2  7 1105.09  42.20
 -2  2  7 1129.19  43.30
 -1 -2  7 337.07  13.00
  1 -2 -7 339.47  15.50
  1 -2 -7 331.67  14.90
 -1 -2  7 337.37  15.80
  1 -2 -7 323.47  15.10
  1 -2 -7 321.57  15.10
 -1  2  7 352.56  17.80
  1  2 -7 332.27  16.50
 -1  2  7 347.57  15.20
  1  2 -7 330.97  14.60
  1  2 -7 329.87  13.80
  0 -2  7 345.57  16.00
  0 -2  7 342.17  14.20
  0 -2 -7 363.96  14.20
  0 -2 -7 374.66  16.00
  0 -2 -7 363.16  16.90
  0 -2 -7 329.77  14.00
  0 -2 -7 359.46  15.40
  0 -2  7 349.17  16.10
  0 -2  7 347.47  14.50
  0 -2 -7 339.97  14.70
  0  2  7 366.96  17.40
  0  2 -7 349.57  15.60
  0  2 -7 366.76  17.50
  0  2 -7 364.26  14.20
  0  2  7 349.47  14.30
  0  2  7 345.77  14.30
  0  2 -7 356.76  14.20
  0  2 -7 376.36  16.30
  0  2  7 344.47  17.00
  0  2 -7 355.36  14.60
  0  2 -7 347.87  14.40
  1 -2  7 158.78  7.90
 -1 -2 -7 150.58  7.80
  1 -2  7 158.38  9.10
  1 -2  7 162.28  9.60
  1 -2  7 148.89  7.80
 -1 -2 -7 158.68  9.00
  1 -2  7 154.88  8.30
 -1 -2 -7 149.59  8.30
 -1 -2 -7 164.88  8.10
 -1 -2 -7 155.38  10.30
 -1  2 -7 157.98  9.70
 -1  2 -7 160.58  8.10
  1  2  7 143.89  8.70
 -1  2 -7 168.18  8.10
  1  2  7 160.28  8.10
  1  2  7 149.69  8.00
  1  2  7 150.48  7.90
 -1  2 -7 153.78  8.20
  1  2  7 162.18  9.40
  1  2  7 163.98  10.20
  2 -2  7  72.39  6.40
 -2 -2 -7  77.99  7.70
 -2 -2 -7  77.79  6.60
 -2 -2 -7  66.69  4.90
  2 -2  7  62.89  7.80
 -2 -2 -7  74.79  6.60
  2 -2  7  58.59  5.10
  2  2  7  61.59  6.40
 -2  2 -7  65.99  6.30
 -2  2 -7  78.89  6.00
 -2  2 -7  72.69  8.20
  2  2  7  67.89  7.20
 -3 -2 -7  27.70  5.70
 -3 -2 -7  11.70  4.80
 -3 -2 -7  16.40  6.00
  3 -2  7  19.80  4.30
  3  2  7  26.20  4.80
 -3  2 -7  16.20  5.20
  3  2  7  16.80  4.20
 -3  2 -7  27.60  6.60
 -3  2 -7  15.40  4.20
  4 -2  7  18.90  4.90
 -4 -2 -7  16.90  5.50
 -4 -2 -7  28.50  7.50
 -4 -2 -7  25.90  7.30
  4  2  7  22.70  5.80
 -4  2 -7  18.60  6.90
  4  2  7  19.30  5.20
 -4  2 -7  32.90  7.40
 -4  2 -7  28.20  5.70
 -5 -2 -7  2.30  9.20
 -5 -2 -7  6.50  6.40
 -5  2 -7  -4.20  6.90
  5  2  7  8.80  4.90
 -5  2 -7  1.30  8.30
  5 -3 -7  -4.60  4.10
  5 -3 -7  2.50  7.00
  5 -3 -7  2.30  7.30
  5  3 -7  2.50  7.90
  5  3 -7  3.70  5.10
  5  3 -7  4.00  5.00
  4 -3 -7  89.59  10.40
  4 -3 -7  97.89  11.30
  4 -3 -7  99.49  7.20
  4  3 -7  94.69  11.60
  4  3 -7  97.89  7.60
  3 -3 -7  60.59  8.10
 -3 -3  7  44.00  4.20
  3 -3 -7  52.49  6.80
 -3 -3  7  43.30  6.40
  3 -3 -7  48.80  4.30
  3  3 -7  41.90  7.30
 -3  3  7  36.10  4.20
 -3  3  7  53.59  5.20
  3  3 -7  45.50  6.70
  3  3 -7  53.59  4.70
  2 -3 -7  78.89  4.40
  2 -3 -7  79.29  7.90
  2 -3 -7  84.39  5.20
 -2 -3  7  76.89  4.60
  2 -3 -7  77.79  7.20
  2  3 -7  66.39  6.00
  2  3 -7  79.49  4.60
 -2  3  7  77.29  5.50
  2  3 -7  72.79  4.00
 -2  3  7  78.19  4.50
 -2  3  7  88.39  7.80
  2  3 -7  76.79  7.50
  1 -3 -7  61.29  5.30
  1 -3 -7  53.99  5.30
  1 -3 -7  49.20  2.90
  1 -3 -7  53.19  3.00
 -1 -3  7  56.89  3.40
 -1 -3  7  57.59  3.50
  1 -3 -7  57.19  5.20
 -1  3  7  53.59  4.60
  1  3 -7  54.49  4.30
 -1  3  7  54.19  5.90
  1  3 -7  42.20  4.30
 -1  3  7  53.09  3.30
  1  3 -7  57.89  3.20
 -1  3  7  53.89  3.20
  1  3 -7  61.39  6.50
  0 -3 -7  62.99  4.40
  0 -3 -7  60.29  5.40
  0 -3  7  59.09  4.20
  0 -3 -7  64.79  6.60
  0 -3 -7  62.89  5.70
  0 -3  7  71.39  5.60
  0 -3  7  56.69  5.10
  0 -3 -7  67.59  3.90
  0 -3 -7  67.89  5.40
  0 -3  7  54.99  3.80
  0  3  7  56.69  3.90
  0  3 -7  67.49  5.50
  0  3 -7  63.79  4.10
  0  3 -7  59.49  3.30
  0  3 -7  60.79  3.50
  0  3 -7  65.79  4.30
  0  3  7  60.99  6.30
  0  3  7  58.29  4.80
  0  3  7  58.79  5.40
  0  3 -7  59.29  3.70
  0  3 -7  66.59  6.80
  0  3 -7  61.09  5.30
 -1 -3 -7  22.80  4.80
 -1 -3 -7  19.20  3.60
  1 -3  7  23.80  3.10
 -1 -3 -7  25.30  4.40
  1 -3  7  27.40  4.10
  1 -3  7  29.50  5.00
 -1 -3 -7  21.70  4.00
 -1 -3 -7  19.30  5.60
  1 -3  7  25.30  3.60
  1 -3  7  24.40  3.00
 -1  3 -7  27.10  4.60
 -1  3 -7  20.20  3.30
  1  3  7  25.90  3.50
  1  3  7  27.80  3.60
 -1  3 -7  21.70  3.10
 -1  3 -7  25.30  3.50
  1  3  7  22.60  3.70
  1  3  7  24.00  4.30
  1  3  7  27.30  4.80
  1  3  7  30.30  3.70
 -2 -3 -7  49.00  6.70
 -2 -3 -7  52.89  6.40
  2 -3  7  49.30  5.20
 -2 -3 -7  46.60  5.90
 -2 -3 -7  35.70  4.70
  2  3  7  41.80  6.00
 -2  3 -7  40.30  4.80
  2  3  7  49.20  6.10
 -2  3 -7  30.30  5.60
 -2  3 -7  42.80  5.60
 -3 -3 -7  84.69  10.30
  3 -3  7  60.09  6.50
 -3 -3 -7  77.59  8.80
 -3 -3 -7  64.69  8.20
 -3  3 -7  62.99  6.40
  3  3  7  58.99  7.30
 -3  3 -7  59.29  8.30
  3  3  7  60.59  7.90
 -3  3 -7  61.29  8.40
 -4 -3 -7  8.80  6.10
 -4 -3 -7  11.60  5.90
 -4 -3 -7  3.80  7.20
  4 -3  7  6.90  3.40
  4  3  7  5.20  4.30
  4  3  7  6.00  4.60
 -4  3 -7  12.60  6.00
 -4  3 -7  9.80  4.80
 -4  3 -7  -0.30  6.70
  5 -4 -7  70.99  8.40
  5 -4 -7  53.79  10.60
  5 -4 -7  70.09  10.40
  5  4 -7  64.29  10.70
  5  4 -7  52.99  8.30
  5  4 -7  64.99  8.80
  4 -4 -7  84.59  7.10
  4 -4 -7  87.49  10.30
  4 -4 -7  72.49  10.70
  4  4 -7  72.99  9.00
  4  4 -7  84.89  11.10
  4  4 -7  79.49  7.60
  3 -4 -7 142.59  10.40
  3 -4 -7 131.29  11.10
  3 -4 -7 139.49  7.60
  3 -4 -7 124.29  8.10
  3  4 -7 133.39  8.00
  3  4 -7 128.49  10.60
 -3  4  7 115.19  8.40
 -3  4  7 127.09  8.30
  2 -4 -7 697.13  29.70
 -2 -4  7 675.13  27.20
  2 -4 -7 705.03  26.90
  2 -4 -7 731.73  29.50
 -2  4  7 702.13  29.70
  2  4 -7 609.24  28.00
  2  4 -7 686.23  30.70
 -2  4  7 618.54  29.50
  2  4 -7 698.03  27.20
 -2  4  7 671.53  27.70
 -1 -4  7 216.48  13.00
  1 -4 -7 280.27  13.40
 -1 -4  7 258.97  11.50
  1 -4 -7 244.98  11.50
  1 -4 -7 287.37  16.50
  1 -4 -7 274.57  11.40
  1 -4 -7 226.68  11.40
  1 -4 -7 278.87  13.20
 -1  4  7 259.77  13.00
 -1  4  7 271.77  12.70
 -1  4  7 242.98  11.20
 -1  4  7 261.87  14.00
  1  4 -7 266.97  11.50
  1  4 -7 240.78  11.50
  1  4 -7 266.47  11.30
  1  4 -7 287.27  15.00
  1  4 -7 264.47  11.30
  0 -4 -7 152.58  9.20
  0 -4  7 148.89  7.80
  0 -4 -7 149.29  7.70
  0 -4  7 149.59  8.70
  0 -4 -7 146.09  8.60
  0 -4 -7 139.89  7.40
  0 -4 -7 150.28  7.60
  0 -4 -7 171.28  9.20
  0  4  7 142.89  7.50
  0  4 -7 147.49  8.50
  0  4 -7 156.08  11.00
  0  4  7 157.08  8.90
  0  4 -7 139.79  8.80
  0  4  7 154.38  8.60
  0  4 -7 146.59  6.60
  0  4 -7 145.19  7.60
  0  4  7 168.88  10.30
 -1 -4 -7 293.37  13.90
  1 -4  7 266.57  13.50
 -1 -4 -7 288.07  15.40
  1 -4  7 295.87  14.10
  1 -4  7 276.47  14.50
 -1 -4 -7 286.57  13.70
  1 -4  7 314.17  14.30
 -1 -4 -7 278.07  14.30
  1  4  7 276.87  13.10
 -1  4 -7 299.77  13.40
 -1  4 -7 259.97  13.80
 -1  4 -7 288.87  12.20
  1  4  7 295.07  14.70
 -1  4 -7 310.77  14.70
  1  4  7 294.97  15.60
  1  4  7 275.37  13.60
 -2 -4 -7  53.89  5.90
 -2 -4 -7  50.99  7.20
 -2 -4 -7  58.79  6.80
 -2 -4 -7  68.59  7.00
  2 -4  7  64.79  6.10
  2  4  7  60.99  7.20
  2  4  7  56.79  6.50
 -2  4 -7  64.29  7.40
 -2  4 -7  59.89  6.50
 -2  4 -7  57.99  5.10
 -3 -4 -7  53.99  7.40
 -3 -4 -7  48.60  8.20
  3 -4  7  32.80  4.90
 -3 -4 -7  45.00  7.10
  3  4  7  27.20  5.40
 -3  4 -7  44.30  5.80
 -3  4 -7  27.70  5.80
  3  4  7  25.00  5.50
 -3  4 -7  34.90  7.10
  4 -4  7  8.00  6.20
 -4 -4 -7  9.20  7.70
 -4 -4 -7  -4.80  5.40
 -4 -4 -7  11.30  7.10
 -4  4 -7  -5.00  5.70
  4  4  7  11.00  5.00
  4  4  7  3.70  4.30
 -4  4 -7  9.90  6.90
 -4  4 -7  11.10  5.30
  5 -5 -7  26.70  6.40
  5 -5 -7  23.80  9.60
  5 -5 -7  44.90  9.20
  5  5 -7  25.40  6.90
  5  5 -7  45.90  10.70
  5  5 -7  24.50  7.30
  4 -5 -7  60.99  8.60
  4 -5 -7  49.99  6.30
  4 -5 -7  53.39  8.70
  4  5 -7  86.99  11.50
  4  5 -7  43.10  7.10
  4  5 -7  54.69  7.00
  3 -5 -7 304.87  16.80
  3 -5 -7 275.87  13.40
  3 -5 -7 303.87  19.50
  3  5 -7 275.27  16.70
  3  5 -7 284.77  13.70
 -3  5  7 265.07  14.60
 -2 -5  7  98.79  6.40
  2 -5 -7 100.29  8.90
  2 -5 -7 110.79  6.40
  2 -5 -7  97.69  8.70
 -2  5  7 110.69  6.60
  2  5 -7 103.69  9.50
  2  5 -7 102.69  7.80
 -2  5  7 106.89  8.40
  2  5 -7 108.29  6.60
 -2  5  7  93.79  6.40
 -2  5  7  99.39  8.60
  1 -5 -7 445.46  20.20
  1 -5 -7 462.45  18.40
 -1 -5  7 443.06  18.70
  1 -5 -7 430.56  19.50
  1 -5 -7 477.85  20.40
  1  5 -7 412.16  18.30
 -1  5  7 401.56  19.70
 -1  5  7 428.86  20.90
  1  5 -7 434.66  18.00
 -1  5  7 424.06  20.10
  1  5 -7 462.55  22.10
  1  5 -7 450.15  18.50
  0 -5  7  98.09  6.50
  0 -5  7  97.59  6.80
  0 -5 -7  92.99  5.80
  0 -5 -7  81.99  6.50
  0 -5 -7  93.29  6.20
  0 -5 -7  88.99  7.30
  0 -5 -7  91.59  7.50
  0  5 -7 104.79  9.30
  0  5  7 100.19  8.10
  0  5  7  98.69  7.20
  0  5  7  94.89  7.10
  0  5 -7  90.49  6.00
  0  5 -7  94.89  6.50
  0  5  7  95.29  5.90
 -1 -5 -7  86.89  8.30
 -1 -5 -7  87.99  6.90
 -1 -5 -7  76.59  8.10
 -1 -5 -7  96.59  7.20
  1 -5  7  74.39  7.10
 -1 -5 -7  92.39  7.70
  1  5  7  72.49  7.00
 -1  5 -7  92.29  8.60
 -1  5 -7  85.59  6.30
  1  5  7  81.59  6.80
 -1  5 -7  77.39  7.30
 -1  5 -7  74.79  7.20
  1  5  7  79.89  7.70
 -2 -5 -7  38.30  7.50
 -2 -5 -7  44.30  6.20
 -2 -5 -7  31.40  5.90
 -2 -5 -7  42.60  5.90
  2 -5  7  41.10  5.40
  2  5  7  42.50  6.50
 -2  5 -7  38.20  5.40
  2  5  7  27.70  5.20
 -2  5 -7  34.50  6.10
 -3 -5 -7  64.19  8.60
 -3 -5 -7  59.59  7.40
  3 -5  7  52.99  6.80
 -3 -5 -7  67.99  8.70
 -3 -5 -7  84.09  9.70
 -3  5 -7  69.19  9.40
  3  5  7  49.90  7.00
  3  5  7  60.89  7.70
 -3  5 -7  76.39  9.30
 -4 -5 -7  -0.80  8.00
 -4 -5 -7  12.60  7.20
 -4 -5 -7  6.40  5.70
 -4  5 -7  3.30  6.90
 -4  5 -7  3.80  7.00
  4  5  7  -0.40  4.20
  4  5  7  5.20  6.80
  5 -6 -7  44.90  7.10
  5 -6 -7  41.20  14.30
  5  6 -7  21.20  7.80
  5  6 -7  33.90  7.70
  5  6 -7  20.70  17.10
  4 -6 -7  40.30  7.90
  4 -6 -7  31.00  7.60
  4 -6 -7  37.30  5.50
  4  6 -7  33.80  6.00
  4  6 -7  37.30  8.00
  3 -6 -7  37.40  6.10
  3 -6 -7  45.70  5.50
  3 -6 -7  43.80  10.80
 -3  6  7  38.80  5.80
  3  6 -7  40.30  7.20
  3  6 -7  42.50  5.40
  2 -6 -7  54.09  5.00
  2 -6 -7  55.19  6.60
  2 -6 -7  57.69  7.10
  2 -6 -7  45.30  6.40
 -2  6  7  55.59  4.70
  2  6 -7  46.50  7.10
  2  6 -7  46.20  5.60
 -2  6  7  54.59  6.60
  2  6 -7  46.00  5.20
  1 -6 -7  39.30  5.40
  1 -6 -7  46.00  5.70
 -1 -6  7  45.80  5.40
  1 -6 -7  48.60  6.20
  1 -6 -7  39.80  4.50
 -1  6  7  45.00  5.10
 -1  6  7  38.60  4.50
 -1  6  7  35.00  5.70
  1  6 -7  50.29  4.90
  1  6 -7  42.40  7.20
  1  6 -7  34.20  3.70
  0 -6 -7  63.29  5.30
  0 -6 -7  58.79  6.60
  0 -6 -7  65.79  5.70
  0 -6 -7  69.99  6.60
  0  6 -7  62.09  7.90
  0  6 -7  67.99  5.70
  0  6 -7  54.69  6.40
  0  6 -7  59.39  5.40
  0  6  7  56.59  6.10
  0  6  7  66.79  7.00
 -1 -6 -7  67.39  7.00
 -1 -6 -7  57.79  7.70
 -1 -6 -7  73.09  6.70
 -1 -6 -7  82.89  7.40
  1  6  7  70.69  7.00
 -1  6 -7  72.99  8.50
 -1  6 -7  50.89  7.20
 -1  6 -7  61.49  6.60
 -1  6 -7  68.19  6.40
  1  6  7  63.39  7.30
 -2 -6 -7  54.19  7.00
 -2 -6 -7  53.19  6.90
 -2 -6 -7  49.60  7.00
 -2 -6 -7  40.00  7.50
  2  6  7  44.10  6.70
 -2  6 -7  42.20  6.20
 -2  6 -7  56.29  11.50
 -2  6 -7  30.60  7.00
  2  6  7  42.50  6.90
 -3 -6 -7  12.40  6.60
 -3 -6 -7  6.40  4.70
 -3 -6 -7  0.90  5.40
 -3 -6 -7  6.20  5.00
 -3  6 -7  3.50  5.20
  3  6  7  5.40  4.40
 -3  6 -7  -1.10  5.70
  3  6  7  6.70  4.70
 -4 -6 -7  3.60  8.10
 -4 -6 -7  10.60  10.00
 -4  6 -7  0.90  12.90
  4  6  7  6.90  4.80
 -4  6 -7  9.60  10.90
  5 -7 -7  27.10  7.50
  5 -7 -7  31.80  9.90
  5 -7 -7  21.20  10.10
  5  7 -7  44.00  11.70
  4 -7 -7 119.49  12.60
  4 -7 -7  78.99  11.70
  4 -7 -7  86.79  9.10
  4  7 -7  95.99  9.50
  4  7 -7  98.89  12.80
  3 -7 -7 132.39  12.20
  3 -7 -7 139.59  11.50
  3 -7 -7 147.89  9.60
  3  7 -7 142.39  12.40
 -3  7  7 119.89  9.90
  3  7 -7 138.29  9.70
  2 -7 -7 191.48  11.80
  2 -7 -7 187.88  10.30
  2 -7 -7 185.38  12.00
  2 -7 -7 189.48  12.60
 -2  7  7 176.48  9.80
 -2  7  7 166.98  12.00
  2  7 -7 196.88  10.70
  2  7 -7 176.58  13.50
  1 -7 -7  82.69  12.90
  1 -7 -7  71.39  8.40
  1 -7 -7  66.29  6.10
  1 -7 -7  69.79  7.20
 -1  7  7  62.19  7.40
  1  7 -7  51.79  11.10
  1  7 -7  71.79  6.40
 -1  7  7  64.89  5.90
  0 -7 -7 174.78  10.80
  0 -7 -7 166.88  10.10
  0 -7 -7 152.08  15.00
  0 -7 -7 177.58  11.70
  0  7  7 175.68  12.10
  0  7 -7 190.18  9.90
  0  7  7 174.58  10.80
  0  7 -7 188.28  10.40
 -1 -7 -7  12.80  4.30
 -1 -7 -7  5.30  3.80
 -1 -7 -7  9.90  4.20
 -1 -7 -7  -1.40  4.50
 -1  7 -7  8.40  3.80
 -1  7 -7  8.50  5.00
  1  7  7  11.10  3.70
 -1  7 -7  4.40  4.30
  1  7  7  7.30  3.90
 -2 -7 -7  60.49  8.70
 -2 -7 -7  43.10  7.00
 -2 -7 -7  44.70  6.70
 -2 -7 -7  50.69  7.90
 -2  7 -7  50.79  7.20
 -2  7 -7  35.00  6.80
  2  7  7  35.40  6.20
 -2  7 -7  46.90  6.60
  2  7  7  48.10  7.60
 -3 -7 -7  19.30  5.40
 -3 -7 -7  12.60  6.20
 -3 -7 -7  10.70  6.90
 -3 -7 -7  13.90  6.40
 -3  7 -7  18.20  6.50
  3  7  7  6.60  4.20
 -3  7 -7  15.00  6.40
 -4 -7 -7  21.80  8.90
 -4 -7 -7  39.80  8.50
 -4 -7 -7  11.70  13.60
  4  7  7  12.20  5.80
 -4  7 -7  6.20  7.00
 -4  7 -7  31.60  8.80
  4 -8 -7  59.19  10.20
  4 -8 -7  89.09  11.20
  4 -8 -7  74.39  9.00
  4  8 -7  88.19  12.20
  4  8 -7  66.49  9.00
  3 -8 -7  11.60  4.20
  3 -8 -7  10.60  5.70
  3 -8 -7  16.00  5.90
 -3  8  7  6.10  4.40
  3  8 -7  10.60  4.60
  3  8 -7  7.90  6.20
  2 -8 -7  65.89  7.60
  2 -8 -7  65.59  8.40
  2 -8 -7  51.99  7.30
  2 -8 -7  66.69  8.10
 -2  8  7  59.69  7.90
  2  8 -7  54.79  7.20
  2  8 -7  71.59  9.50
  1 -8 -7  16.20  4.10
  1 -8 -7  18.20  5.20
  1 -8 -7  14.00  3.90
  1 -8 -7  16.30  5.00
  1  8 -7  14.10  5.00
 -1  8  7  16.10  4.90
 -1  8  7  12.30  3.30
  1  8 -7  10.50  4.90
  0 -8 -7  40.00  6.90
  0 -8 -7  42.50  6.20
  0  8 -7  43.40  7.30
  0  8 -7  48.00  5.40
  0  8  7  40.60  5.90
  0  8  7  27.70  5.70
 -1 -8 -7  59.19  7.50
 -1 -8 -7  71.39  8.50
 -1 -8 -7  57.79  7.80
 -1 -8 -7  65.29  9.40
  1  8  7  59.69  7.30
  1  8  7  53.49  8.00
 -1  8 -7  38.20  7.00
 -1  8 -7  64.69  7.70
 -1  8 -7  67.99  7.60
 -2 -8 -7  16.40  6.10
 -2 -8 -7  24.60  5.40
 -2 -8 -7  11.70  5.40
 -2 -8 -7  8.20  6.30
 -2  8 -7  11.00  5.80
 -2  8 -7  11.10  5.10
  2  8  7  9.70  4.80
 -2  8 -7  11.50  5.60
 -3 -8 -7  0.40  6.00
 -3 -8 -7  -5.70  6.50
 -3 -8 -7  13.00  5.10
 -3 -8 -7  -2.60  7.80
 -3  8 -7  -7.30  5.60
 -3  8 -7  -8.00  5.50
 -3  8 -7  8.90  6.80
  3  8  7  -2.70  4.20
  3  8  7  2.60  4.70
  4 -9 -7  33.40  16.30
  4 -9 -7  40.00  9.70
  4 -9 -7  30.70  7.10
  4  9 -7  29.00  7.90
  4  9 -7  40.00  10.50
  3 -9 -7  71.49  8.10
  3 -9 -7  56.19  9.10
  3 -9 -7  59.69  9.30
 -3  9  7  42.80  8.50
  3  9 -7  50.69  9.30
  3  9 -7  38.60  6.90
  2 -9 -7  15.50  5.80
  2 -9 -7  17.00  4.90
  2 -9 -7  14.10  5.60
  2 -9 -7  18.80  6.00
  2  9 -7  20.90  4.90
 -2  9  7  15.30  5.80
  2  9 -7  13.60  6.10
  1 -9 -7  51.89  7.70
  1 -9 -7  49.20  7.60
  1 -9 -7  61.09  8.30
  1 -9 -7  53.29  6.90
 -1  9  7  54.39  6.30
  1  9 -7  61.79  9.40
 -1  9  7  40.00  7.20
  1  9 -7  61.79  7.60
  0 -9 -7 144.49  10.80
  0 -9 -7 152.38  11.50
  0 -9 -7 164.48  12.10
  0  9 -7 146.89  12.90
  0  9 -7 157.68  10.60
  0  9  7 127.39  10.30
 -1 -9 -7  30.80  6.60
 -1 -9 -7  28.10  5.90
 -1 -9 -7  25.10  6.20
 -1  9 -7  30.10  9.80
  1  9  7  27.90  6.60
 -1  9 -7  14.70  6.00
 -1  9 -7  31.80  6.20
  1  9  7  19.60  6.10
 -2 -9 -7  5.20  6.20
 -2 -9 -7  14.90  7.60
 -2 -9 -7  16.90  5.60
 -2 -9 -7  13.30  6.70
 -2  9 -7  7.70  6.00
 -2  9 -7  4.80  5.50
  2  9  7  7.30  4.30
  2  9  7  3.00  4.90
 -2  9 -7  12.30  5.90
 -3 -9 -7  -0.30  7.40
 -3 -9 -7  9.50  13.30
 -3 -9 -7  4.00  7.10
 -3 -9 -7  4.30  6.00
 -3  9 -7  7.10  7.00
  3  9  7  1.60  4.50
  3  9  7  0.50  4.80
  3 -10 -7  83.29  15.30
  3 -10 -7  79.49  12.20
  3 -10 -7  63.89  17.50
  3 -10 -7  84.29  10.40
  3 10 -7  61.29  9.10
  2 -10 -7  27.90  6.70
  2 -10 -7  3.10  6.90
  2 -10 -7  23.60  7.50
  2 -10 -7  26.00  6.00
  2 10 -7  23.90  6.60
 -2 10  7  25.80  6.70
  2 10 -7  26.10  7.20
  1 -10 -7  17.90  7.10
  1 -10 -7  22.10  6.60
  1 -10 -7  26.50  6.30
 -1 10  7  16.20  5.80
 -1 10  7  18.70  5.00
  1 10 -7  19.70  6.00
  1 10 -7  27.30  7.50
  0 -10 -7  19.60  6.10
  0 -10 -7  5.60  5.60
  0 -10 -7  15.10  6.20
  0 10  7  13.70  5.10
  0 10 -7  19.20  5.50
  0 10 -7  6.00  5.90
  0 10  7  11.10  4.40
 -1 -10 -7  42.80  7.80
 -1 -10 -7  47.60  8.30
 -1 -10 -7  43.50  8.00
 -1 10 -7  43.00  6.50
  1 10  7  41.40  7.60
 -1 10 -7  41.50  7.80
  1 10  7  25.20  6.70
 -1 10 -7  55.79  7.60
 -2 -10 -7  -3.20  8.40
 -2 -10 -7  5.00  7.90
 -2 -10 -7  11.20  6.30
 -2 -10 -7  -0.20  7.10
  2 10  7  -6.90  3.70
 -2 10 -7  -6.00  5.70
 -2 10 -7  6.40  6.50
 -2 10 -7  9.00  6.50
  2 10  7  3.00  4.50
  3 -11 -7  23.20  7.70
  3 -11 -7  30.40  7.60
  2 -11 -7  40.10  7.20
  2 -11 -7  51.19  14.30
  2 -11 -7  33.90  7.80
 -2 11  7  23.60  7.50
  2 11 -7  40.80  7.80
  1 -11 -7  0.40  6.00
  1 -11 -7  2.60  6.30
  1 -11 -7  7.20  5.90
 -1 11  7  5.40  5.10
  1 11 -7  1.10  6.10
  1 11 -7  0.90  5.80
  0 -11 -7  3.40  6.20
  0 -11 -7  37.10  8.00
  0 -11 -7  15.00  6.40
  0 11  7  6.80  4.80
  0 11 -7  13.30  8.00
  0 11  7  9.00  4.60
  0 11 -7  21.50  6.20
 -1 -11 -7  4.80  6.80
 -1 -11 -7  9.20  8.80
 -1 -11 -7  3.80  5.90
  1 11  7  1.90  5.00
 -1 11 -7  -0.10  6.30
 -1 11 -7  6.30  7.50
 -2 11 -7  12.40  7.20
  1 -12 -7  27.30  8.80
  1 -12 -7  23.70  8.00
  1 -12 -7  21.90  7.80
  1 12 -7  17.60  8.20
  1 12 -7  27.20  7.70
 -1 12  7  14.30  6.80
  0 -12 -7  5.40  7.20
  0 -12 -7  0.50  6.90
  0 -12 -7  2.90  6.70
  0 12  7  -0.90  5.20
  0 12  7  -4.40  5.20
  0 12 -7  -6.70  6.60
  0 12 -7  6.00  6.40
  5  0 -8  50.09  6.00
  5  0 -8  52.99  10.80
  4  0 -8  55.59  4.80
  4  0 -8  78.59  10.90
  3  0 -8 252.57  15.90
  3  0 -8 250.77  12.80
  2  0 -8 388.56  17.40
  2  0 -8 400.56  19.70
 -2  0  8 404.56  17.70
 -2  0  8 414.56  18.80
  2  0 -8 374.76  18.40
  2  0 -8 387.06  18.20
  1  0 -8 2556.04  97.69
 -1  0  8 2537.85  99.69
 -1  0  8 2607.04  98.59
  1  0 -8 2664.73 100.49
  1  0 -8 2637.24 101.79
  1  0 -8 2458.55  99.09
  1  0 -8 2536.05  98.49
  0  0  8 235.78  9.50
  0  0 -8 232.78  11.30
  0  0 -8 213.68  11.20
  0  0 -8 231.58  10.60
  0  0  8 248.78  13.40
  0  0 -8 241.78  12.80
  0  0  8 245.08  12.30
  1  0  8 426.26  20.00
 -1  0 -8 432.26  18.10
  1  0  8 433.76  21.00
 -1  0 -8 436.66  21.00
 -1  0 -8 439.46  19.10
  1  0  8 450.15  20.10
 -2  0 -8 312.17  14.90
 -2  0 -8 325.97  17.50
 -2  0 -8 308.17  15.10
  2  0  8 287.47  15.50
  2  0  8 301.07  16.60
 -3  0 -8  22.50  6.30
  3  0  8  15.40  4.40
 -3  0 -8  5.70  4.90
 -3  0 -8  29.60  5.80
 -4  0 -8  14.70  5.60
  4  0  8  14.50  4.60
 -4  0 -8  1.20  7.30
 -4  0 -8  3.30  5.90
  5 -1 -8  22.20  8.30
  5 -1 -8  18.10  4.50
  5 -1 -8  12.00  9.50
  5  1 -8  19.60  8.80
  5  1 -8  10.70  4.30
  4 -1 -8  34.20  3.90
  4 -1 -8  54.79  8.90
  4 -1 -8  47.10  7.40
  4  1 -8  52.19  9.10
  4  1 -8  43.10  4.40
  3 -1 -8 146.69  11.00
  3 -1 -8 160.18  12.30
 -3  1  8 137.09  10.10
  3  1 -8 144.89  12.30
  3  1 -8 158.78  9.70
  2 -1 -8 107.09  7.20
  2 -1 -8 124.39  7.70
  2 -1 -8 115.49  9.30
  2 -1 -8 106.49  8.10
 -2  1  8 111.49  7.30
  2  1 -8 103.29  8.20
 -2  1  8 120.59  8.30
  2  1 -8 113.59  9.60
  2  1 -8 109.89  6.60
 -1 -1  8 1052.69  43.30
  1 -1 -8 1045.90  41.70
  1 -1 -8 1042.50  42.40
  1 -1 -8 1060.09  41.70
  1 -1 -8 1037.30  44.70
 -1 -1  8 1060.19  42.30
  1  1 -8 1084.79  43.20
 -1  1  8 1039.40  42.20
  1  1 -8 1042.20  43.30
  1  1 -8 1009.70  41.40
  1  1 -8 1031.20  43.30
  1  1 -8 1079.99  41.00
 -1  1  8 1065.69  43.60
  0 -1  8 165.78  9.70
  0 -1 -8 166.98  9.10
  0 -1 -8 150.78  8.50
  0 -1  8 162.18  7.10
  0 -1 -8 186.78  10.70
  0 -1  8 166.58  10.50
  0 -1 -8 165.08  8.30
  0  1  8 169.88  9.70
  0  1 -8 149.79  8.30
  0  1 -8 155.68  7.60
  0  1  8 157.78  6.90
  0  1  8 172.68  10.70
  0  1 -8 162.68  10.10
  1 -1  8 101.49  7.50
 -1 -1 -8  92.79  5.50
 -1 -1 -8  95.79  8.90
  1 -1  8  96.19  6.20
 -1 -1 -8  90.29  7.00
 -1 -1 -8  86.49  6.10
  1 -1  8 101.09  6.90
  1 -1  8  99.79  8.20
  1  1  8  95.19  6.80
  1  1  8  89.79  6.50
 -1  1 -8 100.09  6.60
  1  1  8 110.19  8.60
  1  1  8 106.79  7.50
 -1  1 -8  83.19  5.80
 -1  1 -8  92.09  8.30
 -2 -1 -8 150.18  14.60
 -2 -1 -8 141.19  9.40
  2 -1  8 140.49  9.50
 -2 -1 -8 145.39  9.40
  2  1  8 133.99  9.60
 -2  1 -8 136.49  8.90
 -2  1 -8 140.99  8.70
 -2  1 -8 140.59  11.00
  2  1  8 130.49  10.30
  3 -1  8  2.70  3.40
 -3 -1 -8  -6.90  4.20
 -3 -1 -8  0.70  3.60
 -3 -1 -8  -3.50  4.90
  3  1  8  -0.30  3.20
 -3  1 -8  4.20  5.60
 -3  1 -8  -7.60  4.30
  3  1  8  -2.60  3.60
 -3  1 -8  -3.30  3.50
  4 -1  8  -1.30  4.70
 -4 -1 -8  -3.30  5.00
 -4 -1 -8  2.50  7.80
 -4 -1 -8  3.40  6.20
  4  1  8  5.00  4.50
 -4  1 -8  -2.30  6.80
 -4  1 -8  5.00  5.10
 -4  1 -8  4.50  6.40
  5 -2 -8  80.39  7.70
  5 -2 -8  77.69  12.30
  5 -2 -8 106.79  13.20
  5  2 -8 101.29  14.50
  5  2 -8  78.59  8.00
  4 -2 -8  27.20  3.70
  4 -2 -8  33.90  7.30
  4 -2 -8  20.40  6.60
  4  2 -8  36.90  5.90
  4  2 -8  36.60  8.30
  3 -2 -8 194.28  8.70
  3 -2 -8 224.68  14.10
  3 -2 -8 198.58  12.60
  3  2 -8 207.88  14.80
 -3  2  8 201.78  11.40
  3  2 -8 202.88  8.90
  3  2 -8 197.98  12.30
  2 -2 -8 457.95  20.40
  2 -2 -8 485.05  22.00
  2 -2 -8 506.55  23.00
  2  2 -8 491.25  20.10
 -2  2  8 476.85  22.40
  2  2 -8 488.55  22.90
  2  2 -8 519.05  23.90
  2  2 -8 484.15  20.00
  1 -2 -8 314.17  14.90
  1 -2 -8 320.47  15.10
  1 -2 -8 342.87  16.10
  1 -2 -8 290.37  15.80
 -1 -2  8 325.57  15.40
  1 -2 -8 317.67  15.10
  1  2 -8 330.77  14.50
 -1  2  8 316.57  16.40
 -1  2  8 319.27  15.10
  1  2 -8 331.37  16.90
  1  2 -8 309.97  14.80
  1  2 -8 314.67  13.50
  0 -2  8 477.85  20.50
  0 -2 -8 433.16  21.70
  0 -2  8 470.65  18.20
  0 -2 -8 475.65  21.20
  0 -2 -8 430.26  18.40
  0 -2 -8 453.25  19.90
  0  2  8 467.45  21.80
  0  2  8 462.45  20.40
  0  2 -8 448.16  18.50
  0  2 -8 451.65  21.70
  0  2  8 455.95  17.90
  0  2 -8 470.95  20.40
  0  2 -8 441.56  17.60
  0  2 -8 419.46  19.30
  0  2 -8 430.46  17.50
  0  2 -8 437.06  17.90
 -1 -2 -8 347.07  15.40
  1 -2  8 335.57  15.80
 -1 -2 -8 336.67  18.10
 -1 -2 -8 386.76  18.60
 -1 -2 -8 341.77  16.70
  1 -2  8 372.96  17.10
 -1 -2 -8 377.66  15.70
  1  2  8 332.77  16.50
  1  2  8 364.76  18.40
  1  2  8 340.77  15.40
  1  2  8 367.46  17.30
 -1  2 -8 375.16  15.40
 -1  2 -8 360.66  17.70
 -1  2 -8 351.56  15.70
 -2 -2 -8  30.20  8.00
  2 -2  8  51.09  6.20
 -2 -2 -8  41.80  5.60
 -2 -2 -8  33.50  5.30
  2  2  8  48.80  6.10
 -2  2 -8  44.60  5.20
 -2  2 -8  30.20  6.40
  2  2  8  46.80  7.00
 -2  2 -8  42.40  5.80
 -3 -2 -8  9.30  5.00
  3 -2  8  8.50  4.20
 -3 -2 -8  16.80  6.40
 -3 -2 -8  7.70  4.50
  3  2  8  14.40  5.00
 -3  2 -8  1.10  4.50
  3  2  8  12.80  4.20
 -3  2 -8  16.00  6.10
 -3  2 -8  6.30  4.00
 -4 -2 -8  4.20  7.40
 -4 -2 -8  10.10  6.70
 -4 -2 -8  -1.70  5.40
 -4  2 -8  -2.50  7.40
 -4  2 -8  -9.30  6.00
  4  2  8  12.00  4.40
  4  2  8  8.20  5.80
 -4  2 -8  5.70  5.10
  5 -3 -8  14.40  8.40
  5 -3 -8  7.90  4.20
  5 -3 -8  7.50  8.40
  5  3 -8  -0.90  8.50
  4 -3 -8 130.29  12.60
  4 -3 -8 113.99  11.60
  4 -3 -8 106.59  7.20
  4  3 -8 126.59  10.10
  4  3 -8 135.09  13.50
  4  3 -8  98.59  7.60
  3 -3 -8 268.17  12.10
  3 -3 -8 288.87  15.90
  3 -3 -8 317.17  17.40
  3  3 -8 293.87  16.30
 -3  3  8 271.67  14.80
  3  3 -8 281.57  12.40
  3  3 -8 302.67  18.40
  2 -3 -8 531.45  23.70
  2 -3 -8 562.84  24.70
  2 -3 -8 508.95  23.40
  2  3 -8 517.95  25.00
 -2  3  8 522.55  24.30
  2  3 -8 527.95  21.40
  1 -3 -8 147.29  8.50
  1 -3 -8 165.38  13.00
 -1 -3  8 175.98  8.30
  1 -3 -8 143.59  9.10
  1 -3 -8 158.08  9.60
 -1  3  8 161.28  9.00
  1  3 -8 146.19  10.10
  1  3 -8 148.19  11.00
 -1  3  8 157.28  10.40
  1  3 -8 154.58  8.40
  0 -3  8 1093.69  42.90
  0 -3 -8 1095.89  44.00
  0 -3 -8 1064.39  42.10
  0 -3  8 1052.09  40.90
  0 -3 -8 1074.29  42.70
  0 -3 -8 991.30  42.70
  0 -3 -8 1087.79  41.10
  0 -3  8 1052.49  42.60
  0 -3 -8 991.30  40.60
  0  3  8 1038.30  40.70
  0  3 -8 1081.59  42.60
  0  3 -8 1085.29  44.80
  0  3 -8 1054.19  40.50
  0  3  8 1105.39  44.60
  0  3  8 1100.19  43.10
  0  3  8 1031.40  42.00
  0  3 -8 975.70  42.10
  0  3 -8 1048.80  40.50
 -1 -3 -8 261.77  13.20
 -1 -3 -8 244.08  12.10
 -1 -3 -8 255.67  14.70
  1 -3  8 244.08  12.10
 -1 -3 -8 219.68  13.90
  1 -3  8 240.98  13.00
 -1 -3 -8 253.87  12.00
 -1  3 -8 260.47  11.70
 -1  3 -8 264.57  13.90
  1  3  8 243.28  13.30
 -1  3 -8 251.47  11.40
  1  3  8 233.78  11.50
  1  3  8 256.07  14.60
  2 -3  8  43.90  5.70
 -2 -3 -8  49.80  7.40
 -2 -3 -8  34.10  5.60
 -2 -3 -8  46.20  6.10
  2  3  8  44.20  6.80
 -2  3 -8  38.60  4.70
  2  3  8  32.20  5.30
 -2  3 -8  34.50  5.20
 -3 -3 -8  81.89  9.00
 -3 -3 -8  54.49  7.90
 -3 -3 -8  64.09  10.00
  3 -3  8  63.89  6.80
  3  3  8  61.59  8.30
 -3  3 -8  67.59  7.00
 -3  3 -8  64.19  9.10
 -3  3 -8  64.09  8.00
  3  3  8  49.00  8.70
 -4 -3 -8  21.20  9.40
 -4 -3 -8  34.90  7.50
 -4 -3 -8  29.40  7.80
 -4  3 -8  17.70  10.70
 -4  3 -8  14.40  7.10
  4  3  8  16.80  5.00
  5 -4 -8  1.80  4.30
  5 -4 -8  -4.70  8.30
  5 -4 -8  5.70  8.90
  5  4 -8  15.30  13.10
  5  4 -8  -7.90  5.00
  4 -4 -8  99.39  11.70
  4 -4 -8  82.39  6.60
  4 -4 -8  96.49  11.90
  4  4 -8  97.49  13.10
  4  4 -8  85.29  10.40
  4  4 -8  83.19  7.40
  3 -4 -8  56.09  8.00
  3 -4 -8  56.09  7.70
  3 -4 -8  44.40  4.10
 -3  4  8  55.29  6.60
  3  4 -8  59.99  4.90
  3  4 -8  50.69  7.50
  2 -4 -8 232.18  12.90
  2 -4 -8 226.08  9.80
  2 -4 -8 231.88  13.60
  2 -4 -8 238.78  13.20
  2  4 -8 226.18  10.20
  2  4 -8 228.68  14.20
 -2  4  8 238.58  13.50
  1 -4 -8  2.90  2.60
  1 -4 -8  4.50  3.10
 -1 -4  8  5.10  2.60
  1 -4 -8  -1.10  3.10
  1 -4 -8  2.40  3.00
  1  4 -8  1.90  1.80
 -1  4  8  -0.90  2.80
  1  4 -8  1.50  3.70
  1  4 -8  2.60  2.20
 -1  4  8  3.70  3.30
 -1  4  8  7.70  2.80
  0 -4 -8 297.57  12.90
  0 -4 -8 301.47  14.40
  0 -4 -8 306.37  14.90
  0 -4  8 277.47  13.10
  0 -4 -8 297.37  16.10
  0 -4  8 280.37  14.30
  0  4 -8 302.27  17.00
  0  4 -8 300.77  12.90
  0  4 -8 301.17  14.30
  0  4  8 274.67  14.10
  0  4  8 290.57  14.60
  0  4  8 303.07  16.20
  0  4 -8 260.97  14.20
 -1 -4 -8 191.98  12.30
 -1 -4 -8 151.78  11.10
 -1 -4 -8 177.18  11.10
  1 -4  8 180.78  10.60
 -1 -4 -8 183.88  10.00
 -1 -4 -8 165.08  9.70
 -1  4 -8 173.48  9.20
  1  4  8 171.88  11.70
 -1  4 -8 173.68  11.10
  1  4  8 180.58  10.80
 -2 -4 -8  46.60  5.90
 -2 -4 -8  55.09  7.20
 -2 -4 -8  45.10  7.40
  2 -4  8  44.80  5.80
  2  4  8  50.49  6.50
 -2  4 -8  75.29  9.10
  2  4  8  63.19  7.60
 -2  4 -8  49.60  6.90
 -3 -4 -8  13.60  7.10
  3 -4  8  15.90  4.20
 -3 -4 -8  24.90  6.30
 -3 -4 -8  24.80  6.10
 -3  4 -8  15.70  6.00
  3  4  8  22.40  5.40
 -3  4 -8  20.00  6.60
  3  4  8  10.80  4.90
 -4 -4 -8  -1.50  18.50
 -4  4 -8  -0.70  11.50
  4  4  8  13.80  6.50
  4  4  8  7.90  4.50
 -4  4 -8  9.60  10.00
  5 -5 -8  6.80  5.10
  5 -5 -8  21.30  9.60
  5 -5 -8 -22.20  15.70
  5  5 -8  11.10  10.40
  5  5 -8  10.20  5.90
  5  5 -8  4.40  6.60
  4 -5 -8 130.99  13.40
  4 -5 -8 140.89  9.10
  4 -5 -8 172.08  13.80
  4  5 -8 171.88  16.30
  4  5 -8 147.89  13.00
  4  5 -8 152.78  9.90
  3 -5 -8 303.67  20.70
  3 -5 -8 256.97  12.70
  3 -5 -8 302.57  16.60
  3  5 -8 281.67  13.30
 -3  5  8 267.67  15.30
  2 -5 -8  8.60  2.50
  2 -5 -8  18.30  4.60
  2 -5 -8  10.20  4.20
  2 -5 -8  15.30  4.70
  2  5 -8  2.70  4.20
 -2  5  8  7.60  3.80
 -2  5  8  8.50  2.80
  2  5 -8  9.30  2.60
  1 -5 -8 231.28  10.60
  1 -5 -8 228.98  12.00
  1 -5 -8 235.08  13.00
 -1 -5  8 235.48  11.20
  1 -5 -8 242.28  13.30
  1  5 -8 229.98  10.90
 -1  5  8 206.28  11.70
  1  5 -8 229.08  14.80
 -1  5  8 243.78  12.30
 -1  5  8 238.48  13.90
  1  5 -8 241.48  10.90
  0 -5 -8  76.29  7.30
  0 -5  8  69.79  5.70
  0 -5 -8  69.69  7.10
  0 -5 -8  74.79  5.60
  0 -5 -8  69.09  8.80
  0  5  8  64.89  6.40
  0  5  8  68.39  6.30
  0  5 -8  76.29  9.10
  0  5  8  61.89  5.20
  0  5 -8  78.89  6.50
  0  5 -8  76.39  6.90
  0  5 -8  81.59  5.60
  0  5  8  73.89  7.60
 -1 -5 -8  37.10  7.60
 -1 -5 -8  43.60  6.00
 -1 -5 -8  43.90  8.50
 -1 -5 -8  35.70  4.80
  1  5  8  40.40  5.60
  1  5  8  41.10  6.80
 -1  5 -8  41.10  7.10
 -1  5 -8  35.80  5.60
 -1  5 -8  49.90  5.20
 -2 -5 -8  76.69  10.40
 -2 -5 -8  97.49  7.70
 -2 -5 -8  92.59  8.60
 -2 -5 -8  95.09  9.10
  2 -5  8  85.39  7.60
  2  5  8  76.39  7.80
  2  5  8  82.09  8.90
 -2  5 -8 103.29  8.60
 -2  5 -8  99.59  9.90
  3 -5  8  6.70  4.10
 -3 -5 -8  10.40  7.20
 -3 -5 -8  17.20  6.10
 -3 -5 -8  20.10  6.20
  3  5  8  14.80  4.70
 -3  5 -8  4.50  5.40
 -3  5 -8  20.50  6.80
  3  5  8  21.90  10.00
 -4 -5 -8  9.50  9.60
 -4 -5 -8  5.30  7.30
 -4 -5 -8  6.80  6.50
  4  5  8  11.50  4.90
 -4  5 -8  13.40  8.00
 -4  5 -8  -0.50  7.40
  5 -6 -8  3.00  5.20
  5 -6 -8  10.60  9.00
  5 -6 -8 -15.10  7.90
  5  6 -8  14.10  9.50
  5  6 -8  6.30  6.10
  5  6 -8  3.60  7.00
  4 -6 -8 118.19  13.50
  4 -6 -8 136.89  13.30
  4 -6 -8 104.59  8.40
  4  6 -8  93.59  12.40
  4  6 -8  95.19  9.10
  3 -6 -8 107.49  11.20
  3 -6 -8 131.29  11.30
  3 -6 -8  97.99  7.20
 -3  6  8  93.19  9.00
  3  6 -8 112.29  8.10
  3  6 -8 119.19  11.90
  2 -6 -8 134.59  7.90
  2 -6 -8 159.98  11.40
  2 -6 -8 125.49  10.30
  2 -6 -8 165.08  10.90
  2  6 -8 154.38  12.30
 -2  6  8 135.09  10.40
  2  6 -8 132.89  8.30
 -2  6  8 130.99  8.10
  1 -6 -8 282.87  14.70
  1 -6 -8 315.57  15.80
  1 -6 -8 301.87  13.70
  1  6 -8 297.07  13.90
 -1  6  8 290.17  16.60
 -1  6  8 302.07  14.70
  0 -6 -8  12.70  4.20
  0 -6 -8  11.20  3.60
  0  6 -8  16.00  3.40
  0  6  8  9.90  3.60
  0  6 -8  13.30  3.20
  0  6 -8  19.30  5.90
  0  6  8  11.60  4.50
 -1 -6 -8  46.90  5.90
 -1 -6 -8  56.09  7.20
 -1 -6 -8  59.89  7.40
 -1 -6 -8  52.69  7.70
 -1  6 -8  56.69  7.00
 -1  6 -8  51.99  5.90
  1  6  8  63.79  7.10
 -1  6 -8  49.50  8.00
  1  6  8  40.20  6.80
 -2 -6 -8 204.48  12.90
 -2 -6 -8 206.88  13.60
 -2 -6 -8 206.98  15.30
 -2 -6 -8 211.48  12.20
 -2  6 -8 213.58  12.50
  2  6  8 173.78  13.40
 -2  6 -8 203.78  15.60
 -2  6 -8 204.78  13.50
 -3 -6 -8  1.90  7.20
 -3 -6 -8  5.80  5.80
 -3 -6 -8  13.10  6.10
  3  6  8  8.40  4.20
 -3  6 -8  12.60  6.60
 -3  6 -8  0.10  5.10
  3  6  8  19.10  5.70
  4 -7 -8  19.30  7.80
  4 -7 -8  0.20  7.20
  4 -7 -8  12.60  4.60
  4  7 -8  15.50  7.10
  4  7 -8  17.20  5.50
  3 -7 -8  1.50  3.60
  3 -7 -8  -0.90  5.30
  3 -7 -8  3.80  5.60
  3  7 -8  6.00  5.40
 -3  7  8  0.20  3.80
  3  7 -8  -0.80  4.00
  2 -7 -8  10.90  4.70
  2 -7 -8  6.50  4.60
  2 -7 -8  -0.20  4.80
  2 -7 -8  16.50  3.60
  2  7 -8  10.90  4.90
 -2  7  8  5.80  4.10
  2  7 -8  7.40  3.70
  1 -7 -8  60.79  7.80
  1 -7 -8  52.39  6.40
  1 -7 -8  53.79  7.10
  1 -7 -8  48.80  5.50
 -1  7  8  50.09  5.60
 -1  7  8  35.60  6.30
  1  7 -8  43.60  7.10
  1  7 -8  41.50  5.50
  0 -7 -8  18.30  4.30
  0 -7 -8  12.30  5.70
  0 -7 -8  15.50  4.80
  0  7  8  17.60  4.40
  0  7 -8  12.30  4.60
  0  7 -8  14.50  3.50
  0  7  8  16.00  5.00
  0  7 -8  19.00  3.80
 -1 -7 -8  3.80  6.60
 -1 -7 -8  -4.90  5.20
 -1 -7 -8  1.20  4.10
 -1 -7 -8  1.80  3.80
  1  7  8  2.70  3.70
 -1  7 -8  -0.40  3.90
 -1  7 -8  6.50  3.50
  1  7  8  -0.10  3.60
 -1  7 -8  -4.70  4.30
 -2 -7 -8  48.90  7.80
 -2 -7 -8  42.20  6.20
 -2 -7 -8  47.90  8.30
 -2 -7 -8  36.50  8.30
  2  7  8  30.00  6.30
 -2  7 -8  39.80  8.20
 -2  7 -8  40.30  6.40
 -2  7 -8  47.90  7.50
  2  7  8  47.70  7.40
 -3 -7 -8  9.90  8.80
 -3 -7 -8  5.20  7.70
 -3 -7 -8  10.90  6.60
 -3  7 -8  -4.40  6.30
 -3  7 -8  4.40  6.00
 -3  7 -8  4.40  6.70
  3  7  8  9.10  5.20
  3  7  8  5.60  4.60
  4 -8 -8  22.90  9.00
  4 -8 -8  4.10  5.20
  4 -8 -8  -4.40  7.10
  4  8 -8  10.10  7.40
  4  8 -8  8.80  5.90
  3 -8 -8  22.60  6.60
  3 -8 -8  41.40  7.80
  3 -8 -8  34.70  8.00
  3 -8 -8  28.80  5.30
  3  8 -8  25.90  7.50
 -3  8  8  23.80  6.40
  3  8 -8  32.90  6.10
  2 -8 -8 265.67  15.10
  2 -8 -8 211.38  12.10
  2 -8 -8 185.78  16.90
  2 -8 -8 221.78  15.00
  2  8 -8 222.28  12.30
  2  8 -8 221.38  16.60
 -2  8  8 195.78  14.00
  1 -8 -8  5.80  4.90
  1 -8 -8  2.70  3.90
  1 -8 -8  8.30  4.80
  1  8 -8  -0.90  3.50
  1  8 -8  2.30  4.40
 -1  8  8  1.40  3.80
 -1  8  8  5.70  3.30
  0 -8 -8  12.30  4.20
  0 -8 -8  15.20  5.30
  0 -8 -8  8.40  5.00
  0  8 -8  11.10  4.00
  0  8 -8  3.10  4.90
  0  8  8  7.00  3.80
 -1 -8 -8  54.29  9.30
 -1 -8 -8  53.89  7.00
 -1 -8 -8  48.60  7.80
 -1 -8 -8  61.79  7.90
 -1  8 -8  60.59  7.70
 -1  8 -8  55.79  10.70
  1  8  8  50.89  8.10
 -1  8 -8  46.10  8.10
 -2 -8 -8  15.30  5.00
 -2 -8 -8  10.50  5.90
 -2 -8 -8  2.00  5.60
 -2 -8 -8  32.10  9.00
  2  8  8  9.50  4.90
 -2  8 -8  21.20  6.10
 -2  8 -8  5.60  6.40
  2  8  8  11.60  5.40
 -2  8 -8  11.30  6.00
 -3 -8 -8  34.30  10.60
 -3 -8 -8  28.40  8.40
 -3 -8 -8  26.80  8.20
 -3  8 -8  11.80  7.90
 -3  8 -8  26.40  7.50
  3  8  8  22.80  6.60
  3  8  8  31.10  6.70
  3 -9 -8 105.29  13.10
  3 -9 -8  89.79  9.50
  3 -9 -8 138.19  15.40
  3 -9 -8  85.49  11.40
  3  9 -8  74.69  11.30
 -3  9  8  66.79  9.90
  3  9 -8  85.79  10.30
  2 -9 -8  29.10  7.30
  2 -9 -8  24.90  5.50
  2 -9 -8  13.30  6.20
  2 -9 -8  16.40  6.80
  2  9 -8  20.30  5.20
 -2  9  8  17.90  5.50
  2  9 -8  10.00  6.30
  1 -9 -8  47.10  7.80
  1 -9 -8  87.59  10.10
  1 -9 -8  55.19  7.10
  1  9 -8  69.59  10.90
  1  9 -8  69.79  7.80
 -1  9  8  56.09  7.10
 -1  9  8  57.19  8.90
  0 -9 -8  14.50  6.20
  0 -9 -8  13.80  4.80
  0 -9 -8  24.90  6.30
  0  9 -8  13.40  4.50
  0  9 -8  12.20  6.40
  0  9  8  19.30  5.70
  0  9  8  17.70  5.00
 -1 -9 -8  42.80  7.40
 -1 -9 -8  51.29  8.10
 -1 -9 -8  53.79  8.90
 -1 -9 -8  41.30  9.40
 -1  9 -8  40.40  6.90
 -1  9 -8  39.60  6.90
  1  9  8  39.50  7.80
  1  9  8  26.40  6.20
 -2 -9 -8  29.00  6.80
 -2 -9 -8  14.80  8.90
 -2 -9 -8  20.70  15.40
 -2 -9 -8  12.40  6.50
  2  9  8  14.30  5.60
  2  9  8  12.80  5.80
 -2  9 -8  17.10  7.20
 -2  9 -8  8.30  6.50
 -2  9 -8  6.00  6.70
  3 -10 -8  20.50  7.50
  3 -10 -8  23.90  6.90
  3 -10 -8  28.60  8.40
  3 -10 -8  34.50  8.60
  3 10 -8  20.40  7.60
 -3 10  8  16.50  6.60
  3 10 -8  30.10  9.40
  2 -10 -8  30.00  7.20
  2 -10 -8  33.50  9.20
  2 -10 -8  41.90  9.10
  2 10 -8  17.10  9.10
 -2 10  8  27.60  7.20
  2 10 -8  41.90  7.50
  1 -10 -8  20.10  6.10
  1 -10 -8  16.00  6.70
  1 -10 -8  28.40  7.40
  1 10 -8  15.50  5.90
  1 10 -8  9.40  6.10
 -1 10  8  12.10  4.70
  0 -10 -8  8.10  5.80
  0 -10 -8  17.00  6.30
  0 -10 -8  -0.70  6.40
  0 10  8  4.20  4.20
  0 10 -8  3.80  5.00
  0 10  8  5.80  4.20
  0 10 -8  9.00  6.20
 -1 -10 -8  16.50  11.40
 -1 -10 -8  16.60  6.60
 -1 -10 -8  18.70  9.90
 -1 -10 -8  9.30  6.40
 -1 10 -8  25.60  6.70
  1 10  8  10.30  5.50
  1 10  8  14.50  5.60
 -1 10 -8  15.50  6.80
 -2 -10 -8  4.60  8.70
 -2 -10 -8  11.10  8.00
 -2 -10 -8  24.80  8.10
 -2 -10 -8  4.70  7.60
 -2 10 -8  10.80  7.00
 -2 10 -8  18.80  6.90
  2 10  8  6.30  5.20
  2 -11 -8  0.20  7.00
  2 -11 -8  -4.10  7.50
  2 -11 -8  9.60  8.20
  2 11 -8  17.00  7.70
 -2 11  8  -2.80  5.30
  1 -11 -8  18.50  8.10
  1 -11 -8  8.70  7.30
  1 -11 -8  15.60  7.30
 -1 11  8  7.60  5.40
  1 11 -8  11.90  6.30
  1 11 -8  8.50  6.60
  0 -11 -8  51.39  9.20
  0 -11 -8  58.29  9.10
  0 -11 -8  82.59  14.60
  0 11 -8  34.10  8.80
  0 11 -8  60.29  13.40
  0 11  8  33.80  7.80
  0 11  8  37.10  7.10
 -1 -11 -8  16.10  7.60
 -1 -11 -8  25.00  8.80
 -1 -11 -8  14.00  10.20
 -1 -11 -8  1.70  7.00
  5  0 -9  -0.40  8.90
  4  0 -9  -1.30  5.00
  4  0 -9  -3.40  6.30
 -3  0  9  -0.80  2.60
  3  0 -9  -3.00  3.60
  3  0 -9  -7.00  4.20
  2  0 -9  -0.10  3.90
 -2  0  9  -1.40  2.40
  2  0 -9  -1.30  2.60
  2  0 -9  0.70  2.50
 -2  0  9  -1.50  2.90
  2  0 -9  -0.80  2.30
  2  0 -9  1.40  3.00
  1  0 -9  -0.30  2.80
  1  0 -9  0.50  2.60
  1  0 -9  1.80  3.20
 -1  0  9  2.70  2.60
  1  0 -9  3.50  2.40
  1  0 -9  -1.50  3.20
 -1  0  9  -3.70  2.20
  0  0 -9  2.20  2.30
  0  0 -9  5.80  2.70
  0  0  9  3.90  3.40
  0  0 -9  -3.20  3.80
  0  0  9  4.60  3.30
  1  0  9  -5.10  2.80
 -1  0 -9  0.80  2.70
 -1  0 -9  -0.70  2.10
 -1  0 -9  4.90  4.20
  1  0  9  -3.20  2.90
  2  0  9  3.90  3.50
 -2  0 -9  2.30  3.50
 -2  0 -9  -2.70  3.20
 -2  0 -9  6.50  5.40
  2  0  9  3.00  4.00
 -3  0 -9  0.90  4.20
  3  0  9  2.70  4.30
 -3  0 -9  4.10  6.10
 -3  0 -9  -3.80  4.20
  4  0  9  3.90  4.60
 -4  0 -9  -7.10  7.70
 -4  0 -9  6.80  6.00
  5 -1 -9  25.80  8.60
  5  1 -9  18.40  9.60
  4 -1 -9  46.30  8.00
  4 -1 -9  40.70  8.80
  4  1 -9  29.90  8.30
  3 -1 -9  58.29  7.60
  3 -1 -9  58.99  8.90
  3  1 -9  48.60  6.00
  3  1 -9  60.39  9.10
 -3  1  9  39.60  5.50
  2 -1 -9 186.88  10.80
  2 -1 -9 179.18  10.40
  2 -1 -9 169.98  10.80
  2 -1 -9 175.18  10.00
  2 -1 -9 192.08  12.10
 -2  1  9 173.08  9.90
  2  1 -9 162.28  11.30
 -2  1  9 175.58  11.10
  2  1 -9 171.68  9.20
  2  1 -9 191.38  12.70
  2  1 -9 172.48  10.50
  2  1 -9 178.18  11.20
  1 -1 -9  42.90  6.00
 -1 -1  9  49.60  6.30
  1 -1 -9  48.40  5.40
  1 -1 -9  48.40  6.20
 -1 -1  9  66.09  6.10
  1 -1 -9  52.89  6.00
  1 -1 -9  49.60  5.40
  1  1 -9  59.09  7.00
  1  1 -9  49.90  5.50
  1  1 -9  46.80  4.40
  1  1 -9  48.40  6.60
 -1  1  9  54.39  5.70
 -1  1  9  55.09  6.30
  1  1 -9  52.09  5.80
  0 -1  9 874.11  36.30
  0 -1 -9 857.51  34.80
  0 -1 -9 858.71  36.90
  0 -1  9 876.31  37.50
  0 -1 -9 846.32  35.20
  0  1 -9 868.61  35.50
  0  1 -9 897.11  36.60
  0  1 -9 848.72  34.60
  0  1  9 884.01  37.70
  0  1 -9 863.61  37.70
  0  1  9 885.71  36.40
  1 -1  9  41.30  6.10
 -1 -1 -9  39.50  6.50
 -1 -1 -9  33.10  4.80
 -1 -1 -9  35.10  4.10
  1 -1  9  44.20  5.70
 -1  1 -9  36.60  4.50
  1  1  9  42.30  6.50
 -1  1 -9  34.70  5.70
  1  1  9  36.30  5.10
 -1  1 -9  31.20  4.00
 -2 -1 -9  32.40  5.00
 -2 -1 -9  56.09  7.00
  2 -1  9  27.60  5.30
 -2 -1 -9  52.99  7.90
 -2  1 -9  36.30  5.10
 -2  1 -9  46.10  7.70
  2  1  9  32.30  6.20
  2  1  9  36.40  5.80
 -2  1 -9  47.70  5.60
 -3 -1 -9  13.00  6.90
 -3 -1 -9  14.80  5.00
  3 -1  9  6.90  6.60
 -3 -1 -9  6.30  4.90
 -3  1 -9  7.10  4.90
 -3  1 -9  15.80  4.30
 -3  1 -9  12.00  7.50
  3  1  9  12.40  4.40
  4 -1  9  7.00  4.80
 -4 -1 -9  10.80  8.50
 -4 -1 -9  14.40  6.50
  4  1  9  11.40  5.00
 -4  1 -9  10.80  8.10
 -4  1 -9  8.30  6.40
  5 -2 -9  26.00  15.90
  5 -2 -9  26.40  10.80
  5  2 -9  27.90  20.10
  4 -2 -9  66.79  10.10
  4 -2 -9  63.19  8.40
  4  2 -9  61.89  9.80
  3 -2 -9  5.00  4.50
  3 -2 -9  5.80  6.30
 -3  2  9  4.10  3.30
  3  2 -9  4.40  3.20
  2 -2 -9 202.08  11.50
  2 -2 -9 200.38  11.60
  2 -2 -9 215.78  13.00
  2 -2 -9 205.68  11.70
  2  2 -9 184.68  12.30
  2  2 -9 210.08  13.60
 -2  2  9 194.18  10.80
 -2  2  9 195.28  12.20
  1 -2 -9  63.29  6.00
  1 -2 -9  51.69  6.90
  1 -2 -9  46.60  6.00
  1 -2 -9  56.29  6.10
  1 -2 -9  54.29  5.60
 -1 -2  9  46.60  5.70
  1  2 -9  50.49  7.00
  1  2 -9  53.49  4.30
 -1  2  9  67.89  5.90
  1  2 -9  61.89  5.70
  1  2 -9  64.89  6.40
 -1  2  9  53.19  6.40
  0 -2  9 212.58  11.60
  0 -2 -9 195.28  10.30
  0 -2 -9 189.08  12.60
  0 -2 -9 196.68  11.00
  0  2 -9 186.78  9.50
  0  2  9 193.98  11.40
  0  2 -9 200.48  11.60
  0  2  9 211.68  12.80
  0  2 -9 196.88  13.10
 -1 -2 -9 200.68  10.20
  1 -2  9 217.78  12.10
 -1 -2 -9 215.48  11.90
 -1 -2 -9 244.48  15.70
 -1  2 -9 209.28  10.50
 -1  2 -9 224.38  13.30
  1  2  9 202.08  12.30
  1  2  9 217.08  13.50
 -1  2 -9 198.78  10.00
  2 -2  9  20.80  4.60
 -2 -2 -9  9.50  4.00
 -2 -2 -9  14.00  6.40
 -2 -2 -9  7.30  4.60
  2  2  9  11.60  4.80
 -2  2 -9  11.30  5.50
  2  2  9  14.10  4.00
 -2  2 -9  11.30  4.10
  3 -2  9  45.90  10.20
 -3 -2 -9  35.30  8.50
 -3 -2 -9  32.70  6.50
 -3 -2 -9  36.10  6.60
  3  2  9  39.10  6.60
 -3  2 -9  29.50  6.20
  3  2  9  44.40  9.00
 -3  2 -9  43.10  8.30
 -4 -2 -9  20.00  10.50
  4 -2  9  2.30  4.00
 -4 -2 -9  22.50  8.60
  4  2  9  0.40  4.80
 -4  2 -9 -15.70  7.60
 -4  2 -9  -7.00  7.00
  5 -3 -9 -15.10  8.30
  5  3 -9  3.10  10.80
  4 -3 -9  49.00  8.40
  4 -3 -9  35.30  8.60
  4  3 -9  54.19  9.20
  3 -3 -9  48.00  7.60
  3 -3 -9  67.99  7.90
  3  3 -9  54.99  7.90
 -3  3  9  50.69  6.70
  3  3 -9  75.69  10.50
  2 -3 -9  49.00  6.40
  2 -3 -9  43.30  6.40
  2 -3 -9  56.79  6.90
 -2  3  9  45.70  5.10
 -2  3  9  53.59  6.70
  2  3 -9  45.40  7.10
  1 -3 -9  66.89  6.70
  1 -3 -9  71.59  7.20
  1 -3 -9  63.49  8.20
  1 -3 -9  73.29  8.00
  1 -3 -9  69.89  6.60
  1  3 -9  79.99  6.10
  1  3 -9  77.09  6.70
  1  3 -9  73.19  8.70
 -1  3  9  66.09  7.40
 -1  3  9  62.69  6.30
  0 -3 -9  19.10  4.40
  0 -3 -9  24.50  5.40
  0 -3  9  14.10  3.60
  0 -3 -9  14.90  3.60
  0  3 -9  16.90  4.80
  0  3  9  8.30  3.20
  0  3 -9  14.30  1.90
  0  3 -9  20.10  4.20
  0  3  9  10.50  4.10
 -1 -3 -9  33.20  7.40
 -1 -3 -9  35.90  4.80
  1 -3  9  47.90  5.90
 -1 -3 -9  33.30  5.40
 -1  3 -9  38.30  4.40
  1  3  9  42.20  6.00
 -1  3 -9  27.90  5.70
  1  3  9  38.10  6.60
 -2 -3 -9  2.80  6.70
 -2 -3 -9  2.10  4.10
 -2 -3 -9  11.10  5.20
  2 -3  9  4.20  3.10
  2  3  9  -0.70  4.00
  2  3  9  -2.90  3.10
 -2  3 -9  -2.10  4.60
 -2  3 -9  -3.90  3.90
 -3 -3 -9  21.90  6.00
 -3 -3 -9  10.60  8.20
 -3 -3 -9  21.90  5.80
  3 -3  9  15.30  5.10
 -3  3 -9  8.40  6.70
  3  3  9  14.60  5.20
  3  3  9  20.60  5.10
 -3  3 -9  1.00  4.90
 -4 -3 -9  28.40  10.60
 -4  3 -9  5.40  8.50
  5 -4 -9  15.20  9.90
  5 -4 -9  46.00  10.30
  5  4 -9  45.00  10.90
  4 -4 -9  7.20  6.10
  4 -4 -9  9.00  7.30
  4  4 -9  8.70  7.90
  4  4 -9  4.50  4.70
  3 -4 -9 176.58  12.90
  3  4 -9 201.68  15.00
 -3  4  9 156.28  11.50
  3  4 -9 177.88  15.80
  2 -4 -9  97.39  8.80
  2 -4 -9  80.19  8.50
  2 -4 -9  94.29  8.10
  2  4 -9  80.19  9.20
 -2  4  9  87.99  6.70
 -2  4  9  89.19  8.50
  1 -4 -9 323.97  16.40
  1 -4 -9 316.37  16.20
  1 -4 -9 329.07  16.20
 -1  4  9 326.47  17.60
  1  4 -9 349.96  18.80
 -1  4  9 313.77  15.80
  0 -4 -9  38.80  6.50
  0 -4 -9  26.60  4.50
  0 -4 -9  23.80  2.90
  0 -4 -9  21.10  4.50
  0  4 -9  26.90  3.20
  0  4 -9  30.80  4.90
  0  4  9  30.10  4.70
  0  4  9  26.30  5.40
  0  4 -9  25.50  6.40
 -1 -4 -9 222.68  11.50
 -1 -4 -9 225.88  14.00
  1 -4  9 214.48  12.70
 -1 -4 -9 249.97  15.50
 -1 -4 -9 214.28  11.70
 -1  4 -9 217.28  11.20
  1  4  9 204.78  12.90
  1  4  9 232.88  14.30
 -1  4 -9 237.58  13.50
 -1  4 -9 234.18  15.90
  2 -4  9  73.99  7.30
 -2 -4 -9  72.49  7.60
 -2 -4 -9  89.39  10.70
 -2 -4 -9  67.19  8.90
 -2  4 -9  72.59  7.50
  2  4  9  73.59  12.80
 -2  4 -9  86.19  10.00
  2  4  9  72.29  12.60
  3 -4  9  14.30  4.50
 -3 -4 -9  16.70  8.40
 -3 -4 -9  21.90  6.40
 -3 -4 -9  25.40  6.70
  3  4  9  11.50  6.10
  3  4  9  11.10  4.30
 -3  4 -9  23.60  7.60
 -3  4 -9  8.90  5.70
  4 -5 -9  8.30  7.00
  4 -5 -9  -5.80  6.50
  4  5 -9  7.30  5.80
  4  5 -9  26.80  9.20
  3 -5 -9 196.78  13.40
  3 -5 -9 192.88  13.80
  3  5 -9 172.88  13.80
 -3  5  9 184.58  12.50
  2 -5 -9  -0.70  3.90
  2 -5 -9  1.80  4.30
  2 -5 -9  10.60  4.60
 -2  5  9  3.30  3.90
  2  5 -9  9.20  4.80
 -2  5  9  5.90  2.60
  1 -5 -9 114.59  8.80
  1 -5 -9  86.49  9.80
  1  5 -9  81.69  5.30
  1  5 -9 102.19  12.90
 -1  5  9  92.39  7.30
 -1  5  9  81.79  8.80
  0 -5 -9  37.30  4.50
  0 -5 -9  46.50  6.00
  0 -5 -9  67.29  8.80
  0 -5 -9  51.19  6.60
  0  5 -9  43.70  4.30
  0  5  9  37.10  6.30
  0  5 -9  54.79  8.50
  0  5  9  47.80  6.00
  0  5 -9  41.30  5.80
 -1 -5 -9  74.39  9.80
 -1 -5 -9  65.79  6.90
 -1 -5 -9  77.19  8.10
 -1 -5 -9  71.49  7.10
  1  5  9  75.89  8.60
  1  5  9  82.59  8.00
 -1  5 -9  75.59  6.50
 -1  5 -9  81.19  8.70
 -1  5 -9  85.49  10.00
 -2 -5 -9  37.70  6.50
 -2 -5 -9  35.00  5.60
 -2 -5 -9  31.00  8.20
  2 -5  9  23.50  5.20
 -2  5 -9  21.80  6.30
  2  5  9  21.40  5.00
 -2  5 -9  30.50  5.50
  2  5  9  31.40  6.70
 -3 -5 -9  25.80  9.50
 -3 -5 -9  23.60  7.00
 -3 -5 -9  34.20  7.90
  3 -5  9  32.80  6.00
  3  5  9  20.70  5.20
 -3  5 -9  23.50  7.30
  3  5  9  38.30  8.00
 -3  5 -9  25.80  6.50
  4 -6 -9  65.29  10.60
  4  6 -9  67.49  11.10
  4  6 -9  55.99  9.90
  3 -6 -9  8.50  6.40
  3 -6 -9  27.60  5.60
  3 -6 -9  13.10  5.60
  3  6 -9  12.70  5.20
 -3  6  9  10.50  5.20
  2 -6 -9 171.38  11.70
  2 -6 -9 145.29  11.20
  2 -6 -9 176.38  12.10
  2  6 -9 169.18  9.70
 -2  6  9 145.89  9.30
 -2  6  9 154.08  12.00
  2  6 -9 170.68  13.70
  1 -6 -9  31.90  4.10
  1 -6 -9  42.90  9.00
  1 -6 -9  29.70  5.80
 -1  6  9  30.70  4.80
 -1  6  9  33.10  6.40
  1  6 -9  31.50  3.70
  1  6 -9  37.50  7.10
  0 -6 -9  34.80  5.90
  0 -6 -9  35.50  4.60
  0 -6 -9  24.70  7.00
  0 -6 -9  35.30  6.20
  0  6  9  34.60  5.50
  0  6 -9  45.20  5.00
  0  6  9  38.80  7.00
  0  6 -9  35.50  7.10
  0  6 -9  38.50  5.30
 -1 -6 -9  71.69  9.80
 -1 -6 -9  53.29  7.20
 -1 -6 -9  54.59  7.90
 -1 -6 -9  56.79  7.80
  1  6  9  43.80  9.50
 -1  6 -9  51.59  5.90
  1  6  9  53.29  8.10
 -1  6 -9  45.00  8.40
 -1  6 -9  64.99  12.40
 -2 -6 -9  14.90  7.70
 -2 -6 -9  29.30  6.30
 -2 -6 -9  27.50  6.20
 -2  6 -9  14.50  5.30
 -2  6 -9  -0.60  5.40
  2  6  9  29.90  6.60
 -2  6 -9  29.20  6.60
  2  6  9  17.40  6.20
 -3 -6 -9  12.60  9.70
 -3 -6 -9  16.10  9.80
 -3 -6 -9  21.10  6.90
 -3  6 -9  12.90  8.60
  3  6  9  7.90  4.40
 -3  6 -9  10.00  6.60
  3  6  9  13.60  6.20
  4 -7 -9  56.49  10.60
  4  7 -9  54.29  10.30
  3 -7 -9  69.79  9.10
  3 -7 -9  43.70  8.20
  3 -7 -9  66.89  9.30
  3  7 -9  84.49  12.20
 -3  7  9  65.89  9.40
  2 -7 -9  89.09  10.60
  2 -7 -9  83.89  10.30
  2 -7 -9  85.49  10.50
  2 -7 -9 108.49  10.40
  2  7 -9  90.29  7.60
  2  7 -9 107.89  11.30
 -2  7  9 103.69  11.50
  1 -7 -9  19.50  3.80
  1 -7 -9  20.60  5.60
  1 -7 -9  28.00  6.60
  1  7 -9  25.70  7.10
 -1  7  9  13.70  4.20
  1  7 -9  21.80  4.00
  0 -7 -9  35.80  6.00
  0 -7 -9  44.00  7.50
  0 -7 -9  37.10  6.10
  0 -7 -9  43.70  8.30
  0  7  9  36.80  7.00
  0  7 -9  24.70  6.40
  0  7 -9  42.20  6.00
  0  7  9  37.60  6.20
 -1 -7 -9  38.30  6.00
 -1 -7 -9  42.40  7.60
 -1 -7 -9  54.89  8.90
 -1 -7 -9  39.10  6.30
 -1  7 -9  28.40  6.80
 -1  7 -9  40.00  6.10
 -1  7 -9  31.10  5.20
  1  7  9  34.00  6.60
  1  7  9  47.70  7.10
 -2 -7 -9  62.39  9.50
 -2 -7 -9  68.19  8.80
 -2 -7 -9  37.00  9.40
 -2  7 -9  32.20  7.90
  2  7  9  44.30  7.50
 -2  7 -9  56.49  7.90
  2  7  9  51.49  9.20
 -2  7 -9  59.89  8.70
 -3 -7 -9  52.69  9.50
 -3 -7 -9  54.89  11.80
 -3  7 -9  46.50  9.40
  3 -8 -9  2.70  6.10
  3 -8 -9  8.80  6.90
  3 -8 -9  8.90  7.20
  3  8 -9  -0.70  6.60
 -3  8  9  4.90  4.80
  2 -8 -9  72.59  9.20
  2 -8 -9  64.29  9.10
  2 -8 -9  54.19  7.30
 -2  8  9  66.49  9.00
  2  8 -9  49.90  8.40
  2  8 -9  52.49  6.30
  1 -8 -9  35.70  7.40
  1 -8 -9  45.50  8.20
  1 -8 -9  40.20  5.20
  1  8 -9  33.70  7.90
  1  8 -9  47.50  5.70
 -1  8  9  28.50  5.20
 -1  8  9  35.00  7.40
  0 -8 -9  44.00  7.40
  0 -8 -9  58.79  8.80
  0 -8 -9  53.69  6.70
  0  8  9  54.79  9.10
  0  8 -9  54.49  7.10
  0  8 -9  47.80  8.20
  0  8  9  56.29  8.70
 -1 -8 -9  5.30  5.10
 -1 -8 -9  0.60  5.10
 -1 -8 -9  2.40  6.00
 -1 -8 -9  -4.60  7.30
 -1  8 -9  2.30  9.00
 -1  8 -9  0.80  4.40
  1  8  9  1.40  4.40
  1  8  9  2.50  4.70
 -1  8 -9  -3.00  5.20
 -2 -8 -9  25.90  10.30
 -2 -8 -9  13.60  6.90
 -2 -8 -9  28.60  9.10
  2  8  9  20.30  6.70
  2  8  9  18.40  5.70
 -2  8 -9  13.00  9.10
 -2  8 -9  18.90  6.70
 -2  8 -9  19.40  7.20
  3 -9 -9  53.19  9.30
  3 -9 -9  46.70  11.50
  3 -9 -9  40.40  8.90
  3  9 -9  57.29  10.80
 -3  9  9  37.80  7.90
  2 -9 -9  11.70  7.10
  2 -9 -9  8.20  4.90
  2 -9 -9  9.80  7.50
  2  9 -9  8.70  5.10
 -2  9  9  14.10  6.20
  2  9 -9  6.90  6.20
  1 -9 -9  91.99  11.00
  1 -9 -9  86.19  8.50
  1 -9 -9  80.19  10.40
  1  9 -9  71.19  8.30
 -1  9  9  48.50  8.70
  1  9 -9  73.19  11.20
 -1  9  9  74.29  8.30
  0 -9 -9  -0.10  5.70
  0 -9 -9  5.30  6.10
  0 -9 -9  5.30  5.20
  0  9 -9  -1.40  4.50
  0  9  9  0.30  3.90
  0  9  9  -1.00  4.30
  0  9 -9  -4.40  5.90
 -1 -9 -9  23.50  7.20
 -1 -9 -9  29.10  7.30
  1  9  9  18.50  5.80
  1  9  9  19.00  6.90
 -1  9 -9  29.40  6.20
  2 -10 -9  27.30  8.50
  2 -10 -9  23.70  8.30
  2 -10 -9  23.80  7.20
  2 10 -9  19.60  6.20
 -2 10  9  22.80  7.10
  2 10 -9  18.60  7.20
  1 -10 -9  31.30  15.80
  1 -10 -9  20.50  8.00
  1 -10 -9  44.60  7.20
  1 10 -9  34.30  6.90
  1 10 -9  33.70  9.40
 -1 10  9  24.10  6.60
  0 -10 -9  4.90  6.90
  0 -10 -9  0.30  6.20
  0 -10 -9  5.50  6.40
  0 10  9  2.30  4.30
  0 10  9  0.90  4.40
  0 10 -9  5.00  5.30
  0 10 -9  10.50  7.30
 -1 -10 -9  20.80  10.80
 -1 -10 -9  35.30  8.30
  5  0 -10  55.29  9.80
  5  0 -10  45.60  11.20
  4  0 -10 109.59  12.10
  4  0 -10  97.89  14.00
  3  0 -10  74.89  10.40
  3  0 -10  68.99  9.10
 -2  0 10  63.69  6.30
 -2  0 10  61.29  7.30
  2  0 -10  74.79  6.00
  2  0 -10  60.79  6.70
  2  0 -10  59.99  8.30
  2  0 -10  62.99  7.90
  1  0 -10 506.55  22.60
 -1  0 10 542.65  24.10
  1  0 -10 531.25  24.20
 -1  0 10 527.85  25.40
  1  0 -10 551.94  24.20
  1  0 -10 559.04  27.20
  1  0 -10 522.65  24.80
  0  0 10 126.09  9.00
  0  0 -10 125.09  9.80
  0  0 10 119.39  10.00
  0  0 -10 116.69  7.70
 -1  0 -10 207.48  11.40
 -1  0 -10 228.18  14.40
  1  0 10 211.48  12.60
  1  0 10 214.98  13.80
  2  0 10 113.49  11.20
 -2  0 -10 118.19  10.50
 -2  0 -10 141.19  12.10
  2  0 10 133.49  10.20
 -3  0 -10  12.80  7.80
 -3  0 -10  2.30  5.10
 -3  0 -10  7.40  5.10
  3  0 10  6.30  4.40
  5 -1 -10  25.40  8.40
  5 -1 -10  19.70  10.10
  5  1 -10  11.40  9.40
  4 -1 -10  18.80  6.50
  4 -1 -10  18.00  7.60
  4  1 -10  8.30  8.30
  4  1 -10  0.00  5.80
  3 -1 -10 109.99  12.40
  3 -1 -10 106.19  9.80
 -3  1 10  96.99  8.70
  3  1 -10 118.69  16.80
  3  1 -10 134.39  12.00
  2 -1 -10  80.79  9.20
  2 -1 -10 101.09  7.70
  2 -1 -10  94.69  7.30
  2 -1 -10  93.99  8.10
  2  1 -10  96.89  7.60
 -2  1 10  84.79  8.40
  2  1 -10 116.89  10.20
 -2  1 10  98.19  7.50
  2  1 -10  96.99  8.60
 -1 -1 10 232.98  14.10
 -1 -1 10 230.78  12.90
  1 -1 -10 228.48  12.00
  1 -1 -10 229.68  13.10
  1 -1 -10 236.48  12.10
  1 -1 -10 233.08  13.50
  1  1 -10 242.18  13.70
 -1  1 10 229.98  14.20
  1  1 -10 223.18  12.50
  1  1 -10 233.28  14.20
 -1  1 10 238.68  13.00
  0 -1 10 105.69  9.40
  0 -1 -10 128.99  9.80
  0 -1 10 101.19  8.00
  0 -1 -10  95.29  7.50
  0  1 -10 111.99  9.40
  0  1 10 108.89  9.60
  0  1 10  95.59  8.20
  0  1 -10 115.19  10.10
  0  1 -10  97.19  8.10
 -1 -1 -10  31.60  7.00
  1 -1 10  41.00  6.10
 -1 -1 -10  45.90  6.00
 -1  1 -10  40.20  6.80
  1  1 10  35.70  5.40
 -1  1 -10  51.59  6.50
  1  1 10  36.90  6.40
 -2 -1 -10  90.19  8.50
 -2 -1 -10  79.29  8.30
 -2 -1 -10  99.89  11.50
  2 -1 10  86.49  8.30
  2  1 10  83.89  9.70
 -2  1 -10  75.99  7.10
  2  1 10  74.49  7.80
 -2  1 -10  72.79  9.90
 -3 -1 -10  18.10  5.80
 -3 -1 -10  16.50  9.70
 -3 -1 -10  5.20  5.30
  3 -1 10  15.40  5.10
 -3  1 -10  15.20  7.90
  3  1 10  21.60  4.90
  3  1 10  15.90  5.70
 -3  1 -10  9.30  5.60
  4 -2 -10  49.90  9.60
  4 -2 -10  53.49  9.10
  4  2 -10  44.40  10.10
  3 -2 -10  20.20  5.40
  3 -2 -10  25.60  8.50
  3 -2 -10  8.80  6.00
 -3  2 10  20.20  5.00
  3  2 -10  31.90  7.30
  2 -2 -10 281.47  14.60
  2 -2 -10 278.77  14.70
  2 -2 -10 281.07  15.60
  2 -2 -10 256.37  14.80
  2  2 -10 288.17  14.40
 -2  2 10 262.27  15.60
  2  2 -10 307.17  17.30
  2  2 -10 287.97  16.30
 -2  2 10 267.67  14.10
  1 -2 -10  57.89  7.60
  1 -2 -10  65.99  6.80
  1 -2 -10  70.59  6.60
 -1 -2 10  67.69  6.50
  1  2 -10  59.89  6.40
 -1  2 10  62.19  7.70
  1  2 -10  64.69  8.50
 -1  2 10  71.89  6.80
  1  2 -10  81.69  7.90
  0 -2 10  75.09  7.20
  0 -2 -10  62.09  6.90
  0 -2 -10  70.19  9.10
  0  2 10  76.69  7.10
  0  2 -10  78.49  8.10
  0  2 10  81.29  8.60
  0  2 -10  75.29  9.40
  1 -2 10  69.49  7.10
 -1 -2 -10  99.59  10.00
 -1 -2 -10  87.39  8.90
  1  2 10  70.29  8.90
 -1  2 -10  78.99  9.20
  1  2 10  74.39  7.80
 -2 -2 -10  19.40  5.40
 -2 -2 -10  22.40  7.90
 -2 -2 -10  27.80  4.70
  2 -2 10  19.80  4.60
  2  2 10  14.90  6.00
  2  2 10  19.20  5.00
 -2  2 -10  11.70  4.40
 -2  2 -10  25.50  6.70
  3 -2 10  25.30  5.30
 -3 -2 -10  39.80  6.70
 -3 -2 -10  21.00  17.80
 -3 -2 -10  26.00  6.40
 -3  2 -10  13.80  5.70
 -3  2 -10  17.10  9.40
  3  2 10  23.20  5.50
  3  2 10  17.20  6.00
  4 -3 -10  52.49  10.30
  4 -3 -10  74.39  10.30
  4  3 -10  79.49  11.80
  3 -3 -10  15.50  5.20
  3 -3 -10  12.40  6.00
  3 -3 -10  23.90  5.60
  3  3 -10  20.20  5.40
  3  3 -10  16.30  6.90
 -3  3 10  22.20  5.30
  2 -3 -10 210.08  13.10
  2 -3 -10 217.08  17.20
  2 -3 -10 204.98  13.20
  2 -3 -10 227.88  13.00
 -2  3 10 217.18  11.70
  2  3 -10 196.48  14.10
 -2  3 10 207.98  13.60
  2  3 -10 220.28  14.80
  1 -3 -10  28.90  4.80
  1 -3 -10  28.30  5.00
  1 -3 -10  28.30  5.90
 -1  3 10  20.80  4.40
  1  3 -10  27.40  5.60
 -1  3 10  23.50  5.70
  0 -3 -10 179.78  13.10
  0 -3 -10 173.98  10.90
  0 -3 10 169.88  10.90
  0  3 -10 178.68  11.20
  0  3 10 175.98  12.60
  0  3 -10 175.88  13.30
  0  3 10 182.78  11.20
 -1 -3 -10 228.28  15.30
  1 -3 10 216.18  13.20
 -1 -3 -10 229.68  13.20
 -1  3 -10 250.57  14.40
  1  3 10 209.28  13.90
 -2 -3 -10  18.10  4.70
 -2 -3 -10  30.30  6.40
  2 -3 10  25.10  5.10
 -2 -3 -10  15.40  7.30
 -2  3 -10  14.70  4.20
 -2  3 -10  17.30  6.50
  2  3 10  21.50  5.40
  2  3 10  20.90  6.30
  3 -3 10  15.30  4.30
 -3 -3 -10  21.20  6.40
 -3 -3 -10  16.60  10.70
 -3 -3 -10  1.90  5.90
  3  3 10  17.20  5.00
 -3  3 -10 -13.50  12.10
 -3  3 -10  3.10  6.10
  3  3 10  13.50  5.70
  4 -4 -10  39.00  9.80
  4 -4 -10  36.30  8.50
  4  4 -10  42.00  10.70
  3 -4 -10  46.90  7.20
  3 -4 -10  33.70  7.70
  3 -4 -10  62.79  7.90
  3  4 -10  58.09  9.00
 -3  4 10  56.59  8.20
  3  4 -10  65.09  9.80
  2 -4 -10  47.80  6.70
  2 -4 -10  48.20  6.70
  2 -4 -10  31.50  8.60
  2  4 -10  57.79  8.50
 -2  4 10  53.19  6.00
 -2  4 10  53.39  7.70
  1 -4 -10  84.89  8.50
  1 -4 -10  88.59  8.60
  1 -4 -10  99.39  10.80
  1  4 -10  98.99  10.50
 -1  4 10  95.89  9.30
 -1  4 10  96.19  7.70
  0 -4 -10  70.29  9.30
  0 -4 -10  58.89  6.70
  0 -4 -10  54.89  7.30
  0  4 10  56.39  6.80
  0  4 -10  56.69  6.90
  0  4 10  53.29  8.20
  0  4 -10  47.90  8.10
 -1 -4 -10  78.59  8.70
 -1 -4 -10  77.19  10.00
  1  4 10  81.99  9.10
  1  4 10  60.69  10.80
 -1  4 -10  84.19  9.10
 -1  4 -10  73.09  11.00
 -1  4 -10  73.69  6.30
 -2 -4 -10  11.60  5.50
 -2 -4 -10  19.90  7.70
  2 -4 10  14.30  5.10
 -2 -4 -10  8.90  4.20
  2  4 10  9.00  4.80
 -2  4 -10  5.30  5.60
 -2  4 -10  13.20  4.30
  2  4 10  6.90  4.20
  3 -4 10  0.10  4.20
 -3 -4 -10  5.10  6.10
 -3 -4 -10  -5.20  9.00
 -3  4 -10  1.60  5.70
  3  4 10  -3.20  4.10
  3  4 10  9.20  6.20
 -3  4 -10  -7.30  8.90
  4 -5 -10  46.60  10.00
  4 -5 -10  76.39  18.70
  4  5 -10  78.59  18.00
  4  5 -10  51.19  11.00
  3 -5 -10 165.08  12.80
  3 -5 -10 148.39  13.50
  3 -5 -10 162.78  13.50
  3  5 -10 158.18  13.60
  3  5 -10 180.58  15.70
 -3  5 10 141.09  12.50
  2 -5 -10  4.10  4.40
  2 -5 -10  20.40  5.70
 -2  5 10  5.40  3.30
 -2  5 10  7.80  5.00
  2  5 -10  5.10  4.90
  1 -5 -10  97.49  9.60
  1 -5 -10 122.89  16.40
  1 -5 -10 119.79  11.30
 -1  5 10 114.39  12.60
  1  5 -10 123.99  11.60
 -1  5 10 109.59  8.60
  0 -5 -10 144.39  10.60
  0 -5 -10 140.59  12.00
  0 -5 -10 136.49  9.80
  0  5 10 110.29  11.50
  0  5 10 133.29  9.60
  0  5 -10 119.19  12.70
 -1 -5 -10  -1.40  6.60
 -1 -5 -10  5.50  4.60
  1  5 10  1.90  3.70
 -1  5 -10  2.80  4.70
  1  5 10  10.80  4.60
 -1  5 -10  4.70  5.50
 -2 -5 -10  18.30  5.10
  2 -5 10  26.30  5.90
 -2 -5 -10  21.90  6.20
 -2 -5 -10  20.60  8.20
  2  5 10  22.00  6.90
  2  5 10  12.30  5.00
 -2  5 -10  20.50  7.20
 -2  5 -10  12.60  6.90
 -2  5 -10  21.90  5.10
  4 -6 -10  22.10  9.40
  4 -6 -10  32.90  9.00
  4  6 -10  43.60  10.40
  4  6 -10  34.90  8.20
  3 -6 -10  43.30  8.60
  3 -6 -10  53.69  8.90
  3 -6 -10  60.59  8.60
  3  6 -10  60.09  9.50
  2 -6 -10  23.20  6.10
  2 -6 -10  30.20  6.60
 -2  6 10  36.80  9.60
  2  6 -10  26.30  7.00
  1 -6 -10  91.49  10.00
  1 -6 -10  95.39  9.80
 -1  6 10  89.39  8.00
 -1  6 10 103.89  10.60
  1  6 -10  79.69  11.00
  0 -6 -10  36.60  8.10
  0 -6 -10  50.09  7.10
  0 -6 -10  42.30  6.20
  0  6 10  39.30  9.90
  0  6 -10  38.60  8.10
  0  6 10  36.00  7.30
 -1 -6 -10  9.90  5.20
 -1 -6 -10  -1.80  6.40
 -1 -6 -10  4.20  4.60
 -1  6 -10  5.30  5.60
 -1  6 -10  4.20  3.40
 -1  6 -10  5.20  4.80
  1  6 10  4.10  4.60
  1  6 10  -0.80  4.00
 -2 -6 -10  26.80  7.30
 -2 -6 -10  33.90  6.10
 -2  6 -10  37.00  7.50
 -2  6 -10  29.00  5.90
  2  6 10  35.40  7.00
  2  6 10  23.00  5.40
  3 -7 -10  40.60  9.10
  3 -7 -10  31.10  8.30
 -3  7 10  37.40  8.00
  3  7 -10  37.90  8.90
  2 -7 -10  29.10  7.10
  2 -7 -10  45.60  8.00
  2  7 -10  47.60  9.40
 -2  7 10  34.50  8.00
  1 -7 -10  19.90  6.00
  1 -7 -10  5.60  5.20
  1  7 -10  27.20  7.20
 -1  7 10  11.70  4.20
 -1  7 10  19.80  6.70
  0 -7 -10  32.30  6.70
  0 -7 -10  28.60  6.60
  0 -7 -10  42.90  8.60
  0  7 10  35.00  6.50
  0  7 -10  38.80  8.30
  0  7 10  40.20  8.00
 -1 -7 -10  8.70  5.20
 -1 -7 -10  -1.40  5.50
 -1 -7 -10  6.40  8.20
  1  7 10  7.20  4.30
  1  7 10  2.20  5.50
 -1  7 -10  9.30  4.20
 -1  7 -10  6.60  5.80
 -2 -7 -10  13.70  9.60
 -2 -7 -10  5.50  7.10
 -2 -7 -10  14.40  6.20
  2  7 10  6.10  5.80
 -2  7 -10  0.00  5.50
  2  7 10  9.20  4.80
 -2  7 -10  2.10  6.40
 -2  7 -10  4.60  6.80
  3 -8 -10  34.00  8.40
  3 -8 -10  30.60  8.10
 -3  8 10  24.30  7.60
  3  8 -10  13.00  7.90
  2 -8 -10  98.19  12.50
  2 -8 -10 106.19  14.80
 -2  8 10  80.89  11.50
  2  8 -10  97.59  13.30
  1 -8 -10  59.89  9.70
  1 -8 -10  49.50  8.40
 -1  8 10  43.50  8.70
  1  8 -10  41.20  8.90
  0 -8 -10  22.70  6.50
  0 -8 -10  15.60  9.00
  0 -8 -10  28.10  7.70
  0  8 10  14.40  6.30
  0  8 -10  19.60  8.30
  0  8 10  15.10  5.10
 -1 -8 -10  16.10  8.00
 -1 -8 -10  11.40  8.50
 -1 -8 -10  16.00  6.20
  1  8 10  13.70  6.00
 -1  8 -10  12.60  5.20
  1  8 10  8.60  4.80
 -1  8 -10  12.40  8.10
  2 -9 -10 113.39  12.90
  2 -9 -10  71.39  10.10
 -2  9 10  61.89  10.50
  2  9 -10  62.59  11.40
  1 -9 -10  8.70  6.90
  1 -9 -10  11.50  7.40
 -1  9 10  8.60  5.90
  1  9 -10  14.00  8.10
  0 -9 -10  17.20  7.90
  0 -9 -10  11.00  7.00
  0 -9 -10  33.60  10.50
  0  9 10  22.70  6.00
  0  9 -10  22.40  8.30
  0  9 10  18.50  7.60
  4  0 -11  0.30  6.10
  4  0 -11  -6.20  8.00
  3  0 -11  2.10  4.50
  3  0 -11  2.20  6.10
 -2  0 11  0.10  4.00
 -2  0 11  0.20  2.90
 -1  0 11  8.10  4.10
  1  0 -11  -3.10  3.60
 -1  0 11  3.20  3.20
  1  0 -11  -3.40  3.40
  0  0 11  -0.10  5.50
  0  0 11  2.60  4.30
  0  0 -11  -3.00  4.30
  1  0 11  3.70  3.40
  1  0 11  4.10  3.90
 -1  0 -11  -7.70  4.70
 -2  0 -11  6.30  6.70
  2  0 11  -2.80  3.40
  4 -1 -11  18.40  9.30
  4 -1 -11  25.60  7.60
  4  1 -11  45.50  8.50
  4  1 -11  33.70  9.50
  3 -1 -11 160.28  13.90
  3 -1 -11 174.38  12.70
 -3  1 11 163.88  11.90
  3  1 -11 146.39  14.60
  3  1 -11 160.68  12.10
  2 -1 -11  42.30  8.20
  2 -1 -11  28.30  5.40
  2  1 -11  44.30  7.60
 -2  1 11  39.40  6.80
 -2  1 11  39.70  5.60
 -1 -1 11  75.99  7.50
  1 -1 -11  76.09  6.80
  1 -1 -11  87.09  8.70
  1  1 -11  73.89  8.90
 -1  1 11  71.29  9.00
 -1  1 11  61.09  6.90
  0 -1 -11  42.20  6.70
  0 -1 -11  46.40  5.70
  0  1 11  40.90  9.20
  0  1 11  39.20  7.30
  0  1 -11  50.19  11.10
  0  1 -11  40.20  7.00
  1 -1 11  39.80  6.00
 -1 -1 -11  48.30  7.20
 -1 -1 -11  52.29  8.40
  1  1 11  42.10  7.50
 -1  1 -11  42.90  7.70
  1  1 11  49.80  6.60
 -2 -1 -11  1.30  7.40
 -2 -1 -11  5.70  5.20
  2 -1 11  11.60  4.30
  2  1 11  3.40  5.00
  2  1 11  1.30  3.90
 -2  1 -11  21.10  8.00
  4 -2 -11  67.19  9.80
  4 -2 -11  72.69  12.20
  4  2 -11  75.69  9.70
  4  2 -11 117.99  16.40
  3 -2 -11  75.39  10.50
  3 -2 -11  99.99  9.30
  3 -2 -11  78.49  11.60
 -3  2 11  90.89  9.40
  3  2 -11 126.79  13.60
  2 -2 -11  32.20  7.10
  2 -2 -11  25.80  8.80
  2  2 -11  25.90  6.70
 -2  2 11  25.70  4.70
 -2  2 11  25.10  6.20
  2  2 -11  23.20  5.90
  1 -2 -11  80.39  7.20
 -1 -2 11  53.59  8.30
 -1  2 11  65.79  7.10
  1  2 -11  85.79  11.60
  0 -2 11  12.00  4.60
  0 -2 -11  20.80  6.40
  0  2 -11  7.30  4.90
  0  2 11  13.00  4.90
  0  2 -11  3.30  4.30
  1 -2 11  8.70  4.20
 -1 -2 -11  20.80  4.80
 -1 -2 -11  17.70  6.50
  1  2 11  15.80  5.10
  1  2 11  26.00  5.50
 -1  2 -11  21.70  6.10
 -2 -2 -11  23.00  6.00
 -2 -2 -11  36.20  9.00
  2 -2 11  13.00  4.70
  2  2 11  28.60  7.20
  2  2 11  26.90  5.80
 -2  2 -11  31.70  8.00
  4 -3 -11  17.30  8.00
  4 -3 -11  10.80  8.60
  4  3 -11  9.00  11.30
  3 -3 -11  5.60  4.90
  3 -3 -11  1.90  8.40
  3 -3 -11  1.30  5.50
  3  3 -11  16.70  7.30
 -3  3 11  8.50  5.00
  2 -3 -11  48.90  12.20
  2 -3 -11  36.60  5.90
  2 -3 -11  44.90  6.80
  2  3 -11  40.20  7.30
 -2  3 11  43.50  6.10
  2  3 -11  29.10  7.20
 -2  3 11  28.20  8.80
  1 -3 -11  12.70  4.50
  1 -3 -11  5.30  5.20
  1  3 -11  14.30  5.60
 -1  3 11  12.40  5.60
 -1  3 11  10.30  4.20
  0 -3 11  13.40  4.40
  0 -3 -11  1.10  5.50
  0 -3 -11  6.30  4.50
  0  3 11  8.90  4.60
  0  3 -11  3.30  5.00
  0  3 11  10.00  4.70
  1 -3 11  5.30  3.40
 -1 -3 -11  14.70  6.30
 -1 -3 -11  11.90  5.00
 -1  3 -11  -0.50  5.40
 -1  3 -11  13.10  5.90
  1  3 11  11.30  3.90
  1  3 11  10.90  5.00
  2 -3 11  -0.50  3.50
 -2 -3 -11  -6.20  9.00
 -2 -3 -11  -4.10  5.10
  2  3 11  3.00  3.70
  2  3 11  -1.40  4.40
 -2  3 -11  1.30  6.70
  4 -4 -11  75.29  11.40
  4 -4 -11 100.29  11.90
  4 -4 -11  50.19  10.70
  4  4 -11  90.79  14.30
  3 -4 -11  22.90  7.10
  3 -4 -11  33.50  7.00
  3  4 -11  12.60  8.00
  3  4 -11  14.70  6.70
  2 -4 -11 103.59  10.40
  2 -4 -11 114.79  10.90
  2 -4 -11 106.59  10.20
 -2  4 11 113.69  11.80
  2  4 -11 107.19  12.30
  2  4 -11 135.49  12.50
 -2  4 11 111.89  8.90
  1 -4 -11  93.59  10.60
  1 -4 -11 100.79  9.30
 -1  4 11 100.29  10.70
  1  4 -11 103.09  11.30
 -1  4 11 100.09  8.60
  0 -4 -11  66.99  8.40
  0 -4 -11  60.79  9.60
  0  4 11  54.19  8.50
  0  4 11  70.29  8.50
  0  4 -11  50.29  8.80
  1 -4 11  4.00  3.70
 -1 -4 -11  -2.80  6.50
 -1 -4 -11  10.80  5.00
 -1  4 -11  3.70  5.60
  1  4 11  4.60  4.80
 -1  4 -11  2.20  5.30
  1  4 11  5.50  3.70
  2 -4 11  33.50  6.50
 -2 -4 -11  34.10  7.50
 -2 -4 -11  37.50  10.60
  2  4 11  29.20  6.40
  2  4 11  18.60  6.90
 -2  4 -11  32.20  7.80
  3 -5 -11  26.40  7.40
  3 -5 -11  24.70  7.20
  3  5 -11  29.80  9.20
  3  5 -11  26.00  7.30
 -3  5 11  24.60  7.20
  2 -5 -11  55.99  8.20
  2 -5 -11  56.99  9.00
  2 -5 -11  65.19  9.00
 -2  5 11  82.09  11.10
  2  5 -11  86.49  11.70
 -2  5 11  70.49  8.70
  1 -5 -11  23.10  5.70
  1 -5 -11  21.10  5.90
  1 -5 -11  28.60  7.40
 -1  5 11  24.50  6.70
  1  5 -11  10.00  6.10
 -1  5 11  16.90  5.70
  0 -5 -11  33.90  6.50
  0 -5 -11  52.89  9.20
  0  5 11  37.70  7.80
  0  5 -11  41.10  8.20
  0  5 11  50.19  7.30
 -1 -5 -11  1.30  5.40
 -1 -5 -11  8.00  7.20
 -1  5 -11  -3.50  6.00
  1  5 11  0.10  5.20
  1  5 11  4.30  4.00
 -1  5 -11  -3.50  5.40
 -2 -5 -11  32.50  10.00
 -2 -5 -11  32.50  9.80
  2  5 11  27.90  6.30
 -2  5 -11  36.30  8.80
 -2  5 -11  14.30  7.10
  2  5 11  22.10  6.90
  3 -6 -11  18.50  12.50
  3  6 -11  26.70  8.00
 -3  6 11  23.90  7.40
  3  6 -11  37.00  10.60
  2 -6 -11  22.40  7.20
  2 -6 -11  10.60  6.40
 -2  6 11  21.10  7.80
  2  6 -11  26.20  8.00
  1 -6 -11  32.20  6.70
  1 -6 -11  29.30  6.60
  1 -6 -11  43.90  8.70
  1  6 -11  17.40  7.30
 -1  6 11  34.00  6.10
 -1  6 11  21.50  7.50
  0 -6 -11  6.40  5.60
  0 -6 -11  4.40  6.50
  0  6 11  8.40  6.20
  0  6 -11  4.30  6.50
  0  6 11  6.80  4.50
 -1 -6 -11  29.60  7.20
 -1 -6 -11  5.10  11.80
  1  6 11  15.70  5.40
  1  6 11  23.40  7.30
 -1  6 -11  23.30  11.80
  2 -7 -11  41.90  8.20
 -2  7 11  49.90  9.80
  2  7 -11  38.70  11.20
  1 -7 -11  46.00  9.40
  1 -7 -11  47.20  7.70
  1 -7 -11  42.00  8.70
 -1  7 11  48.00  9.80
  1  7 -11  45.60  9.20
  0 -7 -11  85.89  13.70
  0  7 11  62.79  8.50
  0  7 11  62.99  10.60
 -1 -7 -11  32.60  9.70
 -1 -7 -11  28.10  7.60
 -1  7 -11  24.20  8.20
  1  7 11  23.30  6.50
  1  7 11  21.70  8.00
  1 -8 -11  55.89  8.90
  1 -8 -11  26.10  9.60
 -1  8 11  53.19  10.30
 -1  8 11  31.60  6.90
  1  8 -11  40.60  9.00
 -1  0 12  64.29  7.80
 -1  0 12  73.09  10.10
  0  0 12  66.49  9.50
  0  0 -12  68.29  8.80
  0  0 12  48.30  6.80
  0  0 -12  45.50  8.00
 -1  0 -12  22.00  7.50
  1  0 12  27.30  5.40
 -2  0 -12  28.90  8.80
 -2  1 12  24.30  6.40
 -2  1 12  19.90  4.80
 -1 -1 12  13.60  4.40
 -1  1 12  1.90  3.60
 -1  1 12  9.00  5.70
  0 -1 12  13.90  4.30
  0 -1 -12  14.10  6.50
  0  1 12  18.00  5.00
  0  1 -12  11.40  5.80
  0  1 -12  4.60  5.50
  0  1 12  20.00  6.10
  1 -1 12  3.00  3.70
 -1 -1 -12  4.90  6.70
  1  1 12  -2.00  3.70
  1  1 12  11.60  5.70
 -1  1 -12  3.60  6.20
 -2  2 12  64.59  9.10
 -2  2 12  66.59  8.40
  1 -2 -12  16.00  6.50
 -1  2 12  22.40  5.10
 -1  2 12  30.00  7.50
  1  2 -12  24.10  6.60
  0 -2 -12  43.10  8.40
  0 -2 12  30.40  5.10
  0  2 12  29.10  7.20
  0  2 12  29.70  6.00
  0  2 -12  34.30  7.90
  1 -2 12  10.60  4.30
 -1 -2 -12  12.70  7.30
 -1  2 -12  3.90  6.40
 -1  2 -12  3.50  6.40
  1  2 12  18.00  6.10
  1  2 12  17.90  5.20
  3 -3 -12  88.19  11.70
  3  3 -12  82.29  12.80
  2 -3 -12  90.39  10.10
 -2  3 12  87.29  10.00
 -2  3 12  92.89  10.70
  1 -3 -12  24.90  5.50
  1 -3 -12  19.80  6.50
 -1  3 12  16.60  5.20
  1  3 -12  23.60  6.60
 -1  3 12  26.40  7.40
  0 -3 -12  58.99  7.50
  0 -3 12  44.20  6.40
  0 -3 -12  70.39  10.60
  0  3 12  43.20  6.70
  0  3 12  42.80  8.60
  0  3 -12  36.00  8.00
 -1 -3 -12  31.50  7.10
  1 -3 12  38.20  7.00
 -1 -3 -12  40.20  9.20
 -1  3 -12  33.50  7.80
  1  3 12  24.30  6.50
  1  3 12  40.80  8.00
  3 -4 -12  19.40  6.80
  3 -4 -12  12.60  7.10
  3  4 -12  24.10  9.10
  2 -4 -12  0.10  5.00
  2  4 -12  7.90  6.40
 -2  4 12  11.00  5.90
 -2  4 12  10.20  4.90
  1 -4 -12  9.20  6.60
  1 -4 -12  14.70  5.60
 -1  4 12  10.40  6.50
 -1  4 12  14.00  4.90
  1  4 -12  19.10  7.10
  0 -4 -12  12.60  5.50
  0 -4 -12  18.80  8.00
  0  4 12  12.70  6.40
  0  4 -12  6.30  6.70
  0  4 12  6.20  3.90
 -1 -4 -12  17.60  8.50
  1 -4 12  13.50  5.70
 -1 -4 -12  10.70  6.10
  1  4 12  9.40  5.40
 -1  4 -12  5.10  8.10
  1  4 12  12.30  6.70
  2 -5 -12  3.80  11.60
  2 -5 -12  3.20  6.10
  2  5 -12  -0.10  6.20
 -2  5 12  7.30  6.90
  1 -5 -12  47.30  8.40
  1 -5 -12  38.70  9.20
 -1  5 12  50.79  10.10
 -1  5 12  41.00  6.70
  1  5 -12  40.50  8.30
  0 -5 -12  49.90  8.30
  0 -5 -12  59.79  13.00
  0  5 12  40.40  7.20
  0  5 12  41.40  9.60
  0  5 -12  26.10  13.00
  1 -6 -12  53.99  16.90
 -1  6 12  71.89  8.90
 -1  6 12  79.19  12.10
  1  6 -12  52.09  14.10
  0 -6 -12  27.70  8.70
 -1  0 13  4.20  4.10
  0  0 13  0.40  4.20
 -2  1 13  97.59  12.30
 -2  1 13  77.09  9.20
 -1 -1 13  18.60  4.80
 -1  1 13  28.00  8.00
 -1  1 13  19.20  5.50
  0 -1 -13  7.50  8.10
  0 -1 13  11.70  4.60
  0  1 13  18.20  7.50
  0  1 13  12.70  5.00
 -2  2 13  62.79  8.10
 -1  2 13  13.50  4.90
 -1  2 13  25.60  7.60
  0 -2 -13  8.50  7.20
  0 -2 13  5.20  4.50
  0  2 13  13.70  6.60
  0  2 -13  15.70  6.50
  0  2 13  6.20  4.00
 -1  3 13  22.20  5.40
  0  0  0  0.00  0.00
_computing_structure_solution   'SHELXT 2018/2 (Sheldrick, 2018)'
;
_shelx_hkl_checksum              86040
_shelx_res_file
;
TITL cakmak2_0m_a.res in Pc
CELL 0.71073  4.9916 10.8497 10.0075  90.000  98.411  90.000
ZERR   2.00  0.0005  0.0012  0.0010  0.000  0.003  0.000
LATT -1
SYMM  X, - Y, 1/2 + Z
SFAC C  H  N  O  S
UNIT 20 18 2 2 4
MERG  2
OMIT  -4.00 180.00
OMIT   0  1  0
TWIN
DFIX   0.860  0.020 N1 H1A
EQIV $1 x, -y+1, z+1/2
HTAB C3 O1_$1
HTAB N1 O1_$1
DFIX 1.400 0.020 C9X C10X
DFIX 1.600 0.020 C10X S2X
EADP C8X C9X C10X S2X
FLAT   0.100 C7 C8X C9X C10X S2X
FMAP  2
PLAN  5
ACTA
BOND
BOND  $H
CONF
L.S. 30
WGHT  0.063800  0.130400
FVAR    2.09537  0.70250
C1  1  0.923758  0.770426  0.494708  11.00000  0.06673  0.05241 =
     0.08628  0.00734  0.02104  -0.00762
AFIX 43
H1  2  1.045658  0.828735  0.471632  11.00000  -1.20000
AFIX  0
C2  1  0.877957  0.749528  0.620454  11.00000  0.07961  0.06715 =
     0.07090  -0.00779  -0.00036  -0.01646
AFIX 43
H2  2  0.965531  0.792349  0.694767  11.00000  -1.20000
AFIX  0
C3  1  0.685965  0.657226  0.630715  11.00000  0.06524  0.06039 =
     0.04197  0.00311  0.00993  -0.01544
AFIX 43
H3  2  0.632555  0.631787  0.711559  11.00000  -1.20000
AFIX  0
C4  1  0.585348  0.608453  0.505210  11.00000  0.04552  0.03821 =
     0.03427  0.00592  0.01210  0.01029
C5  1  0.389455  0.509232  0.466246  11.00000  0.04832  0.03692 =
     0.02803  0.00068  0.00841  0.01063
C6  1  0.081379  0.356550  0.537081  11.00000  0.05102  0.05501 =
     0.04631  -0.00434  0.01119  -0.00536
AFIX 23
H6A  2  -0.018353  0.366428  0.446988  11.00000  -1.20000
H6B  2  -0.047345  0.360507  0.600781  11.00000  -1.20000
AFIX  0
O1  4  0.336703  0.474928  0.347602  11.00000  0.08139  0.06131 =
     0.02440  -0.00443  0.01118  -0.00160
S1  5  0.733466  0.678117  0.381718  11.00000  0.08891  0.07270 =
     0.05069  0.00797  0.02802  -0.01418
N1  3  0.275231  0.457419  0.564505  11.00000  0.05872  0.04257 =
     0.02521  -0.00438  0.00954  -0.00149
C7  1  0.216397  0.232600  0.547512  11.00000  0.05122  0.04707 =
     0.04582  0.00052  0.00115  -0.01483
PART  1
C8  1  0.188455  0.146348  0.642765  21.00000  0.18310  0.09069 =
     0.11209  -0.00220  0.03680  -0.03455
AFIX 43
H8  2  0.079631  0.154460  0.710161  21.00000  -1.20000
AFIX  0
C9  1  0.351333  0.041212  0.623956  21.00000  0.18996  0.04770 =
     0.10133  0.01279  -0.04765  -0.01853
AFIX 43
H9  2  0.374235  -0.024442  0.684294  21.00000  -1.20000
AFIX  0
C10  1  0.462295  0.045357  0.517332  21.00000  0.07712  0.04602 =
     0.20094  -0.03846  -0.02805  0.01540
AFIX 43
H10  2  0.554103  -0.020553  0.485586  21.00000  -1.20000
AFIX  0
S2  5  0.423273  0.187258  0.438070  21.00000  0.09067  0.05592 =
     0.09092  0.00550  0.02942  0.02079
PART  2
C8X  1  0.441388  0.187427  0.495599  -21.00000  0.09564  0.06017 =
     0.09101  0.01658  0.01636  -0.01142
AFIX 43
H8X  2  0.533883  0.238491  0.443285  -21.00000  -1.20000
AFIX  0
C9X  1  0.531392  0.064061  0.521665  -21.00000  0.09564  0.06017 =
     0.09101  0.01658  0.01636  -0.01142
AFIX 43
H9X  2  0.667489  0.022299  0.486026  -21.00000  -1.20000
AFIX  0
C10X 1  0.370049  0.020981  0.611913  -21.00000  0.09564  0.06017 =
     0.09101  0.01658  0.01636  -0.01142
AFIX 43
H10X 2  0.364810  -0.060813  0.639202  -21.00000  -1.20000
AFIX  0
S2X  5  0.193163  0.128456  0.663981  -21.00000  0.09564  0.06017 =
     0.09101  0.01658  0.01636  -0.01142
PART  0
H1A  2  0.325476  0.481845  0.644273  11.00000  -1.20000
HKLF 4
REM cakmak2_0m_a.res in Pc
REM R1 = 0.0468 for  2124 Fo > 4sig(Fo) and 0.0545 for all  2441 data
REM  149 parameters refined using   7 restraints
END
WGHT   0.0637   0.1309
REM Highest difference peak 0.242, deepest hole -0.196, 1-sigma level 0.042
Q1  1  0.4909 0.1963 0.5130 11.00000 0.05  0.24
Q2  1  0.2735 0.1579 0.4271 11.00000 0.05  0.22
Q3  1  0.9025 0.7038 0.4375 11.00000 0.05  0.21
Q4  1  0.5909 0.6616 0.4372 11.00000 0.05  0.20
Q5  1  0.4841 0.1092 0.4612 11.00000 0.05  0.20
;
_shelx_res_checksum              13227
_shelxl_version_number           .2013
loop_
_space_group_symop_operation_xyz
'x, y, z'
'x, -y, z+1/2'
loop_
_atom_site_type_symbol
_atom_site_label
_atom_site_fract_x
_atom_site_fract_y
_atom_site_fract_z
_atom_site_U_iso_or_equiv
_atom_site_adp_type
_atom_site_calc_flag
_atom_site_occupancy
_atom_site_disorder_assembly
_atom_site_disorder_group
C C1 0.9238(10) 0.7704(4) 0.4947(5) 0.0675(11) Uani d 1 . .
H H1 1.0457 0.8287 0.4716 0.081 Uiso calc 1 . .
C C2 0.8780(11) 0.7495(5) 0.6205(5) 0.0737(13) Uani d 1 . .
H H2 0.9655 0.7923 0.6948 0.088 Uiso calc 1 . .
C C3 0.6860(9) 0.6572(4) 0.6307(4) 0.0557(10) Uani d 1 . .
H H3 0.6326 0.6318 0.7116 0.067 Uiso calc 1 . .
C C4 0.5853(7) 0.6085(3) 0.5052(3) 0.0387(7) Uani d 1 . .
C C5 0.3895(7) 0.5092(3) 0.4662(3) 0.0375(7) Uani d 1 . .
C C6 0.0814(8) 0.3565(4) 0.5371(4) 0.0504(9) Uani d 1 . .
H H6A -0.0184 0.3664 0.4470 0.060 Uiso calc 1 . .
H H6B -0.0473 0.3605 0.6008 0.060 Uiso calc 1 . .
O O1 0.3367(6) 0.4749(3) 0.3476(2) 0.0554(7) Uani d 1 . .
S S1 0.7335(2) 0.67812(12) 0.38172(11) 0.0690(4) Uani d 1 . .
N N1 0.2752(6) 0.4574(3) 0.5645(3) 0.0418(6) Uani d 1 . .
C C7 0.2164(7) 0.2326(4) 0.5475(4) 0.0486(9) Uani d 1 . .
C C8 0.188(7) 0.146(3) 0.643(4) 0.127(13) Uani d 0.702(8) A 1
H H8 0.0796 0.1545 0.7102 0.153 Uiso calc 0.702(8) A 1
C C9 0.351(5) 0.0412(13) 0.624(2) 0.120(6) Uani d 0.702(8) A 1
H H9 0.3742 -0.0244 0.6843 0.144 Uiso calc 0.702(8) A 1
C C10 0.462(2) 0.0454(10) 0.517(2) 0.113(6) Uani d 0.702(8) A 1
H H10 0.5541 -0.0206 0.4856 0.135 Uiso calc 0.702(8) A 1
S S2 0.4233(5) 0.1873(2) 0.4381(3) 0.0776(9) Uani d 0.702(8) A 1
C C8X 0.441(6) 0.187(2) 0.496(3) 0.082(2) Uani d 0.298(8) A 2
H H8X 0.5339 0.2385 0.4433 0.098 Uiso calc 0.298(8) A 2
C C9X 0.531(7) 0.064(3) 0.522(3) 0.082(2) Uani d 0.298(8) A 2
H H9X 0.6675 0.0223 0.4860 0.098 Uiso calc 0.298(8) A 2
C C10X 0.370(8) 0.021(3) 0.612(4) 0.082(2) Uani d 0.298(8) A 2
H H10X 0.3648 -0.0608 0.6392 0.098 Uiso calc 0.298(8) A 2
S S2X 0.193(2) 0.1285(15) 0.664(2) 0.082(2) Uani d 0.298(8) A 2
H H1A 0.325(13) 0.482(6) 0.644(4) 0.098 Uiso d 1 . .
loop_
_atom_site_aniso_label
_atom_site_aniso_U_11
_atom_site_aniso_U_22
_atom_site_aniso_U_33
_atom_site_aniso_U_12
_atom_site_aniso_U_13
_atom_site_aniso_U_23
C1 0.067(3) 0.052(2) 0.086(3) -0.008(2) 0.021(2) 0.007(2)
C2 0.080(3) 0.067(3) 0.071(3) -0.016(2) 0.000(2) -0.008(2)
C3 0.065(2) 0.060(2) 0.042(2) -0.0154(19) 0.0099(17) 0.0031(16)
C4 0.0455(16) 0.0382(15) 0.0343(15) 0.0103(13) 0.0121(13) 0.0059(12)
C5 0.0483(19) 0.0369(15) 0.0280(13) 0.0106(13) 0.0084(12) 0.0007(12)
C6 0.051(2) 0.055(2) 0.0463(18) -0.0054(17) 0.0112(16) -0.0043(15)
O1 0.0814(19) 0.0613(16) 0.0244(10) -0.0016(13) 0.0112(11) -0.0044(10)
S1 0.0889(8) 0.0727(7) 0.0507(6) -0.0142(6) 0.0280(5) 0.0080(5)
N1 0.0587(17) 0.0426(15) 0.0252(12) -0.0015(12) 0.0095(11) -0.0044(10)
C7 0.051(2) 0.0471(19) 0.0458(18) -0.0148(16) 0.0012(15) 0.0005(15)
C8 0.18(2) 0.091(17) 0.112(19) -0.035(12) 0.037(13) -0.002(12)
C9 0.190(15) 0.048(6) 0.101(9) -0.019(7) -0.048(9) 0.013(6)
C10 0.077(7) 0.046(5) 0.201(14) 0.015(5) -0.028(9) -0.038(7)
S2 0.0907(15) 0.0559(11) 0.0909(15) 0.0208(9) 0.0294(13) 0.0055(11)
C8X 0.096(5) 0.060(4) 0.091(5) -0.011(3) 0.016(3) 0.017(3)
C9X 0.096(5) 0.060(4) 0.091(5) -0.011(3) 0.016(3) 0.017(3)
C10X 0.096(5) 0.060(4) 0.091(5) -0.011(3) 0.016(3) 0.017(3)
S2X 0.096(5) 0.060(4) 0.091(5) -0.011(3) 0.016(3) 0.017(3)
loop_
_atom_type_symbol
_atom_type_description
_atom_type_scat_dispersion_real
_atom_type_scat_dispersion_imag
_atom_type_scat_source
C C 0.0033 0.0016 'International Tables Vol C Tables 4.2.6.8 and 6.1.1.4'
H H 0.0000 0.0000 'International Tables Vol C Tables 4.2.6.8 and 6.1.1.4'
N N 0.0061 0.0033 'International Tables Vol C Tables 4.2.6.8 and 6.1.1.4'
O O 0.0106 0.0060 'International Tables Vol C Tables 4.2.6.8 and 6.1.1.4'
S S 0.1246 0.1234 'International Tables Vol C Tables 4.2.6.8 and 6.1.1.4'
loop_
_geom_angle_atom_site_label_1
_geom_angle_atom_site_label_2
_geom_angle_atom_site_label_3
_geom_angle_site_symmetry_1
_geom_angle_site_symmetry_3
_geom_angle
_geom_angle_publ_flag
C2 C1 S1 . . 111.9(4) ?
C2 C1 H1 . . 124.0 ?
S1 C1 H1 . . 124.0 ?
C1 C2 C3 . . 113.9(4) ?
C1 C2 H2 . . 123.0 ?
C3 C2 H2 . . 123.0 ?
C4 C3 C2 . . 111.6(4) ?
C4 C3 H3 . . 124.2 ?
C2 C3 H3 . . 124.2 ?
C3 C4 C5 . . 131.2(3) ?
C3 C4 S1 . . 110.4(3) ?
C5 C4 S1 . . 118.3(2) ?
O1 C5 N1 . . 121.9(3) ?
O1 C5 C4 . . 121.1(3) ?
N1 C5 C4 . . 117.0(3) ?
N1 C6 C7 . . 112.3(3) ?
N1 C6 H6A . . 109.1 ?
C7 C6 H6A . . 109.1 ?
N1 C6 H6B . . 109.1 ?
C7 C6 H6B . . 109.1 ?
H6A C6 H6B . . 107.9 ?
C1 S1 C4 . . 92.2(2) ?
C5 N1 C6 . . 121.4(3) ?
C5 N1 H1A . . 118(5) ?
C6 N1 H1A . . 121(5) ?
C8 C7 C6 . . 125.1(16) ?
C8X C7 C6 . . 131.9(11) ?
C8X C7 S2X . . 99.6(12) ?
C6 C7 S2X . . 126.1(6) ?
C8 C7 S2 . . 113.0(16) ?
C6 C7 S2 . . 121.9(3) ?
C7 C8 C9 . . 110(3) ?
C7 C8 H8 . . 125.1 ?
C9 C8 H8 . . 125.1 ?
C10 C9 C8 . . 114.1(18) ?
C10 C9 H9 . . 123.0 ?
C8 C9 H9 . . 123.0 ?
C9 C10 S2 . . 112.5(12) ?
C9 C10 H10 . . 123.8 ?
S2 C10 H10 . . 123.8 ?
C7 S2 C10 . . 90.0(6) ?
C7 C8X C9X . . 121(2) ?
C7 C8X H8X . . 119.6 ?
C9X C8X H8X . . 119.6 ?
C10X C9X C8X . . 104(3) ?
C10X C9X H9X . . 128.1 ?
C8X C9X H9X . . 128.1 ?
C9X C10X S2X . . 112(3) ?
C9X C10X H10X . . 124.1 ?
S2X C10X H10X . . 124.1 ?
C10X S2X C7 . . 99.9(16) ?
loop_
_geom_bond_atom_site_label_1
_geom_bond_atom_site_label_2
_geom_bond_site_symmetry_2
_geom_bond_distance
_geom_bond_publ_flag
C1 C2 . 1.331(7) ?
C1 S1 . 1.694(5) ?
C1 H1 . 0.9300 ?
C2 C3 . 1.400(6) ?
C2 H2 . 0.9300 ?
C3 C4 . 1.388(5) ?
C3 H3 . 0.9300 ?
C4 C5 . 1.468(5) ?
C4 S1 . 1.707(3) ?
C5 O1 . 1.235(4) ?
C5 N1 . 1.331(4) ?
C6 N1 . 1.460(5) ?
C6 C7 . 1.501(6) ?
C6 H6A . 0.9700 ?
C6 H6B . 0.9700 ?
N1 H1A . 0.84(3) ?
C7 C8 . 1.36(3) ?
C7 C8X . 1.39(3) ?
C7 S2X . 1.640(18) ?
C7 S2 . 1.685(5) ?
C8 C9 . 1.43(3) ?
C8 H8 . 0.9300 ?
C9 C10 . 1.27(2) ?
C9 H9 . 0.9300 ?
C10 S2 . 1.730(16) ?
C10 H10 . 0.9300 ?
C8X C9X . 1.42(4) ?
C8X H8X . 0.9300 ?
C9X C10X . 1.38(3) ?
C9X H9X . 0.9300 ?
C10X S2X . 1.60(3) ?
C10X H10X . 0.9300 ?
loop_
_geom_hbond_atom_site_label_D
_geom_hbond_atom_site_label_H
_geom_hbond_atom_site_label_A
_geom_hbond_site_symmetry_A
_geom_hbond_distance_DH
_geom_hbond_distance_HA
_geom_hbond_distance_DA
_geom_hbond_angle_DHA
C3 H3 O1 2_565 0.93 2.44 3.304(5) 154.1
N1 H1A O1 2_565 0.84(3) 2.08(3) 2.899(3) 163(6)
loop_
_geom_torsion_atom_site_label_1
_geom_torsion_atom_site_label_2
_geom_torsion_atom_site_label_3
_geom_torsion_atom_site_label_4
_geom_torsion_site_symmetry_1
_geom_torsion_site_symmetry_2
_geom_torsion_site_symmetry_3
_geom_torsion_site_symmetry_4
_geom_torsion
_geom_torsion_publ_flag
S1 C1 C2 C3 . . . . 0.1(6) ?
C1 C2 C3 C4 . . . . -0.3(6) ?
C2 C3 C4 C5 . . . . 178.1(4) ?
C2 C3 C4 S1 . . . . 0.3(5) ?
C3 C4 C5 O1 . . . . -176.1(4) ?
S1 C4 C5 O1 . . . . 1.5(4) ?
C3 C4 C5 N1 . . . . 3.0(5) ?
S1 C4 C5 N1 . . . . -179.4(2) ?
C2 C1 S1 C4 . . . . 0.1(4) ?
C3 C4 S1 C1 . . . . -0.2(3) ?
C5 C4 S1 C1 . . . . -178.3(3) ?
O1 C5 N1 C6 . . . . 0.2(5) ?
C4 C5 N1 C6 . . . . -178.9(3) ?
C7 C6 N1 C5 . . . . 89.6(4) ?
N1 C6 C7 C8 . . . . 113.3(19) ?
N1 C6 C7 C8X . . . . -47.2(15) ?
N1 C6 C7 S2X . . . . 111.4(7) ?
N1 C6 C7 S2 . . . . -66.6(4) ?
C8X C7 C8 C9 . . . . -13(3) ?
C6 C7 C8 C9 . . . . -178.5(13) ?
S2X C7 C8 C9 . . . . -6E1(7) ?
S2 C7 C8 C9 . . . . 1(3) ?
C7 C8 C9 C10 . . . . -7(3) ?
C8 C9 C10 S2 . . . . 9(3) ?
C8 C7 S2 C10 . . . . 2.6(16) ?
C8X C7 S2 C10 . . . . 54(3) ?
C6 C7 S2 C10 . . . . -177.5(5) ?
S2X C7 S2 C10 . . . . 4.3(7) ?
C9 C10 S2 C7 . . . . -6.6(13) ?
C8 C7 C8X C9X . . . . 16(3) ?
C6 C7 C8X C9X . . . . 179.4(13) ?
S2X C7 C8X C9X . . . . 16.8(19) ?
S2 C7 C8X C9X . . . . -117(4) ?
C7 C8X C9X C10X . . . . -6(3) ?
C8X C9X C10X S2X . . . . -9(3) ?
C9X C10X S2X C7 . . . . 17(3) ?
C8 C7 S2X C10X . . . . 12E1(7) ?
C8X C7 S2X C10X . . . . -18(2) ?
C6 C7 S2X C10X . . . . 177.7(17) ?
S2 C7 S2X C10X . . . . -4.1(19) ?

_cod_database_fobs_code 2022621
