#------------------------------------------------------------------------------
#$Date: 2021-02-05 16:53:19 +0200 (Fri, 05 Feb 2021) $
#$Revision: 261799 $
#$URL: file:///home/coder/svn-repositories/cod/cif/2/02/22/2022286.cif $
#------------------------------------------------------------------------------
#
# This file is available in the Crystallography Open Database (COD),
# http://www.crystallography.net/. The original data for this entry
# were provided by IUCr Journals, http://journals.iucr.org/.
#
# The file may be used within the scientific community so long as
# proper attribution is given to the journal article from which the
# data were obtained.
#
data_2022286
loop_
_publ_author_name
'Rosiak, Damian'
'Okuniewski, Andrzej'
'Chojnacki, Jaros\/law'
_publ_section_title
;
 The influence of the type of halogen substituent and its position on the
 molecular conformation, intermolecular interactions and crystal packing
 for a series of 1-benzoyl-3-(halogenophenyl)thioureas
;
_journal_coeditor_code           WP3011
_journal_issue                   1
_journal_name_full               'Acta Crystallographica Section C'
_journal_page_first              11
_journal_page_last               19
_journal_paper_doi               10.1107/S2053229620015594
_journal_volume                  77
_journal_year                    2021
_chemical_formula_iupac          'C14 H11 I N2 O S'
_chemical_formula_moiety         'C14 H11 I N2 O S'
_chemical_formula_sum            'C14 H11 I N2 O S'
_chemical_formula_weight         382.21
_chemical_name_common            1-Benzoyl-3-<i>o</i>-iodophenylthiourea
_chemical_name_systematic
;
1-Benzoyl-3-(2-iodophenyl)thiourea
;
_space_group_crystal_system      triclinic
_space_group_IT_number           2
_space_group_name_Hall           '-P 1'
_space_group_name_H-M_alt        'P -1'
_atom_sites_solution_hydrogens   geom
_audit_creation_method
;
Olex2 1.2
(compiled 2018.05.29 svn.r3508 for OlexSys, GUI svn.r5506)
;
_cell_angle_alpha                84.408(9)
_cell_angle_beta                 89.142(9)
_cell_angle_gamma                65.933(8)
_cell_formula_units_Z            2
_cell_length_a                   6.2410(7)
_cell_length_b                   7.2420(8)
_cell_length_c                   16.709(2)
_cell_measurement_reflns_used    15454
_cell_measurement_temperature    125
_cell_measurement_theta_max      58.91
_cell_measurement_theta_min      5.00
_cell_volume                     686.02(14)
_computing_cell_refinement
;
X-AREA (Stoe & Cie, 2009)
;
_computing_data_collection
;
X-AREA (Stoe & Cie, 2009)
;
_computing_data_reduction
;
X-RED32 (Stoe & Cie, 2009)
;
_computing_molecular_graphics
;
OLEX2 (Dolomanov <i>et al.</i>,  2009)
;
_computing_publication_material
;
OLEX2 (Dolomanov <i>et al.</i>,  2009)
;
_computing_structure_refinement
;
SHELXL2018 (Sheldrick, 2015<i>b</i>)
;
_computing_structure_solution
;
SHELXT (Sheldrick, 2015<i>a</i>)
;
_diffrn_ambient_temperature      125.0
_diffrn_detector_area_resol_mean 6.67
_diffrn_measured_fraction_theta_full 0.989
_diffrn_measured_fraction_theta_max 0.992
_diffrn_measurement_device_type  'Stoe IPDS 2T'
_diffrn_measurement_method       'rotation method, \w scans'
_diffrn_radiation_type           MoK\a
_diffrn_radiation_wavelength     0.71073
_diffrn_reflns_av_R_equivalents  0.0256
_diffrn_reflns_av_unetI/netI     0.0232
_diffrn_reflns_limit_h_max       8
_diffrn_reflns_limit_h_min       -8
_diffrn_reflns_limit_k_max       9
_diffrn_reflns_limit_k_min       -9
_diffrn_reflns_limit_l_max       22
_diffrn_reflns_limit_l_min       -22
_diffrn_reflns_number            7847
_diffrn_reflns_theta_full        25.242
_diffrn_reflns_theta_max         28.976
_diffrn_reflns_theta_min         2.450
_exptl_absorpt_coefficient_mu    2.479
_exptl_absorpt_correction_T_max  0.6438
_exptl_absorpt_correction_T_min  0.4049
_exptl_absorpt_correction_type   integration
_exptl_absorpt_process_details
;
[X-RED32 (Stoe & Cie, 2009), by Gaussian integration,
analogous to Coppens (1970)]
;
_exptl_crystal_colour            colourless
_exptl_crystal_density_diffrn    1.850
_exptl_crystal_description       needle
_exptl_crystal_F_000             372
_exptl_crystal_size_max          0.384
_exptl_crystal_size_mid          0.363
_exptl_crystal_size_min          0.199
_refine_diff_density_max         0.703
_refine_diff_density_min         -0.937
_refine_ls_extinction_method     none
_refine_ls_goodness_of_fit_ref   1.068
_refine_ls_hydrogen_treatment    constr
_refine_ls_matrix_type           full
_refine_ls_number_parameters     172
_refine_ls_number_reflns         3616
_refine_ls_number_restraints     0
_refine_ls_restrained_S_all      1.068
_refine_ls_R_factor_all          0.0284
_refine_ls_R_factor_gt           0.0276
_refine_ls_shift/su_max          0.001
_refine_ls_shift/su_mean         0.000
_refine_ls_structure_factor_coef Fsqd
_refine_ls_weighting_details
'w=1/[\s^2^(Fo^2^)+(0.0390P)^2^+0.7088P] where P=(Fo^2^+2Fc^2^)/3'
_refine_ls_weighting_scheme      calc
_refine_ls_wR_factor_gt          0.0715
_refine_ls_wR_factor_ref         0.0721
_reflns_number_gt                3508
_reflns_number_total             3616
_reflns_threshold_expression     'I > 2\s(I)'
_cod_data_source_file            wp3011sup1.cif
_cod_data_source_block           7
_cod_depositor_comments
'Adding full bibliography for 2022286--2022290.cif.'
_cod_database_code               2022286
_cod_database_fobs_code          2022286
_shelx_space_group_comment
;
The symmetry employed for this shelxl refinement is uniquely defined
by the following loop, which should always be used as a source of
symmetry information in preference to the above space-group names.
They are only intended as comments.
;
_shelx_estimated_absorpt_t_min   0.450
_shelx_estimated_absorpt_t_max   0.638
_shelx_hkl_file
;
  -4  -1  19   75.34    1.65
  -4  -1  20   57.94    1.68
  -4   0  19  150.19    2.03
  -3  -4  13   12.39    0.79
  -3  -4  14   60.99    1.29
  -3   3  13  320.86    2.83
  -3   4  17  288.16    2.94
  -2  -5  12  338.16    2.19
  -2   3   7  446.20    3.89
   0  -6  11  287.50    2.06
   0   1   0  356.00    5.18
   1   8   7  170.27    2.43
   2   9   7  188.29    2.49
   3   3  -3  109.16    1.25
   5   5  -3   67.66    1.06
   5   7  -1  452.14    2.03
   5   9   2  222.63    2.01
   6   5  -3  324.89    1.80
   7   6  -2   84.76    1.27
   8   2  -1  184.73    1.53
  -3  -4  15  142.86    1.61
  -3  -4  16  166.38    1.80
  -3  -1   9  569.45    2.75
  -3   0   9  817.71    3.40
  -3   2  11  684.77    3.50
  -2  -5  13  716.65    3.01
  -2  -4   9  696.44    2.88
  -2  -1   5 3145.16    6.85
  -2   4   9  710.97    5.09
  -2   5  12  473.95    4.44
  -1  -6  15    1.20    1.09
  -1  -5   9 1052.07    3.67
  -1  -4   6  267.05    2.09
  -1  -3   4 1484.19    4.76
   0   8  11   67.27    4.34
   1  -6  10    0.67    0.87
   1   3  -1    9.00    1.04
   2   7   2    4.87    0.96
   3   5  -2 1982.64    4.49
   4  -5   7  220.24    3.94
   4   0  -3 1576.54    4.33
   4   8   1  153.34    1.45
   4   9   3    1.89    0.78
   6   0  -2  190.60    1.61
   6   9   1   34.79    1.21
   7   4  -3  531.43    2.38
   8   5  -2  192.71    1.56
  -3  -4  17   46.28    1.16
  -3  -4  18   42.90    1.15
  -3  -4  19  129.99    1.69
  -3  -3  12 1679.18    4.11
  -3   1  10   98.55    1.44
  -3   3  14  198.39    2.27
  -2  -5  14   15.82    1.18
  -2  -3   7 1026.71    3.45
  -2   0   5 3132.54    7.57
  -2   2   6 1984.84    7.30
   0  -6  13   11.25    1.04
   1  -5   6    5.09    0.91
   2  -6  11   40.68    1.52
   2   8   4  121.66    1.79
   3  -5   6  837.56    5.65
   3   0  -3  234.89    1.98
   3   8   2   65.53    1.28
   4   2  -4 1948.04    4.41
   4   6  -2  350.15    1.83
   4   7  -1  314.04    1.96
   5   0  -3 1256.90    3.88
   5   2  -4 1837.97    4.23
   6   6  -3  848.01    2.78
   6   7  -2   28.95    1.02
   7   5  -3  184.20    1.44
   7   7  -2  131.79    1.53
   7   8  -1   11.83    1.05
  -3  -3  13  918.85    3.12
  -3  -2  11 1278.91    3.79
  -3  -1  10   66.39    1.29
  -3   0  10   24.13    1.10
  -3   2  12 1675.53    5.28
  -3   3  15  292.14    2.77
  -2  -5  17    0.97    1.15
  -2  -5  18    7.79    1.21
  -2  -4  10  997.34    3.38
  -2  -2   6 2064.67    5.24
  -1  -5  10 1275.22    3.96
   0  -6  14  107.04    1.60
   0   5   3  514.43    4.19
   1  -1  -1  241.16    4.53
   1   7   4  363.43    3.05
   2   4  -2 1570.13    4.32
   2   6   0 1837.98    4.82
   3   7   0  231.96    1.82
   3   9   4  402.48    2.78
   4   3  -4  802.09    2.67
   5   4  -4  442.47    1.94
   5   7  -2  195.34    1.57
   5   9   1  142.90    1.68
   6   3  -4  137.94    1.24
   6   4  -4 1052.46    3.09
   7   6  -3  326.70    1.95
   8   1  -1   97.92    1.42
  -3  -3  14  274.15    1.84
  -3  -3  15  712.25    2.90
  -3  -3  16  148.37    1.73
  -3  -2  12  735.86    2.97
  -3   1  11  764.70    3.39
  -3   3  16   87.42    1.85
  -2  -4  11    0.22    1.04
  -1  -5  11  103.60    1.54
  -1  -4   7 1140.97    3.88
   0  -6  15    6.05    0.86
   0  -5   8  531.67    2.71
   1  -6  13   -1.48    1.08
   1   6   2  408.60    2.91
   2  -5   6  580.80    3.62
   4   4  -4  651.69    2.41
   4   9   2   67.20    1.37
   5   5  -4 1044.53    2.95
   6   2  -4  266.22    1.64
   6   5  -4  154.37    1.37
   6   9   0   25.75    1.31
   7  -1   0   34.48    1.12
   7   4  -4  188.43    1.57
   8   5  -3  256.07    1.78
  -3  -3  17   48.79    1.12
  -3  -1  11    4.73    0.75
  -3   0  11 6251.37    8.97
  -3   2  13  421.16    2.80
  -3   3  17  233.32    2.44
  -3   3  18  310.87    2.96
  -2  -4  12  323.10    2.15
  -1  -3   5  813.16    3.53
   1  -5   7  128.10    1.79
   2   1  -3  350.65    2.35
   2   9   6  306.96    2.97
   7   3  -4    6.66    0.61
   7   5  -4    6.40    0.77
   7   7  -3  221.89    1.74
   7   8  -2    8.00    1.13
   8   6  -3   24.56    1.01
  -3  -2  14  323.12    2.13
  -3  -2  21  269.80    2.46
  -3  -1  12  461.91    2.45
  -3   1  12    4.43    0.96
  -3   2  14  698.99    3.46
  -3   3  19   41.79    1.54
  -2  -4  13  260.77    2.01
  -2  -2   7  144.60    1.57
  -2  -1   6 2602.78    6.16
  -2   1   6  784.53    4.18
  -2   4  10   88.24    2.03
  -1  -5  13  101.88    1.47
   0  -5   9    1.70    0.94
   1   8   6  158.71    2.45
   2   3  -3  997.61    3.48
   2   7   1  610.47    3.04
   2   8   3  409.37    2.86
   3   1  -4 3604.69    6.58
   3   3  -4 1796.60    4.01
   3   5  -3  342.82    2.01
   3   6  -2  598.76    2.62
   3   8   1  385.01    2.35
   3   9   3  225.28    2.31
   4  -5   8    2.64    1.49
   4   5  -4 1209.58    3.30
   4   6  -3  146.95    1.26
   4   7  -2  888.49    3.09
   5   9   0   14.12    1.19
   6  -2   0    7.27    1.18
   6   6  -4  729.23    2.48
   6   8  -2    2.68    0.84
   7   2  -4   42.69    1.07
   8   1  -2  186.71    1.70
   8   2  -3    2.87    0.82
  -3  -2  15  152.02    1.48
  -3  -2  17    4.10    1.16
  -3  -2  18  226.60    2.08
  -3  -2  19  225.41    2.06
  -3  -2  20   22.21    1.18
  -3   2  15  241.90    2.17
  -2  -4  14  204.17    1.69
  -2  -4  15  134.67    1.66
  -2  -4  16  517.20    2.69
  -2  -4  17  182.26    1.92
  -2  -4  18   18.06    1.37
  -2  -4  19  315.53    2.42
  -2   0   6 4803.36    8.98
  -2   3   8 1283.42    5.97
  -1  -5  15    9.67    1.15
  -1  -5  17  135.58    1.72
  -1  -4   8  550.64    2.67
  -1   7  14   43.06    2.81
   1   1  -2 1516.29    5.88
   3  -5   7  114.41    2.15
   3  -4   3  636.15    5.92
   3   7  -1  164.76    1.58
   4   9   1  383.72    2.44
   5   2  -5   39.75    1.01
   5   4  -5    8.77    0.62
   5   6  -4  563.24    2.30
   5   7  -3   60.74    0.97
   5   8  -2  104.60    1.32
   6  -1  -2  539.04    3.14
   6   3  -5   11.29    0.68
   6   4  -5    1.16    0.64
   6   5  -5   47.07    0.96
   8   4  -4    0.71    0.69
   8   5  -4   28.33    0.94
   8   6  -4   -0.69    0.98
  -3  -1  19   57.08    1.58
  -3  -1  20   53.63    1.68
  -3  -1  21   68.91    1.68
  -3   0  13    7.75    0.77
  -3   1  14  154.95    1.70
  -3   2  16   75.53    1.51
  -3   2  17  340.42    2.55
  -3   2  18  144.68    1.94
  -3   2  19    0.91    1.29
  -3   2  20    1.04    1.40
  -2   2   7    7.33    1.11
  -2   5  14  125.53    2.24
  -1  -4   9    6.66    1.06
  -1  -2   4  814.17    3.84
  -1  -1   3 1942.50    6.65
   0  -5  10  139.11    1.49
   1  -5   8  137.65    1.63
   1   4  -1  740.71    3.53
   2  -5   7   76.23    1.54
   2   5  -2  734.84    3.02
   3   4  -4   16.86    0.64
   4   0  -4 1381.74    4.05
   4   2  -5  810.27    2.83
   4   3  -5 1725.89    3.84
   5   5  -5  418.84    1.97
   7  -1  -1  164.17    2.04
   7   4  -5   88.33    1.10
   7   5  -5  132.81    1.44
   7   7  -4   94.35    1.36
   7   8  -3   64.35    1.39
  -3  -1  17  179.70    1.70
  -3   0  16   -0.90    1.10
  -3   0  17   83.88    1.45
  -3   0  18  125.82    1.74
  -3   0  19  256.53    2.19
  -3   0  20    6.90    1.36
  -3   0  21  141.95    1.84
  -3   1  15  877.49    3.52
  -3   1  17  224.87    2.18
  -3   1  18  561.11    3.17
  -3   1  19   20.22    1.43
  -3   1  20   81.40    1.77
  -2  -1   7  120.60    1.52
  -1  -3   6 5099.48    8.31
   0  -4   6   56.51    1.26
   1   7   3  534.59    3.59
   1   9   9  234.62    4.22
   2   4  -3 4461.79    7.08
   2   9   5    1.02    1.15
   4   4  -5  959.23    2.80
   5   9  -1  236.20    2.02
   6   8  -3  363.82    2.06
   7   6  -5    2.67    1.01
  -2  -3  13  502.27    2.55
  -2  -3  20   99.15    1.73
  -2   4  11 1195.69    5.68
  -2   5  16   22.38    1.58
  -2   5  17  342.42    3.51
   0  -5  13   13.77    1.15
   1   6   1  436.75    2.93
   2  -5   8  537.88    3.27
   3  -5   8    4.54    1.30
   3   0  -4 1506.59    4.64
   3   6  -3  851.19    3.03
   3   8   0  259.74    2.02
   3   9   2   32.50    1.32
   4   6  -4   10.85    0.63
   4   9   0  142.83    1.67
   5   6  -5  115.05    1.24
   5   7  -4  262.00    1.76
   6   3  -6  114.18    1.27
   6   4  -6  800.04    2.71
   8   4  -5   27.30    1.09
   8   5  -5  173.71    1.54
  -2  -3  14   77.80    1.37
  -2  -3  15  691.67    2.91
  -2  -3  16  151.94    1.71
  -2  -3  17    3.06    1.18
  -2  -3  18   55.65    1.33
  -2  -3  19   48.91    1.19
  -2   0   7    9.82    0.97
  -2   1   7   99.30    1.58
  -2   3   9  703.98    4.26
  -1  -4  11  374.17    2.27
   0  -5  14  299.53    2.00
   0  -5  15  214.63    1.84
   0  -5  16   20.86    1.17
   0  -5  17  431.00    2.43
   0  -4   7  648.28    3.15
   1  -5  10    3.80    0.97
   1   3  -2  757.64    3.60
   2   7   0  400.92    2.49
   2   8   2  150.99    1.90
   3   2  -5 3520.75    6.00
   3   3  -5 1872.62    4.20
   3   5  -4  145.70    1.29
   3   7  -2  422.15    2.27
   4   5  -5 1900.46    3.96
   5   4  -6  414.02    1.86
   5   8  -3   13.89    0.77
   6   0  -4  583.52    2.70
   6   5  -6   77.12    1.18
   7   7  -5    0.70    0.98
   7   8  -4   62.33    1.18
   8   3  -5  764.45    2.89
  -2   4  12  659.11    4.15
  -1  -4  12   10.78    0.85
  -1  -4  17   77.38    1.52
  -1  -4  18    0.83    1.29
  -1  -4  19   79.83    1.35
  -1  -2   5 1242.07    4.51
   1  -5  11  371.89    2.33
   1  -4   5 1996.02    6.04
   2  -5   9  460.99    3.01
   2   2  -4  739.69    3.01
   4  -2  -2   26.15    1.23
   4   3  -6   35.08    0.95
   5  -4   5  153.45    4.66
   5   5  -6    1.66    0.83
   6   2  -6 1484.09    3.74
   6   6  -6  391.31    1.99
   6   7  -5   44.78    0.91
   6   8  -4  499.26    2.38
   7   3  -6  290.12    1.82
   7   6  -6  473.25    2.31
  -2  -2  20  108.19    1.75
  -2  -2  21   39.72    1.30
  -2   2   8 2611.19    7.35
  -1  -4  15    1.05    0.87
   1  -5  12  501.72    2.64
   1  -5  13   26.96    1.13
   1  -5  16    0.99    1.21
   2  -4   4   84.30    1.78
   2   1  -4  833.35    3.52
   2   3  -4   11.32    0.65
   2   5  -3 1422.92    4.11
   3  -5   9  323.18    2.85
   3   4  -5 1432.95    3.59
   3   8  -1   26.38    1.07
   4   2  -6    3.38    0.80
   4   4  -6  356.57    1.84
   4   6  -5  283.62    1.73
   4   7  -4  446.12    2.23
   5   7  -5  337.95    1.96
   6  -2  -1    0.37    1.22
   6  -1  -3  682.61    3.51
   8   2  -5   53.92    1.16
   8   4  -6    4.20    0.98
   8   5  -6  173.04    1.55
  -2  -2  17  211.29    1.95
  -2  -2  18  137.44    1.75
  -2  -2  19  328.41    2.19
  -2  -1   9 2291.70    5.43
  -2  -1  22  113.69    2.09
  -2   0   8 3856.42    7.53
  -2   1   8 1053.40    4.37
   1  -5  14  337.42    2.15
   1  -5  15  161.04    1.62
   1   5  -1  716.43    3.56
   1   9   8   36.55    2.51
   2  -5  10   76.58    1.46
   2   6  -2  780.01    3.21
   3  -5  10  132.79    2.00
   3  -2  -2  439.76    3.83
   3   9   1  264.76    2.34
   4   0  -5  289.13    1.94
   4   9  -1   83.26    1.29
   5   6  -6  488.55    2.15
   5   8  -4    1.74    0.95
   6   3  -7  142.30    1.41
   7   7  -6   10.94    1.02
  -2  -2  14   17.55    0.90
  -2  -2  15  274.72    1.87
  -2  -2  16  825.11    3.06
  -2  -1  10 1142.01    3.87
  -2   4  14  202.83    2.36
  -1  -3  20  180.27    2.11
  -1  -1   4 1833.41    6.18
  -1   5   7    1.72    1.78
   0   5   2 1551.76    7.22
   1   4  -2  319.91    2.34
   1   7   2  244.47    2.59
   2  -5  13   30.12    1.33
   2  -5  14    0.61    1.10
   2   4  -4   12.74    0.95
   2   8   1  211.58    2.15
   3  -5  11   18.68    1.50
   3   5  -5  923.39    3.01
   3   6  -4    2.47    0.66
   4  -4   4  146.19    3.20
   4  -1  -4 2233.52    5.78
   4   1  -6    7.60    0.79
   4   5  -6   52.29    0.93
   5  -2  -2  109.41    1.98
   5   3  -7 1144.40    3.13
   5   4  -7   94.17    1.01
   5   9  -3   15.23    1.23
   6   7  -6    0.28    0.67
   7   3  -7   81.07    1.26
  -2  -1  11  374.95    2.33
  -2  -1  19  107.42    1.78
  -2  -1  20    0.47    1.01
  -2   0   9 3597.11    7.13
  -2   0  21   32.46    1.62
  -2   0  22   98.94    1.68
  -2   1  22   95.93    2.04
  -2   2   9 2086.40    6.22
  -2   3  11  843.67    4.24
  -2   4  15  572.29    3.68
  -2   4  17   18.90    1.41
  -2   4  18  299.95    2.77
  -1  -3  10 2663.64    5.70
  -1  -3  19   17.83    1.35
   0  -4  10  142.27    1.62
   0  -4  18   18.82    1.26
   0  -4  19    7.04    0.94
   0  -3   5  153.81    1.89
   1  -4   6  170.83    1.86
   1   6   0 1446.59    5.04
   2   7  -1   37.54    1.15
   3  -5  12   73.84    1.64
   3   3  -6   46.71    0.97
   5   2  -7  689.82    2.57
   5   5  -7 1290.84    3.20
   6   2  -7 1342.27    3.57
   8   4  -7   24.35    1.13
  -2  -1  12 2344.96    5.25
  -2  -1  13  645.68    2.94
  -2  -1  14  196.93    1.89
  -2  -1  15  486.80    2.66
  -2  -1  16  709.90    3.11
  -2  -1  17   63.46    1.57
  -2   0  10  132.22    1.62
  -2   0  20  103.69    1.84
  -2   1   9 1458.98    4.87
  -2   1  21  136.05    2.01
  -2   3  20   33.18    1.58
  -1  -3  11   43.81    1.32
  -1  -3  12  738.05    3.09
  -1  -3  16  166.32    1.77
  -1  -3  17  290.84    2.16
  -1  -3  18   42.54    1.11
   0  -4  12   47.49    1.37
   0  -4  14  259.64    2.01
   0  -4  17  104.66    1.31
   1   8   4  143.91    2.40
   3  -4   4    4.01    1.26
   3   2  -6 2255.74    4.66
   3   4  -6 1802.03    4.06
   4   3  -7 1317.68    3.28
   4   4  -7  847.38    2.70
   4   7  -5  881.15    3.01
   5   6  -7  286.75    1.74
   5   7  -6  186.27    1.49
   5   8  -5  526.51    2.47
   6   8  -6   10.77    1.05
   7   1  -6  151.07    1.47
   7   2  -7   25.57    0.95
   8   2  -6   24.15    1.04
   8   3  -7    2.36    0.90
  -2   0  18  228.28    2.12
  -2   0  19  621.82    3.06
  -2   1  10   31.40    1.12
  -2   1  20   30.92    1.46
  -2   2  10   23.76    1.02
  -2   3  12  775.76    3.93
  -2   3  13  544.09    3.42
  -2   3  18  214.66    2.27
  -2   3  19   86.67    1.74
  -1  -3  13  642.30    2.76
  -1  -3  14    9.22    0.92
  -1  -3  15   17.48    0.93
  -1  -2   7   27.41    1.14
  -1  -2  21    1.36    1.41
   1   3  -3 3722.95    7.73
   2  -4   5 1619.83    5.78
   2   0  -4    3.44    0.75
   2   2  -5 3211.42    6.31
   2   3  -5 1824.69    4.57
   2   6  -3 1014.90    3.58
   3   0  -5 2370.94    5.64
   4   2  -7  376.74    2.02
   4   5  -7  251.44    1.63
   5   4  -8  708.69    2.51
   6  -1  -4    2.54    1.10
   6   3  -8   93.11    1.24
   6   5  -8  354.53    1.83
   6   7  -7  199.67    1.57
   7  -1  -3  197.19    2.31
   7   4  -8  142.22    1.41
   7   5  -8    0.60    0.77
   7   6  -8    9.12    1.08
  -2   0  13  419.50    2.56
  -2   0  14   29.72    1.18
  -2   0  15  358.15    2.38
  -2   0  17   29.35    1.19
  -2   1  11  387.23    2.58
  -2   1  18  523.16    2.84
  -2   1  19  151.49    1.84
  -2   2  11 1683.95    5.27
  -2   2  18  400.40    2.81
  -2   2  19  419.20    2.91
  -2   3  14  400.62    2.85
  -2   3  15  963.33    4.14
  -2   3  16   87.39    1.61
  -2   3  17  156.26    1.90
  -1  -2  20  152.07    1.93
  -1  -1   5  671.81    3.64
  -1   6  11  449.59    4.81
   0   8  11   70.60    4.42
   1  -4  18  309.20    2.38
   1   1  -3 2048.57    6.53
   3  -1  -4  538.27    3.27
   3   1  -6   52.38    1.05
   3   5  -6  472.46    2.20
   3   6  -5  932.41    3.03
   3   7  -4   29.99    1.10
   5   0  -6 1595.55    4.06
   5   1  -7 1340.71    3.62
   5   3  -8  942.06    2.81
   5   5  -8  233.95    1.61
   7   0  -5  162.15    1.84
   7   3  -8    1.38    0.89
  -2   1  17    5.89    1.13
  -2   2  12  511.34    2.93
  -2   2  13  162.28    1.82
  -2   2  15  258.25    2.18
  -2   2  17   18.44    1.34
  -1  -2   8  129.10    1.61
  -1  -2  19  391.76    2.41
  -1  -1  22   76.84    1.80
   0   8  10    0.00    0.69
   1  -4  17   42.35    1.36
   1   5  -2    8.03    0.95
   1   7   1   44.76    1.49
   1   9   7  171.62    4.16
   2   1  -5 3194.28    6.64
   2   4  -5 1063.02    3.49
   3   9  -1    1.08    1.05
   4   0  -6  106.69    1.31
   4   1  -7 2447.91    5.00
   4   7  -6  293.74    1.94
   5  -4   6   13.49    1.83
   5   2  -8   98.77    1.23
   5   7  -7  349.18    2.09
   6   0  -6  498.11    2.44
   6   8  -7   68.14    1.32
  -1  -2  17  569.53    2.83
  -1  -2  18  109.89    1.42
  -1  -1  21   69.76    1.69
  -1   0   4  293.82    2.93
  -1   3   4  465.58    6.50
  -1   6  12  528.70    4.66
   0  -3  18  637.84    3.04
   1  -4   9  536.51    2.66
   1  -4  10 2072.79    5.09
   1  -4  15   54.04    1.34
   1  -4  16   43.14    1.09
   1   4  -3 3150.11    6.85
   2  -4   6  395.45    2.80
   2   9   2    8.34    1.29
   3   3  -7  456.03    2.12
   4  -4   5    1.51    1.38
   4   3  -8  490.63    2.14
   4   4  -8   99.94    1.18
   4   6  -7  145.83    1.29
   5  -1  -5    1.47    0.88
   5   6  -8   91.42    1.08
   6   4  -9  315.62    1.93
   6   7  -8  127.22    1.34
   7   1  -7    3.97    0.87
   7   2  -8  320.11    2.04
   7   4  -9  447.00    2.31
  -1  -2  14 1197.44    3.85
  -1  -2  15   42.85    1.47
  -1  -2  16  821.11    3.09
  -1  -1   6 2086.43    5.99
  -1  -1  20  352.74    2.50
  -1   0  22  143.12    2.08
  -1   6  13   23.55    1.67
  -1   6  16   45.43    2.03
  -1   6  17   11.01    1.52
   1  -4  11  250.17    1.92
   1  -4  12  395.08    2.29
   1  -4  13   23.23    1.10
   1  -4  14   99.92    1.30
   1   8   3  596.73    4.34
   2  -4  17    1.03    1.39
   3  -4   5  408.48    3.27
   3   2  -7   36.14    1.00
   3   4  -7   14.20    0.76
   3   6  -6 1018.27    3.23
   4  -2  -3 1499.31    6.02
   4   2  -8 1927.46    4.27
   4   5  -8 1297.08    3.40
   5   3  -9  295.55    1.79
   5   4  -9    2.31    0.86
   6   3  -9  133.57    1.28
   6   6  -9   22.63    0.97
   7   3  -9    5.20    0.95
  -1  -1  19  198.21    1.99
  -1   6  14   77.22    1.97
   0  -3  15  271.72    2.10
   0  -3  16   67.90    1.22
   0  -2  21  142.41    1.90
   2  -4   7  182.95    1.93
   2  -4  16  297.64    2.37
   2   8  -1  175.06    2.01
   3   5  -7  208.09    1.60
   3   7  -5   58.46    1.02
   4   9  -4   43.87    1.38
   5   5  -9    3.69    0.63
   5   7  -8  304.53    1.95
   5   8  -7    8.38    1.07
   6   8  -8   39.02    1.30
   7  -1  -4   47.50    1.62
  -1  -1  18    1.86    1.10
  -1   0  21  102.37    1.59
  -1   1  22  201.66    2.17
  -1   5   8  631.26    5.73
   0  -2  20    1.41    1.32
   0   5   1   63.57    1.84
   2  -4   8  296.61    2.29
   2  -4  15  127.63    1.73
   2   2  -6 2033.43    4.92
   2   3  -6 1402.97    3.93
   3  -4   6  339.82    2.92
   3   0  -6  975.00    3.64
   3   1  -7 1285.55    3.88
   3   9  -2  218.41    2.13
   4   6  -8  618.66    2.49
   4   7  -7  158.18    1.41
   6   0  -7  341.00    2.05
   6   4 -10   93.39    1.29
   6   5 -10  394.24    2.05
   7   4 -10   72.07    1.34
   7   5 -10  496.71    2.36
  -1  -1  16  147.80    1.75
  -1  -1  17  121.16    1.44
  -1   0   5 4170.73    9.77
  -1   0  20   95.13    1.55
  -1   1  21   15.04    1.51
  -1   2  22  295.66    2.61
  -1   5  19  329.67    3.16
   1  -3  18   16.32    1.21
   1   2  -4  774.17    3.65
   1   3  -4 1526.61    4.93
   1   7   0  437.62    3.19
   1   9   6  158.38    3.99
   2  -4  11  109.39    1.50
   2  -4  12  240.86    2.00
   2  -4  13  129.59    1.67
   2   4  -6 4145.67    6.74
   3  -4  15  199.56    2.29
   3   3  -8  989.47    3.03
   4   0  -7  911.07    3.31
   4   1  -8 2465.16    5.00
   6   3 -10  571.01    2.37
   7   1  -8  120.19    1.50
  -1  -1   8   37.60    1.03
  -1  -1  15  734.95    3.11
  -1   0  19  629.34    2.93
  -1   1   4   37.26    1.39
  -1   1  20  238.94    2.34
  -1   3  21   23.48    1.66
  -1   5  18  266.10    2.91
   0  -2  18   19.82    1.31
   3  -4   7   14.23    1.09
   3  -4  14   76.43    1.69
   3  -1  -5 3652.78    8.18
   3   4  -8 3118.39    5.31
   3   6  -7   60.54    1.24
   4  -4   7  458.80    3.73
   4   2  -9   61.13    1.09
   4   5  -9   36.60    0.82
   5   3 -10  722.50    2.60
   5   4 -10  347.84    1.75
   5   5 -10  158.37    1.41
   5   7  -9   30.30    1.17
   5   8  -8   81.53    1.40
  -1  -1   9 2567.37    5.99
  -1   0  17  367.24    2.68
  -1   0  18   59.74    1.28
  -1   1  19  243.24    2.23
  -1   2   4  672.67    6.00
  -1   4  19  398.13    3.14
  -1   5   9  885.65    6.02
  -1   5  17    5.74    1.36
   1  -3  16   10.38    1.16
   1   1  -4 1916.20    6.12
   1   4  -4 1352.65    4.45
   2   1  -6 2714.68    5.97
   2   5  -6  509.59    2.49
   3  -4   8   88.72    1.57
   3  -4   9  259.51    2.39
   3  -4  10  252.30    2.47
   3  -4  13  486.65    3.01
   3  -2  -3   89.55    2.06
   3   2  -8 1669.07    3.96
   3   5  -8   19.90    0.93
   3   9  -3   49.56    1.37
   4  -4  12   29.83    1.70
   4   7  -8  110.95    1.44
   4   8  -7    1.91    1.02
   5   1  -9  563.55    2.41
   6  -2  -3  266.68    3.09
   6   2 -10  529.51    2.27
   6   5 -11  246.04    1.80
   7   0  -7  118.94    1.77
   7   4 -11   44.65    1.22
   7   5 -11    8.27    0.90
  -1   0   6 3881.84    9.03
  -1   0  16 1453.93    4.51
  -1   1  18   22.40    1.30
  -1   2  19  566.36    3.12
  -1   5  16  280.83    2.79
   0   0  22    2.52    1.47
   1  -2  20  110.16    1.72
   2  -3  18   58.67    1.51
   2   3  -7 1011.73    3.36
   2   7  -4  418.26    2.51
   2   9   0  234.18    2.56
   4  -4   9  105.38    1.96
   4  -4  10  511.17    3.50
   4  -1  -6  266.07    2.09
   4   4 -10   20.65    0.90
   4   6  -9  374.72    1.90
   5   0  -8   13.68    0.80
   5   2 -10   85.19    1.20
   6  -1  -6  465.29    3.16
   7  -1  -5  365.35    3.01
  -1   0  15  196.90    2.03
  -1   1  17    3.12    1.22
  -1   4  18   99.74    1.79
  -1   5  10  126.96    2.37
  -1   5  14  234.41    2.78
  -1   5  15  544.16    3.75
   0  -2  15   31.23    1.07
   0   1  -1 2010.44   10.60
   2  -3  17   82.28    1.56
   2   2  -7  143.66    1.51
   2   4  -7  535.67    2.58
   3   0  -7  462.74    2.54
   3   1  -8 1269.48    3.80
   4   1  -9    1.20    0.88
   4   9  -6    2.45    1.25
   5  -2  -4  852.42    4.95
   6   0  -8   14.73    0.88
   7   3 -11   71.34    1.15
  -1   0   7 1621.21    5.52
  -1   0  13  406.87    2.55
  -1   0  14  294.99    2.08
  -1   1   5 1571.91    6.68
  -1   1  16 1019.54    3.94
  -1   2  18  218.17    1.92
  -1   5  11  173.59    2.52
  -1   5  12  655.43    4.20
  -1   5  13  418.55    3.42
   0  -2  13 1859.76    4.79
   0  -1  18  262.34    2.22
   0   0  21    5.64    1.10
   0   1  22   66.11    1.87
   0   6   2 1288.74    7.69
   1  -3   7 1084.80    4.16
   1  -3   8  572.74    3.02
   1   3  -5  838.50    3.57
   1   5  -4 3186.10    6.81
   1   7  -1  695.38    3.85
   1   9   5   12.51    2.24
   2   8  -3  594.15    3.19
   3   3  -9  316.58    1.74
   3   4  -9  973.22    2.95
   3   6  -8 1117.34    3.34
   4  -2  -4 1494.01    6.10
   4   0  -8  372.73    2.18
   4   2 -10    3.39    0.82
   4   7  -9   52.41    1.25
   4   8  -8  295.24    2.06
  -1   0   8 3950.79    8.19
  -1   0   9 1154.52    4.33
  -1   0  10  484.69    2.87
  -1   0  11  234.37    2.09
  -1   0  12  729.76    3.27
  -1   2  17  223.20    2.00
  -1   3   5 1486.31    8.94
  -1   4  16  553.81    3.32
   0  -2   8 1122.54    4.31
   0  -2  11  632.84    3.01
   0  -2  12  150.86    1.63
   0  -1  17 1051.88    3.68
   0   0  20  291.82    2.33
   1  -3   9  209.49    1.81
   1  -1  21  217.00    2.10
   1   2  -5 1214.81    4.36
   1   6  -3  913.78    3.94
   2  -3  16  111.21    1.43
   2   5  -7  318.17    2.06
   2   7  -5    5.67    1.04
   2   9  -1   17.15    1.50
   3   2  -9 4171.95    6.16
   3   5  -9  424.81    2.19
   4   6 -10   42.90    0.94
   5   1 -10 2450.33    4.84
   6   2 -11   19.66    0.75
   6   6 -12    0.83    0.97
   7   2 -11  112.18    1.36
  -1   1  14   64.76    1.53
  -1   2  16  652.05    3.25
  -1   3  16  506.17    3.02
  -1   4   7   15.85    1.64
  -1   4  15  526.70    3.31
   0  -1  16  304.38    2.19
   0   0  19  130.07    1.77
   0   1  21  315.78    2.60
   0   2  22  150.94    2.21
   1  -2  17   41.95    1.32
   1   4  -5  674.91    3.24
   2  -3  15  224.89    1.82
   2  -2  20    0.64    0.97
   4   3 -11  571.31    2.32
   4   9  -7    3.92    1.27
   5   2 -11  321.61    1.78
   5   4 -12  317.70    1.89
   5   7 -11   14.74    1.16
   5   8 -10   11.78    0.93
   6   3 -12   51.45    0.96
  -1   2  15  302.75    2.34
  -1   3  15  800.71    3.65
  -1   4  13  274.80    2.75
  -1   4  14   24.52    1.27
   0   1  20  492.05    2.95
   1  -2  16   55.41    1.35
   2  -3  13    1.79    1.11
   2  -3  14  432.87    2.37
   2   3  -8  145.98    1.37
   2   4  -8  732.61    2.90
   3  -1  -6    6.48    0.89
   3   3 -10  303.67    1.81
   3   4 -10    7.05    0.95
   3   6  -9  583.69    2.55
   3   7  -8   23.05    1.08
   4  -1  -7 1377.13    4.54
   4   1 -10  196.65    1.64
   4   7 -10    0.79    1.08
   5   3 -12    1.38    0.90
   5   6 -12  160.98    1.98
   6  -2  -4    7.89    1.31
   6   5 -13  181.44    1.70
  -1   1   7  954.69    4.65
  -1   2  14   15.46    1.14
  -1   3  14   44.91    1.35
  -1   4   8 1826.48    7.85
  -1   4  12  949.83    4.64
   0  -1  15   82.80    1.32
   0   0  18   31.33    1.20
   0   2  -2  702.97    4.81
   0   2  21    3.39    1.12
   0   3  21   52.62    1.80
   0   4  21   68.94    2.03
   0   7  16  169.23    2.97
   1   1  -5  750.38    3.70
   1   7  -2  224.48    2.34
   2  -3  12  689.44    3.02
   2  -2  18  387.17    2.62
   2   2  -8 1526.89    4.09
   2   8  -4   81.28    1.59
   3  -3  15   80.47    1.66
   3   0  -8 2390.09    5.50
   3   1  -9  595.28    2.59
   3   5 -10  334.60    2.00
   3   8  -7    7.18    1.16
   4   0  -9  118.84    1.39
   4   2 -11 1504.97    3.72
   4   6 -11  398.99    2.19
   6   1 -11   25.31    0.95
   6   2 -12   11.99    1.00
   6   4 -13  176.38    1.48
   6   6 -13    1.63    0.77
   7   0  -9  383.08    3.09
   7   2 -12  173.67    1.70
  -1   1   8   17.44    0.88
  -1   1  10 2233.41    6.05
  -1   2   6 3146.95    9.99
  -1   2  12  269.32    2.34
  -1   2  13  540.46    2.97
  -1   3   6 2147.74    9.07
  -1   3  13  763.76    3.72
   0   0  17  365.90    2.46
   0   1  19  238.78    2.28
   1   0  21  520.34    3.30
   1   3  -6 5276.48    8.38
   1   5  -5    4.62    1.07
   1   8   0  397.64    3.51
   1   9   4    9.77    2.11
   2  -3  11  846.65    3.33
   2   5  -8   59.30    1.05
   2   7  -6  528.83    2.80
   2   9  -2   14.72    1.35
   3  -3  14    0.27    1.16
   3   2 -10  523.49    2.27
   5  -2  -5  123.91    2.21
   5   1 -11  498.12    2.37
   5   2 -12    0.96    0.88
   5   5 -13   36.56    1.06
   5   7 -12    0.75    1.18
   6   3 -13  401.97    2.34
  -1   3   7  354.07    3.57
  -1   3  11   76.95    1.53
  -1   3  12 2052.32    6.07
   0   0  16 1276.63    4.19
   0   1  18   76.26    1.76
   0   4  20   66.51    2.15
   0   6   1    3.46    1.63
   0   6  18   98.98    2.59
   1   0  20   42.63    1.39
   1   4  -6  284.50    2.15
   2  -3   5 1302.95    5.16
   2  -3   9 1001.96    3.76
   2  -3  10   63.36    1.24
   2  -2  17    7.16    1.09
   2   3  -9 2133.53    4.71
   3  -3  13  162.71    1.92
   3   6 -10   13.64    1.11
   4   7 -11   12.58    1.20
   4   8 -10   -2.18    1.20
   5  -1  -8  303.21    2.31
   5   3 -13  353.68    2.07
   5   6 -13   57.19    1.42
   6   0 -10  147.22    1.61
  -1   2   8 1179.59    5.21
  -1   2   9 3641.00    8.50
  -1   2  10   96.74    1.61
  -1   3   9 1436.45    5.86
  -1   3  10  998.06    4.58
   0   2  19  507.26    2.92
   0   4  -2    7.12    1.07
   0   7  14   22.02    2.01
   1  -2  12  193.56    1.99
   1   7  -3  748.82    4.01
   2  -3   6  478.39    2.99
   2  -2  16  146.50    1.77
   2   1  -8  932.37    3.46
   2   4  -9  665.22    2.65
   2   6  -8   15.40    1.15
   2   8  -5   22.82    1.27
   3  -3  12  822.20    3.60
   3   3 -11  217.18    1.60
   3   4 -11  565.03    2.30
   3   5 -11   24.38    1.05
   4  -3  13   98.27    1.86
   4   1 -11 1752.31    4.23
   4   2 -12  614.58    2.48
   4   6 -12    6.48    2.18
   6   2 -13  117.11    1.41
   0   1  17  584.40    3.03
   0   2  18   45.35    1.50
   0   4  19  457.51    3.27
   0   6  17   87.91    2.27
   1  -1  16    0.72    1.21
   1   0  19   10.73    1.24
   1   1  21   19.52    1.15
   2  -1  19    7.78    1.33
   2   2  -9 1741.77    4.29
   2   5  -9  746.96    2.94
   2   9  -3  108.43    1.95
   3  -3  11  156.52    1.88
   3  -2  17   21.27    1.40
   3  -1  -7 2533.59    6.46
   3   1 -10   71.46    1.09
   3   2 -11 1354.75    3.66
   4  -1  -8  998.21    3.80
   4   0 -10 1399.52    4.04
   5   2 -13  127.25    1.39
   5   5 -14  103.44    1.36
   6   3 -14   64.30    1.31
   7   0 -10   68.02    1.62
   0  -1   5  796.97    4.45
   0  -1   6 5606.21   10.61
   0  -1   7 1460.80    5.23
   0  -1   8  341.39    2.61
   0  -1   9 1441.54    4.77
   0   1  16   77.94    1.59
   0   5  18   82.98    1.65
   0   6  16  474.28    3.79
   0   7  13  195.58    2.97
   1  -2  10 1271.42    4.29
   1   1  -6 2208.07    6.00
   1   3  -7 2671.75    5.95
   2  -2  15  388.29    2.22
   3  -3  10  324.25    2.47
   3   0  -9  939.85    3.55
   3   6 -11   28.61    1.14
   3   9  -7   69.26    1.81
   4   3 -13    1.15    0.90
   4   7 -12  215.73    1.97
   4   8 -11   56.17    1.51
   5  -3  11  131.43    2.45
   5   3 -14   57.63    1.20
   6   4 -15   69.70    1.34
   0   1  -2  119.45    2.41
   0   2  17  961.16    3.88
   0   3  -3 3300.85    8.81
   0   4  18   70.32    1.54
   0   5  17  106.16    2.01
   0   7  12  653.14    5.28
   1   2  -7   27.67    1.09
   1   4  -7 1239.31    4.09
   2  -2  14    0.85    1.14
   2  -1  18  214.49    1.82
   2   1  22    4.52    1.45
   2   3 -10 1335.09    3.76
   2   4 -10  928.01    3.18
   2   6  -9  346.52    2.23
   3   3 -12 1580.21    3.83
   3   4 -12  179.14    1.37
   3   5 -12 1179.86    3.44
   4   6 -13    7.81    0.78
   5  -1  -9  142.32    1.74
   6  -3   3   52.09    2.83
   6   0 -11    6.92    0.94
   6   2 -14   89.03    1.30
   0   1  15    0.69    1.16
   0   4  17  213.66    2.42
   0   6  15  311.56    3.05
   1   7  -4  881.04    4.14
   2  -2  13  133.03    1.70
   2  -1  17   67.54    1.53
   2   0  20   34.87    1.20
   2   1  -9 2547.96    5.49
   2   2 -10    5.73    0.93
   2   5 -10  440.80    2.37
   2   7  -8   19.53    1.31
   2   9  -4  167.93    2.35
   3   1 -11    5.31    0.96
   4   2 -13  257.16    1.65
   5  -2  -6  687.99    4.35
   5   4 -15    1.16    1.07
   5   5 -15   21.31    1.21
   6  -3   4   46.61    3.72
   6  -3   5   13.24    2.62
   6  -1  -9  291.47    2.91
   6   3 -15   59.81    1.31
   0   1  14  571.80    3.12
   0   2  16 1972.59    5.23
   0   5  -2  244.28    2.76
   0   5  16  452.92    3.27
   1  -2   6  228.19    2.29
   1   5  -7 1540.16    4.65
   1   6  -6  228.81    2.09
   1   8  -2    1.30    1.47
   2   1  21  139.50    2.18
   3  -3   4   78.79    1.86
   3  -3   5  486.80    3.44
   3  -3   6 1325.44    5.05
   3  -2  15  320.48    2.22
   3   2 -12  795.67    2.79
   3   6 -12   25.13    1.94
   3   7 -11   67.66    1.30
   4  -3   9  445.49    3.15
   4  -2  -6  488.94    3.48
   4  -1  -9   38.02    1.10
   4   0 -11  241.31    1.87
   4   3 -14  269.69    1.81
   5   1 -13  495.56    2.28
   5   3 -15    3.55    1.08
   0   2  15  567.51    3.09
   0   3  16  436.07    2.85
   0   4  16 1028.11    4.42
   0   6  14   47.92    1.83
   0   7  10  198.28    3.36
   1  -1  13   23.40    1.01
   1   0  16  186.51    1.88
   1   3  -8    1.92    1.12
   1   4  -8  539.82    2.81
   2  -2  12 1234.94    3.87
   2   0  19  336.79    2.26
   2   3 -11   51.72    1.20
   2   4 -11    7.02    1.03
   2   6 -10  206.12    1.82
   2   9  -5    6.65    1.59
   3  -2  -5 1289.44    6.31
   3  -2  14   13.96    1.21
   3   0 -10   12.27    0.77
   3   3 -13  901.91    3.01
   3   4 -13    5.54    0.92
   3   5 -13  188.99    1.68
   4  -3   1   34.16    1.96
   4  -3   8    4.53    1.25
   4  -2  15  301.15    2.60
   4   6 -14  125.89    1.38
   5  -3   8    4.47    1.35
   5   0 -12   16.85    0.86
   6   2 -15   11.41    1.08
   0   0  10 3690.09    7.46
   0   1  13  841.66    3.66
   0   5  15  421.64    3.09
   0   7   9  499.83    5.35
   1  -1  12  569.64    2.93
   1   2  -8  110.00    1.51
   1   2  19   42.16    1.20
   2  -2  11   68.40    1.40
   2   1 -10 1204.62    3.80
   2   1  20  104.23    1.66
   2   5 -11   25.89    1.20
   2   7  -9  210.90    2.05
   3   0  20    1.32    1.33
   4   1 -13  116.61    1.42
   4   2 -14  783.76    2.83
   4   4 -15  188.29    1.61
   4   5 -15  480.01    2.40
   5  -1 -10 1025.61    3.88
   5   2 -15  272.85    1.85
   5   4 -16   10.56    1.09
   6  -1 -10  293.17    2.66
   6   1 -14  129.45    1.51
   0   0   9 1420.28    5.03
   0   2  14  575.13    3.15
   0   4  -4 1817.83    6.28
   0   4  15  112.22    1.82
   0   5  -3  449.63    3.48
   0   6  -1  964.54    5.73
   0   6  13  656.59    4.34
   0   7   3  402.60    8.24
   1   0  15   38.22    1.03
   1   5  -8   45.53    1.38
   1   6  -7  240.78    2.15
   1   8  -3   69.28    2.00
   2  -2  10   14.17    1.13
   2   2 -11  174.26    1.46
   2   2  21  469.93    2.98
   2   3  22   25.48    1.64
   2   8  -8    3.18    1.10
   3  -2  13   44.80    1.29
   3   1 -12  497.38    2.30
   3   2 -13   51.53    1.19
   3   6 -13   20.12    0.97
   3   8 -11   12.53    1.28
   4  -3   2   77.88    2.23
   4  -3   5  135.01    2.23
   4  -2  14    2.87    1.47
   4   0 -12  117.07    1.39
   4   6 -15    1.20    1.15
   5  -3   2   45.72    2.20
   5  -3   4  365.89    3.95
   5  -2  -7  875.63    4.69
   5   1 -14  246.55    1.88
   5   3 -16   38.59    1.27
   0   0   8 2396.92    6.83
   0   1  12  308.91    2.26
   0   2  -4 1491.27    6.00
   1  -1  11  713.94    3.13
   1   2  18  219.89    1.95
   1   3  -9 2369.97    5.46
   1   4  -9    7.80    1.09
   2   0  -9 3951.76    7.45
   2   0  17  139.04    1.77
   2   3 -12 1143.97    3.45
   2   4 -12  306.04    2.03
   2   6 -11    8.97    1.08
   2   9  -6   62.47    1.76
   3  -2  12  144.01    1.70
   3  -1  16  128.96    1.83
   3   0 -11 6921.13    9.15
   3   3 -14  264.59    1.83
   3   4 -14   53.74    0.96
   3   5 -14    7.31    1.10
   4  -3   4  573.53    4.15
   4  -1 -10 1147.04    4.02
   4  -1  17  206.55    2.41
   6   0 -13  133.40    1.62
   6   2 -16   86.15    1.41
   0   1  11  189.66    2.12
   0   2  13 1898.78    5.56
   0   3  14  156.88    1.77
   0   4  14  235.50    2.28
   0   6  12  206.06    2.69
   0   7   7  108.30    3.48
   1   1  -8   37.05    1.22
   1   1  16  119.91    1.72
   1   2  -9  797.57    3.28
   1   6  18    5.72    1.58
   1   7  17   95.44    2.27
   2  -2   9  344.75    2.46
   2  -1  14 1162.74    3.72
   2   1 -11  396.10    2.30
   2   3  21  119.01    2.04
   2   5 -12  327.85    2.11
   3  -1  -9   93.34    1.45
   3   6 -14    4.76    1.07
   3   7 -13  197.34    1.93
   4  -2  -7  725.94    4.14
   4  -2  13  741.93    3.47
   4   1 -14   56.66    1.23
   4   2 -15  176.34    1.63
   4   4 -16   86.98    1.41
   5  -2  13  477.91    3.37
   5   2 -16  255.41    1.88
   6  -2  -7   80.38    2.18
   6   1 -15   76.20    1.38
   0   0   7 2209.32    6.79
   0   3  -5  165.57    2.05
   0   5  13  588.62    3.78
   0   6  -2   97.46    2.15
   1   2  17  414.07    2.46
   1   3  18  158.19    1.80
   1   4  18    2.08    1.29
   1   5  -9 1147.36    3.94
   1   6  -8  396.55    2.58
   1   8  -4  292.90    2.91
   1   9   0   78.06    2.56
   2  -2   8 3135.18    6.91
   2  -1  13    4.11    1.15
   2   0  16  213.39    1.97
   2   1  18  181.09    1.91
   2   2 -12  971.37    3.15
   2   8  -9   76.28    1.69
   3  -2  11   18.91    1.09
   3  -1  15  387.12    2.51
   3   0  18  597.27    3.02
   3   1 -13  294.48    1.81
   3   1  20   39.83    1.47
   3   2 -14  344.08    2.04
   3   4 -15  127.67    1.44
   4  -2  12  487.55    3.07
   4   0  19  109.28    2.03
   4   3 -16  216.04    1.80
   5  -1 -11  252.18    2.07
   5   1 -15   21.80    0.85
   5   3 -17   98.66    1.48
   6  -1 -11   39.42    1.44
   0   0   6 3010.40    8.46
   0   1  10 3675.64    7.94
   0   2  -5  219.89    2.35
   0   2  12  831.57    3.83
   0   3  13  927.95    4.02
   0   4  -5  606.87    3.54
   0   4  13 1427.79    5.18
   0   5  -4 1350.40    5.46
   0   6  11  109.17    2.13
   0   7   2  555.10    7.74
   1   1  15  506.10    2.74
   1   3 -10 2585.35    5.58
   1   4 -10  305.44    2.15
   1   7  -7  444.58    2.90
   1   7  16  354.03    3.49
   1   8  14   23.57    2.06
   2   0 -10  104.83    1.52
   2   3 -13  476.79    2.36
   2   3  20  181.79    2.12
   2   4 -13  242.56    1.88
   2   6 -12   20.56    1.14
   2   7 -11   97.98    1.78
   3  -2  -6   14.47    1.02
   3   0 -12 1163.41    3.90
   3   2  21  196.17    2.16
   3   3 -15  696.73    2.70
   3   5 -15  236.79    1.91
   4  -1 -11  350.30    2.33
   4   0 -13  315.28    1.94
   5  -2  12   30.90    1.51
   6   0 -14   15.59    1.06
   0   0   5 1023.74    5.40
   0   5  12  904.64    4.65
   1  -1   8 1042.51    4.31
   1   0  -7 1817.78    5.82
   1   1  -9 2717.36    6.13
   1   2 -10 2122.03    5.13
   1   2  16  270.11    2.21
   1   3  17  871.94    3.58
   1   8  -5   31.87    1.69
   2  -2   7  858.04    3.81
   2  -1  12 1050.28    3.81
   2   0  15  327.60    2.27
   2   1 -12 2577.53    5.39
   2   5 -13  693.39    2.77
   2   8 -10   52.43    1.49
   3  -2  10  207.58    1.96
   3  -1  14  135.65    1.80
   3   1  19   20.70    1.48
   3   6 -15   81.62    1.63
   3   7 -14    2.13    0.99
   4  -2  11   22.11    1.32
   4  -1  15   31.57    1.55
   4   0  18   49.91    1.69
   4   1 -15  283.75    1.96
   4   2 -16   17.64    0.89
   4   4 -17    5.67    0.80
   4   5 -17  104.72    1.40
   5  -2  -8  152.59    2.14
   5   0 -14  306.47    2.07
   5   2 -17   83.78    1.42
   0   0   4 4386.66   12.15
   0   1   9 1513.34    5.36
   0   2  11  223.24    2.23
   0   3  -6  885.08    4.03
   0   3  12 1172.92    4.67
   0   4  12  630.96    3.68
   0   5  -5  628.77    3.72
   0   6  -3  203.90    2.69
   0   6  10  279.85    3.25
   1   5 -10 1239.94    3.99
   1   6  -9   70.24    1.26
   2  -1  -8 1351.80    4.95
   2   2 -13  538.01    2.39
   2   4  20   92.37    1.67
   3  -2   9  433.28    2.73
   3   1 -14  330.30    1.94
   3   2  20   19.19    1.58
   3   4 -16   83.78    1.77
   4  -2  -8  607.83    3.74
   4   0 -14 1370.09    4.04
   4   3 -17  174.67    1.50
   5  -2  11  157.91    2.16
   5  -1 -12  193.57    1.91
   5   1 -16  112.61    1.35
   6  -2  -8  103.53    2.42
   0   2  -6  601.85    3.52
   0   5  11  188.38    2.46
   0   7   1  266.02    4.94
   1  -1   7 3491.88    7.99
   1   2  15    0.71    1.62
   1   3 -11   41.66    1.31
   1   3  16  163.05    1.99
   1   4 -11  373.61    2.28
   1   6  16  331.22    3.48
   1   7  -8  100.28    1.71
   1   8  13  148.49    4.57
   1   9  -2    7.01    1.99
   1   9   9  223.61    4.78
   2  -1  11 1852.54    5.09
   2   0 -11  457.14    2.63
   2   0  14 1127.81    3.87
   2   2  18  299.62    2.14
   2   3 -14   77.20    1.34
   2   3  19    0.58    1.12
   2   4 -14  196.43    1.60
   2   5 -14   15.12    1.25
   3  -1  13  405.80    2.68
   3   0 -13    6.11    1.03
   3   0  16  671.24    3.15
   3   1  18  204.87    2.66
   4  -1  14  242.02    2.31
   4   2 -17  485.12    2.43
   4   4 -18   32.61    1.32
   5   0 -15   47.01    1.12
   0   1   8  331.01    2.88
   0   2  10 3332.70    7.88
   0   3  11   30.85    1.29
   0   6   9  689.63    5.16
   1   0  -8 4559.54    8.82
   1   1 -10 2755.92    5.97
   1   2 -11  134.93    1.61
   1   5 -11  100.55    1.62
   1   6 -10  280.44    2.28
   1   8  -6    4.59    1.36
   2   1 -13  690.87    2.90
   2   1  16   86.11    1.31
   2   2 -14   19.11    1.10
   2   4  19   10.26    1.41
   2   6  19    8.10    1.79
   2   8 -11   40.42    1.61
   3  -2   8  367.13    2.61
   3   1 -15 1397.91    3.92
   3   2 -16   40.95    1.22
   3   2  19  455.35    2.78
   3   6 -16  165.23    1.74
   4   1 -16    3.11    0.76
   4   1  19  583.53    3.17
   4   3 -18  349.40    2.21
   5  -2  -9  600.55    3.93
   5  -1  14  143.95    2.19
   5   0  17  113.06    2.11
   5   1 -17  128.19    1.66
   5   2 -18   47.46    1.12
   6  -2   9   45.68    1.91
   0   1  -5  809.18    4.48
   0   3  -7 3737.26    7.72
   0   5  -6  101.80    1.71
   0   6  -4  690.84    4.21
   0   7   0  286.61    4.38
   1  -1   6 1515.12    5.66
   1   2  14 4880.00    8.34
   1   3 -12  675.92    2.93
   1   3  15    0.81    1.20
   1   4 -12    8.58    1.06
   1   6  15   42.83    1.68
   1   7  -9   57.14    1.54
   1   7  14   47.66    1.84
   1   8  12   80.09    2.67
   2  -2  -4   46.85    2.00
   2  -2   4 1826.26    6.66
   2  -1  -9 1820.07    5.49
   2  -1  10   13.56    1.24
   2   3 -15  619.59    2.65
   2   3  18  583.30    3.17
   2   4 -15  111.26    1.58
   2   6 -14  154.40    1.79
   3  -1  12 1759.52    5.04
   3   0  15  402.06    2.56
   3   1  17  172.26    1.93
   3   3 -17   47.34    1.28
   3   3  20   18.64    1.23
   3   4 -17   44.64    1.08
   3   5 -17    6.69    1.21
   4  -2   9  460.17    3.01
   4   0 -15  205.33    1.85
   4   0  16  471.02    3.01
   5  -1 -13  402.11    2.57
   6  -1 -13  360.64    3.03
   0   1   7 7062.38   12.91
   0   2  -7 4019.55    8.25
   0   2   9  170.44    2.10
   0   3  10 1006.47    4.61
   0   5  10 1376.16    6.04
   1   6 -11  425.72    2.73
   1   8  -7  396.98    3.27
   1   9  -3   78.96    2.34
   1   9   8   38.44    3.02
   2   0 -12 1162.56    3.95
   2   0  13  174.80    1.65
   2   1  15 1054.39    3.69
   2   5 -15   88.34    1.54
   3   0 -14 1021.54    3.55
   4  -1 -13  410.48    2.48
   4  -1  13  101.83    1.50
   4   1 -17  126.99    1.55
   4   1  18    1.37    1.09
   4   2 -18    4.25    1.17
   5  -1  13   28.80    1.55
   5   0  16   26.00    1.70
   6  -2  -9  328.08    3.65
   0   1  -6 5145.18   10.43
   0   3  -8 1182.16    4.42
   0   4  -8  644.51    3.33
   0   5  -7 1089.93    4.48
   0   6  -5  446.57    3.44
   0   7  -1  461.05    4.87
   1   0  -9 1250.76    4.48
   1   1 -11    0.88    0.70
   1   2 -12   84.75    1.23
   1   5 -12   64.77    1.24
   1   5  15   20.45    1.15
   2  -2   3 2803.09    9.10
   2   1 -14  220.53    1.85
   2   2 -15  283.60    1.96
   2   2  16    6.69    1.21
   2   3  17 1808.07    5.20
   2   5  18  245.54    2.50
   2   6 -15    3.38    1.23
   2   7 -14    0.95    1.18
   3  -1 -12    3.53    0.90
   3   1 -16  200.78    1.79
   3   2 -17    3.79    1.08
   3   3  19  103.69    1.84
   3   4 -18   34.33    1.26
   3   4  20   58.61    1.52
   3   5 -18  107.68    1.61
   4   3 -19   20.17    1.01
   5  -2 -10  302.11    2.93
   5  -2   8  332.75    3.12
   5   1 -18   55.70    1.40
   0   2  -8 1002.36    4.10
   0   7  -2  294.06    3.63
   1   0   9  234.98    2.11
   1   2  13 1391.66    4.51
   1   3 -13  611.59    2.84
   1   3  14  200.04    2.02
   1   4 -13  734.89    3.15
   1   6  14  261.34    2.65
   1   7 -10   54.43    1.27
   1   7  13  646.83    4.42
   1   8  -8   43.20    1.77
   1   8  11   42.95    2.29
   1   9  -4   88.43    2.42
   2  -2  -5 3411.33   11.23
   2  -1 -10   33.68    0.97
   2   3 -16  142.27    1.58
   2   4 -16  462.21    2.33
   2   5 -16   29.79    1.37
   2   7  17  373.61    3.29
   3  -1  11  710.87    3.21
   3   0 -15  427.04    2.45
   3   3 -18  352.14    2.07
   3   5  20   72.44    1.62
   4  -1  12  112.74    1.79
   4   0 -16  134.04    1.71
   4   0  15  922.49    3.77
   4   1  17  166.74    2.07
   4   2 -19    5.25    1.08
   4   3  20  194.50    2.26
   5  -1 -14   90.03    1.60
   6  -2   7  230.16    2.82
   0   1   6 3935.66   10.47
   0   2   8  147.42    2.08
   0   3  -9  137.01    1.89
   0   3   9 3353.14    8.68
   0   5  -8  524.92    3.14
   0   5   9 1391.92    6.33
   0   6  -6    2.85    1.28
   1   0 -10  528.88    2.95
   1   1 -12 1574.78    4.47
   1   2 -13 1705.24    4.43
   1   4  14  787.51    3.88
   1   5 -13   99.84    1.56
   1   5  14  561.92    3.44
   1   6 -12    8.85    1.03
   1   9  -5   17.80    1.92
   2   1 -15  497.89    2.54
   2   2 -16  769.62    2.98
   2   6  17   50.77    1.88
   3   1 -17  191.40    1.82
   3   2  17   43.29    1.39
   3   4  19   72.71    1.86
   4   1 -18  567.65    2.76
   5  -1  12    8.77    1.30
   5   0 -17  463.38    2.70
   5   0  15   64.65    1.70
   6  -2 -10  183.96    2.99
   0   0  -2  580.08    6.15
   0   1  -7 1401.72    5.15
   0   2  -9   38.49    1.31
   0   4  -9  366.17    2.46
   0   7  -3   11.49    1.62
   1  -1   4 3449.27    9.96
   1   0   8 5138.84    9.55
   1   2  12    4.38    1.12
   1   3 -14    2.09    1.13
   1   3  13  636.59    3.40
   1   4 -14  603.44    2.87
   1   7 -11   18.04    1.35
   1   8  -9   16.26    1.61
   1   9   7  162.50    4.68
   2   0  11 1057.67    3.92
   2   2  15 1250.08    4.03
   2   3 -17    1.29    1.11
   2   3  16  289.96    2.33
   2   4 -17  171.39    1.78
   2   5 -17    0.17    1.18
   2   5  17  896.59    3.88
   2   6 -16  219.52    2.00
   3  -2  -9  500.30    3.22
   3  -1 -13   24.80    0.92
   3  -1  10   71.97    1.57
   3   0  13  313.87    2.31
   3   1  15  562.75    2.93
   3   3 -19  128.07    1.66
   3   3  18  397.07    2.50
   3   4 -19  108.98    1.49
   3   5  19  100.42    2.00
   3   6  19  151.08    2.36
   4  -1  11   12.71    1.28
   4   0 -17  196.11    1.89
   4   4  20    1.47    1.71
   5  -2   7  663.35    4.07
   5  -1 -15   85.88    1.56
   5   1  17  280.18    2.39
   0   3 -10 1053.46    4.06
   0   5  -9    6.07    1.21
   0   6  -7  666.13    3.81
   0   7  -4  372.20    3.69
   1   0 -11  264.72    2.20
   1   1 -13 1202.29    3.89
   1   2 -14 1036.02    3.57
   1   5 -14   63.28    1.40
   1   6 -13  377.83    2.77
   1   6  13  459.60    3.39
   1   7  12  186.60    2.77
   1   8  10  265.12    3.77
   2   0 -14   30.52    1.18
   2   7  16   26.66    1.59
   2   8  15    1.03    1.58
   3  -2   5 1401.62    5.44
   4  -2 -11 1107.28    4.58
   4  -2   6  399.11    3.23
   4  -1 -15   11.85    0.99
   4   1 -19   78.64    1.54
   5   0  14  327.49    2.81
   5   2  18   13.64    1.69
   6   0  14    4.05    1.70
   0   0  -4 4613.75   12.39
   0   1  -8  328.80    2.48
   0   1   5  198.96    2.66
   0   2 -10 2678.81    6.30
   0   2   7 1131.69    5.55
   0   3   8   95.15    1.89
   1   3 -15   14.95    1.23
   1   4  13 1292.09    4.85
   1   5  13  702.33    3.82
   1   7 -12    3.16    1.41
   1   8 -10  130.29    2.31
   2  -1 -12 2448.96    6.05
   2   1 -16  725.90    2.87
   2   2 -17  195.68    1.63
   2   2  14   13.78    1.17
   2   4 -18   18.55    1.31
   2   4  16  182.15    1.86
   2   5  16   45.72    1.56
   2   6  16  686.63    3.90
   3  -2 -10  270.14    2.36
   3  -1 -14  165.93    1.74
   3   1 -18  271.39    2.14
   3   2 -19  232.49    1.82
   3   3  17   24.90    1.40
   3   4  18  615.16    3.19
   4   2  17   20.71    1.51
   5  -2   6  155.67    2.34
   5   1  16  313.04    2.59
   6  -2 -11   56.66    1.93
   0   1  -9 1385.12    4.81
   0   3 -11  776.99    3.49
   0   4   8  339.51    3.28
   0   6  -8  162.87    2.23
   0   7  -5  273.28    3.08
   1  -1  -8   16.08    0.89
   1   0 -12  761.87    3.37
   1   2 -15   34.23    1.36
   1   2  11 1965.81    5.80
   1   3  12   19.32    1.30
   1   6 -14  283.16    2.47
   2  -2  -7    6.90    1.04
   2   0 -15  384.81    2.39
   2   3 -18   47.20    1.09
   2   3  15  879.15    3.53
   2   5 -18    7.59    1.03
   3  -2   4   93.71    1.98
   3  -1   9 2164.60    5.78
   3   0 -17   92.10    1.47
   3   0  12  762.02    3.25
   3   1  14  478.41    2.70
   3   3 -20    3.24    0.93
   3   5  18  228.50    2.32
   3   6  18  115.60    2.18
   4  -2 -12    5.35    1.19
   4  -1  10  783.21    3.63
   4   0 -18  204.86    2.03
   4   0  13  748.88    3.37
   4   3  18    5.64    1.26
   4   4  19  557.50    3.16
   5  -2 -12  102.58    1.93
   5  -1 -16  214.68    2.13
   5  -1  10  105.56    1.92
   6   0  13    2.01    1.65
   0   0  -5 1154.15    5.70
   0   2 -11  557.99    2.95
   0   4 -11 1742.02    4.98
   0   6  -9  600.98    3.53
   0   7  -6    8.22    1.62
   1  -1  -9 4731.21    9.38
   1   1 -14   10.50    0.83
   1   3 -16  138.83    1.66
   1   4 -16  439.51    2.70
   1   6  12  283.48    2.88
   1   7 -13   16.00    1.54
   1   7  11    0.30    1.48
   2  -1 -13  239.69    2.11
   2   1 -17   67.04    1.45
   2   2 -18  133.02    1.47
   2   4 -19  279.75    2.20
   2   4  15   55.26    1.56
   2   7  15   49.48    1.51
   2   8  14  250.27    3.05
   3  -2 -11  683.13    3.52
   3  -1 -15  974.59    3.68
   3   1 -19   58.28    1.49
   3   2 -20   20.86    1.38
   3   2  15  368.25    2.50
   3   4  17   87.52    1.82
   4  -2   5  272.33    2.73
   4  -1 -16   16.23    1.07
   4   1 -20   66.56    1.33
   5  -2   5   40.80    1.79
   5   0  13  832.57    3.81
   5   2  17    2.45    1.44
   6  -2   4  381.78    3.95
   0   0  -6 3138.68    8.61
   0   1 -10 1579.83    4.97
   0   3 -12   89.81    1.55
   0   5 -11  236.47    2.23
   1   0 -13  425.21    2.67
   1   1   9 1078.61    4.39
   1   2 -16  758.73    3.07
   1   4  12   19.22    1.30
   1   5 -16  124.55    1.78
   1   5  12  561.89    3.51
   1   6 -15    0.61    1.42
   1   8   9  289.73    3.81
   1   9   6  141.70    4.36
   2   0 -16  314.80    2.28
   2   3 -19   42.52    1.09
   2   5  15  532.71    3.29
   2   6  15    1.65    1.53
   3  -1   8  817.61    3.84
   3   0 -18  139.91    1.66
   3   0  11  306.34    2.37
   3   7  17  288.22    3.06
   4  -1   9  551.53    3.27
   4   0 -19  154.21    1.89
   4   0  12  657.14    3.40
   4   4  18  976.17    4.21
   5  -2 -13  152.80    2.19
   5  -1 -17   60.95    1.60
   5   3  18    1.66    1.47
   6   1  15    6.56    1.28
   0   0  -7 2399.46    7.07
   0   2 -12  142.74    1.84
   0   3   7 2657.21    8.86
   0   5   7  542.27    4.64
   0   6 -10  526.72    3.30
   1  -1 -10 2668.44    6.78
   1   1 -15  700.29    2.90
   1   2  10 2391.90    6.56
   1   3 -17  248.81    2.02
   1   3  11  298.47    2.59
   1   4 -17   71.33    1.48
   2  -2   0   61.45    2.43
   2  -1 -14 1065.38    3.96
   2   1 -18  320.08    2.21
   2   2 -19  313.48    2.27
   3  -2 -12 1723.94    5.31
   3  -1 -16  133.02    1.73
   3   5  17  202.90    2.09
   3   6  17  547.22    3.37
   4  -2 -13  216.27    2.24
   4  -1 -17  316.70    2.30
   4   3  17   24.95    1.13
   5  -1   9  305.84    2.67
   5   0  12  330.43    2.64
   0   0  -8 2369.05    6.83
   0   1 -11  180.11    1.97
   0   3 -13   72.13    1.49
   0   4 -13  749.65    3.47
   0   5 -12   64.17    1.67
   1   0 -14  312.24    2.32
   1   0   6   14.98    0.98
   1   2 -17  519.84    2.67
   1   6 -16   19.79    1.51
   1   6  11  283.13    2.94
   1   7  10  543.34    4.46
   2   3 -20   92.31    1.61
   2   4  14 1080.81    4.28
   2   7  14  385.79    3.08
   2   8  13  255.14    3.30
   3   2  14  342.71    2.43
   3   4  16   46.41    1.72
   4  -2   4   73.12    1.76
   0   0  -9 1413.28    5.18
   0   1 -12  193.23    1.95
   0   2 -13 1777.72    4.87
   0   5 -13   15.23    1.29
   1  -1 -11  289.59    2.42
   1   1 -16  145.39    1.48
   1   1   8  871.55    4.20
   1   3 -18   37.53    1.32
   1   4 -18    1.42    1.23
   1   4  11  654.27    3.70
   1   5  11  336.06    2.86
   2  -2 -10   22.83    1.10
   2  -1 -15 1824.10    5.03
   2   2 -20   12.87    1.78
   2   5  14  696.18    3.61
   2   6  14  697.20    3.94
   2   9  11   88.75    2.76
   3  -2 -13  414.38    2.76
   3  -1 -17  253.38    2.13
   3  -1   7  277.83    2.50
   3   3  15 1173.18    3.99
   3   5  16    1.66    1.44
   3   7  16   11.90    1.84
   4  -2 -14  327.15    2.60
   4  -1 -18  194.18    1.97
   4  -1   8  485.54    3.07
   4   2  15  377.14    2.41
   4   4  17    1.39    1.46
   0   3 -14  387.70    2.36
   0   4 -14  252.54    2.25
   0   6 -12   23.99    1.44
   0   7  -9    3.38    1.45
   1  -1 -12 4203.51    8.12
   1   0 -15  194.71    1.96
   1   1 -17  124.18    1.59
   1   2 -18   94.62    1.58
   1   5 -18  128.26    1.94
   1   8   8    7.05    1.85
   2   0 -18  239.95    2.15
   3   1 -21   72.46    1.40
   3   1  12  998.15    3.71
   3   6  16  145.45    1.91
   3   8  15   32.61    1.86
   5  -1   8    4.47    1.32
   5   2  15  244.24    2.39
   5   5  18   91.35    2.15
   0   0 -10 3612.09    7.51
   0   1 -13 1009.50    3.76
   0   2 -14 1032.09    3.68
   0   2   5 1486.91    7.42
   0   3 -15  246.23    2.12
   0   5 -14  294.09    2.57
   0   7 -10   41.53    1.80
   1   2   9   13.31    1.12
   1   3 -19   16.36    1.29
   1   3  10 3183.32    7.71
   1   4 -19   75.07    1.73
   1   9   5   13.15    2.78
   2  -1 -16  269.39    2.23
   2   1 -20    1.72    1.31
   2   2 -21   35.59    1.49
   2   4  13  974.71    4.14
   2   7  13  174.62    2.33
   2   8  12   15.75    1.66
   3  -2 -14  713.87    3.43
   3  -1 -18  612.85    3.13
   3   0 -20    6.25    1.26
   3   4  15  677.25    3.39
   4  -2 -15  184.78    2.09
   4  -1 -19   15.88    1.19
   4   2  14   39.50    1.48
   4   5  17   14.83    1.22
   4   6  17    8.08    1.59
   5  -2   3   86.42    1.99
   5   1  13  283.76    2.41
   5   3  16  310.99    2.62
   5   4  17   35.16    1.73
   6   1  13  339.32    2.83
   6   2  15    8.22    1.25
   7  -1   6   54.94    2.14
  -1   3  -5  641.01    4.28
  -1   3  -4 3272.52   10.39
   0   0 -11 1791.93    5.33
   0   2 -15   31.13    1.40
   0   4 -15   25.77    1.08
   0   6 -13   12.21    1.44
   0   7 -11  113.72    2.44
   0   8  -3    2.08    1.82
   0   8  -2  107.43    3.53
   1  -1 -13 2890.43    6.62
   1   0 -16 1636.81    4.68
   1   1 -18    0.04    1.19
   1   2 -19  319.74    2.31
   1   6  10  833.79    4.72
   1   7   9  709.19    5.08
   2  -2 -12  512.63    3.02
   2   5  13  168.30    2.10
   2   6  13  655.98    3.79
   3   0   9  771.02    3.72
   3   3  14 1034.02    3.83
   3   5  15  637.81    3.45
   3   7  15  192.27    2.55
   4  -1   7  576.68    3.45
   4   1  12  978.84    3.97
   4   4  16  597.67    3.25
   6   3  16  263.78    2.67
  -1   3  -6   30.53    1.46
  -1   3  -3    4.55    1.56
   0   0 -12  219.46    2.33
   0   1 -14  470.63    2.57
   0   1   3 2707.24   12.58
   0   4 -16   81.76    1.65
   0   4   6 1739.63    8.16
   0   5 -15  211.36    2.39
   0   6 -14  102.99    1.98
   0   8  -6    3.38    1.95
   1  -1 -14   66.53    1.59
   1   1   7 5449.67   10.70
   1   3 -20  192.02    2.11
   1   4  10 2042.98    6.43
   1   5  10 1127.45    5.05
   2   1 -21   20.52    1.44
   2   9  10  322.13    3.88
   3  -2 -15  241.32    2.12
   3  -1 -19   20.56    1.28
   3  -1   6 2408.69    6.85
   3   0 -21  151.62    1.99
   3   1  11  770.69    3.41
   3   6  15  321.21    2.69
   3   8  14  251.57    2.91
   4  -2 -16  129.78    1.92
   5   0  10  974.77    4.21
   5   5  17   20.38    1.72
   6   1  12  110.29    2.11
  -1   2  -7 2050.58    6.59
  -1   4  -8 1894.37    6.26
  -1   4  -7  429.28    3.26
   0   1 -15   69.50    1.62
   0   2 -16  205.20    1.75
   0   5 -16   22.42    1.47
   0   7 -12   50.66    1.92
   0   8  -7    7.16    1.70
   1   0 -17  368.49    2.34
   1   1 -19  158.02    1.84
   1   2 -20  112.20    1.83
   1   8   7  164.46    3.23
   2   0 -20   98.88    1.85
   2   7  12   11.13    1.41
   2   8  11  194.81    2.93
   3   4  14  135.32    1.95
   4   2  13 1135.14    4.19
   4   6  16  159.12    2.37
   4   7  16    7.82    1.69
   5   4  16  586.44    3.34
   5   6  17   20.05    1.87
  -1   2  -9  252.28    2.46
  -1   2  -8 2086.03    6.41
  -1   2  -4 1737.73    7.54
  -1   3 -10  152.50    2.03
   0   0 -13 1643.06    4.78
   0   2 -17  148.46    1.79
   0   3 -17  348.71    2.40
   0   4 -17   99.19    1.76
   0   6 -15    5.58    1.66
   0   8  -8  395.87    4.04
   1  -1 -15  728.41    3.30
   1   0 -18   55.76    1.57
   1   2   8 2062.53    6.57
   1   3 -21   12.17    1.51
   1   3   9  980.34    4.52
   2  -2 -14  284.33    2.28
   2  -1 -18  549.96    2.90
   2   1 -22  116.13    1.89
   2   4  12  119.47    1.84
   3  -2 -16   76.25    1.49
   3  -1 -20   77.74    1.58
   3   3  13    5.76    1.12
   3   7  14  448.24    3.34
   4  -2 -17  301.24    2.60
   4  -2   2  404.03    3.77
   4   0   9  693.04    3.58
   4   3  14  164.14    1.99
   4   4  15  726.64    3.37
   6   0   9   53.47    1.70
   6   3  15   73.70    1.68
   6   4  16   66.30    1.87
   7   0   8  180.92    2.67
   7   1  11  410.26    3.35
  -1   3 -11  198.20    2.13
  -1   5  -7  125.73    2.21
  -1   5  -5  397.46    3.73
  -1   5  -4  555.80    4.75
   0  -1  -8  368.48    3.00
   0   0 -14 1486.43    4.64
   0   1 -16  272.18    2.01
   0   3 -18  564.40    3.14
   0   5 -17  408.38    3.06
   1  -2  -9 4009.11    8.95
   1  -2  -8 1257.01    5.50
   1  -1 -16 1050.48    3.94
   1   1 -20  321.36    2.44
   1   2 -21    1.12    1.36
   1   6   9  321.21    3.17
   2  -2 -15  301.28    2.24
   2   0 -21   26.91    1.55
   2   5  12  128.77    1.94
   2   6  12    1.32    1.20
   3  -2 -17  329.75    2.40
   3   0   8 1255.96    4.69
   3   1  10  285.36    2.40
   3   5  14  724.02    3.45
   3   6  14  278.69    2.51
   4  -1   6 1967.94    6.23
   4   1  11  180.07    1.82
   5   5  16  148.20    2.24
   6   1  11  413.59    3.12
   6   2  13  337.54    2.85
   7  -1   4   16.67    1.80
  -1   2 -11 5776.07    9.72
  -1   3 -12  312.49    2.54
  -1   5  -9  407.55    3.32
   0  -1 -10 3872.07    8.34
   0  -1  -9 1584.36    5.65
   0  -1  -6 4645.30   11.14
   0   0 -15   54.99    1.67
   0   1 -17  978.09    3.67
   0   2 -18   19.36    1.42
   0   3   5   17.98    1.45
   0   4 -18   17.78    1.17
   0   5   5  304.56    4.24
   1  -2  -6 3204.84   10.16
   1   0 -19  614.00    3.11
   1   1   6  694.88    4.23
   1   4   9  250.54    2.53
   1   5   9  864.56    4.55
   1   7   8   14.53    1.59
   2   9   9  101.05    2.60
   3   8  13  155.31    2.36
   4  -3  -9  121.71    2.83
   4  -3  -8  192.80    3.81
   4  -2 -18    6.52    1.36
   4   6  15  432.07    3.18
   4   7  15  274.15    2.90
   5   1  11    8.85    1.06
   5   3  14  193.03    2.12
   5   6  16  303.32    2.96
   6  -2   0    5.30    1.73
   6   3  14  567.69    3.46
   6   5  16  207.50    2.59
   7   1  10   61.61    2.11
  -1   1 -10  898.83    4.07
  -1   1  -9  159.96    2.05
  -1   1  -8 1003.03    4.39
  -1   1  -7 3451.91    8.49
  -1   1  -6 1435.64    6.08
  -1   2 -12  186.61    2.20
  -1   3 -13    1.13    1.31
  -1   5 -10    3.59    1.38
   0  -1 -11  207.36    2.32
   0  -1  -5  211.84    2.83
   0   0 -16 1238.47    4.17
   0   3 -19  102.03    1.91
   0   4 -19    7.74    1.49
   1  -2 -11  145.52    1.89
   1   1 -21   47.29    1.30
   1   9   4   12.23    2.57
   2  -2 -16  322.70    2.45
   2  -1 -20   32.08    1.36
   2   0 -22  100.14    1.92
   2   0   6   84.18    1.71
   2   1   8 2293.28    6.44
   2   7  11  127.93    2.04
   2   8  10  345.43    3.46
   3  -2 -18  140.57    1.85
   4  -3 -11  229.34    2.99
   4  -3 -10  774.27    5.47
   4   0   8   22.11    1.42
   4   2  12 1012.56    3.87
   5  -2   1  861.91    5.66
   7   2  12   51.50    1.59
  -1   1  -5 3283.25    9.55
  -1   2 -13   47.30    1.45
  -1   2  -2 1070.15    7.65
  -1   3 -14  618.69    3.33
  -1   3  -1 3878.29   16.96
  -1   4 -13   22.38    1.57
  -1   4  -1 1912.48   12.58
  -1   5 -11  355.61    2.94
   0  -1 -12  333.93    2.43
   0   1 -18  237.03    2.05
   0   2 -19  121.36    1.56
   0   4   5 1910.83    9.29
   1  -1 -18   21.93    1.32
   1   0 -20   99.79    1.56
   1   1 -22   59.71    1.64
   1   8   6  148.47    3.32
   2  -2 -17   19.09    1.22
   2   4  11 1404.98    4.90
   2   6  11  864.62    4.27
   3  -3  -9    6.53    1.32
   3   6  13  180.59    2.25
   3   7  13   26.82    1.31
   4  -3 -12   60.24    1.87
   4   1  10   19.86    1.28
   4   8  14   81.27    2.27
   5   0   8  207.15    2.24
   5   2  12  187.39    2.16
   5   5  15   30.95    1.53
   6   2  12  190.11    2.23
   7  -1   3   65.11    2.14
   7   3  13  168.77    2.55
  -1   2 -14  598.41    3.15
  -1   4 -14   94.96    1.86
  -1   5  -2 1376.85    9.19
  -1   6  -7  116.08    2.63
   0  -1 -14  591.42    3.23
   0  -1 -13  855.93    3.68
   0   0 -17  311.37    2.27
   0   1 -19    6.05    1.36
   0   2 -20    2.06    1.47
   0   3 -20  145.32    1.88
   1  -2 -14   15.02    1.23
   1   2   7 3791.98    9.24
   1   6   8    6.02    1.54
   2   3  10  585.82    3.33
   2   5  11  664.92    3.50
   3  -3 -11  714.78    4.22
   3  -3  -8 1388.54    7.46
   3  -2 -19    0.83    1.22
   3   8  12   31.60    1.79
   3   9  11   85.57    2.37
   4  -3 -13  231.11    2.95
   4   5  14  226.69    2.14
   4   6  14   39.55    1.72
   4   7  14  378.37    3.15
   5  -3  -9  157.88    4.57
   5   1  10  660.81    3.51
   5   4  14   45.00    1.55
   5   6  15  212.28    2.57
   5   7  15  264.66    2.93
   6  -1   4  448.72    3.84
   6   3  13  201.88    2.35
   7   1   9  188.97    2.56
  -1   1  -4 3443.83   10.85
  -1   2 -15  127.88    1.89
  -1   3 -15  587.74    3.12
  -1   4 -15   54.24    1.78
  -1   5 -13   28.19    1.58
  -1   6 -10   -0.14    1.71
  -1   6  -9    7.03    1.62
  -1   6  -8  664.10    4.58
   0  -1 -15   -1.83    1.19
   0   0 -18   25.95    1.48
   1  -1 -19  247.98    2.34
   1   4   8  777.62    4.38
   2   9   8    4.10    1.83
   3  -3 -13  315.69    2.98
   3  -3 -12  244.52    2.58
   3  -3  -7 1457.78    9.07
   3  -2 -20    0.48    1.13
   3   4  12  214.19    2.14
   4   2  11   14.99    1.30
   6  -2  -1    1.15    1.74
   6   0   7 1005.69    4.66
   6   4  14   32.92    1.40
   7   0   6   11.02    1.78
  -1   0 -10  900.01    4.10
  -1   0  -9  243.86    2.47
  -1   1 -15 1233.58    4.30
  -1   1 -14 1138.68    4.04
  -1   3 -16    8.98    1.13
  -1   4 -16   43.52    1.64
  -1   5 -14  339.52    2.99
  -1   6 -11   95.87    2.18
   0  -1 -16   66.71    1.54
   0   0 -19  125.15    1.75
   0   1 -20  659.83    3.11
   1  -2 -16  668.61    3.36
   1   5   8   32.31    1.45
   2  -2 -19  406.08    2.98
   2   4  10 1331.47    5.11
   2   7  10  612.74    3.87
   2   8   9  141.60    2.56
   3  -2   0  925.94    6.84
   3   5  12  943.22    4.17
   3   7  12  149.15    2.32
   4   0   7   65.87    1.65
   4   1   9 2209.98    6.10
   4   8  13    6.30    1.79
   5  -3 -13  519.18    5.30
   5   2  11  144.93    2.08
   6   1   9    0.22    1.43
   7  -1   2   54.44    2.28
  -1   0 -12  840.91    3.81
  -1   0 -11 1925.06    5.56
  -1   0  -8 5110.79   10.28
  -1   0  -7 2715.23    7.98
  -1   1 -16    3.65    1.29
  -1   3 -17  305.81    2.60
  -1   6 -12    5.50    1.63
  -1   6  -4  171.37    3.39
   0   1 -21   34.71    1.75
   1  -2 -17  232.26    2.19
   1  -2  -4  667.24    6.11
   1   1   5  678.69    4.42
   2   1   7  486.87    3.16
   2   6  10 1101.50    4.85
   3   6  12   96.26    1.82
   4   5  13    2.85    1.30
   5   1   9  541.00    3.27
   5   3  12  768.62    3.58
   5   4  13  512.94    3.10
   5   6  14    0.45    1.64
   5   7  14   -0.79    1.75
   6   3  12   68.34    1.88
   6   5  14  334.13    2.74
   7   2  10  303.15    2.88
   7   4  13   31.53    1.80
  -1   0 -14  158.38    2.24
  -1   0 -13 3863.34    7.48
  -1   1 -17  711.49    3.38
  -1   1  -3 2763.37   10.62
  -1   2 -18  208.15    2.21
  -1   3 -18   17.15    1.52
   0  -1 -17  544.41    2.88
   0   0 -20  258.50    2.13
   0   1 -22   81.20    1.78
   0   1   2   38.61    2.23
   0   7   2  544.46    8.58
   1  -1 -21   11.42    1.24
   2  -3 -10   12.81    1.13
   2  -2 -20   23.43    1.46
   2   2   8 3040.68    7.57
   2   3   9   67.22    1.58
   2   5  10  615.98    3.47
   3   8  11  349.76    3.13
   3   9  10   96.29    2.36
   4  -3 -16  117.95    2.26
   4   2  10  583.44    3.24
   4   4  12  624.22    3.37
   4   6  13  120.39    1.75
   4   7  13    8.79    1.23
   6   4  13  451.16    2.90
   6   6  14   28.79    1.85
  -1   0 -15   36.31    1.47
  -1   0  -6   16.08    1.09
  -1   3 -19   10.46    1.42
  -1   6 -14   13.20    1.78
  -1   6  -3  100.37    3.52
   0  -1 -18   81.53    1.58
   0   0 -21    5.49    1.52
   0   3   4 2066.88   10.27
   0   5   4  132.50    3.22
   1   2   6  915.65    5.00
   1   8   5  653.46    5.89
   1   9   3  164.50    4.53
   2  -3 -14  370.83    2.80
   2  -2 -21  114.05    1.95
   2   9   7  175.70    3.17
   3   4  11 1119.22    4.23
   4  -2   0 3460.96   11.85
   5   2  10  988.44    4.21
   5   5  13  445.56    2.97
   6  -2  -2  285.17    4.14
   6   1   8   27.46    1.55
   6   2  10  662.93    3.59
  -1   1 -18  397.45    2.59
  -1   2 -19  172.33    1.96
   0  -2 -13 1797.13    5.56
   0  -2 -11  247.21    2.43
   0  -2 -10 3519.79    8.18
   0  -2  -9  187.80    2.19
   0  -1 -19  231.13    2.33
   0  -1  -3 3325.62   13.17
   1  -2 -19  570.58    3.23
   2  -3 -16   79.33    1.51
   2  -3 -15  923.18    4.07
   2  -3  -8 1267.67    6.68
   2   7   9   67.93    1.81
   2   8   8  115.08    2.41
   3  -3  -6    8.86    2.39
   3   5  11  819.46    3.92
   3   6  11 1070.45    4.69
   3   7  11  626.90    3.67
   4   0   6 1177.38    4.95
   4   5  12  946.62    4.15
   4   8  12   53.81    1.91
   5   0   6  640.73    3.71
   5   4  12  448.29    2.89
   5   6  13  411.75    3.10
   5   8  13  106.33    2.44
   6   3  11  205.60    2.41
   6   5  13  120.30    1.95
   7   5  13   99.82    1.87
  -1   0 -17  484.74    2.71
  -1   0  -5  747.83    4.81
  -1   1 -19  110.85    1.66
  -1   2 -20   98.29    2.04
  -1   3 -20   48.99    1.51
  -1   5  -1 1196.56   11.97
  -1   7 -10    6.89    1.82
  -1   7  -9  185.32    3.26
  -1   7  -7   31.29    2.19
   0  -2 -15  585.67    3.23
   0  -2 -14  595.25    3.14
   0  -1 -20  463.38    2.99
   0   0 -22    2.62    1.14
   0   4   4  210.70    3.79
   1  -2 -20  153.52    2.05
   1   5   7 1983.21    7.20
   2  -3 -17  142.49    1.84
   2   4   9   34.47    1.42
   2   6   9   23.02    1.45
   3  -3 -18  326.45    2.99
   3   8  10  432.61    3.49
   3   9   9   20.60    1.87
   4   6  12  528.49    3.33
   4   7  12  645.86    3.79
   4   9  11  323.95    3.50
   5  -2  -1   35.35    2.04
   5  -1   3 1868.62    6.89
   5   1   8   39.96    1.22
   5   7  13   47.46    1.61
   6   6  13  294.46    2.86
  -1  -1 -14  538.23    3.06
  -1  -1 -13  212.38    2.19
  -1  -1 -12    0.98    0.86
  -1  -1 -11 1006.38    4.17
  -1  -1 -10 2332.40    6.54
  -1   0 -18   33.25    1.31
  -1   1 -20   60.48    1.82
  -1   2 -21  131.03    2.29
   0  -2 -16 2001.84    5.42
   0  -2  -8  152.79    1.97
   0  -1 -21  259.13    2.67
   0   2   3 4666.94   17.11
   1  -2 -21   69.84    1.74
   2   1   6  748.81    4.10
   2   5   9  401.42    3.06
   3  -3 -19   42.08    1.76
   3   4  10 1086.67    4.45
   4   4  11  203.72    2.14
   5   5  12  331.60    2.69
   6   2   9  217.95    2.36
   6   7  13  149.27    2.45
   7   5  12   35.19    1.88
  -1  -1 -16  113.74    1.89
  -1  -1 -15  489.30    2.78
  -1  -1  -9 1158.88    4.83
   0  -2 -18   37.49    1.63
   0  -2  -7 1188.20    5.63
   1  -3 -12 2019.20    5.97
   1  -3 -11   76.84    1.50
   2   0   4 1143.36    5.57
   2   2   7 4219.63    9.10
   2   3   8  485.74    3.22
   2   9   6  206.39    4.46
   3   7  10   58.61    1.88
   4   8  11  184.09    2.70
   5   6  12  349.26    2.93
   5   8  12  136.00    2.99
   6   1   7  502.27    3.30
   6   5  12   25.20    1.48
   7   1   6   59.23    1.95
   7   4  11  149.42    2.01
  -2   2 -10   11.75    1.08
  -2   3 -13    0.87    1.19
  -2   3  -9  913.85    4.58
  -1  -1 -17 1199.25    4.33
  -1  -1  -8  869.01    4.43
  -1   0  -4 3832.04   11.32
  -1   1  -2 2113.16   10.75
   1  -3 -10  953.29    4.54
   1   3   6 1879.64    7.12
   2   7   8  368.44    3.31
   3   5  10   68.08    1.66
   3   6  10  337.73    2.88
   4   1   7  677.56    3.75
   4   5  11  565.70    3.32
   4   7  11  441.68    3.24
   4   9  10   10.41    1.95
   5   0   5   41.47    1.55
   5   1   7  222.86    2.39
   5   4  11   26.88    1.12
   5   7  12  223.48    2.98
   6  -2  -3  262.53    4.05
   6   6  12  135.57    2.26
   7   6  12   15.62    1.92
  -2   1 -15  453.35    3.03
  -2   1 -13    4.71    1.39
  -2   1 -12 1018.80    4.44
  -2   1 -11 1861.70    5.94
  -2   2  -8 2890.47    8.06
  -2   3 -16   98.27    2.11
  -2   3  -8  576.51    3.89
  -2   4 -14   37.74    1.75
  -2   4 -10   69.65    1.97
  -2   4  -9  241.22    2.87
  -1  -1 -18  473.46    2.86
  -1  -1  -7 5600.11   11.50
  -1   0 -21  518.40    3.14
  -1   6  -2  967.64   11.14
   0  -2 -20   85.57    1.96
   1  -3 -18  557.16    3.21
   1  -3 -17    0.87    0.92
   1  -3  -9 1486.34    6.02
   1   8   4  126.35    3.15
   2   4   8 2687.08    7.67
   2   8   7  169.14    2.72
   3  -2  -1 2927.39   13.13
   3   8   9   66.00    1.94
   3   9   8  116.53    2.48
   4  -2  -1 2126.32    9.93
   4   0   5 1157.50    4.83
   4   6  11  215.63    2.14
   6   0   4  777.45    4.33
   6   7  12  134.80    2.36
   7   3   9   87.12    1.95
   7   5  11  332.63    3.22
  -2   1 -16    8.05    1.46
  -2   1  -9 1712.10    5.95
  -2   2 -17    7.35    1.13
  -2   3  -7   37.81    1.53
  -2   4 -16  238.89    2.77
  -2   4  -8  274.38    3.04
  -1  -1 -20  618.54    3.45
  -1  -1 -19   45.75    1.42
  -1   0 -22   21.01    1.76
   0  -2  -6 5980.88   13.26
   1  -3 -19  139.26    2.04
   1   2   5  532.74    4.07
   1   7   5   33.89    2.13
   1   9   2   70.60    3.43
   2   6   8  302.25    2.85
   3  -1   2 1933.53    8.13
   4   4  10  102.98    1.52
   5   5  11  220.05    2.04
   5   8  11   63.47    2.12
   6   1   6  518.71    3.41
   6   5  11   10.89    1.44
   7   4  10  122.83    1.88
   8   2   6    0.75    1.79
  -2   0 -15  323.21    2.56
  -2   0 -13  175.73    2.08
  -2   0 -12   19.41    1.45
  -2   1 -18  203.24    2.36
  -2   1  -8 1079.49    4.94
  -2   2 -19  169.98    2.42
  -2   4 -17   -0.68    1.93
  -2   4  -7  170.28    2.64
  -2   5 -14    0.30    1.52
  -2   5 -13   28.74    1.90
  -2   5 -12  212.44    2.92
  -2   5 -11   48.72    2.01
  -1  -2 -14 4930.06    8.87
  -1  -2 -13 1442.90    5.01
  -1  -1 -21   18.09    1.65
   1  -3 -20   39.99    1.58
   1  -3  -8  734.41    4.85
   1   4   6 1258.00    5.90
   2   5   8  802.17    4.12
   3   1   6 1681.55    5.82
   3   4   9  347.22    2.57
   3   7   9    9.48    1.48
   4  -1   2  946.70    5.26
   4   8  10    3.52    1.35
   5  -2  -2  108.95    2.83
   5   3   9  681.81    3.52
   5   4  10 1064.65    4.21
   5   6  11   21.21    1.53
   5   7  11  245.27    2.70
   6   4  10  927.09    4.04
   7   6  11   13.72    1.67
  -2   0 -16  210.72    2.03
  -2   0 -11 1074.65    4.37
  -2   0 -10 1767.94    5.91
  -2   2 -20    1.72    1.73
  -2   2  -6 1125.02    5.70
  -2   3  -6  433.83    3.77
  -1  -2 -17  365.77    2.79
  -1  -2 -16  269.41    2.21
  -1  -2 -15    3.65    1.10
  -1  -2 -12    5.03    0.90
  -1  -2 -11 2120.60    6.25
  -1  -1 -22    2.38    1.46
  -1  -1  -6  762.33    4.54
  -1   7  -4  115.66    4.31
   0  -3 -16  417.61    2.86
   0  -3 -15   60.49    1.53
   0  -3 -14  144.29    1.87
   0  -3 -13  886.29    4.04
   1  -3 -21   18.61    1.59
   1   0   2  667.97    5.83
   2   1   5 3495.96    9.31
   2   3   7 5281.19   10.37
   2   9   5    0.69    2.02
   3   5   9 1124.42    4.73
   3   6   9   33.06    1.63
   4   5  10  107.35    1.63
   4   6  10   43.04    1.70
   4   7  10   50.26    1.75
   4   9   9   64.84    2.10
   5   0   4  260.17    2.63
   5   1   6 1178.48    4.84
   6   6  11   31.80    1.37
   6   7  11    5.30    1.75
   6   8  11    0.88    1.68
   7   5  10   96.94    2.10
  -2   0 -19  281.73    2.60
  -2   0 -18  758.88    3.57
  -2   0  -9  370.80    2.99
  -2   1 -20   35.78    1.45
  -2   1  -7  407.71    3.21
  -2   5  -8  479.94    4.54
  -1  -2 -19   45.03    1.81
  -1  -2 -18  207.63    2.05
  -1  -2 -10 2390.23    6.78
  -1   3   0  394.37    9.77
   0  -3 -18   34.30    1.41
   0  -3 -17   94.79    1.53
   0  -3 -12 1227.98    4.76
   0  -3 -11   30.36    1.22
   2   2   6 1299.39    5.45
   2   7   7  623.84    4.18
   3   8   8  653.99    4.20
   3   9   7  274.33    3.25
   4   0   4   34.72    1.43
   4   1   6 2703.34    7.07
   5   5  10   34.20    1.52
   6   0   3   62.03    1.86
   6   5  10  317.58    2.68
   8   2   5  105.32    2.38
  -2  -1 -15 1052.26    4.20
  -2  -1 -14 1489.20    4.94
  -2   1 -21   23.34    1.51
  -1  -2 -20  128.43    2.11
  -1   0  -3  201.48    3.04
   0  -3 -20  454.14    3.10
   0  -3 -19  336.11    2.51
   0  -2  -5 1585.17    7.43
   2   8   6  651.65    4.51
   4   8   9  114.38    2.37
   5  -1   1  224.58    2.87
   5   6  10  358.69    2.89
   5   7  10  131.50    2.24
   5   8  10    0.17    1.26
   6   1   5    1.61    1.35
   6   3   8   21.77    1.53
   6   4   9  296.81    2.60
   7   1   4   99.86    2.12
   7   2   6  134.22    2.02
   7   6  10  399.30    3.12
  -2  -1 -17  446.37    2.95
  -2  -1 -16   86.04    1.51
  -2  -1 -13    8.18    1.00
  -2  -1 -12 2600.83    6.62
  -2   0 -21  212.05    2.62
  -2   0  -8 3358.00    8.41
  -2   1  -6  467.69    3.72
  -2   2  -5 2076.56    8.15
  -2   5  -7   72.47    2.29
  -2   6 -11   34.74    2.39
  -1  -2 -21  122.76    1.91
  -1  -2  -9   17.20    0.98
  -1  -1  -5  722.70    4.68
   0  -3 -21   49.26    1.81
   0  -3 -10 1110.68    4.71
   0  -1  -2   40.27    2.17
   1  -3  -7  364.75    3.74
   2  -4 -17   19.08    1.68
   2  -4 -16   12.29    1.32
   2  -4 -15  571.43    4.18
   2   0   3  185.99    2.58
   2   4   7  716.70    4.06
   2   6   7 1376.71    5.69
   3  -4 -17  283.64    3.56
   3  -4 -16   66.51    2.42
   3  -4 -15  217.03    3.31
   3   4   8 1179.10    4.75
   3   7   8   72.07    1.90
   4   5   9  804.98    3.97
   4   9   8  204.66    3.06
   5   3   8  213.40    2.23
   5   9   9  472.70    3.91
   6   6  10  355.02    2.65
   6   7  10  227.50    2.70
   6   8  10  279.17    2.88
   7   3   7   27.09    1.67
   7   7  10   31.32    1.79
   8   3   6   53.12    2.05
  -2  -1 -19    0.78    1.11
  -2  -1 -11 2238.39    6.18
  -2   4  -5 1609.63    8.25
  -2   6 -10   27.77    2.45
  -1  -2 -22  139.10    2.08
  -1  -2  -8 2121.88    6.82
   0  -3 -22   50.27    1.89
   1   8   3  499.67    5.22
   2  -4 -19  164.37    2.45
   2  -4 -14  198.53    2.61
   2  -4 -13  217.06    2.91
   2   5   7 2386.94    7.25
   3  -4 -14 1082.89    6.49
   3   1   5  714.26    4.06
   4   6   9  411.00    3.08
   4   7   9  667.01    3.67
   8   4   7   10.33    1.80
   8   5   8  288.23    3.06
  -2  -1 -21  159.98    2.33
  -2  -1 -10   12.47    0.97
  -2   0  -7  896.92    4.59
  -2   5  -6  567.14    5.19
  -2   6  -9  138.67    3.37
  -1  -3 -17  776.61    3.74
  -1  -3 -16  136.98    1.95
  -1  -3 -15    2.51    1.17
   0  -3  -9 4019.41    9.30
   0   7   1  276.26    5.56
   1  -4 -17   21.36    1.37
   2   9   4  154.23    3.13
   3   5   8  700.46    3.69
   3   6   8 2149.77    6.46
   3   8   7  670.19    4.33
   3   9   6   46.12    2.06
   4  -2  -2   33.05    2.09
   4  -1   1  441.31    3.89
   4   1   5  837.20    4.27
   5  -2  -3 1275.34    8.03
   5   0   3 1944.21    6.47
   5   5   9  995.57    3.95
   5   8   9   87.72    1.98
   6   2   6  267.43    2.42
   6   5   9  312.94    2.37
   7   6   9   96.00    2.07
  -3   2 -14   13.93    1.42
  -2  -2 -17   21.83    1.49
  -2  -2 -15 1248.29    4.59
  -2  -1 -22    6.49    1.76
  -2  -1  -9  699.63    3.80
  -2   1  -5  606.82    4.40
  -2   3  -4  290.91    3.81
  -1  -3 -19  138.32    2.12
  -1  -3 -18  158.67    1.86
  -1  -3 -14  212.18    2.19
  -1  -3 -13  635.25    3.47
   0   6   2 1126.93    8.89
   1  -4 -20   52.52    1.62
   1   2   4 2485.64    9.28
   1   4   5   70.50    1.90
   1   5   5   22.37    1.54
   1   9   1   16.69    2.33
   2  -4 -12  655.29    4.58
   2   7   6  265.60    3.03
   2   8   5  100.68    2.58
   3  -4 -12   41.29    2.10
   3   2   6  832.04    4.10
   4   8   8  353.26    3.19
   5   4   8   14.32    1.33
   5   6   9  400.64    2.72
   5   7   9  717.01    3.87
   5   9   8  271.87    3.30
   6   4   8   47.97    1.36
   6   6   9  208.49    2.27
   6   7   9  182.70    2.46
   6   8   9  104.67    2.15
   7  -1  -3  213.90    3.53
   7   5   8   -0.98    1.57
   7   7   9   47.96    1.84
  -3   1 -18    0.94    1.71
  -3   1 -17   16.77    1.70
  -3   1 -16  110.44    2.18
  -3   2 -18   70.44    2.18
  -3   2 -16  496.14    3.41
  -3   3 -17   45.87    2.09
  -3   3 -16   13.92    1.88
  -3   3 -14    1.30    1.62
  -2  -2 -20  134.17    2.14
  -2  -2 -19  167.47    2.28
  -2  -2 -14   15.52    1.02
  -2  -2 -13  841.63    3.87
  -2   0  -6   94.19    2.03
  -2   2  -4 1765.66    8.15
  -2   6  -8   94.27    3.00
  -1  -3 -21  200.94    2.58
  -1  -3 -20  510.56    3.29
  -1  -3 -12   19.99    1.32
  -1  -2  -7 4077.62    9.67
   0  -3  -8   98.54    1.88
   1  -4 -13  280.11    2.76
   2   1   4 5423.30   12.30
   2   2   5 2215.44    7.26
   3   0   3 1322.23    5.87
   4   5   8  769.13    3.84
   4   7   8  539.77    3.65
   4   9   7  112.07    2.58
   5  -1   0 1953.45    7.65
   5   3   7  837.55    3.90
   6  -2  -5   50.78    2.43
   7   3   6    0.88    1.20
   8   4   6    1.90    1.60
  -3   0 -18  466.36    3.32
  -3   0 -17   46.67    1.93
  -3   0 -14   23.31    1.62
  -3   1 -19  163.33    2.32
  -2  -2 -21  417.32    3.31
  -2  -2 -12   71.21    1.72
  -2  -1  -8 2813.45    7.78
  -1  -3 -22  126.20    2.36
  -1  -3 -11  306.27    2.62
   0  -4 -19  357.81    2.87
   0  -4 -18   59.16    1.69
   0  -4 -17  170.31    2.19
   0  -4 -16  863.81    4.00
   0   8  -1  182.78    6.19
   1  -4 -12  977.78    4.98
   2  -4 -11 1212.68    6.57
   2   4   6    1.77    1.19
   2   6   6  230.63    2.66
   3   4   7 1910.27    6.06
   3   7   7  331.98    2.90
   4   6   8  888.14    4.20
   5   5   8  483.00    3.11
   5   8   8   24.48    1.69
   6   2   5  285.14    2.63
   6   5   8   16.62    1.37
   7   2   4  545.86    3.65
   7   6   8  145.37    2.23
  -3   0 -20    2.19    1.85
  -3   0 -19  123.03    2.04
  -3   0 -12  737.23    3.85
  -3   1 -11  690.57    3.78
  -3   4 -13  379.83    3.70
  -2  -2 -22   55.03    1.73
  -2  -2 -11 3627.30    7.98
  -2   6  -7    9.40    2.08
   0  -4 -21   55.47    1.83
   0  -4 -20   83.07    1.92
   0  -4 -15   94.40    1.48
   2   5   6  285.58    2.89
   3  -4 -11  864.15    7.41
   3  -2  -2  465.66    5.80
   3   5   7  493.31    3.41
   3   6   7 1155.65    5.07
   3   8   6    1.87    1.63
   3   9   5   29.11    1.99
   4  -4 -13  419.51    6.76
   5   0   2    3.24    1.29
   5   1   4 1315.29    5.18
   5   6   8  161.90    2.17
   5   7   8  389.77    3.09
   6   3   6  142.42    2.08
   6   4   7  956.67    4.10
   6   6   8  158.93    2.20
   6   8   8  158.76    2.55
   7   1   2    6.52    1.50
   7   5   7   27.86    1.66
   7   7   8   45.60    1.59
   8   1   0   41.76    2.21
   8   3   4   29.65    1.86
  -3  -1 -19   17.06    1.68
  -3  -1 -18  299.92    2.76
  -3  -1 -17  143.83    2.20
  -3  -1 -16   54.19    1.78
  -3  -1 -15  545.26    3.34
  -3   0 -11  312.24    2.80
  -3   1 -10   69.03    1.63
  -3   2  -9  435.99    3.35
  -3   4 -12   69.96    2.27
  -2  -2 -10 1251.24    4.85
  -2  -1  -7  509.97    3.55
  -2   1  -4 4227.52   11.98
  -1  -3 -10 3197.80    7.73
   0  -2  -4   67.95    1.98
   1  -4 -11  898.48    5.01
   1   6   4   44.30    1.81
   2   9   3  170.87    3.07
   3   1   4   35.13    1.41
   4   8   7  105.30    2.01
   4   9   6    3.03    1.94
   5   4   7   49.77    1.52
   5   9   7   28.80    1.70
   6   1   3 1172.77    4.89
   6   7   8  121.23    1.83
   7  -1  -4   47.48    2.49
   7   3   5   22.62    1.51
   7   4   6  176.36    2.43
   8   5   6    1.01    1.39
  -3  -1 -21   45.57    2.10
  -3  -1 -20   34.93    1.90
  -3  -1 -13   51.62    1.73
  -3   1  -9 2124.51    6.92
  -3   3  -9  713.95    4.76
  -3   4 -11    1.44    1.70
  -2  -3 -17 1853.75    5.78
  -2  -3 -15  890.68    4.02
  -1  -2  -6 1026.78    5.04
  -1   0  -2  714.85    6.26
   0  -4 -12  641.82    3.64
   0  -3  -7 2811.45    9.13
   1   3   4 5479.36   13.72
   1   8   2  324.83    4.20
   2   7   5  133.66    2.44
   2   8   4  124.23    2.70
   3   2   5 8296.17   13.27
   4   7   7  125.64    2.19
   6  -1  -2  572.48    4.53
   6   5   7  158.48    2.06
   7   6   7  729.89    3.79
   7   8   7   59.83    2.28
   8   6   6    2.95    1.97
  -3  -1 -12 1010.97    4.39
  -3   0 -10   20.10    1.25
  -3   2  -8  349.74    3.21
  -2  -3 -22   22.90    2.06
  -2  -3 -14 2056.16    5.94
  -2  -2  -9  169.02    2.16
  -2   3  -3   16.18    1.80
  -1  -4 -21   57.14    1.80
  -1  -4 -20  250.59    2.66
  -1  -4 -19   99.16    1.91
  -1  -4 -18    0.90    1.22
  -1  -4 -17  391.91    2.81
  -1  -4 -16  994.56    4.19
  -1  -3  -9  935.19    4.43
   1  -4 -10  113.35    2.39
   2   0   2  302.44    3.56
   2   3   5 1618.98    6.42
   3   7   6   32.41    1.64
   4  -1   0  559.25    4.42
   4   5   7  137.30    1.79
   4   6   7  235.11    2.49
   5  -2  -4  824.52    6.60
   5   5   7  262.05    2.48
   5   8   7   57.23    1.57
   6  -2  -6  600.36    6.25
   6   8   7  254.30    2.87
   7   2   3   13.32    1.50
   7   7   7  125.56    1.99
   8   3   3   45.55    1.86
  -3  -2 -20   27.19    1.86
  -3  -2 -18  416.10    3.12
  -3  -2 -16  300.78    2.62
  -3  -1 -11  766.09    3.95
  -3   3  -8  517.87    4.17
  -2  -3 -13  118.95    1.65
  -2   2  -3 2869.13   11.68
  -1  -4 -15   48.56    1.26
  -1  -4 -14  777.91    3.76
   0  -4 -11  356.20    2.92
   1   9   0   71.58    2.96
   3   4   6  252.49    2.59
   3   9   4  416.19    4.28
   4  -4 -12    1.33    3.13
   4   8   6  276.12    3.10
   5   1   3 1117.93    4.95
   5   6   7  206.82    2.35
   5   7   7   58.83    1.74
   5   9   6  140.24    2.47
   6   3   5    0.82    1.51
   6   4   6  158.97    1.86
   6   6   7   60.72    1.48
   6   7   7  229.42    2.29
   7   4   5  440.11    3.31
   8   5   5   40.08    1.61
  -3  -2 -21  149.90    2.21
  -3  -2 -15  365.76    2.64
  -3  -2 -14  350.73    2.75
  -2  -3 -12  691.55    3.59
  -2  -2  -8 3261.66    8.11
  -2  -1  -6  761.05    4.33
   1   4   4 4158.06   11.70
   2  -1   0  264.20    4.32
   2   2   4 1747.74    7.00
   2   6   5   87.64    1.93
   3   5   6    2.04    1.42
   3   6   6  121.15    2.14
   3   8   5  218.95    2.77
   4   9   5  173.32    2.77
   6   1   2   12.14    1.31
   6   9   6  247.22    2.79
   7  -1  -5  354.95    4.41
   7   6   6   13.69    1.62
   7   8   6   28.94    2.12
   8   6   5  175.40    2.70
  -3  -2 -13  218.80    2.36
  -3  -1 -10  289.73    2.54
  -3   0  -8 1224.19    5.28
  -3   2  -7    0.87    1.31
  -3   5 -11   27.74    2.19
  -2  -3 -11 1074.20    4.43
  -1  -3  -8  167.47    2.16
   1  -5 -19  260.77    3.27
   1  -5 -18  239.98    2.96
   2   1   3    4.05    1.26
   2   4   5 1600.85    6.20
   2   5   5  440.74    3.49
   2   9   2    8.03    2.05
   3  -1   0    3.30    1.30
   4   7   6   38.72    1.67
   5   2   4 1037.12    4.55
   5   8   6   88.18    2.09
   6   5   6  978.68    3.94
   6   8   6  140.64    2.48
   7   7   6  330.40    2.69
   8   1  -2  228.99    3.45
  -4   0 -18   39.08    2.01
  -4   0 -17    1.07    1.86
  -4   1 -18    7.77    1.93
  -4   1 -16   75.76    2.20
  -4   2 -16  117.37    2.55
  -3  -3 -20   23.68    1.75
  -3  -3 -19   95.09    2.04
  -3  -2 -12 1061.20    4.37
  -3   1  -7  266.61    2.68
  -2  -4 -21  362.27    3.22
  -2  -4 -20   77.08    2.08
  -2  -4 -18   70.51    1.85
  -2  -4 -17  348.85    2.76
  -2   0  -4 1162.60    6.01
  -2   4  -3  357.97    5.30
  -1  -2  -5  610.28    4.15
   0  -5 -20  233.79    2.73
   0  -5 -19   99.72    2.03
   0  -4 -10  416.10    3.27
   0  -3  -6 3268.51   10.54
   1  -5 -17    6.04    1.55
   1  -5 -16  276.83    3.27
   1   2   3 6403.54   15.76
   2  -5 -17  354.42    4.25
   2   7   4 1452.28    6.61
   3   3   5  905.88    4.27
   4   5   6  891.10    4.16
   4   6   6  277.40    2.66
   5   5   6 1188.33    4.56
   5   7   6  872.79    4.23
   5   9   5  160.91    2.73
   6   4   5  357.11    2.81
   6   6   6  847.19    3.89
   6   7   6  308.20    2.86
   7   5   5    3.08    1.20
  -4   0 -14   36.67    1.73
  -4   2 -14    3.63    1.90
  -3  -3 -21   17.62    1.54
  -3  -3 -17   24.04    1.31
  -3  -3 -16  179.97    2.26
  -3  -2 -11  818.04    3.92
  -3  -1  -9 2656.49    7.11
  -2  -4 -16  183.87    1.93
  -2  -4 -15   55.79    1.57
  -2  -3 -10  610.47    3.48
  -2  -2  -7 4164.27    9.43
  -2   1  -3  584.66    4.89
   1   6   3 2732.84   10.13
   2  -5 -16   23.62    2.26
   2   8   3  406.81    4.00
   3   2   4 5408.77   11.07
   3   7   5  304.85    2.94
   4   8   5  572.75    4.02
   5   6   6  142.96    1.85
   6   9   5   86.71    2.04
   7   6   5  113.68    2.07
   7   8   5   14.30    2.02
   8   6   4  278.39    2.98
  -4  -1 -17  138.08    2.06
  -4  -1 -16  253.73    2.77
  -4  -1 -15   66.28    1.90
  -3  -3 -15 1166.97    4.43
  -3  -3 -14 1055.56    4.43
  -3   0  -7  701.50    4.16
  -3   2  -6  471.96    3.90
  -2  -4 -14 1029.65    4.27
  -2  -1  -5 3793.37    9.86
   0   3   2 2109.99   12.18
   0   4   2  349.37    5.01
   0   7   0  282.04    5.05
   1  -5 -15  559.87    4.44
   1   8   1   11.56    1.65
   3   4   5 4043.21    9.21
   3   8   4  487.19    3.87
   3   9   3  249.48    3.32
   4   9   4  312.99    3.32
   5   1   2  713.79    4.07
   5   8   5  522.33    3.64
   6  -2  -7   81.07    2.88
   6   8   5   12.78    1.81
   7  -1  -6  171.75    3.47
  -4  -2 -20    2.69    1.74
  -4  -2 -19   52.27    1.97
  -4  -1 -14   46.02    1.88
  -4   0 -12  616.18    3.94
  -4   3 -14  117.27    2.77
  -3  -3 -13    5.29    1.37
  -3  -2 -10  239.94    2.39
  -3  -1  -8 1490.62    5.74
  -3   1  -6 2436.28    7.97
  -3   3  -6 1327.05    6.99
  -3   4  -7   15.80    2.11
  -2  -4 -13  972.39    4.09
  -2  -3  -9   74.16    1.63
  -1  -5 -20  205.87    2.41
  -1  -5 -19  104.79    2.07
  -1  -5 -18  162.62    2.32
  -1  -5 -17  280.09    2.68
  -1  -3  -7 1921.96    6.63
   0  -5 -15  411.21    3.23
   0  -4  -9 1732.96    6.81
   0   6   1    5.33    1.91
   1  -5 -14  262.55    3.22
   1   9  -1  221.55    4.54
   2  -5 -15  801.61    6.04
   2   3   4 5023.88   11.42
   2   6   4 1636.39    6.65
   3   5   5 1006.41    4.79
   3   6   5 1209.47    5.06
   4   7   5  430.51    3.30
   5  -2  -5  125.28    3.11
   5   3   4  141.33    2.12
   5   9   4    3.65    1.90
   6   6   5   17.39    1.57
   6   7   5  185.17    2.50
   7   1  -1    0.45    1.56
  -4  -2 -18  331.54    2.91
  -4  -2 -17   20.47    1.38
  -4  -2 -16  864.29    4.31
  -4  -1 -13   98.15    2.15
  -4   1 -11   11.17    1.62
  -4   2 -11   12.77    1.77
  -1  -5 -16  312.56    2.85
  -1  -4 -10 1994.72    6.44
   0  -5 -14    9.95    1.44
   2   9   1   68.54    2.38
   4   5   5  806.46    4.02
   4   6   5 1707.51    5.72
   5  -3  -9  158.24    5.15
   5   5   5  767.87    3.65
   5   6   5 1103.67    4.64
   5   7   5  135.01    2.12
   6  -1  -4    1.57    1.90
   6   9   4   46.34    1.76
   7   6   4  216.51    2.47
   7   7   4  287.56    2.89
   7   8   4  162.96    2.48
   8   6   3    6.03    1.47
  -4  -2 -15  371.74    2.78
  -4  -1 -12  897.93    4.34
  -4   0 -11    4.36    1.10
  -4   3 -12   10.44    1.99
  -3  -4 -21  307.56    3.12
  -3  -4 -18  600.89    3.55
  -3  -3 -12 1511.31    4.96
  -3  -2  -9  209.34    2.29
  -3   0  -6 1215.29    5.50
  -3   5  -8    4.19    2.13
  -2  -2  -6 1217.07    5.36
   1  -5 -13  471.94    4.46
   1   3   3 3325.56   11.35
   1   5   3 1983.29    8.43
   2  -5 -14  144.77    3.23
   2   4   4 1616.90    6.49
   2   5   4 2808.98    8.49
   3   7   4  665.12    4.14
   4   8   4  192.22    2.74
   4   9   3    4.28    2.01
   6   8   4    3.81    1.78
  -4  -3 -19   79.38    2.22
  -4   3 -11    5.15    1.87
  -3  -4 -16   53.97    1.46
  -3  -4 -15  681.66    3.58
  -3  -3 -11 1371.47    4.91
  -3  -1  -7    6.23    0.97
  -3   2  -5 1453.21    7.06
  -2  -5 -20  200.54    2.36
  -2  -5 -19   68.26    1.88
  -2  -3  -8  470.52    3.23
  -2   2  -2 4958.59   16.38
  -1  -5 -14  547.58    3.48
  -1  -2  -4 2881.23    9.93
   0   8  -2  113.04    4.12
   2   7   3  610.31    4.45
   2   8   2  160.22    2.97
   3   8   3   46.12    1.95
   3   9   2   34.35    2.30
   5   8   4  100.03    2.03
   6   1   0  488.48    3.39
   6   5   4  368.43    2.59
   6   7   4   42.27    1.86
   6   9   3  151.74    2.64
   7   0  -4   14.46    1.86
   7   2   0   30.96    1.81
   8   1  -4   28.62    2.01
   8   6   2  140.31    2.55
  -4  -3 -16   65.74    1.87
  -4  -2 -13 1096.21    4.49
  -4  -1 -11  183.76    2.08
  -3  -4 -14  160.78    2.09
  -3   1  -5 1966.88    7.49
  -3   4  -6  333.76    4.25
  -2  -5 -17  782.82    3.77
  -2  -5 -16   43.37    1.50
  -2  -4 -11 1451.49    4.89
  -2   3  -2 1230.66    9.01
  -2   7  -7    1.18    3.23
  -1  -4  -9  263.51    2.65
  -1  -3  -6 2132.93    7.67
   0  -4  -8  421.73    3.78
   2   2   3 1044.65    5.51
   4   7   4  270.30    2.78
   5   9   3   13.08    1.48
   6  -2  -8  103.80    3.39
   6   4   3  268.79    2.59
   6   6   4  304.78    2.40
   7   1  -2  532.81    3.79
   7   3   1  487.61    3.28
   7   7   3  298.59    2.92
   7   8   3   77.44    1.93
  -4  -3 -15  282.59    2.69
  -4   1  -9  527.30    3.62
  -4   3 -10   88.08    2.50
  -3  -3 -10   46.42    1.54
  -3  -2  -8 3577.08    8.08
  -3   3  -5  475.48    4.80
  -2  -5 -15  486.01    3.19
  -1  -5 -13  703.80    3.89
   1  -5 -12  770.46    5.51
   2  -5 -13    7.20    1.97
   3  -5 -15    1.28    2.45
   3  -2  -3   91.69    2.86
   3   1   2 1393.11    6.16
   3   2   3  807.90    4.40
   3   4   4  532.73    3.47
   3   5   4 2312.52    7.11
   3   6   4  979.51    4.59
   4  -2  -4 1506.10    8.77
   5   2   2  774.23    4.11
   5   3   3 3681.33    8.06
   5   5   4  540.80    3.17
   5   6   4  240.42    2.55
   5   7   4   36.80    1.31
   6   3   2   37.24    1.65
   6   8   3  190.33    2.65
   8   3  -1   29.85    1.71
   8   4   0    2.71    1.79
   8   5   1  198.07    2.41
  -5  -1 -18    1.35    2.11
  -4  -4 -20    0.16    1.82
  -4  -3 -14  175.69    2.28
  -4  -2 -11   15.97    1.56
  -3  -5 -20   63.86    2.09
  -3  -5 -19   81.58    1.98
  -3  -4 -13   12.12    1.07
  -3  -1  -6 1571.45    5.96
  -2  -4 -10 1334.93    5.13
   1   6   2  421.08    4.37
   2   9   0  214.69    3.41
   3  -1  -1 2732.72   10.99
   4   5   4  129.19    1.99
   4   6   4  244.06    2.27
   4   8   3    6.77    1.61
   4   9   2   67.69    2.33
   5   8   3  216.66    2.69
   6  -1  -5  450.00    4.20
   6   5   3  773.46    3.78
   6   9   2   35.92    2.21
   7   2  -1   73.31    2.04
   7   5   2    1.60    1.63
   7   8   2    1.54    1.96
   8   2  -3    2.62    1.91
  -5   1 -15   18.49    2.24
  -4  -4 -18  953.65    4.82
  -4  -4 -17    3.25    1.61
  -4  -3 -13  172.00    2.23
  -4  -1  -9 2115.00    6.55
  -4   4 -11   55.28    2.66
  -3  -5 -18  187.36    2.46
  -3  -5 -17  184.51    2.27
  -3  -4 -12  200.88    2.23
  -3  -3  -9 1508.77    5.18
  -2  -5 -14  654.53    3.43
  -2  -3  -7 5457.12   10.41
  -2  -2  -5 2243.37    7.25
  -2   1  -2 2342.85   10.29
   1   9  -2    4.28    2.17
   3   7   3  245.20    2.82
   4  -1  -2  491.26    4.48
   5  -2  -6  688.33    5.90
   5   9   2  240.10    2.92
   6   1  -1   15.93    1.49
   6   6   3  283.40    2.52
   6   7   3  513.39    3.15
   7  -1  -8  166.71    3.31
   7   0  -5  160.90    2.83
   7   4   1  279.41    2.81
   7   7   2   45.70    2.02
   8   5   0  210.61    2.86
  -5  -2 -16  237.03    2.86
  -5  -1 -15    1.29    1.30
  -5  -1 -14  183.40    2.51
  -4  -4 -16  570.20    3.60
  -4  -3 -12  689.18    3.63
  -4  -2 -10  567.40    3.44
  -4   0  -8   23.07    1.65
  -4   2  -8   19.31    1.83
  -3  -5 -16    0.74    1.49
  -3  -2  -7  271.15    2.39
  -2  -5 -13  158.22    2.06
  -1  -6 -19  216.92    2.95
  -1  -6 -18    6.26    1.52
  -1  -1  -2   89.71    2.44
   2   3   3 1530.90    6.52
   2   7   2    5.76    1.89
   2   8   1  215.56    3.33
   4   7   3   16.05    1.63
   5   7   3  387.79    2.99
   6   4   2    3.03    1.49
   6   8   2  324.74    3.15
   8   4  -1  205.88    2.66
  -5  -3 -18    0.54    1.79
  -4  -4 -15  750.92    4.00
  -3  -4 -11 1092.64    4.36
  -3   1  -4   39.54    1.74
  -3   2  -4   95.26    2.33
  -2  -4  -9   36.28    1.20
  -1  -6 -17  336.52    3.34
   0  -6 -17   82.89    2.52
   0   5   1   62.83    2.53
   1  -5 -11  199.71    3.09
   2   4   3 1600.94    6.54
   2   5   3 1434.08    6.08
   3   3   3    2.60    0.82
   4   9   1  378.48    3.71
   5   3   2  687.60    3.77
   5   6   3  541.88    3.37
   6   3   1  386.70    2.96
   6   9   1   32.90    2.18
   7   5   1  327.00    2.88
   7   8   1    6.96    1.98
   8   6   0    0.92    1.44
  -5  -3 -17  199.08    2.84
  -5  -2 -14   35.20    2.08
  -5   1 -12    8.51    1.82
  -4  -4 -14   42.90    1.66
  -4  -3 -11 1037.65    4.37
  -4  -2  -9  776.15    3.97
  -4   1  -7  537.78    3.87
  -3  -5 -14  697.48    3.60
  -3  -3  -8 2532.15    6.73
  -3  -1  -5  704.72    4.16
  -3   4  -5  403.14    4.90
  -2  -6 -19   10.60    1.37
  -2  -6 -18  215.20    2.67
  -2  -5 -12  124.96    2.00
  -1  -3  -5    6.72    1.28
   0  -6 -16  456.93    4.17
   0  -4  -7  694.21    5.22
   0   7  -1  465.45    5.77
   1  -6 -17   11.67    1.95
   1  -4  -7   17.53    2.18
   1   2   2 4118.85   13.58
   3  -5 -14  322.00    7.10
   3   6   3   11.68    1.17
   4   6   3  210.75    2.34
   4   8   2  424.72    3.22
   5   2   1   32.14    1.53
   5   8   2  424.54    3.08
   5   9   1  154.48    2.73
   6  -2  -9  327.40    4.73
   6   5   2  292.34    2.39
   6   7   2   47.53    1.45
   7   0  -6  315.61    3.59
   7   6   1  266.74    2.61
   7   7   1  264.17    2.82
   8   5  -1    2.93    2.03
  -5  -3 -15   16.30    1.63
  -5  -2 -13  529.40    3.69
  -5  -1 -12   18.81    1.73
  -4  -5 -19    7.64    1.47
  -4  -5 -18   28.64    1.90
  -4  -4 -13  509.65    3.20
  -4   0  -7   70.85    1.91
  -4   2  -7  572.95    4.39
  -3   3  -4   78.59    2.60
  -2  -6 -17   45.84    1.96
  -2  -3  -6  904.31    4.56
  -2  -1  -3    3.36    1.35
   0  -6 -15  300.57    3.64
   2   9  -1   18.66    2.27
   3   5   3  428.07    3.21
   3   9   0   98.91    3.19
   4   5   3  267.04    2.38
   5  -3 -10  470.72    6.99
   6  -1  -6  457.61    4.22
   6   1  -2  950.64    4.69
   6   8   1    0.41    1.85
   7   1  -4   16.91    1.80
   7   3  -1   -0.34    1.13
   8   2  -5   52.42    2.50
   8   4  -2  206.11    2.45
   8   6  -1  125.33    2.52
  -5  -4 -18    5.58    1.94
  -5  -1 -11    7.90    1.58
  -5   0 -11  186.46    2.36
  -4  -3 -10  265.90    2.42
  -3  -6 -19   83.74    2.37
  -3  -5 -13   11.69    1.43
  -3   0  -4  873.69    4.84
  -2  -6 -16  624.31    3.94
  -2  -5 -11  693.42    3.85
  -2  -4  -8 3048.42    7.99
  -2   4  -2 2485.09   17.24
  -1  -6 -15   47.06    1.85
  -1  -4  -7 2138.66    7.58
  -1  -2  -3 7072.36   16.72
   0   6   0  359.98    4.84
   1  -6 -16   46.14    2.35
   1   8  -1  197.58    3.43
   3   2   2 3098.59    8.58
   3   7   2  148.12    2.32
   3   8   1  405.29    3.67
   4   7   2  970.01    4.80
   5   7   2  104.38    1.70
   6   4   1   36.97    1.30
   6   9   0   27.07    2.07
   7   8   0  108.85    2.24
  -5   0 -10  861.52    4.67
  -4  -5 -16   78.18    1.68
  -4  -4 -12  638.69    3.29
  -4  -2  -8  449.46    3.19
  -4  -1  -7  678.85    3.84
  -3  -6 -18  101.07    2.20
  -3  -3  -7    2.60    1.19
  -3   6  -8    3.29    2.96
  -2  -6 -15    1.22    1.60
  -2   0  -2  295.29    3.59
  -1  -6 -14  256.68    2.83
   0   8  -3    1.92    2.31
   1   4   2 5896.64   14.93
   2   6   2   23.37    1.44
   2   8   0  704.50    5.38
   3   1   1 2176.52    7.77
   4   8   1  153.51    2.47
   4   9   0  143.66    2.60
   5   6   2 1412.75    4.91
   5   8   1   64.94    1.91
   6   5   1  538.20    3.33
   7   4  -1   19.86    1.84
   7   6   0   58.95    1.62
   8   3  -4   46.37    2.11
   8   4  -3   25.81    2.00
  -5  -4 -16  547.83    3.56
  -5  -3 -13  200.36    2.26
  -5   1 -10   90.53    2.27
  -4  -5 -15  340.48    2.67
  -4  -4 -11  198.63    2.14
  -4  -3  -9 2071.99    6.01
  -4   0  -6 1142.85    5.27
  -4   1  -6 1922.44    7.10
  -4   3  -7   96.15    2.55
  -3  -6 -17  448.13    3.17
  -3  -5 -12  879.10    3.86
  -3  -4  -9  332.15    2.52
   0  -1  -1   18.89    2.41
   1  -6 -15  337.90    4.61
   1  -5 -10  129.23    2.97
   1   6   1  448.04    4.29
   1   7   0  426.22    4.56
   2   7   1  627.22    4.50
   4  -2  -5   13.52    1.92
   4   6   2  575.04    3.51
   5  -2  -7  885.26    6.51
   5   3   1  281.90    2.39
   6  -2 -10  178.48    4.06
   6   8   0  136.64    2.57
   7   1  -5  604.17    4.36
   8   6  -2   79.86    1.91
  -5  -4 -15  288.16    2.62
  -5   2 -10  446.33    4.28
  -4  -5 -14  212.22    2.14
  -4   2  -6  383.07    3.73
  -3  -6 -16  123.13    1.89
  -3  -2  -5 8315.17   13.40
  -3  -1  -4   33.65    1.44
  -2  -6 -14  699.29    4.18
  -2  -5 -10  725.29    4.06
  -1  -6 -13  487.90    3.93
   0  -3  -4 2497.17   11.65
   0   4   1   29.76    2.27
   2   5   2  339.82    3.24
   2   9  -2   14.60    2.37
   3   6   2  744.71    4.02
   3   9  -1   -0.12    2.48
   4  -1  -3  130.82    2.67
   4   5   2 1086.04    4.68
   5   2   0 1687.37    5.65
   5   7   1  139.48    2.15
   6   1  -3  691.77    4.10
   6   4   0  571.47    3.51
   7   5  -1    0.93    1.72
   7   7  -1   29.60    1.96
   8   3  -5  785.32    4.91
   8   5  -3  278.02    3.27
  -6  -2 -16    9.78    1.67
  -6  -2 -15    8.78    1.89
  -6  -1 -15    3.61    1.64
  -5  -5 -18   74.35    2.03
  -5  -5 -17   18.21    1.79
  -5  -4 -14   43.14    1.47
  -5  -1  -9  518.04    3.59
  -5   0  -9  205.84    2.34
  -4  -6 -18  291.14    3.05
  -4  -5 -13    3.69    1.50
  -4  -1  -6 2525.72    7.38
  -3  -6 -15  284.88    2.76
  -3  -5 -11  815.13    3.75
  -3   1  -3 1076.11    6.06
  -3   2  -3 1066.95    6.91
  -2  -4  -7  770.15    4.26
  -2  -3  -5 1876.45    6.72
   1   1   1 7201.03   20.14
   2   3   2 1450.92    6.49
   3   5   2  611.09    3.80
   3   7   1 1238.76    5.43
   3   8   0  253.98    3.10
   4   7   1  394.12    3.28
   4   9  -1   80.59    2.40
   5   6   1  137.93    2.15
   5   8   0  103.14    2.23
   5   9  -1  239.93    2.96
   6   5   0  516.45    3.29
   6   7   0  353.81    2.92
   7   4  -2   41.67    1.93
   7   6  -1  180.76    2.16
   8   4  -4    0.97    1.45
   8   6  -3   26.19    2.03
  -6  -2 -14   12.56    1.89
  -6  -1 -14  439.56    3.89
  -6   0 -14    2.96    2.23
  -5  -5 -16  126.20    2.43
  -5  -4 -13  518.25    3.38
  -5  -3 -11   -0.28    1.09
  -4  -6 -17    2.41    1.65
  -4  -4 -10  101.39    1.55
  -3  -6 -14  250.18    2.51
  -3  -4  -8 1155.48    4.56
  -3  -3  -6  187.55    2.24
  -2  -6 -13  694.16    4.16
  -1   5  -1 1229.60   13.11
   0  -4  -6 2316.70   10.07
   2   4   2  657.69    4.19
   3  -1  -2 2937.58   11.41
   3   4   2 2584.65    7.37
   4   8   0    7.22    1.70
   5  -1  -5    1.29    1.48
   6   3  -1    2.65    1.07
   6   6   0  618.65    3.39
   6   8  -1  432.27    3.50
   6   9  -2   62.11    2.43
   7   0  -8   93.45    2.86
  -6  -3 -15   73.71    2.46
  -6   0 -13    1.81    2.08
  -5  -5 -15   30.78    1.85
  -5  -4 -12  444.11    3.02
  -5  -2  -9  742.54    4.01
  -5   0  -8  185.98    2.53
  -5   2  -9   55.35    2.27
  -4  -6 -16  155.72    2.37
  -4  -5 -12  963.49    4.24
  -4   0  -5 1059.03    5.15
  -4   1  -5  187.17    2.55
  -3  -5 -10   76.95    1.72
  -3   0  -3 1338.73    6.32
  -2  -5  -9  474.55    3.44
  -1  -6 -12  310.56    3.23
  -1  -3  -4 5708.48   13.99
   1   9  -4   89.38    3.53
   3   9  -2  221.69    3.68
   4   6   1  400.74    3.12
   5  -3 -11   94.57    3.73
   5   7   0    8.33    1.58
   7   5  -2  317.23    2.85
   7   6  -2   89.01    2.09
   8   3  -6  181.76    2.89
   8   6  -4   -0.10    2.12
  -6  -4 -16   66.63    2.22
  -6  -1 -12   87.46    2.26
  -6   0 -12    7.29    1.89
  -5  -5 -14   21.03    1.57
  -5  -3 -10  241.28    2.28
  -5  -1  -8   37.38    1.78
  -5   1  -8    2.35    1.66
  -5   3 -10   87.51    2.94
  -4  -6 -15  394.17    3.06
  -4  -4  -9  668.78    3.49
  -3  -6 -13  182.00    2.31
  -3   4  -4    3.88    1.96
  -2  -7 -17  329.90    3.52
  -2  -6 -12    2.99    1.44
  -1  -7 -17   85.18    2.40
   0   3   1   28.04    2.26
   1   5   1  615.86    4.98
   2   6   1  513.67    3.81
   2   7   0  412.33    3.74
   2   9  -3  114.71    3.64
   4   9  -2  199.33    3.03
   5   8  -1  245.41    2.84
   5   9  -2  151.88    2.47
   6  -2 -11   54.85    2.94
   6  -1  -8   78.21    2.63
   6   1  -4   26.59    1.73
   6   7  -1   83.13    1.69
   6   9  -3   19.27    2.25
   7   2  -5  103.55    2.42
   7   8  -3   61.63    2.23
  -6  -4 -15  107.80    2.40
  -6  -3 -13  195.13    2.66
  -5  -4 -11   26.23    1.57
  -4  -6 -14   34.66    1.68
  -4  -5 -11  544.80    3.07
  -4  -3  -7   73.09    1.37
  -3  -7 -17  262.41    3.11
  -3  -4  -7 1865.17    6.05
  -3  -2  -4 5518.65   11.30
  -3   3  -3  789.74    6.57
  -2  -4  -6    5.32    1.27
  -2  -2  -3 1066.46    5.55
  -1  -5  -8   34.56    1.61
   3   8  -1   25.89    1.94
   4   5   1 2453.40    6.66
   4   7   0  112.47    2.18
   4   8  -1  146.76    2.50
   5   6   0  545.71    3.39
   7   0  -9  404.04    4.27
   7   1  -7    4.14    1.96
   7   3  -4    6.58    1.58
   7   7  -3  216.61    2.79
   8   4  -6    2.70    2.08
   8   5  -5  179.87    2.61
  -6  -4 -14   32.12    1.92
  -6  -1 -11  398.65    3.62
  -6   0 -11  106.01    2.60
  -6   1 -12   21.45    2.30
  -5  -6 -17   16.82    1.53
  -5  -5 -13  428.83    3.15
  -5   0  -7 1328.92    5.62
  -5   2  -8  284.47    3.58
  -3  -6 -12   96.13    1.95
  -3  -5  -9 1255.16    4.69
  -3  -3  -5  909.49    4.42
  -3  -1  -3  314.82    3.09
  -3   6  -7   68.25    5.25
  -2  -7 -16   26.42    1.51
  -2  -6 -11  945.21    4.70
  -2  -5  -8  905.95    4.67
  -1  -7 -16  334.07    3.89
   0   8  -4   81.34    3.27
   1  -6 -13   25.80    2.30
   1  -1  -1  234.09    6.91
   1   7  -1  688.87    5.53
   2  -2  -3 1007.32   10.72
   3   1   0   79.46    1.87
   3   7   0  239.62    2.66
   4  -4 -12    1.87    3.39
   5   9  -3   17.24    2.19
   6   7  -2   30.13    1.86
   7   5  -3  190.56    2.27
   7   6  -3  322.19    2.77
  -6  -5 -16  201.74    2.97
  -6  -3 -12   65.07    1.76
  -5  -6 -16  285.63    2.80
  -5  -5 -12  321.39    2.70
  -5  -4 -10 1066.07    4.41
  -5  -1  -7  223.61    2.65
  -5   1  -7  435.56    3.77
  -4  -6 -13  126.71    2.07
  -4  -5 -10  116.18    2.03
  -4  -4  -8 1207.06    4.46
  -3  -7 -16   29.52    1.55
  -2  -7 -15   42.13    2.02
  -2  -3  -4 5644.49   11.87
  -1   7  -4  115.58    4.32
   0   5   0  581.41    5.94
   1   6   0 1430.92    7.11
   2   2   1  530.40    4.14
   2   5   1 1573.78    6.33
   3   3   1 3698.82    9.11
   3   4   1 1540.43    5.95
   3   5   1 1986.83    6.40
   3   9  -3   50.88    2.49
   4   9  -3   94.23    2.49
   5   7  -1  433.08    2.97
   5   8  -2  101.96    2.26
   6   4  -2   16.74    1.74
   6   8  -3  351.18    3.42
   7   2  -6  466.01    3.76
   7   7  -4  100.03    2.35
   8   4  -7   23.65    2.28
  -6  -5 -15    1.12    1.81
  -6  -4 -13  448.25    3.28
  -6  -1 -10  178.13    2.74
  -5  -6 -15  191.41    2.30
  -5  -3  -8  206.35    2.38
  -5  -2  -7  490.46    3.29
  -4  -3  -6 1680.64    5.60
  -4   1  -4 1099.01    5.61
  -3  -7 -15  187.87    2.79
  -3  -6 -11 1044.06    4.70
  -1  -7 -15   40.09    2.11
   0  -7 -16  177.04    3.61
   0   6  -1  978.25    7.53
   1   4   1 1267.17    6.95
   1   9  -5   18.55    2.61
   2  -6 -15   34.06    3.54
   2   8  -2   19.25    2.22
   4  -1  -4 2433.33    9.18
   4   6   0  114.35    1.76
   5   6  -1 1013.83    4.48
   6   5  -2  278.04    2.52
   6   6  -2   42.35    1.45
   7   3  -5  276.43    2.63
   7   6  -4  126.48    2.42
  -6  -5 -14  312.55    3.09
  -6  -4 -12  203.05    2.64
  -6  -2 -10  642.37    3.85
  -5  -6 -14    1.95    1.62
  -5  -5 -11  218.83    2.37
  -5  -4  -9  433.30    2.98
  -4  -7 -16    6.39    1.31
  -4  -6 -12  509.51    3.08
  -4  -5  -9  766.75    3.86
  -4  -1  -4   88.69    1.90
  -4   5  -8    1.51    2.69
  -3  -5  -8  732.82    4.07
  -3  -4  -6  249.17    2.66
  -3   1  -2 1911.81    8.42
  -2  -7 -14  387.22    3.63
  -2  -6 -10 1208.34    5.34
  -2   0  -1 3030.79   11.44
  -2   3  -1 2704.30   18.51
  -1  -4  -5   72.33    2.01
  -1  -2  -2 4234.54   13.27
  -1  -1  -1 7583.53   20.09
   1   2   1   88.21    2.21
   1   8  -3   73.92    2.96
   2   3   1 6078.34   12.82
   2   6   0 1873.81    7.04
   3   6   0  318.32    3.03
   3   8  -2  388.56    3.57
   4   5   0   99.78    2.02
   4   8  -2  224.11    2.72
   5   1  -3  888.94    4.74
   5   2  -2   19.01    1.24
   6   3  -3  749.31    3.85
   6   7  -3   25.95    1.82
  -6  -3 -10  109.21    2.24
  -6   0  -9   48.79    1.98
  -5  -6 -13  390.49    3.03
  -5  -1  -6 1203.14    5.18
  -5   0  -6  632.53    3.88
  -5   1  -6  330.21    3.52
  -5   3  -8    5.55    1.99
  -4  -7 -15  263.60    2.94
  -4  -4  -7  132.06    1.74
  -4   2  -4   60.15    2.24
  -4   4  -6  311.25    4.69
  -3  -7 -14  457.89    3.41
  -3  -6 -10  384.42    3.00
  -3   0  -2 5519.24   13.24
  -3   2  -2 2824.55   11.47
  -2  -5  -7 2470.24    7.53
  -2  -4  -5 1685.10    6.47
  -1  -7 -14   44.78    2.15
  -1  -5  -7 2435.89    8.45
   1   3   1 4696.64   13.68
   2   7  -1   34.82    1.77
   3   7  -1  159.75    2.38
   3   9  -4   20.19    2.23
   4   9  -4   39.07    2.31
   5  -3 -12  226.52    4.52
   5   7  -2  198.68    2.21
   6   4  -3  302.19    2.83
   6   6  -3  842.86    4.22
   6   8  -4  480.36    3.47
   7   3  -6  289.50    2.99
   7   4  -5   88.06    1.85
   7   7  -5    0.53    1.43
  -6  -5 -13  113.63    1.88
  -6  -4 -11  152.13    2.06
  -6  -2  -9  217.69    2.35
  -5  -5 -10   36.02    1.58
  -5  -3  -7  821.88    4.05
  -4  -7 -14  356.44    3.08
  -4  -6 -11  220.20    2.15
  -3  -7 -13   30.14    1.70
  -3  -3  -4  665.01    3.94
  -2  -7 -13  180.06    2.65
  -1   3   0  382.52   10.70
   0  -7 -15  190.95    3.58
   3   2   0   32.22    1.45
   5  -2  -9  603.77    5.27
   5   9  -5   69.43    2.56
   7   1  -9   64.30    2.42
   7   5  -5  125.85    2.04
   7   6  -5    0.86    1.47
  -7  -3 -13  175.09    2.99
  -6  -6 -15  118.97    2.17
  -6  -5 -12   26.46    1.68
  -6  -3  -9  141.82    2.22
  -6   1  -9   41.62    2.27
  -5  -6 -12  338.47    2.89
  -5  -2  -6  200.71    2.13
  -4  -5  -8  760.25    3.85
  -3  -5  -7  513.94    3.50
  -1  -3  -3 3480.62   11.36
   1   7  -2  229.09    3.92
   2   1   0 3899.75   11.65
   2   8  -3  613.41    4.95
   2   9  -5    7.70    2.87
   4   6  -1  642.56    3.55
   4   8  -3   66.10    2.05
   5   6  -2   80.39    1.58
   6   2  -5   20.57    1.74
   6   7  -4   72.56    1.69
   6   8  -5    1.14    1.55
   7   4  -6  360.32    3.23
  -7  -3 -12   78.20    2.34
  -7  -2 -12   43.44    1.89
  -6  -6 -14   28.77    1.97
  -6  -4 -10  899.23    4.13
  -6  -2  -8  454.52    3.44
  -6   0  -8  168.01    2.84
  -5  -7 -15  234.21    2.50
  -5  -5  -9  955.76    4.08
  -5   0  -5   38.92    1.64
  -5   2  -6  128.15    2.92
  -4  -7 -13    7.94    1.64
  -4  -6 -10   40.84    1.66
  -4   0  -3  443.20    3.61
  -3  -6  -9   32.53    1.73
  -3  -4  -5 4016.51    9.23
  -3  -1  -2 1449.43    6.37
  -2  -6  -9   26.56    1.59
  -2  -2  -2   82.81    1.78
   0   7  -3   14.08    2.56
   0   8  -5  122.02    3.76
   1   5   0 1212.00    6.41
   2   5   0  680.60    4.32
   3  -1  -3  119.03    2.53
   3   3   0   43.61    1.56
   3   4   0   76.90    1.82
   3   8  -3  537.66    4.06
   3   9  -5   13.22    2.19
   4   5  -1  763.33    3.96
   4   9  -5  139.80    2.72
   5   2  -3 1419.52    5.63
   5   8  -4    1.40    1.34
   5   9  -6   40.96    2.44
   6   4  -4 1041.59    4.66
   6   6  -4  695.73    3.88
   7   1 -10   16.76    2.13
   7   5  -6  177.45    2.49
   7   6  -6  458.19    3.39
  -7  -4 -13   29.99    1.85
  -7  -1 -11  368.42    3.84
  -6  -6 -13  290.48    2.91
  -5  -7 -14    0.74    1.71
  -5  -6 -11   17.44    1.65
  -5  -4  -7   50.00    1.52
  -5  -3  -6 3926.66    8.32
  -5  -1  -5  438.79    3.17
  -5   3  -7  201.50    3.78
  -4   1  -3 1617.20    6.89
  -3  -7 -12  165.25    2.28
  -2  -7 -12   12.24    1.59
  -2  -3  -3 1544.10    6.46
  -1  -6  -9  362.59    3.59
   1   6  -1  699.26    5.00
   1   8  -4  321.41    4.70
   2   7  -2  418.03    3.67
   3   1  -1 5302.41   12.18
   3   6  -1   57.69    1.82
   6   5  -4  164.11    2.01
   7   4  -7  265.28    3.12
   7   7  -7   54.69    1.89
  -7  -4 -12   22.32    2.27
  -7  -3 -11  397.66    3.59
  -6  -4  -9  308.64    2.51
  -6  -3  -8   20.99    1.25
  -6  -1  -7  455.31    3.56
  -6   1  -8  228.61    3.41
  -6   2  -9   40.24    2.53
  -5  -2  -5  184.96    2.35
  -5   1  -5   36.44    1.84
  -4  -7 -12  604.70    3.84
  -4  -6  -9  410.79    3.10
  -4  -5  -7  127.21    2.02
  -4  -1  -3 1567.34    5.97
  -2  -5  -6  301.58    2.96
   0  -3  -3 1551.65    9.87
   2  -6 -14  499.79   10.20
   2   6  -1  304.65    3.10
   2   9  -6   58.49    3.19
   4  -1  -5 1146.16    6.25
   4   6  -2  355.90    2.90
   4   8  -4   50.57    1.94
   4   9  -6    1.89    2.25
   5  -3 -13  567.16    7.10
   5   3  -3   98.26    1.95
   5   6  -3  149.03    2.16
   5   7  -4  253.94    2.80
   5   8  -5  511.23    3.82
   6  -1 -11   44.51    2.38
   6   3  -5   10.61    1.69
   7   2  -9  928.85    5.29
   7   3  -8    0.47    1.80
   7   5  -7   18.03    2.00
   7   6  -7  112.84    2.14
  -7  -5 -13  106.91    2.62
  -7  -1 -10   56.85    2.52
  -6  -6 -12  135.99    2.35
  -6  -5 -10  326.80    2.58
  -6  -2  -7  747.41    4.00
  -6   0  -7  927.00    5.09
  -5  -7 -13   44.23    1.56
  -5  -6 -10  373.15    2.95
  -3  -8 -15   37.19    2.16
  -3  -7 -11  653.09    4.16
  -3  -6  -8 2253.34    6.81
  -3  -5  -6    2.84    1.42
  -2  -7 -11  137.34    2.24
  -2  -6  -8  369.33    3.16
  -2  -4  -4 1630.69    6.46
  -1  -5  -6 3477.65   10.32
   0   4   0 2344.68   11.60
   2   4   0 3366.18    9.37
   2   8  -4   76.29    2.51
   3   8  -4   65.18    2.24
   3   9  -6  148.60    3.16
   4  -2  -7  724.38    5.69
   4   7  -3   62.49    1.59
   5   5  -3   69.30    1.82
   6   2  -6 1524.03    5.65
   6   4  -5    0.21    1.69
   6   6  -5    1.82    1.25
   6   7  -6    1.01    1.82
   6   8  -7   68.17    2.40
   7   1 -11    8.96    2.00
  -7  -5 -12   37.51    2.13
  -7  -4 -11  142.14    2.29
  -6  -3  -7  507.49    3.43
  -5  -7 -12  281.05    2.92
  -5  -4  -6  674.90    3.51
  -5  -3  -5  718.88    3.81
  -4  -7 -11  423.82    3.23
  -4  -4  -5 2896.84    7.12
  -4  -2  -3 5738.63   11.04
  -4   2  -3  947.52    5.99
  -3  -3  -3    2.03    0.85
  -3  -2  -2 3189.30    8.92
  -3   3  -2  873.09    7.98
  -2  -8 -15    2.51    2.04
  -1  -4  -4 4205.73   11.92
  -1   0   0   15.52    1.78
   0  -7 -13  201.86    3.83
   0   6  -2  109.16    3.44
   2   2   0  859.99    5.18
   3   5  -1  999.58    4.80
   4  -4 -13  414.06    7.12
   4   5  -2 1316.75    5.10
   5   2  -4 1851.82    6.42
   5   8  -6    5.88    2.00
   7   2 -10  187.62    3.11
   7   3  -9    5.33    1.95
   7   4  -8  158.07    2.32
   7   5  -8    0.43    2.04
   7   6  -8   10.70    1.62
  -7  -4 -10  123.54    2.37
  -7  -2  -9    2.72    1.88
  -7  -1  -9  181.66    2.88
  -6  -6 -11   32.38    1.44
  -6  -1  -6  489.75    3.59
  -6   1  -7   88.15    2.40
  -6   2  -8  142.33    3.10
  -5  -6  -9  386.54    3.00
  -5  -5  -7  287.16    2.55
  -5  -1  -4 1223.85    5.13
  -5   0  -4  256.19    2.80
  -4  -8 -14   77.40    2.37
  -4  -6  -8  858.01    4.20
  -4  -5  -6  928.26    4.25
  -4   4  -5    2.05    2.25
  -3  -8 -14  265.72    3.29
  -3  -4  -4  556.35    3.37
  -3   1  -1 1520.15    8.11
   0   8  -6    2.20    2.85
   1   4   0 5448.02   13.77
   1   7  -3  748.31    5.60
   1   8  -5   32.23    3.02
   2   3   0 1235.53    5.91
   3   2  -1 2716.99    8.27
   3   6  -2  564.01    3.80
   3   7  -3  308.29    2.99
   4   8  -5   31.48    1.59
   5   6  -4  577.08    3.31
   5   7  -5  327.82    3.16
   6  -1 -12  161.01    3.36
   6   1  -8   12.57    1.73
   6   3  -6  116.71    2.19
   6   6  -6  409.71    3.21
   6   7  -7  203.32    2.88
   6   8  -8   38.42    1.99
   7   1 -12   69.00    2.52
   7   6  -9   85.88    2.47
  -7  -3  -9   86.36    2.22
  -6  -7 -13  144.81    2.19
  -6  -6 -10  332.14    2.78
  -6  -4  -7  969.63    4.23
  -6  -2  -6  264.39    2.52
  -6   0  -6   -0.14    1.57
  -5  -7 -11  228.07    2.68
  -5  -2  -4 1046.47    4.52
  -5   1  -4  460.24    3.78
  -5   3  -6  249.61    4.11
  -4  -7 -10   47.69    1.73
  -4   0  -2 4730.74   11.23
  -3  -7 -10   62.88    1.97
  -2  -8 -14  254.77    3.52
  -2  -7 -10  708.42    4.60
  -1  -7 -11    1.20    1.71
  -1  -6  -8    6.59    1.50
  -1   7  -5  144.94    4.16
   0   5  -1 3015.41   12.15
   2   7  -3  182.30    2.64
   3   3  -1  517.60    3.60
   3   4  -1  452.73    3.16
   3   8  -5  184.86    2.85
   3   9  -7   67.26    2.50
   4   7  -4  455.91    3.40
   5   3  -4 1802.37    5.97
   5   5  -4 1072.01    4.51
   5   8  -7    7.32    2.12
   6   0 -10  171.11    2.89
   6   2  -7 1378.41    5.64
   6   5  -6   78.31    1.92
   7   2 -11  122.80    2.87
   7   3 -10   43.90    2.20
   7   4  -9  443.68    3.42
   7   5  -9   60.98    2.20
  -7  -6 -12   37.44    2.07
  -7  -4  -9   59.56    2.10
  -7  -2  -8   34.33    1.94
  -7   0  -9   15.35    2.13
  -6  -7 -12  134.27    2.38
  -6  -3  -6  146.12    2.20
  -4  -8 -13    6.70    1.96
  -4  -1  -2  388.61    3.26
  -3  -8 -13  168.71    2.81
  -3  -6  -7 1185.93    5.12
  -3  -5  -5 1039.61    4.83
  -2  -5  -5  457.88    3.52
  -2   7  -7    0.79    3.51
   2   5  -1  116.36    1.87
   2   6  -2  727.93    4.47
   4   8  -6  448.81    3.85
   5  -2 -11   46.57    2.60
   6   6  -7  163.88    2.42
   6   7  -8  124.08    2.66
   7   6 -10   10.95    2.20
  -7  -3  -8  199.93    2.69
  -7  -1  -8  559.26    4.29
  -6  -6  -9  200.33    2.33
  -6  -1  -5    2.02    1.33
  -6   1  -6   62.28    2.07
  -5  -8 -13  101.68    2.41
  -5  -7 -10  132.16    2.31
  -5  -6  -8  166.28    1.96
  -5  -5  -6 1201.24    4.66
  -4  -6  -7  241.90    2.53
  -4  -3  -3   35.24    1.18
  -4   1  -2  962.15    5.65
  -3  -1  -1 2194.35    7.91
  -2  -8 -13  275.85    3.79
  -2  -6  -7 1618.42    6.29
  -2  -3  -2 1491.38    6.47
  -2   1   0  269.12    4.36
   1   6  -2  142.10    2.44
   3   7  -4   29.78    1.82
   4  -1  -6  299.51    3.64
   4   5  -3   75.44    1.92
   5   2  -5   41.22    1.82
   5   6  -5  129.07    1.87
   5   7  -6  189.65    2.38
   5   8  -8   74.05    2.48
   6  -1 -13  368.70    4.44
   6   1  -9  102.24    2.37
   6   2  -8   31.84    1.91
   6   3  -7  143.67    2.02
   6   5  -7  514.49    3.51
   7   3 -11   64.72    2.46
   7   4 -10   68.37    1.99
   7   5 -10  484.53    3.67
  -7  -6 -11   13.07    1.40
  -7  -5  -9    4.75    1.66
  -7  -4  -8  505.60    3.55
  -6  -7 -11    3.93    1.77
  -6  -5  -7  171.82    2.08
  -6  -4  -6  155.07    2.15
  -6  -2  -5  281.55    2.60
  -6   0  -5  363.23    3.28
  -6   2  -7  199.66    3.43
  -5   0  -3 1890.20    6.76
  -4  -8 -12   53.96    2.13
  -4  -7  -9  690.63    3.95
  -4  -5  -5  854.74    4.21
  -4  -2  -2 5158.71   10.69
  -3  -8 -12   31.80    1.99
  -3  -7  -9    9.54    1.16
  -3  -3  -2 2643.28    7.85
  -3   2  -1  225.39    3.92
  -1  -2  -1   99.36    2.47
   0  -7 -12  723.38    6.46
   1   3   0 3320.79   11.34
   3   5  -2 2022.16    6.42
   3   6  -3  843.00    4.50
   3   8  -6  323.18    3.47
   4   7  -5  823.88    4.20
   4   8  -7    0.60    2.05
   5   1  -6  256.57    2.63
   5   5  -5  418.54    3.05
   6   4  -7  265.71    2.53
   6   6  -8    3.17    1.74
   6   7  -9   21.23    2.17
   7   5 -11    6.93    2.32
  -7  -6 -10  382.06    3.19
  -7  -3  -7   27.18    1.69
  -7  -2  -7  539.17    3.90
  -7  -1  -7  105.87    2.48
  -6  -3  -5    0.67    1.55
  -5  -8 -12  210.03    2.90
  -5  -7  -9  708.71    3.90
  -5  -6  -7  209.60    2.44
  -5  -2  -3   37.11    1.69
  -3  -4  -3   86.58    1.87
  -2  -7  -9   72.84    2.07
  -2  -4  -3 1618.75    6.26
  -1  -8 -14   23.95    2.57
  -1  -7 -10  606.56    5.01
  -1  -5  -5   22.28    1.65
  -1  -3  -2  420.33    4.07
   0   8  -7    8.77    2.84
   1   7  -4  825.98    5.57
   2   1  -1 1867.82    8.16
   2   4  -1  494.02    3.73
   2   7  -4  389.60    3.51
   2   8  -6  121.72    2.69
   3  -1  -4  578.94    5.00
   4   1  -4 2383.49    7.66
   5   3  -5 1037.85    4.43
   5   4  -5    8.61    1.48
   5   6  -6  464.20    3.33
   5   7  -7  334.11    2.91
   5   8  -9  120.75    2.76
   6   5  -8  373.81    3.18
   7   3 -12  232.56    3.15
  -6  -7 -10  224.35    2.43
  -6  -6  -8  160.90    1.97
  -5  -4  -4   77.54    1.69
  -4  -8 -11  181.41    2.77
  -4  -6  -6  291.83    2.72
  -3  -6  -6  123.57    2.21
  -3  -2  -1 3717.29    9.57
  -2  -8 -12   17.94    1.72
  -1  -6  -7  277.42    3.16
   0  -4  -4  244.95    4.02
   0   3   0 4427.50   16.95
   3   4  -2 1904.93    6.31
   4  -4 -14  298.02    5.91
   4   7  -6  276.88    2.93
   6   0 -12  275.64    3.44
   6   1 -10  387.26    3.51
   6   2  -9  405.65    3.34
   6   4  -8    2.68    1.66
   6   6  -9   20.14    1.86
   6   7 -10  137.68    2.37
   7   4 -12   63.60    2.03
  -7  -6  -9   90.39    2.04
  -7  -4  -7 1323.98    5.13
  -7  -2  -6  120.61    2.28
  -7   0  -7   73.96    2.39
  -6  -5  -6  973.05    4.19
  -6  -2  -4  185.70    2.42
  -6  -1  -4  378.55    3.15
  -5  -8 -11   63.08    2.14
  -5  -5  -5  748.34    3.57
  -5  -3  -3 3698.17    8.35
  -5   1  -3 1736.16    7.16
  -5   3  -5   29.46    2.34
  -4  -7  -8  558.27    3.41
  -4  -4  -3 1537.12    5.47
  -4   2  -2  404.71    4.50
  -4   3  -3 1076.01    7.76
  -3  -8 -11  391.37    3.64
  -3  -7  -8   75.27    1.95
  -3  -5  -4 2416.76    7.18
  -2  -6  -6  237.64    2.76
   0   6  -3  201.84    3.71
   2   3  -1 1194.05    5.94
   2   5  -2  751.16    4.48
   3   3  -2 6230.05   11.76
   3   7  -5   59.26    1.62
   3   8  -7    8.30    1.89
   4   6  -5  258.92    2.75
   4   8  -8  267.01    2.91
   5   1  -7 1397.81    5.84
   5   2  -6  459.91    3.17
   5   6  -7  281.40    2.85
   5   7  -8  280.84    2.73
   6   5  -9   31.84    1.90
   6   7 -11   70.84    2.67
  -7  -3  -6    0.42    1.67
  -6  -7  -9  194.20    2.21
  -6  -6  -7   57.18    1.83
  -6  -3  -4 1739.50    5.86
  -5  -7  -8  421.78    3.21
  -5  -6  -6  120.25    2.10
  -4  -8 -10    4.36    1.67
  -4  -1  -1   65.75    1.75
  -4   0  -1    2.80    1.42
  -2  -5  -4 2953.04    8.46
  -2  -1   0 3808.30   11.80
  -1  -8 -13  434.19    4.97
  -1   4  -1 2002.60   14.20
  -1   7  -6   52.10    3.27
   1  -7 -14   44.48    4.26
   1   8  -7  400.68    4.94
   2   2  -1  116.61    2.20
   2   8  -7   63.11    2.41
   3   5  -3  348.37    3.07
   3   6  -4    1.92    1.56
   4   8  -9  210.68    3.17
   5   3  -6  104.21    1.95
   6   0 -13  133.71    2.89
   6   1 -11   29.88    2.03
   6   2 -10  548.23    3.73
   6   3  -9  134.09    2.01
   6   4  -9  322.27    2.97
   6   6 -10   91.24    1.92
  -7  -7 -10   27.34    2.08
  -7  -6  -8  146.33    2.23
  -7  -5  -7   29.83    1.74
  -7  -4  -6  177.15    2.54
  -6  -8 -11    0.09    1.37
  -5  -8 -10   -1.19    1.75
  -5  -1  -2  688.74    3.97
  -5   0  -2    3.38    1.28
  -3  -8 -10  499.67    3.84
  -2  -8 -11  219.81    3.28
  -2  -7  -8  414.48    3.67
  -2   2   0   65.06    3.17
  -2   6  -5  348.22    7.55
   0  -7 -11   26.57    2.46
   0   8  -8  411.88    5.52
   1   7  -5   96.91    2.78
   2   7  -5    5.79    1.66
   3   8  -8   10.42    2.16
   4   7  -7  155.46    2.22
   5   5  -7 1358.82    5.19
   5   7  -9   24.00    1.66
   6   5 -10  390.23    3.30
   6   6 -11   49.83    2.20
  -7  -2  -5  476.47    3.55
  -7   0  -6   18.44    1.99
  -6  -7  -8  140.07    2.28
  -6  -5  -5    3.22    1.43
  -6  -4  -4  253.15    2.47
  -5  -7  -7   54.86    1.82
  -5  -5  -4  537.18    3.30
  -4  -7  -7  146.62    2.02
  -4  -6  -5 1892.84    6.01
  -4  -2  -1  471.78    3.31
  -4   1  -1  456.76    4.27
  -3  -7  -7  330.79    2.99
  -3  -6  -5 1261.66    5.30
  -1  -7  -9  764.85    5.36
   1   5  -2    8.08    1.42
   3   7  -6  176.74    2.28
   4   1  -5 1081.52    5.25
   4   6  -6   13.46    1.71
   4   8 -10    2.67    2.11
   5   0  -9  134.73    2.36
   5   2  -7  708.11    3.98
   5   6  -8   82.86    1.70
   5   7 -10  128.09    2.67
   6   0 -14    9.43    2.29
   6   1 -12  383.15    3.62
   6   4 -10   93.56    2.15
  -7  -7  -9    4.11    1.71
  -7  -3  -5   22.82    1.33
  -7  -1  -5  236.84    2.83
  -6  -8 -10  228.28    2.89
  -6  -6  -6  832.21    3.80
  -6  -2  -3  530.52    3.35
  -6  -1  -3 1168.72    5.08
  -5  -8  -9   76.53    2.14
  -5  -6  -5 1128.69    4.60
  -4  -8  -9  116.53    2.39
  -4  -4  -2 2642.81    6.95
  -3  -3  -1 3895.23    9.26
  -2  -4  -2  636.42    4.19
  -2  -3  -1 5935.20   12.62
   0   4  -1  995.78    7.28
   0   5  -2  214.82    3.36
   2   4  -2 1633.24    6.53
   2   6  -4  508.45    3.78
   2   8  -8    2.60    1.87
   3   4  -3 1117.52    4.81
   3   6  -5  909.62    4.65
   3   8  -9   27.83    2.20
   4   7  -8   94.77    2.17
   5   1  -8  340.15    2.90
   6   3 -11   68.06    2.17
   6   5 -11  192.74    2.64
   6   6 -12    1.24    1.50
  -8  -3  -7   28.88    1.68
  -7  -6  -7  676.26    3.60
  -7  -4  -5  446.65    3.14
  -6  -7  -7  230.09    2.63
  -6  -3  -3 1069.00    4.44
  -6   1  -4  389.43    3.85
  -6   2  -5  404.75    4.70
  -5   1  -2   10.82    1.83
  -4  -3  -1  295.09    2.66
  -3  -8  -9   71.19    1.99
  -3  -5  -3  412.63    3.02
  -2  -6  -5   84.98    1.89
  -1  -8 -12   85.02    3.02
  -1  -6  -6  617.96    4.74
   2  -2  -4   45.85    2.71
   2   5  -3 1446.77    6.09
   3   2  -3  475.68    3.61
   3   5  -4  152.47    2.33
   3   7  -7  172.15    2.64
   4   2  -5  736.83    4.18
   4   6  -7  141.76    2.36
   4   8 -11   52.89    2.05
   5  -2 -14  355.71    4.25
   5   6  -9   40.02    1.56
   5   7 -11   16.45    1.67
   6   0 -15   54.52    2.45
   6   1 -13  317.24    3.41
   6   2 -12   13.19    2.00
   6   4 -11   20.08    1.57
   6   5 -12   17.99    2.12
   6   6 -13    2.10    1.58
  -7  -7  -8   42.56    1.62
  -7  -3  -4  143.72    2.19
  -7  -2  -4  520.52    3.63
  -6  -8  -9  101.96    2.00
  -6  -5  -4  376.78    2.63
  -6  -4  -3  268.57    2.55
  -6   0  -3   57.02    1.94
  -5  -7  -6  904.80    4.32
  -5  -5  -3 1033.41    4.31
  -5   4  -6    5.85    2.80
  -4  -7  -6   39.95    1.76
  -4  -6  -4  250.45    2.46
  -3  -2   0   32.50    1.46
  -2  -8 -10  384.46    3.84
  -2  -7  -7  677.22    4.49
  -2  -2   0  866.83    5.15
  -1  -5  -4 2702.72    9.36
   0   7  -6    8.43    2.35
   1   7  -6   94.49    2.65
   3   8 -10   25.50    2.25
   4  -3 -12   74.19    2.70
   4   5  -6   53.37    1.76
   4   7  -9   45.39    1.97
   5   0 -10  197.67    2.71
   5   2  -8   99.43    1.75
   5   4  -8  697.37    3.92
   5   6 -10    4.53    1.84
   5   7 -12    2.00    2.27
   6   1 -14  112.48    2.99
   6   4 -12   20.26    2.12
  -8  -4  -6   -0.40    1.72
  -8  -2  -6    0.64    1.97
  -7  -5  -5    1.86    1.24
  -7  -1  -4   90.84    2.02
  -6  -2  -2    1.49    1.33
  -5  -8  -8   22.55    1.39
  -5  -1  -1 1185.40    5.15
  -4  -9 -11  277.33    3.80
  -4  -8  -8  360.01    3.31
  -3  -7  -6   31.53    1.62
  -3  -6  -4  981.40    4.71
  -2  -5  -3 1428.12    5.92
   0   2   0 2146.45   13.79
   0   6  -4  686.36    5.49
   1   3  -1   12.95    1.38
   1   6  -4  129.44    2.33
   1   8  -9   15.38    2.22
   2  -1  -3  590.57    6.02
   3   6  -6  993.09    4.85
   4  -1  -8 1045.14    5.71
   4   1  -6    7.12    1.46
   5  -2 -15    1.18    2.23
   5   1  -9  578.94    3.62
   5   5  -9    2.05    1.17
   5   7 -13   14.11    2.43
   6   5 -14   29.11    2.34
  -7  -7  -7  129.27    2.39
  -7  -4  -4  760.25    3.88
  -6  -8  -8  161.80    2.32
  -6  -7  -6  318.31    2.64
  -5  -3  -1  274.33    2.62
  -5   0  -1    2.63    1.29
  -4  -2   0 2083.71    6.74
  -4   0   0 1689.16    6.94
  -3   6  -7   71.41    5.07
  -1  -7  -8   12.91    2.07
   2   3  -2 3000.12    8.81
   2   6  -5  507.60    3.77
   2   7  -7  404.75    3.59
   3   4  -4    9.63    1.37
   3   8 -11   12.12    1.64
   4   0  -7  955.53    5.13
   4   6  -8  616.92    3.57
   4   7 -10    4.09    1.52
   5   2  -9   88.75    2.05
   5   4  -9    1.79    1.64
   5   6 -11  420.38    3.24
   6   1 -15   81.61    2.58
   6   2 -14   91.15    2.43
   6   3 -13  414.64    3.25
   6   4 -14   73.20    2.49
  -8  -5  -6   -0.13    1.46
  -8  -3  -5  262.02    2.99
  -7  -5  -4  261.90    2.69
  -7  -3  -3  310.15    2.82
  -6  -6  -4  305.00    2.62
  -5  -8  -7   61.29    1.89
  -5  -7  -5  129.93    2.13
  -4  -9 -10   12.69    1.79
  -4  -7  -5  393.37    3.10
  -4  -4  -1  190.27    2.18
  -4   2  -1  183.53    3.47
  -3  -9 -11   91.60    2.46
  -3  -8  -8  728.27    4.56
  -2  -8  -9  173.60    3.03
  -1  -8 -11   43.47    2.60
  -1  -3  -1 4622.20   13.16
   1   5  -3  583.47    4.23
   2   2  -2 4287.04   10.92
   3   5  -5  934.27    4.33
   4   2  -6    4.52    1.50
   4   5  -7  252.40    2.40
   4   7 -11   13.09    2.14
   5   0 -11   77.18    2.05
   5   1 -10 2362.95    7.27
   5   5 -10  151.31    2.10
   5   6 -12  218.73    2.94
   6   3 -14   69.50    1.95
  -8  -4  -5  346.51    3.27
  -7  -7  -6  325.69    2.97
  -7  -4  -3   59.27    1.87
  -7  -2  -3   13.29    1.31
  -7   0  -4  717.80    4.92
  -7   1  -5  125.62    2.91
  -6  -8  -7  268.77    3.02
  -6  -7  -5  207.62    2.50
  -6  -4  -2    3.70    1.06
  -5  -5  -2  235.86    2.35
  -4  -8  -7  114.98    2.34
  -4  -6  -3  221.42    2.33
  -3  -5  -2  635.74    3.63
  -2  -6  -4 1695.96    6.24
  -1  -4  -2 5618.10   13.87
   0   7  -7  277.97    4.12
   2   4  -3 4293.90   10.10
   2   5  -4   42.36    1.73
   3   6  -7   50.37    2.05
   3   7  -9  287.46    2.75
   4   6  -9  346.96    2.82
   5   4 -10  339.39    2.94
   5   5 -11  202.70    2.56
   5   6 -13   54.57    2.33
  -8  -5  -5   37.51    2.10
  -7  -1  -3   83.50    2.06
  -6  -2  -1  648.54    3.81
  -5  -9  -9  474.09    3.95
  -5  -6  -3  549.09    3.19
  -5  -4  -1   65.68    1.42
  -4   1   0  562.34    4.75
  -4   3  -2   78.09    3.30
  -3  -7  -5  324.68    2.85
  -2  -7  -6  285.36    3.08
  -1   6  -5  859.93    7.51
   1   2  -1 2866.16   10.93
   1   6  -5   40.57    1.83
   3  -5 -15    1.14    2.83
   3  -2  -7  519.88    5.09
   3   2  -4  328.51    2.99
   3   7 -10  310.12    3.24
   4   1  -7 2442.40    7.54
   4   5  -8 1407.68    5.17
   4   7 -12  164.00    2.48
   5   0 -12   18.80    1.77
   5   1 -11  503.47    3.73
   5   6 -14   46.83    2.40
  -8  -4  -4  326.58    3.19
  -7  -7  -5   24.06    1.66
  -7  -6  -4  210.78    2.20
  -7  -5  -3  409.66    3.14
  -6  -8  -6  136.88    2.31
  -6  -6  -3  276.03    2.54
  -6  -5  -2  281.51    2.58
  -6  -3  -1  388.19    3.05
  -6  -1  -1  595.57    3.77
  -5  -8  -6   94.90    2.08
  -5  -7  -4   36.94    1.64
  -5  -1   0 2456.00    7.62
  -5   1  -1  228.73    3.09
  -4  -9  -9   67.29    2.27
  -3  -9 -10  108.85    2.63
  -3  -8  -7  686.29    4.35
  -3  -6  -3   11.54    1.11
  -3  -1   1 5378.36   11.77
  -3   2   0  922.65    7.63
  -2  -4  -1 3098.96    8.67
  -2  -3   0 1198.47    5.72
  -1  -6  -5   75.05    1.99
  -1   5  -3  139.81    3.45
  -1   7  -8  157.43    3.77
   2   6  -6 1132.29    5.00
   3   5  -6  448.93    3.08
   4   0  -8  384.61    3.37
   4   6 -10   38.35    1.65
   4   7 -13  120.27    2.39
   5   4 -11  432.43    3.20
   5   5 -12   41.10    1.55
  -8  -6  -5  178.68    2.37
  -8  -2  -4  236.34    3.14
  -7  -4  -2   75.59    1.90
  -7  -3  -2    4.07    1.17
  -7  -2  -2  589.73    3.85
  -7   0  -3    8.37    2.03
  -6  -7  -4   28.80    1.93
  -5  -9  -8  164.35    3.25
  -5  -3   0  654.08    3.51
  -4  -8  -6  271.96    2.96
  -4  -7  -4  280.35    2.46
  -4  -5  -1 2438.91    6.62
  -2  -8  -8  122.11    2.43
  -2  -5  -2  322.90    3.00
  -2   6  -6  109.18    4.36
  -1  -5  -3 2016.40    8.23
   0   6  -5  431.38    4.28
   0   7  -8   57.41    2.75
   1   1  -1  250.94    3.82
   2   7  -9  174.79    2.82
   3  -3  -9    7.95    1.89
   3   0  -5 2309.80    8.09
   3   6  -8 1043.97    4.64
   3   7 -11   63.61    2.20
   4  -3 -14  478.85    4.98
   4   5  -9   37.61    1.83
   4   6 -11  332.23    3.15
   4   7 -14   44.17    2.00
   5  -1 -15   93.74    2.46
   5   0 -13  472.76    3.84
   5   1 -12   61.01    2.07
   5   2 -11  317.56    2.72
   5   3 -11  230.77    2.40
   5   5 -13   37.47    1.54
  -7  -6  -3   70.67    1.84
  -7  -1  -2    4.62    1.43
  -5  -6  -2 1360.81    4.94
  -5  -5  -1   70.10    1.40
  -5   0   0  737.93    4.51
  -4  -9  -8  184.22    2.70
  -4  -6  -2  570.33    3.38
  -4  -4   0  331.96    2.46
  -4  -1   1 1893.05    6.65
  -3  -2   1 2532.36    7.66
  -1  -8 -10  294.60    3.96
  -1  -7  -7  940.18    5.75
   2   3  -3 1063.61    5.30
   2   5  -5   16.48    1.60
   2   6  -7  190.73    2.62
   3   7 -12   98.70    2.45
   4   6 -12  157.08    2.66
   5  -1 -16  183.49    3.48
   5   3 -12    0.69    1.65
  -8  -6  -4  262.94    2.96
  -8  -4  -3    6.08    1.85
  -8  -3  -3   45.20    2.08
  -7  -7  -4  287.16    2.85
  -7  -5  -2    3.02    1.59
  -6  -8  -5   13.22    1.82
  -6  -6  -2  329.92    2.66
  -6  -5  -1  548.57    3.21
  -6   0  -1  265.80    3.02
  -6   3  -5   33.89    2.97
  -5  -9  -7   30.24    1.87
  -5  -8  -5  537.02    3.31
  -5  -7  -3  383.05    2.90
  -5  -4   0 1111.41    4.28
  -4   0   1 2289.60    7.90
  -3  -9  -9   22.33    2.02
  -3  -7  -4  613.99    3.78
  -3  -5  -1 1997.78    6.04
  -3  -4   0   82.56    1.55
  -2  -9 -11   91.23    2.82
  -2  -7  -5  136.81    2.62
  -2   1   1 3245.34   13.94
  -1   7  -9  203.89    4.13
   0   4  -2    7.45    1.44
   2  -6 -14  495.58   11.08
   2   4  -4   12.86    1.53
   2   7 -10  294.62    3.15
   3   1  -5 3904.79    9.64
   3   5  -7  201.95    2.21
   3   6  -9  486.60    3.31
   4  -3 -15   16.98    2.45
   4   1  -8 2480.07    7.42
   4   5 -10   61.54    1.78
   5  -1 -17   73.84    2.68
   5   0 -14  303.71    3.00
   5   1 -13  481.07    3.59
   5   4 -13   51.18    1.62
   5   5 -16   18.42    2.18
   5   5 -15   22.65    1.63
  -8  -5  -3   45.67    2.11
  -7  -8  -5    7.62    2.00
  -7  -3  -1  477.34    3.33
  -7  -2  -1  377.52    3.14
  -6  -3   0 1452.50    5.07
  -6  -2   0  628.10    3.59
  -6   2  -3   29.97    2.21
  -5  -2   1 1819.54    6.15
  -4  -8  -5  557.99    3.76
  -4  -7  -3   12.42    1.64
  -4  -3   1 4178.38    8.71
  -3  -8  -6    3.86    1.53
  -3  -6  -2  735.70    4.06
  -3   1   1 2720.70   10.92
  -2  -6  -3  297.45    2.85
  -2  -2   1  118.85    2.09
   0   7  -9    1.44    1.99
   1   3  -2  754.74    5.15
   2  -3  -6   23.50    2.28
   2   7 -11   70.93    2.42
   3   2  -5 3509.87    8.87
   3   6 -10   17.91    1.81
   3   7 -13  137.18    2.30
   4   0  -9   93.64    1.95
   4   2  -8 1928.06    6.07
   4   4  -9 1471.67    5.06
   4   5 -11   58.64    1.87
   4   6 -13    6.43    1.52
   5   4 -14  658.56    3.81
  -7  -7  -3  304.96    2.77
  -7  -6  -2   27.03    1.65
  -7   0  -2  264.84    3.36
  -6  -1   0  479.60    3.47
  -5  -3   1  430.19    3.01
  -5  -1   1   81.02    1.89
  -5   4  -5  134.02    6.33
  -4  -9  -7  105.44    2.34
  -2  -8  -7  181.85    2.99
  -1   6  -6  485.16    5.37
   0   6  -6    3.12    1.66
   1   4  -3 2987.99    9.15
   2   1  -3  353.72    3.60
   2   2  -3 5121.01   11.77
   2   5  -6  448.76    3.46
   3   5  -8   18.78    1.52
   3   7 -14    1.54    1.61
   4  -3 -16  133.85    3.39
   4   3  -9  195.44    2.35
   4   6 -15   -0.14    2.10
   4   6 -14   84.38    2.07
   5   0 -16   76.97    2.49
   5   2 -14  431.49    3.52
   5   4 -16    9.74    2.02
   5   4 -15    8.21    1.47
  -8  -6  -3    7.20    1.40
  -8  -5  -2   79.45    2.03
  -8  -4  -2  251.27    2.60
  -8  -3  -2   49.06    1.65
  -8  -1  -3   36.96    2.12
  -7  -8  -4  139.55    2.39
  -7  -5  -1  321.25    2.81
  -7  -1  -1  440.13    3.56
  -6  -9  -6  252.51    2.70
  -6  -8  -4    0.25    1.26
  -6  -6  -1    6.76    1.44
  -5  -9  -6  126.11    2.52
  -5  -8  -4   91.81    1.70
  -5  -6  -1  141.69    1.84
  -5  -5   0  207.54    1.99
  -5   1   0 1899.67    7.84
  -4  -6  -1  411.24    2.92
  -4  -5   0  101.70    1.64
  -3  -9  -8  135.33    2.61
  -3   6  -8    2.13    2.66
  -2  -9 -10  326.68    4.29
  -1  -8  -9  283.93    4.01
  -1   7 -10    4.37    2.20
   0   7 -10   38.55    2.48
   2  -4  -8 1691.13   12.97
   2   7 -12   97.74    2.39
   3  -2  -8 1658.56    7.89
   3   6 -11   23.44    1.83
   4   1  -9    0.05    1.45
   4   2  -9   57.90    1.74
   4   5 -12  136.35    1.91
   4   6 -16    1.03    2.01
   5   0 -17  472.17    4.34
   5   1 -15   18.19    1.52
   5   3 -15    3.78    1.49
   5   4 -17  278.32    3.28
  -8  -2  -2  195.26    2.89
  -7  -3   0  559.40    3.45
  -6  -7  -2   51.33    1.81
  -5  -4   1 1652.61    5.24
  -5   2  -1  839.82    6.46
  -4  -8  -4  194.13    2.55
  -4  -4   1 1629.41    5.18
  -3  -8  -5  199.59    2.56
  -3  -7  -3  238.45    2.61
  -2  -5  -1 1510.77    5.89
  -2  -4   0 3351.51    8.69
  -2   4  -2 2476.24   17.59
  -1  -6  -4   44.96    1.78
  -1  -4  -1 1232.63    6.56
  -1   4  -2  300.04    4.57
   1   5  -5    2.43    1.55
   2   3  -4   11.64    1.40
   2   4  -5  942.49    4.78
   2   7 -13   43.00    2.09
   3   5  -9  333.28    2.94
   3   6 -12   99.32    2.29
   4   3 -10  757.13    3.99
   4   4 -11  911.93    4.27
   4   5 -13   43.16    1.78
  -8  -6  -2  139.59    2.39
  -8  -4  -1  191.39    2.51
  -7  -7  -2   45.37    1.93
  -7  -6  -1  261.40    2.58
  -7  -4   0  209.79    2.57
  -6  -9  -5   94.75    2.33
  -6  -8  -3  176.33    2.44
  -6  -2   1  318.77    2.86
  -6   0   0  605.83    4.27
  -5   0   1 1500.26    6.20
  -4  -9  -6    4.79    1.75
  -4  -7  -2  978.38    4.47
  -4  -2   2  198.72    2.30
  -4  -1   2 2714.53    7.77
  -4   1   1  839.79    5.50
  -3  -5   0 1313.82    5.16
  -2  -7  -4 1475.83    6.06
  -2  -3   1 1180.41    5.53
  -2   6  -7    9.76    2.35
  -1  -7  -6 1460.63    7.12
  -1   0   1  224.75    4.21
  -1   5  -4  604.17    5.60
   1   7 -12    1.11    1.80
   2   5  -7  267.65    2.79
   2   7 -14    1.82    1.74
   3  -4 -13   11.86    2.13
   3   6 -13   12.37    2.01
   4  -1 -12   95.65    2.18
   4   1 -10  178.13    2.37
   4   2 -10    1.39    1.44
   4   4 -12  340.35    2.82
   4   5 -14   26.64    1.81
   5   2 -18   43.77    2.34
   5   3 -18   55.46    2.10
  -8  -5  -1  185.12    2.56
  -8  -3  -1  383.79    3.11
  -8  -1  -2  101.39    2.48
  -7  -8  -3   71.65    2.21
  -7  -5   0  456.23    3.14
  -6  -4   1 1162.70    4.42
  -6  -1   1   16.42    1.42
  -5  -9  -5  168.60    2.59
  -5  -8  -3  219.43    2.25
  -5  -2   2   16.72    1.41
  -4  -3   2 1298.20    4.89
  -3  -9  -7  303.51    3.27
  -3  -6  -1  570.25    3.56
  -3  -2   2  899.73    4.41
  -2  -6  -2   20.94    1.33
  -1  -5  -2   57.31    1.93
  -1  -1   1  254.24    3.67
   0  -8 -12  314.10    7.21
   2  -2  -5 3334.59   13.96
   3   5 -10  297.30    2.75
   3   6 -14    3.81    1.92
   4   0 -11  237.40    2.71
   4   5 -16   44.29    2.11
   4   5 -15  359.77    3.11
  -8  -2  -1  183.52    2.77
  -7   0  -1  538.74    4.19
  -6  -9  -4   40.57    1.95
  -6  -7  -1   77.96    1.94
  -6  -6   0  616.43    3.16
  -6  -5   1   55.77    1.64
  -6   3  -4   31.08    4.06
  -5  -7  -1  131.02    2.02
  -5  -5   1  536.86    2.95
  -5  -3   2   41.03    1.23
  -5  -1   2   81.79    1.79
  -4  -5   1  726.57    3.64
  -3   0   2 2443.55    8.61
  -3   5  -5   49.12    3.86
  -2  -9  -9   97.20    2.67
  -2  -8  -6  680.84    4.74
  -1   6  -7  121.33    2.99
   1   2  -2 6138.51   14.97
   3   5 -11   19.10    1.81
   3   6 -15   53.26    2.31
   4   4 -13   10.81    1.25
  -8  -6  -1   96.57    1.92
  -8  -4   0    1.15    1.57
  -7  -7  -1  260.89    2.47
  -7  -3   1    0.21    1.46
  -6  -8  -2  230.11    2.95
  -5  -4   2   21.07    1.34
  -4  -8  -3    6.19    1.18
  -4   0   2   11.35    1.32
  -3  -8  -4  450.46    3.43
  -3  -3   2 6429.13   11.21
   0   4  -3  797.85    5.69
   1   5  -6 1210.79    5.50
   2  -6 -15   29.19    3.61
   2   2  -4  695.17    4.32
   2   4  -6 3750.37    8.78
   2   5  -8   58.48    1.76
   3  -3 -11  837.69    5.86
   3  -2  -9  521.50    4.33
   4   3 -12    4.30    1.09
   4   4 -14  239.01    2.37
  -7  -5   1    2.06    1.55
  -6  -4   2   15.06    1.56
  -6  -3   2  473.47    2.93
  -6  -2   2    2.21    1.43
  -5  -9  -4   -0.74    1.30
  -4  -7  -1  395.83    2.77
  -4  -4   2  492.12    2.88
  -2   6  -8   76.67    3.15
  -1  -8  -8    7.11    1.98
   1   3  -3 3412.29   10.29
   2   3  -5 1695.72    6.20
   3   5 -12  915.64    4.24
   4  -1 -14  489.97    3.76
   4   1 -12  161.09    2.32
   4   3 -13    0.44    1.15
  -8  -2   0   21.48    1.88
  -6  -9  -3  137.58    2.42
  -6  -7   0  345.42    2.79
  -6  -6   1  330.16    2.39
  -6   0   1    8.97    1.62
  -5  -7   0    7.02    1.40
  -5  -6   1 1035.86    4.15
  -5  -5   2  622.74    3.21
  -5   1   1  278.30    3.28
  -3  -9  -6   50.84    2.08
  -3  -5   1  887.83    4.23
  -2  -7  -3  586.71    3.99
  -2  -5   0  642.53    3.84
  -2  -4   1  442.99    3.33
  -2   0   2 3676.09   12.06
  -1  -2   1 2450.92    9.78
  -1   6  -8  619.86    5.11
   2   5  -9  614.64    3.71
   2   6 -13  243.15    2.75
   3   4 -10    9.56    1.11
   3   5 -13  119.44    1.90
   4  -2 -18    5.06    1.96
   4  -1 -15    8.75    1.70
   4   4 -18   29.96    1.70
  -7  -7   0  315.55    2.59
  -3  -6   0  310.86    2.50
   3   5 -14    2.46    1.31
   4   3 -15  280.93    2.48
  -1  -4 -21   21.56    2.53
  -1  -4  -3  128.03    3.50
  -1  -1 -17 1168.59    4.78
   0  -8  -6  393.94    4.26
   0  -3   2 1921.79    7.81
   0   1 -19    5.28    1.29
   0   2 -14 1056.69    4.18
   0   2  -7 3883.23    9.14
   1   3 -19   16.63    1.61
   1   3  -2  768.29    5.42
   2  -7   2  170.41    2.59
   2  -6   4   31.09    1.70
   2   0   7  950.08    4.75
   2   5 -15   86.97    1.95
   2   5  -5   17.80    1.43
   3  -6   5   34.98    2.02
   3  -1   9 2324.29    6.58
   3   0   9  739.30    3.92
   3   6 -16  137.12    2.37
   4  -2  10  453.64    3.21
   5  -3  10   97.46    2.28
   5  -1  11  103.63    2.21
   5   1  11    8.33    1.64
   5   8  -6    7.33    1.73
   5   8  -5  456.39    3.93
  -1  -3 -21  208.95    2.95
  -1  -2 -20  131.02    2.16
  -1  -1 -18  472.40    3.48
  -1   0 -13 4081.99    8.70
  -1   0 -12  883.30    4.40
  -1   0 -11 1963.21    6.34
  -1   0 -10  933.79    4.58
   0  -7  -3  452.99    3.85
   0   1 -20  715.18    3.86
   0   1  -2  117.04    2.79
   0   2 -16  200.36    2.19
   0   2  -6  563.83    3.79
   1  -8  -3   46.49    1.99
   1  -7   0   15.35    1.60
   1  -2   5 3762.98    9.29
   1   0   4 3815.34   12.60
   1   3 -20  186.42    2.26
   1   4 -13  721.19    3.51
   1   4 -10  289.31    2.54
   2  -5   5  484.55    3.18
   2  -4   6  384.43    3.00
   2   1   6  779.35    5.11
   2   5 -16   30.58    1.69
   3   6  -3  844.89    4.88
   4  -5   7  232.97    2.76
   4  -3   9  401.65    3.03
   4  -1  10  740.90    3.93
   4   0  10 1049.86    4.63
   4   7  -3   54.61    1.88
   5   0  11  183.75    2.41
   6  -1  11  474.73    3.74
   7   3  11  408.07    3.83
  -1  -7 -10  574.65    7.92
  -1  -6  -6  630.36    6.16
  -1  -3 -22  138.66    2.50
  -1  -2 -21  123.11    2.20
  -1  -1 -19   41.18    1.96
  -1   0 -15   34.09    1.62
  -1   0 -14  206.61    2.07
   0  -8  -7    5.93    1.86
   0   1 -21   40.56    2.12
   0   2 -17  139.44    2.06
   1  -4   4 1224.24    4.81
   1   4 -15    1.57    1.39
   1   4 -14  595.20    3.29
   1   4  -7 1043.32    4.65
   2  -1   7  428.68    3.02
   2   5 -17   -0.61    1.63
   2   5  -4   39.37    1.63
   3  -5   6  894.73    4.19
   3  -4   7   14.97    1.51
   3  -3   8  544.30    3.04
   3   3   6  188.05    3.29
   4  -4   8   43.44    1.54
   4   2   9  801.49    4.54
   4   3   8  862.07    5.25
   5  -2  10  490.17    3.42
   5   8  -4    0.90    1.62
   6   2  11   98.86    2.17
   7   5   9    4.77    2.62
  -1  -1 -20  634.83    3.74
  -1   0 -16  183.46    2.21
   0  -7  -4   48.06    2.11
   0   1 -22   80.76    1.91
   0   2 -18   18.32    1.62
   0   2  -5  216.81    2.67
   1  -7  -1  444.63    3.37
   1  -6   1  169.88    2.24
   1   3 -21   16.33    1.36
   1   4 -16  415.62    2.82
   2  -7   1   21.58    1.43
   2  -6   3  444.92    2.92
   2   5 -18    8.43    1.28
   3  -6   4   18.45    1.66
   4  -2   9  421.64    2.99
   5  -3   9   31.50    1.40
   5   2  10  992.82    4.81
   6   1  11  398.26    3.12
   6   5   8   14.50    2.12
   7   2  11   29.87    2.05
   7   4  10  125.51    2.70
  -1  -2 -22  142.09    2.42
  -1   0 -17  499.26    2.96
  -1   0  -7 2794.44    8.66
   0  -8  -8  475.54    4.65
   0   2 -19  123.55    2.03
   1   4 -17   65.43    1.75
   2  -5   4   61.49    1.71
   2   5  -3 1416.01    6.13
   3  -1   8  782.96    4.00
   3   0   8 1212.19    5.02
   3   6  -2  583.75    4.37
   4  -5   6   82.92    1.83
   4  -4   7  399.78    3.12
   5  -1  10   90.86    1.77
   5   0  10  836.30    4.21
   5   1  10  612.22    3.75
   5   3   9  690.82    4.70
   5   4   8   15.86    1.93
   6   3  10  115.48    2.22
  -1   0 -18   35.66    1.38
   0   2 -20    1.36    1.63
   0   3 -12   88.15    1.63
   1  -5   2 1390.04    5.25
   1  -4   3  224.65    2.47
   1  -1   4 3537.01   10.07
   1   3  -1   16.59    1.51
   1   4 -18    2.40    1.12
   1   4  -5  665.83    4.02
   2  -7   0   58.21    2.02
   2  -6   2  529.39    3.37
   2  -4   5 1590.71    5.09
   2   0   6   83.84    1.92
   3  -6   3  261.85    2.67
   3  -5   5   52.82    1.54
   3  -4   6  333.09    2.66
   3  -3   7  500.06    3.11
   3   7 -12  110.59    1.91
   3   7 -11   71.34    1.75
   4  -1   9  540.44    3.14
   4   0   9  672.65    3.76
   5  -4   7  237.83    2.82
   5  -2   9   59.31    1.83
   5   7   2  103.84    3.73
   6  -1  10   61.19    1.76
   6   8   1    2.12    2.57
  -1  -7 -11    1.28    2.32
  -1  -1 -22    2.38    1.66
  -1   0 -19    8.45    1.09
  -1   1 -14 1154.86    4.35
  -1   1 -13   19.27    1.44
  -1   1 -12  564.29    3.31
   0  -8  -9  333.33    4.26
   0  -7  -5  550.22    4.35
   0   2 -21  114.39    2.17
   0   2  -4 1457.85    6.42
   0   3 -15  219.09    2.19
   0   3 -14  380.00    2.41
   0   3 -13   72.20    1.33
   0   3 -11  750.66    3.44
   0   3 -10 1129.14    4.37
   0   3  -9  138.69    2.02
   1  -7  -2  462.43    3.33
   1  -6   0   55.36    1.61
   1  -2   4 1846.69    6.53
   1   4 -19   69.72    1.56
   2  -1   6  443.24    3.27
   2   4   1 3140.81   14.07
   2   6 -13  323.80    2.74
   2   6 -12   18.67    1.64
   2   6 -11    8.34    1.47
   2   6 -10  193.67    2.29
   3   7 -14    2.47    1.67
   3   7 -13  167.06    2.01
   3   7 -10  298.53    2.52
   3   7  -9  277.06    2.62
   3   7  -8   21.97    1.61
   4  -5   5    5.64    1.79
   4   8 -10    0.28    1.71
   6   0  10  431.66    3.11
   6   2  10  665.69    4.06
   7   3  10  173.09    2.52
  -1   0 -20   34.29    1.32
  -1   1 -15 1298.27    4.35
  -1   1 -11  696.90    3.49
  -1   1 -10  943.04    4.23
   0  -2   1 1877.65    8.90
   0   3 -17  348.54    2.62
   0   3 -16   66.20    1.34
   0   3  -8 1212.76    4.74
   1   4  -4 1300.90    5.56
   2  -7  -1  142.19    2.37
   2  -5   3  218.90    2.33
   2   6 -16   -0.56    2.93
   2   6 -15    0.79    1.74
   2   6 -14  131.99    1.88
   2   6  -9  315.31    2.73
   2   6  -8   15.25    1.52
   3  -7   0   54.78    2.56
   3  -5   4  188.88    2.42
   3   6  -1   59.56    2.20
   3   7  -7  174.24    2.40
   4  -4   6  336.58    2.73
   4   2   8  416.84    3.43
   4   8  -9  197.07    2.35
   5  -1   9  284.97    2.56
   7   1  10   60.93    1.98
   7   2  10  294.52    2.90
  -2  -3 -16  287.72    2.91
  -2  -3 -15  912.45    4.91
  -2  -3 -14 2033.14    7.43
  -2  -3 -13  121.28    2.21
  -1   1 -18  401.92    2.90
  -1   1 -17  765.42    3.41
  -1   1  -9  191.70    2.25
   0  -8 -10   26.55    2.23
   0  -6  -3 1141.97    5.50
   0   3 -18  603.56    3.39
   0   3  -7 3631.66    8.16
   1  -7  -3    4.20    1.37
   1   5 -14   58.08    1.62
   1   5 -12   58.50    1.74
   2  -6   1   98.24    1.93
   2  -4   4   86.82    1.74
   2   6  -7  210.77    2.45
   3  -6   2  187.20    2.27
   3  -4   5  412.26    2.85
   3   1   7    7.04    1.19
   3   7  -6  168.18    2.43
   4   8  -7    0.22    1.56
   5  -2   8  270.00    2.62
   5   2   9  732.71    3.95
   6  -2   8  139.98    2.35
   7   4   9   62.94    2.16
   7   5   8   -0.58    2.15
  -2  -4 -17  380.37    3.69
  -2  -3 -17 1911.81    6.87
  -2  -3 -12  686.71    4.74
  -2  -2 -15 1270.73    5.10
  -1   0 -22   27.02    1.87
  -1   1 -19  113.85    2.09
  -1   1  -8 1020.31    4.64
   0  -7  -6  204.21    2.89
   0   2  -3 5307.50   12.75
   0   3 -20  160.34    2.15
   0   3 -19  101.41    1.67
   1  -8  -7   63.26    2.23
   1  -6  -1  325.74    2.72
   1  -5   1 1176.15    4.65
   1  -4   2  316.03    2.82
   1  -3   3    2.87    0.87
   1   5 -16  120.09    2.09
   1   5 -15    7.51    1.15
   1   5  -9  969.54    4.11
   2   6  -6 1172.14    4.93
   3  -7  -1  185.96    2.73
   3  -1   7  274.39    2.31
   3   0   7  696.30    3.85
   4  -5   4  184.30    2.19
   4  -1   8  488.90    2.97
   4   1   8  603.95    3.75
   4   3   7   74.44    2.18
   4   4   6  698.80    5.94
   4   8  -6  427.74    3.40
   5  -3   7  211.83    2.17
   5   1   9  529.90    3.18
   6   0   9   49.73    1.74
   6   3   9  140.58    2.21
   6   9  -3   16.91    2.03
   7   0   9   14.09    1.83
   7   7   5   25.48    4.06
  -2  -4 -18   85.33    2.22
  -2  -3 -19   -0.69    1.67
  -2  -3 -18  565.90    3.83
  -2  -3 -11 1139.03    6.35
  -2  -2 -17   22.73    1.52
  -2  -2 -16    8.01    1.31
  -2  -2 -13  913.41    4.56
  -2  -2 -12   49.87    1.62
  -1  -7 -12  190.15    5.11
  -1   0  -5  752.34    5.11
  -1   1 -20   61.02    1.87
   0   3  -6  844.23    4.21
   1   5 -18  127.68    2.24
   1   5 -17  124.25    1.86
   1   5  -8   39.46    1.69
   2  -7  -2  233.12    2.54
   2  -5   2  488.16    3.12
   3  -6   1   12.59    1.49
   3  -5   3  549.90    3.30
   3   7  -5   57.94    1.82
   4  -4   5    0.38    1.47
   4  -2   7  578.10    3.22
   4   0   8   23.50    1.12
   4   8  -5   30.81    1.82
   5   3   8  211.67    2.68
   6   1   9    1.45    1.39
   8   5   8  262.17    3.63
  -2  -4 -19   10.65    1.59
  -2  -3 -20  177.01    2.72
  -2  -2 -18  295.38    2.73
  -2  -2 -11 3558.32    9.40
  -1   1 -21  190.44    2.39
  -1   2 -15  121.85    1.76
  -1   2 -14  591.80    3.16
  -1   2 -13   47.94    1.51
   0  -8 -12  300.33    4.61
   0   1  -1 1911.81   10.76
   1  -8  -8  248.80    3.26
   1  -7  -4  288.61    2.74
   1  -2   3 2029.85    6.79
   1   0   3  202.95    3.03
   1   5  -7 1292.36    4.92
   2  -6   0  373.56    2.86
   2   5  -1  113.09    2.26
   2   6  -5  530.96    3.44
   3  -7  -2    5.55    1.80
   3   2   6  827.59    5.32
   4  -6   1   15.93    1.82
   4  -5   3  463.14    3.27
   4  -3   6  713.17    3.31
   5  -3   6  250.12    2.39
   5  -2   7  561.69    3.26
   5  -1   8    2.99    1.09
   5   9  -6   37.20    2.20
   6  -2   7  200.00    2.47
   6  -1   8  242.80    2.49
   6   4   8   49.86    1.87
   7   2   9    1.82    1.52
  -2  -4 -20   88.67    2.28
  -2  -2 -20  144.69    2.14
  -2  -2 -19  161.02    2.29
  -2  -1 -17  445.07    3.03
  -2  -1 -15 1050.88    4.48
  -2  -1 -14 1490.28    5.34
  -2  -1 -13    6.04    1.37
  -1  -6  -8    5.82    1.81
  -1   2 -17   44.95    1.61
  -1   2 -16   56.37    1.31
  -1   2 -11 6000.81    9.57
   0  -7  -7  107.22    2.38
   0  -6  -4  525.45    3.85
   0   3  -5  140.44    2.10
   0   4 -17   93.22    1.68
   0   4 -16   78.04    1.71
   0   4 -15   28.32    1.11
   0   4 -13  724.28    3.25
   0   4 -12   45.91    1.30
   0   4 -11 1759.24    5.15
   1  -5   0  175.21    2.21
   1   3   0 3514.46   12.75
   2  -7  -3   51.60    1.80
   2  -4   3  338.59    2.44
   2  -1   5  617.97    3.67
   2   0   5 9999.00   15.43
   3  -4   4    3.14    1.00
   4   7   0  110.53    2.46
   4   8  -4   49.05    1.71
   5   0   8  181.97    2.22
   7   0   8  173.14    2.39
  -2  -5 -19   72.65    2.84
  -2  -4 -21  354.29    4.11
  -2  -3 -21  118.93    2.38
  -2  -2 -10 1401.97    6.22
  -2  -1 -18  174.18    2.30
  -2  -1 -12 2679.42    7.28
  -1   2 -19  179.12    2.23
  -1   2 -18  222.71    2.07
  -1   2 -10 1271.44    4.36
   0   4 -10  133.22    1.62
   0   4  -9  368.29    2.63
   1  -8  -9   82.04    2.71
   1  -6  -2  884.99    4.00
   1   5  -6 1265.75    4.77
   2   2   4 1708.62    9.93
   2   6  -4  531.21    3.56
   2   7 -14   -0.31    1.48
   2   7 -13   50.19    1.70
   3  -6   0  311.15    2.66
   3  -5   2  224.86    2.29
   4  -4   4  149.58    2.03
   4  -1   7  534.22    2.96
   5  -4   4  124.35    2.49
   5   1   8   36.89    1.52
   5   2   8   81.68    1.54
   5   9  -5   61.37    2.20
   6   0   8  159.21    2.15
   7   4   8  491.44    3.80
   8   4   8   64.86    2.12
  -2  -2 -22   52.27    1.85
  -2  -1 -20  100.65    2.09
  -2  -1 -19    0.19    1.10
  -2  -1 -11 2531.29    7.16
  -1  -7 -13  623.83    8.84
  -1   2  -9  263.98    2.19
   1  -4   1 1937.77    5.91
   1  -3   2 1002.36    4.50
   1   4  -2  306.18    3.06
   2  -7  -4  334.93    2.97
   2  -6  -1  654.28    3.44
   2  -5   1  324.76    2.39
   2   7 -12  119.46    1.86
   2   7 -11   84.27    1.96
   2   7 -10  311.45    2.65
   3  -7  -3    2.81    1.68
   3   1   6 1595.62    6.14
   3   7  -3  305.66    3.10
   3   8 -10   26.42    1.67
   4  -5   2    1.71    1.69
   4  -3   5  130.44    1.82
   4  -2   6  391.62    2.62
   4   2   7   30.58    1.37
   5  -3   5   29.24    1.51
   6  -2   6   78.93    1.96
   6  -1   7   84.26    1.89
   6   1   8   25.00    1.47
   6   3   8   20.41    1.41
   7   3   8  196.22    2.41
  -2  -2  -9  196.72    2.68
  -2  -1 -10   13.53    1.24
  -2   0 -17  146.62    2.02
  -2   0 -16  206.86    2.34
  -2   0 -15  334.75    2.62
  -2   0 -14 1136.44    4.39
  -2   0 -13  178.31    2.07
  -1   2 -21  127.33    1.97
  -1   2  -8 2230.77    6.09
   0  -7  -8  153.71    2.68
   0  -6  -5  932.67    5.11
   0   2  -2  777.28    5.06
   0   3  -4 4951.31   10.18
   0   4  -8  645.91    3.23
   1   6 -16   21.78    1.78
   1   6 -15    2.19    1.63
   1   6 -14  275.45    2.64
   1   6 -13  343.54    2.77
   1   6 -12    8.88    1.54
   1   6 -11  406.26    2.79
   2  -4   2 2425.83    6.28
   2   7  -9  193.68    2.38
   3  -6  -1  504.86    3.34
   3  -4   3  619.39    3.11
   3   0   6 1222.15    4.85
   3   8  -9   27.29    1.62
   4   1   7  674.06    3.60
   4   8  -3   55.47    1.92
   5  -2   6  130.42    1.64
   5   8   0   99.17    3.13
   5   9  -4  141.66    2.81
   7   0   7   75.61    1.98
   7   6   6   12.90    1.97
   8   5   7  200.96    3.14
  -2  -1 -22    6.13    1.80
  -2   0 -19  308.68    2.67
  -2   0 -18  768.87    3.51
  -2   0 -12   21.12    1.43
  -1   3 -17  307.38    2.44
  -1   3 -15  595.17    3.08
  -1   3 -14  650.20    3.19
  -1   3 -13    0.85    1.16
   0   4  -7  673.44    3.51
   1  -6  -3  113.90    1.81
   1  -5  -1  680.11    3.74
   1   6 -10  271.22    2.44
   2  -6  -2  143.76    2.11
   2   6  -3 1034.57    4.85
   2   7  -8   19.40    1.65
   3  -7  -4  263.70    2.94
   3  -5   1    0.69    1.25
   3   8  -8   13.32    1.43
   4  -6  -1    9.80    1.30
   4  -5   1  345.06    2.85
   4  -4   3  331.57    2.49
   5  -4   3  180.02    2.07
   5   3   7  805.04    4.56
   6  -3   4  122.66    2.09
   7  -1   6   46.52    1.80
   8   6   6    2.67    1.81
  -2  -1  -9  676.38    4.01
  -2   0 -21  221.48    2.45
  -2   0 -20   31.81    1.30
  -1   1  -5 3455.86    9.02
  -1   2  -7 2473.15    6.56
  -1   3 -19    9.88    1.55
  -1   3 -12  326.37    2.23
  -1   3 -11  198.34    1.96
   0   5 -14  300.13    2.45
   0   5 -13   15.00    1.30
   1   5  -4 3201.54    7.96
   1   6  -9   70.88    1.78
   2  -7  -5  231.28    2.50
   2  -5   0    7.29    1.24
   2   5   0  665.58    4.87
   2   7  -7  441.54    3.20
   3   7  -2  414.51    3.71
   3   8  -7    6.19    1.37
   4  -3   4  533.82    2.97
   4  -1   6 1877.54    5.27
   5  -3   4  306.34    2.52
   6  -2   5  451.13    3.04
   6  -1   6   65.80    1.70
   6   4   7  959.05    5.10
   6   9  -1   21.68    2.42
   7   1   7  106.84    2.01
   8   3   7   29.16    1.80
   8   4   7    9.62    1.73
  -2   0 -10 2125.10    6.22
  -2   1 -17   62.73    1.64
  -2   1 -16    7.03    1.29
  -2   1 -15  484.26    2.93
  -1  -7 -14   41.67    3.26
  -1  -6  -9  342.22    4.59
  -1   3 -20   53.06    1.49
  -1   3 -10  154.73    1.82
   0   4  -6   55.30    1.35
   0   5 -17  419.11    2.75
   0   5 -12   64.85    1.59
   0   5 -11  245.51    2.20
   1  -4   0  314.16    2.63
   1   6  -8  382.79    2.83
   2  -1   4 4355.02    9.23
   3  -6  -2   46.44    1.80
   3  -4   2 1182.07    4.33
   3   8  -6  308.36    2.72
   4  -6  -2    0.06    1.48
   4   8  -2  198.46    2.86
   4   9  -7    4.20    1.61
   5  -4   2   49.79    1.74
   5  -2   5   39.96    1.42
   5  -1   6  332.11    2.33
   5   2   7  500.09    3.25
   5   9  -3   16.78    2.03
   6   1   7  446.02    2.97
   7   4   7 1303.14    5.59
  -2   1 -20   40.36    1.58
  -2   1 -19    7.86    1.42
  -2   1 -14 1151.64    4.07
  -1   2  -6  209.28    2.27
  -1   3  -9  198.43    2.03
   0  -6  -6 1740.35    6.78
   0   3  -3 3163.67    8.41
   0   5 -10  134.71    1.94
   1  -7  -7  143.23    2.17
   1  -6  -4  203.50    2.30
   1  -3   1 3918.68    8.77
   1   4  -1  750.43    4.71
   1   6  -7  237.29    2.36
   2  -7  -6   13.89    1.58
   2  -6  -3   52.30    1.60
   2  -4   1  305.42    2.53
   2   0   4 1115.12    5.37
   2   6  -2  755.76    4.24
   2   7  -6  494.94    3.28
   3  -5   0  527.73    2.93
   4  -5   0  338.35    2.77
   4  -4   2  213.12    2.15
   4   0   6 1174.04    4.45
   6  -3   3   54.97    1.64
   6   2   7  724.78    3.64
   6   3   7  499.38    3.33
   6   5   6  966.63    5.74
   6   6   5   19.86    2.26
   7  -1   5  138.62    1.95
  -2  -6 -19    9.94    2.35
  -2  -6 -18  235.23    5.35
  -2  -6 -17   51.20    3.39
  -2  -1  -8 3259.67    8.66
  -2   0  -9  425.18    3.02
  -2   1 -21   25.97    1.72
   0   4  -5  554.00    3.32
   0   5  -9   10.03    1.41
   1  -5  -2 1183.96    4.69
   1   5  -3  616.72    3.70
   2  -5  -1 1426.64    4.88
   2  -2   3 2866.03    7.05
   3  -6  -3  209.01    2.43
   3   0   5 2633.35    7.04
   3   6   1  578.80    5.06
   3   8  -5  185.36    2.48
   4  -6  -3  305.40    2.91
   4  -3   3 1097.73    4.00
   4   1   6 2476.08    6.77
   4   2   6  973.47    4.69
   4   9  -6    1.19    1.60
   5  -3   3  461.05    2.89
   5   4   6  670.00    4.64
   6  -2   4  356.77    2.67
   6  -1   5   40.07    1.56
   6   0   6    0.34    1.19
   8   5   6    1.02    1.70
  -1   3  -8  544.07    3.04
  -1   4 -18  301.36    2.64
  -1   4 -17   40.56    1.66
  -1   4 -16   44.75    1.50
   0  -7 -10  188.50    2.70
   0  -5  -4  136.81    2.05
   0   5  -8  520.12    3.03
   1  -7  -8  248.83    2.66
   1   6  -6  220.28    2.31
   1   7 -13   14.69    1.45
   2  -7  -7  261.68    2.69
   2   4   2  642.82    7.11
   2   7  -5    5.42    1.38
   2   8 -11   38.18    1.68
   3  -4   1  137.14    1.95
   3   1   5  703.53    4.15
   4  -1   5  165.83    1.73
   5  -4   1  146.93    2.01
   5  -2   4  557.15    2.91
   6  -3   2   35.63    1.64
   7   1   6   58.27    1.37
   7   5   6   12.41    1.60
   8   3   6   51.67    1.91
   8   4   6    0.95    1.53
  -2  -6 -16  689.44   10.34
  -2   0  -8 3551.47    8.20
  -2   1 -10   11.67    0.96
  -2   2 -19  192.25    2.30
  -2   2 -18  401.69    2.74
  -2   2 -16  145.38    1.71
  -2   2 -15  388.77    2.56
  -2   2 -14    0.06    1.30
  -1  -7 -15   25.19    2.87
  -1   2  -5 3987.17    8.62
  -1   4 -12  405.18    2.60
   1  -6  -5 1219.73    4.96
   1   7 -12    2.38    1.46
   1   7 -11   15.21    1.46
   2  -6  -4  355.09    2.77
   2   8 -10   46.56    1.88
   3  -5  -1  232.55    2.05
   3   7  -1  157.40    2.42
   4  -6  -4  189.25    2.48
   4  -5  -1  179.78    1.92
   4  -4   1  207.14    1.93
   4   9  -5  128.64    2.41
   5   9  -2  146.07    3.15
   6   1   6  493.03    3.01
   7  -1   4   16.18    1.29
   7   0   5  205.96    2.13
  -2   1  -9 1782.12    5.34
  -2   2 -13  128.00    1.54
  -2   2 -12 1224.68    4.14
  -1   3  -7 1010.31    3.94
  -1   4 -11  248.78    2.02
   0  -6  -7   63.31    1.83
   0   2  -1 1834.12    7.95
   0   4  -4 1813.56    5.76
   0   5  -7 1203.08    4.38
   0   6 -15    4.12    1.60
   0   6 -13   11.78    1.43
   1   6  -5   44.92    1.56
   1   7 -10   54.16    1.66
   2  -5  -2 1347.49    4.78
   2  -4   0  328.96    2.52
   2   7  -4  361.82    3.01
   2   8  -9   75.19    1.98
   3  -6  -4  549.02    3.40
   3   8  -4   65.94    1.94
   4   8  -1  142.20    2.72
   5  -4   0  352.27    2.69
   5  -3   2   44.33    1.49
   5   3   6 3931.53    9.05
   5   6   4  246.10    5.21
   6  -2   3   35.45    1.43
   7   3   6    2.80    1.29
   7   4   6  175.02    2.31
   7   6   5  113.98    2.48
  -3  -3 -18  394.01    3.27
  -3  -3 -17   22.83    1.46
  -3  -3 -16  182.55    2.57
  -3  -2 -19  449.63    3.25
  -3  -2 -18  423.28    3.08
  -3  -2 -17   45.09    1.55
  -3  -2 -16  305.89    2.69
  -3  -2 -15  365.65    2.83
  -2   2 -11   68.80    1.46
  -1  -6 -10  827.04    6.59
  -1   4 -10 2067.19    5.22
   0  -7 -11   20.75    1.57
   0   3  -2 1879.77    6.81
   0   6 -12   21.71    1.59
   0   6 -11  296.46    2.43
   1  -7  -9  373.43    3.14
   1  -5  -3  364.54    2.70
   1   0   2  668.49    5.37
   1   7  -9   64.68    1.75
   2  -7  -8  471.23    3.35
   2  -1   3  574.09    3.50
   2   6  -1  307.37    2.95
   2   8  -8    1.95    1.50
   3  -5  -2  160.03    2.00
   4  -5  -2  176.31    2.46
   5  -2   3   79.21    1.48
   6  -3   1  451.81    2.90
   6  -1   4  387.09    2.42
   8   2   5   97.59    1.72
  -3  -3 -21    1.01    1.74
  -3  -3 -15 1167.89    5.35
  -3  -1 -21   49.11    1.75
  -3  -1 -17  157.40    1.90
  -3  -1 -16   58.40    1.64
  -3  -1 -15  560.05    3.14
  -2   1  -8 1157.85    4.39
  -1   3  -6   43.36    1.43
  -1   4  -9  557.66    2.89
   0   5  -6  104.82    1.56
   0   6 -10  538.25    3.14
   1  -2   1 4827.46   10.48
   1   6  -4  130.87    1.87
   1   7  -8   93.67    1.90
   2  -2   2 4713.22    8.89
   2   5   1 1530.17    7.60
   3  -6  -5   10.31    1.65
   3  -4   0  900.39    3.54
   4  -4   0  340.95    2.36
   4   5   4  125.76    3.81
   5  -1   4  460.03    2.67
   8   4   5  312.07    2.96
  -3  -4 -21  354.03    3.87
  -3  -4 -20   58.24    1.99
  -3  -4 -19   69.11    2.10
  -3  -4 -18  615.25    4.38
  -3  -4 -17   87.30    2.20
  -3  -2 -13  215.49    2.30
  -3  -1 -14  468.51    2.97
  -3   0 -19  137.66    2.03
  -3   0 -18  526.38    3.14
  -3   0 -17   49.49    1.51
  -3   0 -16  627.65    3.22
  -2   2 -10   16.86    0.96
  -2   3 -18   54.16    1.41
  -2   3 -17   79.13    1.47
  -2   3 -16  104.84    1.54
  -2   3 -15  218.50    1.92
  -2   3 -14  420.26    2.63
  -1   4  -8 2154.06    5.55
  -1   5 -16    0.64    1.14
  -1   5 -15  160.54    1.89
  -1   5 -13   27.55    1.41
   0  -5  -5  303.29    2.88
   0   4  -3  874.88    4.12
   0   6  -9  626.68    3.22
   1  -7 -10   12.27    1.42
   1   4   0 5498.76   12.70
   2  -7  -9   -0.20    1.32
   2   7  -3  186.52    2.34
   2   8  -7   67.33    1.83
   3   0   4  855.06    4.01
   3   8  -3  552.12    3.94
   4  -5  -3  209.20    2.21
   4   1   5  821.10    3.88
   5  -4  -1    3.16    1.35
   5  -3   1  562.57    2.97
   6  -3   0  259.38    2.47
   6  -2   2   47.39    1.23
   6   1   5    1.89    1.26
   7   2   5  448.40    2.99
  -3  -4 -16   62.48    2.15
  -3  -1 -13   52.48    1.57
  -3   0 -20    2.23    1.18
  -3   0 -15  419.62    2.79
  -3   0 -14   24.46    1.38
  -2   2  -9  368.12    2.57
  -2   3 -12  676.15    3.09
  -1   1  -3 2721.37    8.29
  -1   5 -12  520.48    2.95
   0  -7 -12  571.14    4.42
   0  -6  -8  218.58    2.67
   0   5  -5  629.31    3.41
   1   7  -7  442.74    3.04
   2  -6  -6    7.93    1.31
   2  -5  -3    8.34    1.01
   2  -4  -1  446.16    2.80
   2   8  -6  117.74    1.90
   3  -6  -6   62.28    1.80
   3  -5  -3  267.52    2.33
   3  -3   1    5.00    1.12
   4  -4  -1 1290.30    4.36
   4  -3   1   33.40    1.35
   4   2   5 1067.24    4.73
   4   3   5 1207.41    5.76
   6  -1   3  258.38    2.19
   6   0   4  714.26    3.26
   6   5   5    0.56    1.17
   7  -1   2   47.99    1.65
   7   3   5   19.76    1.43
   7   5   5    2.34    1.43
   8   2   4  232.54    2.43
  -3  -2 -12 1000.35    4.52
  -3  -1 -12 1039.97    4.34
  -3   0 -13  313.86    2.45
  -3   1 -19  164.26    2.08
  -3   1 -18    1.65    1.25
  -3   1 -17   19.73    1.32
  -2   3 -11  874.63    3.47
  -1   3  -5  751.57    3.51
  -1   4  -7  506.75    2.93
   0   6  -8  173.07    1.83
   1  -7 -11  188.33    2.65
   1  -5  -4   38.56    1.23
   1  -4  -2 2168.27    6.26
   2  -7 -10  168.53    2.37
   2   0   3  177.73    2.20
   3  -4  -1  831.05    3.51
   3   9  -6  148.12    2.32
   4   9  -3   81.79    2.24
   5  -4  -2  235.98    2.29
   5  -2   2   18.24    0.92
   5   0   4  249.82    2.11
   5   4   5   56.63    1.77
   5   9  -1  241.43    4.21
   6   2   5  269.51    2.26
   7   0   3    9.89    1.39
   7   4   5  425.97    3.12
   8   1   3   38.40    1.39
   8   6   4  271.36    3.22
  -3   1 -16  120.37    1.62
  -3   1 -15  374.35    2.56
  -2   3 -10   67.78    1.42
  -2   4 -17    0.24    1.37
  -1   5 -10    2.30    1.39
   0   1   0  356.75    4.96
   0   6  -7  708.93    3.51
   1   5  -1  705.76    3.97
   1   6  -3  878.53    4.10
   1   7  -6   96.79    1.61
   3   1   4   33.78    1.24
   3   8  -2  394.15    3.47
   4  -5  -4  142.41    1.83
   4   0   4   35.53    1.05
   4   8   0    9.69    1.96
   5  -3   0  413.78    2.45
   6  -3  -1   64.38    1.63
   6  -2   1  102.61    1.45
   6   3   5    0.23    1.11
   6   4   5  351.88    2.93
   8   3   4   29.21    1.30
   8   4   4  329.59    2.92
   8   5   4   12.65    1.60
  -3  -3 -12 1530.27    6.31
  -3  -2 -11  845.04    4.22
  -3   1 -14  137.42    1.62
  -3   1 -13  418.27    2.66
  -2   4 -16  267.33    2.17
  -2   4 -15  132.26    1.61
  -2   4 -14   41.15    1.42
  -1  -6 -11  271.51    3.85
  -1   4  -6  169.46    1.99
  -1   5  -9  485.83    2.86
   0   5  -4 1355.02    4.82
   0   7 -12   54.70    1.44
   0   7 -11   99.86    1.80
   1   8 -10  141.86    2.24
   2  -6  -7  141.52    1.89
   2  -5  -4 1024.41    4.10
   2   7  -2  429.70    3.20
   2   8  -5   23.15    1.49
   3  -6  -7  428.14    2.99
   3  -5  -4  973.35    3.94
   3   9  -5   12.70    1.54
   4  -4  -2   25.08    1.40
   4  -3   0  758.72    3.25
   6  -1   2   58.84    1.46
   6   1   4  392.46    2.61
   7  -1   1   81.89    1.67
   7   2   4  541.63    3.07
   8   1   2  102.96    1.93
   8   2   3    1.71    1.51
  -3  -5 -19   99.14    2.71
  -3   1 -12 1799.29    5.00
  -3   2 -18   82.05    1.84
  -3   2 -17   21.38    1.59
  -3   2 -16  567.98    3.06
  -2   2  -7  936.99    3.76
  -2   4 -13  129.26    1.58
  -1   2  -3 2019.73    6.31
  -1   3  -4 4319.42    8.36
  -1   6 -14   14.33    1.65
   0  -6  -9  710.35    4.37
   0  -5  -6 1350.81    5.71
   0   6  -6    3.55    1.34
   1  -7 -12  325.24    3.06
   1  -3  -1  911.05    4.35
   1   7  -5   98.72    1.85
   1   8  -9   17.43    1.71
   2  -4  -2  346.42    2.47
   2  -2   1  766.86    3.70
   3  -4  -2  384.21    2.54
   3  -3   0  352.89    2.28
   4  -5  -5   43.97    1.47
   5  -4  -3  194.89    2.09
   5  -3  -1  245.66    2.12
   6  -3  -2  385.71    2.70
   6  -2   0    5.19    1.18
   7   0   2  287.59    2.40
   7   1   3   84.13    1.67
   7   8   2    1.72    2.33
  -3  -5 -18  221.61    3.50
  -3   0 -10   18.86    1.24
  -3   2 -15  320.67    2.46
  -2   4 -12  234.42    1.89
  -2   4 -11  117.52    1.66
  -1   5  -8  142.09    1.62
  -1   6 -13   -0.51    1.09
  -1   6 -12    8.50    1.46
   0  -7 -14   22.83    1.66
   0  -4  -4  214.11    2.55
   1  -5  -5  921.40    4.06
   1  -2   0 3756.84    9.05
   1   6  -2  138.17    1.84
   1   8  -8   44.06    1.62
   2   2   3 1024.93    7.80
   3  -6  -8  292.32    2.61
   4   9  -2  197.20    3.31
   5  -1   2   10.51    1.18
   6   7   3  512.12    6.04
   7  -1   0   37.31    1.60
   7   3   4  143.88    1.91
   7   5   4  266.84    2.89
  -3  -4 -13   14.12    1.56
  -3  -3 -11 1552.77    6.45
  -3  -2 -10  250.50    2.50
  -3   2 -13   40.22    1.40
  -2   3  -8  712.61    3.04
  -1   4  -5 1994.21    5.34
  -1   6 -11  117.34    1.91
   0   2   0 2328.77    9.07
   0   5  -3  433.85    2.85
   0   6  -5  458.65    2.88
   1  -7 -13   34.59    1.67
   1  -4  -3 1254.94    4.74
   1   7  -4  775.40    3.80
   2  -6  -8  456.33    3.02
   2  -5  -5 1065.29    4.12
   3  -5  -5  311.44    2.40
   3   9  -4   17.99    1.61
   4  -5  -6  139.28    1.93
   4  -4  -3  956.22    3.78
   4  -3  -1    5.40    1.07
   5  -4  -4  157.25    2.03
   6  -1   1 1298.11    4.18
   6   2   4  182.82    1.75
   7   4   4  761.57    3.77
   8   1   1   19.91    1.50
   8   2   2  207.11    2.32
   8   6   3    6.02    1.58
  -3  -1  -9 2912.62    7.23
  -3   2 -12  134.22    1.75
  -3   3 -17   48.95    1.72
  -2  -1  -5 3742.46   10.03
  -2   1  -5  616.75    3.41
  -2   2  -6 1350.72    4.39
  -2   4 -10   83.98    1.36
  -2   5 -14    1.58    1.31
  -1   1  -2 2232.07    7.41
  -1   6 -10    1.23    1.38
   0  -7 -15  167.15    2.91
   0   7  -8   59.55    1.66
   1   8  -7  392.52    3.03
   3  -6  -9    0.95    1.41
   3  -4  -3  236.98    2.08
   4   2   4   45.34    1.31
   5  -3  -2  166.87    1.84
   5  -2   0  306.13    2.16
   6  -3  -3  198.86    1.91
   6   0   2   32.66    1.29
   6   1   3 1121.45    3.98
   6   3   4 1757.33    5.37
   6   5   4  357.85    3.27
   7   0   1  557.43    2.89
   8   5   3   45.91    1.74
  -4  -2 -20    1.93    1.43
  -4  -2 -19   53.72    1.72
  -4  -2 -18  348.57    2.86
  -4  -1 -19  529.12    3.38
  -4  -1 -18    1.75    1.29
  -3  -5 -16    0.66    1.69
  -3   2 -11   20.09    1.25
  -3   3 -16   17.79    1.16
  -3   3 -15   77.09    1.72
  -3   3 -14    2.50    1.21
  -2   3  -7   21.32    0.95
  -2   4  -9  301.56    2.29
  -2   5 -13   31.48    1.59
  -1  -4  -6 1291.17    8.38
  -1   3  -3    2.44    0.77
  -1   5  -6    7.09    1.23
  -1   6  -9    2.52    1.38
   0  -6 -10  275.72    2.87
   1  -7 -14   46.34    1.78
   1   5   0 1182.22    5.11
   2  -6  -9  170.14    2.04
   2  -4  -3   55.47    1.32
   3  -5  -6  175.71    1.92
   3  -3  -1 1522.14    4.43
   4   4   4  304.25    3.50
   5  -4  -5   30.13    1.53
   6   4   4  253.44    2.46
   7  -1  -1  165.08    2.01
  -4  -3 -20  181.67    2.52
  -4  -3 -19   88.29    2.26
  -4  -2 -17   19.57    1.47
  -4  -2 -16  912.48    4.19
  -4  -1 -17  152.04    1.85
  -4  -1 -16  253.71    2.45
  -4   0 -19   96.93    1.90
  -4   0 -18   44.34    1.68
  -4   0 -17   -0.66    1.30
  -3  -2  -9  206.07    2.32
  -3   3 -13  147.70    1.83
  -2   5 -12  272.60    2.09
  -1  -6 -12  253.78    3.60
  -1   2  -2 1045.49    4.60
  -1   4  -4 1204.53    4.19
   0   4  -1 1007.70    4.37
   0   6  -4  691.30    3.37
   0   7  -7  280.94    2.23
   1   8  -6    3.17    1.37
   2  -5  -6  213.70    2.08
   2   9  -6   54.97    1.79
   3  -6 -10  293.55    2.73
   3   7   1 1401.14    7.65
   4  -5  -7  384.13    2.53
   4  -4  -4  718.01    3.16
   4   3   4   79.37    1.67
   5   3   4  130.44    1.79
   6  -3  -4   10.18    1.08
   6  -1   0  642.19    3.01
   7   3   3  296.56    2.48
   8   1   0   42.03    1.60
   8   2   1  182.93    2.19
   8   3   2   45.89    1.38
  -4  -3 -18    5.61    1.40
  -4  -3 -17   25.85    1.67
  -4  -2 -15  371.04    2.77
  -4  -1 -15   71.48    1.69
  -4   0 -16  456.65    2.90
  -3  -3 -10   49.01    1.58
  -3  -1  -8 1559.35    5.34
  -3   2 -10  213.34    1.80
  -3   3 -12  823.03    3.40
  -2   2  -5 2346.81    5.75
  -2   3  -6  516.70    2.81
  -2   5 -11   65.53    1.31
   0  -5  -7  556.43    3.66
   0   5  -2  229.81    2.21
   0   7  -6    9.64    1.29
   1  -3  -2 3341.15    8.01
   1   6  -1  655.09    3.53
   4  -3  -2   34.79    0.98
   5  -4  -6  492.07    3.04
   5  -3  -3  643.47    2.99
   5  -2  -1   33.07    1.19
   5   0   2    1.69    0.75
   5   4   4   74.85    1.64
   5   9   0   17.06    3.46
   6   2   3  481.66    2.79
   7  -1  -2  296.34    2.40
   7   0   0    7.99    1.00
   7   1   1  439.26    2.71
   7   6   3   73.28    1.90
   8   4   2  250.88    2.66
  -4  -3 -16   63.02    1.89
  -4  -1 -14   45.03    1.48
  -4   0 -15  921.09    3.66
  -4   0 -14   37.28    1.40
  -4   1 -18    7.28    1.17
  -4   1 -17  192.58    2.15
  -4   1 -16   87.01    1.64
  -3  -5 -15  639.07    5.89
  -3   2  -9  443.92    2.56
  -3   3 -11  169.65    1.89
  -3   4 -15  185.69    2.17
  -2   5 -10   76.49    1.71
  -1   5  -5  491.21    2.65
   0   3   0 4607.43   10.47
   1  -6 -10   19.71    1.33
   1  -4  -4  273.99    2.39
   2  -6 -10   74.12    1.59
   2   6   1  483.38    3.98
   2   9  -5    5.89    1.53
   3  -6 -11  205.07    2.26
   3  -5  -7  536.31    2.97
   3  -4  -4  366.09    2.25
   3  -3  -2  599.15    2.93
   4  -5  -8  131.28    1.66
   4  -4  -5    4.90    1.16
   6  -3  -5  289.72    2.41
   6   1   2   10.96    0.87
   7   5   3  407.71    3.14
   8   5   2   81.35    1.93
   8   6   2  135.39    2.40
  -4  -2 -14   39.56    1.45
  -4  -1 -13   92.80    1.63
  -4   0 -13  720.23    3.39
  -4   1 -15   28.54    1.44
  -3   3 -10  315.15    2.25
  -3   4 -14   80.07    1.72
  -3   4 -13  435.25    2.76
  -2   5  -9  497.08    2.85
  -1   3  -2 1014.41    4.14
  -1   4  -3  221.24    2.12
  -1   7 -10    6.09    1.35
   0  -6 -11  108.63    1.98
   2  -5  -7  885.26    3.73
   2  -4  -4  697.69    3.22
   2   5   2  359.49    4.30
   2   8  -2   15.56    1.38
   5  -3  -4   25.13    1.28
   6  -1  -1    7.54    1.07
   7   0  -1  115.94    1.74
   8   1  -1   99.32    1.62
   8   2   0   23.73    1.48
   8   3   1  396.35    2.84
  -4  -4 -20    0.66    1.59
  -4  -4 -19  547.37    4.28
  -4  -3 -15  292.16    2.73
  -4  -2 -13 1126.03    4.53
  -4   1 -14  238.24    1.97
  -4   2 -16  161.07    2.00
  -3  -2  -8 3992.07    9.27
  -3   0  -7  698.34    3.40
  -3   4 -12   95.99    1.58
  -2   3  -5 1345.84    4.18
  -1   6  -6  478.41    2.82
   0   7  -5  304.04    2.32
   2  -6 -11  521.60    3.31
   3  -6 -12   37.42    1.32
   3  -5  -8  309.44    2.46
   4  -5  -9  157.72    1.88
   4  -3  -3  184.90    1.67
   5  -4  -7   77.86    1.43
   6  -3  -6  235.29    2.24
   7   3   2    2.46    1.25
  -4  -4 -18  982.40    5.54
  -4  -3 -14  186.22    2.26
  -4  -1 -12 1062.16    4.11
  -4   1 -13  102.13    1.51
  -4   2 -15  289.72    2.43
  -3   3  -9  884.97    3.44
  -3   4 -11   -0.60    1.16
  -2  -2  -5 2209.73    9.32
  -2   5  -8  590.09    2.85
  -2   6 -11   46.79    1.65
  -1  -5  -9  865.52    5.83
   0   5  -1 2839.18    6.78
   1  -6 -11  426.21    3.15
   1  -2  -1   57.08    1.32
   1   8  -4  263.72    2.43
   2   9  -4  147.98    2.28
   3  -4  -5  321.45    2.21
   3   2   3  789.44    4.55
   4  -4  -6  545.29    2.79
   4   2   3 5324.48    9.76
   5  -4  -8    4.41    1.33
   5   0   1    2.37    0.74
   6  -2  -4    8.16    1.17
   6   1   1  570.87    2.90
   6   2   2    0.83    1.03
   7   1   0  272.24    2.00
   7   2   1  374.57    2.41
   8   4   1  201.31    2.32
  -4  -4 -17    2.48    1.43
  -4  -2 -12 1047.13    4.34
  -4   0 -11    4.69    1.18
  -4   1 -12  119.42    1.69
  -4   2 -13  702.92    3.24
  -3  -3  -9 1525.79    6.61
  -3   2  -7    0.06    1.05
  -2  -1  -4 5400.63   12.02
  -2   5  -7   74.63    1.53
  -2   6 -10   27.87    1.59
  -1   7  -8  166.99    2.10
   0  -5  -8  206.65    2.40
   0   4   0 2283.88    6.59
   0   7  -4  391.80    2.73
   0   8  -7    9.11    1.55
   2  -6 -12  213.33    2.31
   2  -5  -8  687.59    3.36
   2  -4  -5  842.39    3.64
   3  -3  -3  369.99    2.39
   4  -5 -10  358.62    2.52
   5  -3  -5   62.35    1.18
   6  -3  -7    1.16    1.24
   6   5   3  743.29    4.15
   7  -1  -4   44.21    1.48
   7   0  -2  257.97    2.19
   7   4   2   72.57    1.54
   8   2  -1  186.97    2.30
   8   3   0   48.15    1.67
  -4  -4 -16  589.91    4.31
  -4  -3 -13  174.56    2.39
  -4   1 -11    9.40    1.33
  -3   4 -10  237.03    1.93
  -2   3  -4  313.28    2.08
  -2   6  -9  166.16    1.96
  -1   2  -1 5531.80   10.25
  -1   5  -3  139.35    1.74
  -1   6  -5  796.66    3.37
   0  -6 -12  206.97    2.44
   0   6  -2   85.50    1.53
   1  -6 -12  531.12    3.51
   1  -4  -5 2287.07    6.26
   1  -3  -3 2045.38    6.20
   1  -1   0 3887.67   10.38
   1   5   1  630.81    4.11
   2  -2  -1 2252.00    5.85
   2   8  -1  155.89    2.30
   3  -5  -9   16.12    1.22
   4  -5 -11   65.55    1.97
   4  -4  -7  518.11    2.81
   4  -3  -4  654.22    2.82
   4   0   1    1.85    0.94
   5  -4  -9  459.92    2.85
   5  -1  -1  276.92    1.89
   7   5   2    0.12    1.20
   7   6   2   29.38    1.47
   7   8   1    3.67    1.82
   8   6   1   92.76    2.32
  -4   0 -10 1064.29    3.91
  -4   2 -12  486.53    2.62
  -4   3 -14  143.57    2.01
  -3   1  -6 2518.69    5.77
  -3   4  -9  265.86    2.15
  -3   5 -12   78.93    1.79
  -1  -1  -2   91.28    2.85
  -1   7  -7   34.36    1.22
   0   8  -6    3.25    1.04
   1   8  -3   64.04    1.58
   2  -6 -13   32.74    1.39
   3  -4  -6   35.45    0.99
   5  -3  -6  366.07    2.44
   6  -3  -8   60.27    1.38
   7  -1  -5  312.94    2.34
   7   1  -1    0.88    0.92
   7   2   0   27.47    1.22
   7   3   1  487.75    2.90
   8   1  -3   58.87    1.45
   8   4   0    2.35    1.34
  -4  -4 -15  763.21    4.78
  -4  -1 -10   20.68    1.00
  -4   2 -11   17.38    1.05
  -4   3 -13   95.55    1.82
  -3  -2  -7  270.29    2.58
  -3   2  -6  572.32    2.79
  -3   3  -7  522.49    2.56
  -2   0  -3  181.52    2.12
  -1   6  -4  199.33    2.05
  -1   7  -6   55.84    1.51
   0   7  -3   12.88    1.26
   2  -6 -14  487.13    3.38
   2  -5  -9  119.02    1.66
   3  -5 -10  602.41    3.13
   3   3   3    4.55    1.16
   4  -4  -8    6.69    1.16
   4   3   3   30.01    1.18
   5  -4 -10  160.44    2.04
   5   2   2  781.71    3.44
   5   4   3  700.16    3.87
   5   5   3  959.77    5.26
   7   0  -3  113.85    1.45
   8   2  -2  186.02    1.89
   8   3  -1   29.58    1.52
  -5  -2 -18   12.72    1.52
  -5  -1 -17  273.72    2.64
  -5  -1 -16  294.07    2.52
  -5   0 -17  100.79    1.87
  -5   0 -16   26.05    1.43
  -4  -3 -12  690.92    3.94
  -4   0  -9  691.55    3.21
  -4   2 -10  486.64    2.71
  -4   3 -12   10.10    1.38
  -3   4  -8   86.52    1.33
  -3   5 -10  128.80    1.92
  -2   3  -3   16.90    1.04
   0  -6 -13  619.26    4.00
   0   8  -5  131.80    1.96
   1  -6 -13   21.13    1.22
   1   3   2  422.83    5.45
   2  -4  -6  353.21    2.45
   2   0   1 2689.84    7.58
   3  -4  -7  723.86    3.25
   3  -3  -4 2827.49    5.82
   3   0   1  612.68    3.13
   3   9  -1    0.70    1.58
   4  -3  -5  168.83    1.60
   5  -3  -7  255.21    2.12
   5  -1  -2  634.74    2.73
   7  -1  -6  148.44    1.87
   7   1  -2  468.08    2.65
   7   4   1  281.20    2.36
   8   5   0  194.69    2.31
  -5  -2 -17    3.97    1.35
  -5  -2 -16  249.33    2.42
  -5  -1 -15   -0.15    1.37
  -5   0 -15   61.85    1.65
  -4  -2 -10  568.57    3.22
  -4  -1  -9 2233.22    5.84
  -4   3 -11    5.45    1.31
  -3   1  -5 2324.94    5.57
  -3   4  -7   13.86    1.14
  -3   5  -9  308.12    2.35
  -2  -3  -6  876.99    8.09
  -2   5  -5  494.60    2.56
  -2   6  -7   11.29    1.07
  -1   4  -1 1990.76    5.39
  -1   5  -2 1457.80    4.51
   0  -5  -9 1504.15    5.78
   0   3   1   19.33    1.34
   0   5   0  559.22    3.18
   1  -4  -6 2779.34    6.92
   1   8  -2    2.62    1.10
   2  -6 -15   38.66    1.61
   3  -5 -11  382.18    2.63
   3   4   3   85.34    2.66
   4  -4  -9   30.73    1.29
   4   4   3 1346.46    6.45
   4   5   3  262.63    3.70
   6  -1  -4    0.76    0.96
   6   0  -2  203.91    1.77
   6   4   2    3.58    1.03
   7   0  -4   14.45    1.16
   8   2  -3    2.83    1.37
   8   6   0    1.92    1.41
  -5  -3 -18    1.56    1.30
  -5  -1 -14  207.98    2.11
  -5   0 -14  312.02    2.48
  -5   1 -15   20.33    1.46
  -4  -4 -14   44.56    1.50
  -4   3 -10  102.49    1.62
  -3  -3  -8 2788.75    8.95
  -3   0  -5 2699.17    6.37
  -3   2  -5 1510.09    4.23
  -2   6  -6  112.85    1.69
  -1   6  -3  111.55    1.67
  -1   7  -5  152.44    1.70
   0  -3  -4 2142.06    7.97
   0   7  -2  303.37    2.31
   0   8  -4   83.95    1.69
   1  -6 -14   81.24    1.74
   1   9  -4   87.21    1.92
   2  -5 -10   91.12    1.56
   2  -3  -4  950.09    3.79
   2  -2  -2 1656.60    5.05
   2   9  -2   14.66    1.57
   4  -3  -6  234.31    1.94
   5  -3  -8   25.95    1.27
   6   5   2  272.21    2.67
   7  -1  -7   92.58    1.66
   8   3  -2  224.67    2.21
   8   4  -1  202.56    2.13
  -5  -3 -17  229.39    2.62
  -5  -2 -15  255.62    2.20
  -5   0 -13  832.16    3.61
  -5   1 -14  137.78    1.97
  -4  -3 -11 1063.43    4.73
  -4   4 -12   29.99    1.23
  -2   2  -2 4837.49    8.28
  -2   4  -3  378.06    2.37
  -2   5  -4   63.64    1.45
  -1  -5 -10 1122.60    6.38
  -1  -4  -7 2057.78    9.63
   0  -6 -14   49.03    1.55
   1  -2  -2 2429.05    7.23
   1   6   1  450.57    3.32
   2  -4  -7  286.05    2.26
   2   6   2   22.11    1.60
   2   8   0  698.67    4.57
   3  -5 -12    8.65    1.15
   3  -4  -8  587.62    2.96
   3  -3  -5  770.49    3.20
   3   7   2  150.10    3.35
   4  -4 -10  540.92    2.85
   4   2   2 5185.76    9.11
   5  -1  -3  522.01    2.54
   5   3   2  670.97    3.39
   6   1  -1   15.31    0.83
   6   2   0  615.31    2.90
   6   6   2  327.67    3.04
   7   1  -3  332.08    2.27
   7   6   1  267.18    2.72
  -5  -3 -16  321.10    2.83
  -5  -2 -14   34.28    1.41
  -5  -1 -13  293.28    2.19
  -5   1 -13   26.63    1.42
  -4  -2  -9  793.22    3.73
  -4  -1  -8  630.41    3.20
  -4   2  -8   19.27    0.96
  -4   3  -9  443.27    2.42
  -4   4 -11   63.35    1.36
  -3  -4 -10 1090.02    6.62
  -2   1  -2 2307.65    6.27
  -2   3  -2 1148.52    3.95
  -1  -6 -15   39.13    1.82
   0   4   1   31.22    1.28
   1  -6 -15  328.09    2.78
   2  -5 -11  452.04    2.80
   3  -5 -13   96.63    1.73
   4  -2  -4 1481.02    4.10
   5   1   0 2318.89    5.32
   5   2   1   27.25    1.08
   6   0  -3  418.11    2.23
   6   8   1    1.35    1.94
   7  -1  -8  165.20    1.87
   7   4   0  205.33    2.15
   8   2  -4   63.62    1.38
   8   5  -1    3.17    1.34
  -5  -2 -13  556.87    3.20
  -5  -1 -12   17.85    1.26
  -5   0 -12  340.11    2.22
  -5   2 -13  429.08    2.81
  -4  -4 -13  510.41    3.71
  -4   0  -7   70.44    1.47
  -4   3  -8    4.18    1.07
  -4   4 -10  496.00    2.68
  -3  -2  -6  840.03    4.34
  -3   1  -4   37.30    1.01
  -3   5  -7  115.66    1.54
  -2   6  -5  357.65    2.29
  -2   7  -7    1.91    1.41
  -1   2   0 3926.40    8.89
  -1   6  -2 1003.28    3.67
   0  -5 -10 1436.79    5.77
   0   6   0  347.03    2.48
   0   8  -3    1.71    1.17
   1  -6 -16   44.08    1.75
   1   8  -1  186.21    2.21
   1   9  -3   77.37    1.79
   4  -4 -11  159.25    1.82
   4  -3  -7 1274.02    3.90
   7   2  -2  391.64    2.37
   7   3  -1   -0.01    1.10
   8   3  -3  108.69    1.73
   8   4  -2  208.80    2.28
   8   6  -1  124.82    2.13
  -5  -3 -15   18.29    1.40
  -5   0 -11  188.51    2.04
  -5   1 -11  105.64    1.72
  -5   2 -12   30.24    1.54
  -4  -3 -10  264.64    2.57
  -4   4  -9   98.45    1.71
  -3   0  -4  849.09    3.62
  -3   3  -4   79.18    1.34
  -3   5  -6  883.33    3.49
  -2  -1  -3    3.34    0.65
  -2   4  -2 2488.47    5.50
  -2   5  -3  229.94    1.95
   0   7  -1  474.10    2.85
   1  -4  -7   16.27    1.06
   1   5   2   57.18    1.76
   2  -5 -12  473.18    2.89
   2   9  -1   17.66    1.84
   3  -5 -14  317.84    2.58
   3  -4  -9   45.47    1.06
   3   0   0  777.60    3.49
   3   9   0   91.92    2.78
   5  -3 -10  448.87    2.65
   5  -1  -4  392.74    2.23
   5   0  -2    9.76    0.91
   5   4   2 1617.32    5.49
   6   0  -4  588.56    2.72
   6   1  -2  920.66    3.31
   6   4   1   35.87    1.24
   6   9   0   30.02    3.12
   7   1  -4   15.67    1.04
   7   8   0  119.24    2.69
  -5  -4 -18    6.53    1.62
  -5  -3 -14  188.04    2.15
  -5  -2 -12  186.84    2.06
  -5   2 -11  152.22    1.86
  -4   3  -7   97.54    1.47
  -3   6  -8    4.85    1.09
  -2   0  -2  305.44    2.57
  -2   6  -4   38.82    1.36
  -2   7  -6  219.46    2.31
  -1   4   0  349.43    2.34
  -1   7  -3   10.85    1.23
  -1   8  -5  341.28    2.80
   1  -6 -17   10.45    1.41
   2  -3  -5 4152.39    7.41
   3  -5 -15    2.02    1.29
   4  -4 -12    1.85    1.17
   4  -3  -8  190.78    1.77
   4  -2  -5   13.73    1.00
   6  -2 -10  185.21    2.01
   6   3   0 1387.91    4.50
   7   2  -3  107.27    1.68
   7   5   0  459.39    2.94
   8   3  -4   46.70    1.55
   8   5  -2  197.72    2.31
  -5  -4 -17   36.24    1.77
  -5   0 -10 1000.81    3.76
  -4  -2  -8  446.43    2.83
  -4   4  -8   44.97    1.24
  -3   2  -3 1111.57    3.66
  -3   4  -4    3.91    1.17
  -2   2  -1  786.31    3.46
  -1  -6 -16  344.57    3.60
  -1   1   0 3737.76    9.84
   0   8  -2  109.22    1.77
   1   9  -2    5.14    1.30
   2  -5 -13    7.45    1.09
   3  -4 -10  203.73    1.89
   3  -2  -4 1980.31    4.95
   4  -4 -13  401.04    2.74
   4   3   2  396.44    2.90
   5   1  -1   82.78    1.33
   6  -1  -7  121.79    1.53
   7   1  -5  602.18    3.01
   7   3  -2  546.59    2.90
   7   4  -1   23.39    1.31
   7   6   0   57.92    1.60
   7   7   0  313.37    3.27
   8   2  -6   24.19    1.58
   8   4  -3   26.50    1.39
  -5  -3 -13  199.01    2.15
  -5  -2 -11  138.84    1.80
  -5   1  -9  309.14    2.22
  -5   3 -11  124.13    1.97
  -4   3  -6  746.92    3.05
  -4   4  -7  446.00    2.59
  -3   1  -3 1102.04    3.77
  -3   3  -3  800.84    3.10
  -2  -2  -4 1756.28    8.39
  -2   3  -1 2436.59    5.61
  -2   5  -2  500.75    2.65
  -2   6  -3  436.53    2.53
  -2   7  -5   39.79    1.52
  -1  -3  -5    6.76    1.47
  -1   5   0  187.64    1.94
  -1   6  -1  174.78    1.78
  -1   8  -4   32.37    1.64
   0  -6 -17   84.96    2.05
   1   7   1   46.47    1.56
   3  -3  -7 1332.57    4.11
   4  -3  -9  123.99    1.55
   4   1   0  345.36    2.31
   4   2   1  409.04    2.70
   5  -3 -12  235.37    2.15
   5  -1  -5    0.72    0.84
   5   0  -3 1241.38    3.73
   5   3   1  271.42    2.19
   5   5   2  207.15    2.43
   5   6   2 1315.89    6.64
   6   0  -5  194.93    1.72
   6   1  -3  671.65    2.91
   6   5   1  554.55    3.35
   6   7   1   74.97    2.06
   7   0  -8   91.48    1.68
   8   6  -2   83.04    1.89
  -5   0  -9  219.75    1.82
  -4   1  -5  176.67    1.76
  -4   2  -5  279.80    1.97
  -4   5  -8    1.63    1.27
  -3  -3  -7    3.38    1.07
  -3  -1  -4   35.25    1.10
  -3   6  -6  130.82    1.98
  -2   4  -1  308.57    2.20
  -1  -5 -11  341.05    3.48
  -1   7  -2  223.66    1.91
   0  -5 -11  193.67    2.22
   1  -4  -8 1841.59    5.43
   1   8   0  399.04    3.34
   2  -4  -9  718.45    3.27
   2   0   0    2.31    0.58
   2   8   1  210.32    2.70
   4  -4 -14  276.63    2.31
   4  -2  -6  502.58    2.51
   6   6   1    5.46    1.16
   8   3  -5  772.27    3.52
   8   4  -4   -0.42    1.36
  -6  -2 -16    8.44    1.50
  -6  -1 -14  542.28    3.30
  -5   1  -8    3.92    1.15
  -4  -3  -9 2081.33    6.36
  -3   0  -3 1280.62    4.38
  -3   5  -4   -1.48    2.48
  -2   7  -4    0.24    1.34
  -1  -6 -17  329.78    3.45
   0  -6 -18   67.77    2.45
   1  -2  -3 3280.69    8.21
   1   6   2  423.72    3.36
   2  -3  -6   23.12    0.85
   4  -4 -15   -2.44    1.41
   4  -3 -10  767.04    3.15
   5  -2  -9  579.77    2.73
   5  -1  -6  237.66    1.80
   6   0  -6  538.50    2.59
   6   2  -2    1.28    0.91
   6   4   0  542.96    3.05
   7   3  -3  525.11    2.81
   7   5  -1    0.46    1.16
  -6  -2 -15    9.32    1.39
  -6   0 -13    3.14    1.38
  -5  -4 -15  297.46    2.89
  -5  -3 -12  807.39    3.90
  -5   3  -9   33.44    1.16
  -4  -2  -7   29.08    1.09
  -4   0  -5 1155.30    3.81
  -3   2  -2 2624.99    5.54
  -3   3  -2  887.86    3.24
  -3   6  -5   41.13    1.52
  -2   5  -1  331.28    2.15
  -2   6  -2  532.88    2.71
  -1   3   1  969.74    4.14
  -1   4   1  763.80    3.56
  -1   8  -3   59.46    1.37
   0  -3  -5   19.55    1.13
   0   4   2  333.40    2.88
   0   8  -1  189.98    2.17
   1   9  -1  269.88    2.94
   2  -5 -15  788.77    3.75
   3  -4 -12   40.70    1.32
   3  -3  -8 1355.07    4.12
   3  -2  -5 1137.87    3.76
   3   0  -1 3080.07    6.73
   5   0  -4  872.29    3.16
   5   1  -2   87.82    1.31
   6  -1  -9  289.05    1.94
   6   1  -4   25.70    1.06
   7   0 -10   58.59    1.66
   7   4  -2   36.26    1.43
   8   3  -6  168.06    2.02
  -6  -2 -14   11.69    1.29
  -6  -1 -13  352.25    2.72
  -6   0 -12    7.67    1.35
  -6   1 -12   20.34    1.55
  -5   1  -7  467.98    2.54
  -5   3  -8    5.12    1.27
  -4   1  -4 1190.80    3.77
  -4   2  -4   66.94    1.30
  -4   4  -5    0.84    1.16
  -3   1  -2 1861.18    4.89
  -3   5  -3  567.69    2.79
  -2   3   0   27.18    1.19
  -2   7  -3  135.59    1.78
  -1  -6 -18    4.86    1.41
  -1   2   1   59.21    1.40
  -1   6   0   57.86    1.13
  -1   7  -1  489.46    2.82
   0  -5 -12  923.67    4.54
   0   3   2 2018.69    7.44
   2  -5 -16   23.44    1.30
   2  -4 -10   92.54    1.29
   2  -2  -4   37.57    1.07
   2  -1  -2 4408.11    8.34
   4  -3 -11  232.93    1.94
   4  -2  -7  703.43    2.79
   4   4   2 2434.36    7.84
   5  -2 -10  309.98    2.14
   5   4   1   51.94    1.28
   6  -1 -10  241.67    2.01
   7   2  -5  101.92    1.40
   7   6  -1  185.66    2.19
   7   8  -1   12.78    1.57
   8   4  -5   28.66    1.53
   8   5  -4   29.07    1.56
  -6  -3 -16  249.17    2.64
  -6  -1 -12   99.18    1.86
  -6   0 -11  108.27    1.70
  -6   1 -11  521.94    3.08
  -5  -4 -14   41.48    1.64
  -5  -3 -11    0.00    1.09
  -5  -2  -9  738.88    3.37
  -5   0  -7 1379.43    4.20
  -5   2  -7  648.60    2.82
  -4   5  -6   91.48    1.46
  -3   4  -2 1282.97    3.90
  -3   6  -4   14.88    1.33
  -2   4   0  316.85    2.24
  -1   5   1  718.89    3.43
  -1   8  -2  153.67    1.94
   0   1   1   20.93    1.61
   0   5   2 1551.56    5.44
   1  -4  -9 1197.48    4.33
   2  -5 -17  345.72    2.78
   2  -3  -7  440.78    2.57
   3  -4 -13   11.98    1.04
   3   3   2 2502.19    8.74
   4   1  -1 1534.35    4.61
   5  -1  -7  900.64    3.12
   5   2  -1 1788.94    4.72
   5   3   0  601.09    3.05
   6   0  -7  355.28    2.00
   6   2  -3 1340.47    4.16
   6   5   0  497.79    3.13
   7   1  -8  134.26    1.83
   7   3  -4    6.95    1.10
   7   7  -1   21.64    1.53
   8   3  -7    2.00    1.25
  -6  -2 -13  341.07    2.64
  -5   3  -7  249.61    2.14
  -4   4  -4  145.38    1.67
  -3  -4  -9  342.32    4.44
  -2  -6 -19    8.77    1.69
  -2   0  -1 2861.85    7.70
  -2   6  -1  102.71    1.51
  -1  -6 -19  218.92    3.10
  -1  -4  -8  799.91    5.51
   0   8   0  111.66    1.86
   1   7   2  244.53    2.68
   1   8   1   12.08    1.42
   2  -4 -11 1208.80    4.04
   3  -4 -14 1131.62    4.16
   3  -3  -9    7.07    1.00
   3   1   0   73.88    1.38
   3   9   1  239.34    3.67
   4  -3 -12   66.82    1.38
   4  -2  -8  605.27    2.72
   5  -2 -11   46.13    1.22
   5   0  -5    7.34    0.94
   6   1  -5  132.36    1.46
   6   3  -2  462.05    2.71
   7   2  -6  444.17    2.58
   7   4  -3  517.25    2.93
   7   5  -2  300.01    2.44
   8   4  -6    3.08    1.38
   8   6  -4    0.31    1.33
  -6  -3 -15   75.13    1.88
  -6  -2 -12  189.22    2.02
  -6   0 -10  444.84    2.68
  -6   1 -10   67.63    1.73
  -5  -1  -7  227.67    1.96
  -5   2  -6  154.39    1.53
  -4  -3  -8  891.01    4.20
  -4  -2  -6  959.08    3.92
  -4   2  -3  971.41    3.34
  -4   5  -5    4.98    0.97
  -3   0  -2 5739.89    9.15
  -3   2  -1  208.03    1.83
  -3   3  -1    4.56    0.99
  -3   5  -2  226.81    1.93
  -3   6  -3  231.89    2.05
  -2   5   0    7.31    1.12
  -2   7  -2  173.02    2.00
  -1  -5 -12  558.73    4.14
  -1   7   0   14.37    1.19
   0  -5 -13  584.26    3.66
   0   6   2 1203.94    4.65
   3  -2  -6   14.09    0.74
   3   2   1 3802.25    8.96
   3   8   2   63.88    2.53
   4   2   0 2066.74    5.54
   5  -2 -12   99.44    1.60
   5   8   1   63.54    2.76
   6  -1 -12  133.40    1.73
   6   4  -1 1150.25    4.11
   6   6   0  605.65    3.92
   6   8   0  131.78    2.63
   7   1  -9   68.21    1.52
   8   5  -5  180.47    2.18
  -6  -3 -14  560.18    3.50
  -6  -1 -10  186.35    1.92
  -6   1  -9   41.17    1.44
  -5  -3 -10  235.49    2.20
  -5  -2  -8   83.34    1.42
  -5   3  -6  279.82    1.96
  -5   4  -7  265.58    2.16
  -4   1  -3 1798.55    4.35
  -4   3  -3 1187.21    3.53
  -3  -1  -3  302.12    2.35
  -3   4  -1  140.37    1.70
  -2   1   0  274.39    2.26
  -1   6   1  372.13    2.48
  -1   8  -1  106.81    1.73
   2  -4 -12  675.30    3.16
   3  -4 -15  228.60    1.98
   3  -3 -10  869.98    3.31
   4  -3 -13  224.35    1.75
   4  -2  -9   62.25    1.27
   4   5   2 1116.95    6.18
   5   5   1   66.34    1.52
   6   1  -6  316.35    2.16
   6   2  -4  269.52    2.07
   6   7   0  348.82    3.32
   7   2  -7   27.44    1.37
   7   3  -5  267.24    2.15
  -6  -2 -11   99.62    1.69
  -6   2  -9   46.53    1.35
  -5   1  -5   38.29    1.23
  -5   4  -6   12.96    1.36
  -4   4  -3  365.44    2.28
  -4   5  -4  192.93    1.83
  -3   1  -1 1486.64    4.38
  -2   3   1 3277.66    6.72
  -1   4   2 2325.35    6.06
   1  -4 -10  109.60    1.49
   2  -3  -8 1325.87    4.22
   2   6   3  300.37    3.89
   2   8   2  141.11    2.45
   2   9   1   71.02    2.01
   3  -4 -16   70.08    1.50
   4  -3 -14  439.19    2.48
   5  -2 -13  144.03    1.59
   5   0  -6 1602.25    4.13
   5   2  -2   16.95    1.07
   6   0  -9  811.06    3.15
   7   1 -10   15.00    1.07
   7   4  -4  185.25    2.00
   7   7  -2  131.20    2.26
   7   8  -2    7.63    1.61
   8   5  -6  175.61    2.27
   8   6  -5   23.27    1.57
  -5  -1  -6 1174.86    3.92
  -5   0  -5   41.05    1.09
  -5   3  -5   31.15    1.01
  -4  -1  -4   89.43    1.41
  -4   0  -3  437.35    2.51
  -4   2  -2  402.28    2.24
  -4   3  -2   77.35    1.30
  -3   5  -1    1.49    1.05
  -3   6  -2  181.03    1.66
  -2   4   1  471.36    2.54
  -2   6   0  374.57    2.29
  -2   7  -1   24.53    1.33
  -1   3   2 3518.60    7.78
  -1   5   2 1288.50    4.50
   0  -5 -14   10.07    1.23
   0  -4  -9 1642.11    5.84
   1  -2  -4  655.17    3.66
   1   4   3  120.42    2.43
   2  -4 -13  212.48    1.98
   2   0  -1  175.49    1.91
   3  -4 -17  296.62    2.43
   3  -3 -11  779.45    3.19
   3  -2  -7  494.85    2.50
   4  -3 -15   16.52    1.24
   4   1  -2 2675.34    5.84
   4   7   2  963.44    9.53
   5  -2 -14  316.47    2.25
   5   1  -4  592.55    2.66
   5   3  -1  425.31    2.66
   5   4   0 1044.03    4.22
   6   1  -7   89.33    1.48
   6   3  -3  735.21    3.24
   6   5  -1   55.22    1.44
   7   1 -11    5.88    1.26
   7   2  -8  313.08    2.43
  -6  -4 -16   64.32    1.85
  -6  -2 -10  644.55    3.33
  -5  -2  -7  482.81    2.65
  -5   2  -4  594.32    2.74
  -4   1  -2  955.44    3.37
  -4   4  -2  214.78    1.82
  -3   3   0  402.02    2.34
  -3   4   0  953.96    3.38
  -2   2   1 2582.04    6.10
  -2   5   1 1597.66    4.63
  -1   7   1  491.08    3.06
   0   8   1   -5.41    2.26
   1   6   3 2812.33    8.27
   2  -1  -3  621.93    3.26
   4  -2 -10  437.12    2.25
   4   6   2  558.70    5.40
   5  -2 -15   -0.10    1.12
   6   4  -2   15.52    1.12
   6   9  -1   20.27    2.09
   7   1 -12   36.57    1.71
  -6  -3 -12   66.15    1.53
  -6  -1  -8   27.63    1.15
  -6   2  -7  231.12    2.17
  -5   3  -4  358.54    2.14
  -4  -2  -5 1076.98    4.13
  -3   2   0  908.60    3.30
  -3   6  -1    9.99    1.10
  -1  -5 -13  707.80    4.34
  -1   0   0   14.92    0.96
  -1   6   2 1008.53    3.98
  -1   8   0   47.78    1.55
   0  -3  -6 3114.33    8.73
   0   5   3  498.58    3.14
   0   9   0    6.61    1.59
   1  -4 -11  888.67    3.71
   1   8   2  348.01    3.07
   1   9   1   16.97    1.70
   2  -3  -9  694.96    3.12
   3  -3 -12  261.74    2.03
   4  -2 -11 1158.37    3.68
   5   0  -7  488.77    2.24
   6   0 -11    7.48    1.16
   7   2  -9  896.04    3.47
   7   5  -4    7.60    1.22
  -6  -4 -15  105.28    1.98
  -6  -2  -9  209.57    1.98
  -6   0  -7 1009.14    3.57
  -5  -1  -5  460.71    2.54
  -5   4  -4  198.29    2.02
  -4   5  -2   10.04    1.39
  -3   0  -1  620.94    3.09
  -3   5   0  581.34    2.79
  -2   6   1  693.29    3.26
  -2   7   0   59.32    1.56
   0  -5 -15  424.85    3.02
   2   7   3  590.48    5.00
   3  -2  -8 1672.53    4.34
   4   2  -1 2231.05    5.60
   5  -1 -11  249.47    1.73
   5   1  -5  338.90    2.07
   5   2  -3 1465.86    4.39
   6   0 -12  261.04    2.19
   6   1  -8   10.56    0.89
   6   3  -4  135.66    1.67
   6   6  -1  320.91    2.71
   7   2 -10  187.71    2.11
   7   3  -7   76.66    1.32
   7   7  -3  211.00    2.69
  -7  -1 -11  415.29    2.85
  -6  -3 -11  206.22    2.03
  -6   2  -6   85.12    1.44
  -5  -4 -11   27.39    1.27
  -5   1  -3 1870.32    4.54
  -5   2  -3   85.15    1.16
  -5   3  -3  506.86    2.62
  -4   0  -2 4564.28    7.37
  -4   2  -1  179.65    1.51
  -4   4  -1  216.32    1.88
  -3  -1  -2 1409.75    5.01
  -3   1   0    3.86    0.85
  -2   4   2  385.64    2.46
  -1   2   2 2572.27    7.12
   0  -5 -16  459.16    3.32
   0  -4 -10  376.59    2.93
   0   6   3 1195.82    4.75
   1   7   3  503.91    3.48
   2  -4 -15  575.91    2.86
   3   0  -3  232.45    1.92
   4  -2 -12    4.54    1.06
   4   3   0    5.41    0.90
   4   4   1  183.98    2.24
   5  -1 -12  186.15    1.75
   5   0  -8   12.89    0.94
   6   1  -9   99.05    1.54
   6   2  -6 1476.66    4.16
   7   4  -6  369.98    2.51
  -6  -1  -7  509.47    2.58
  -6   0  -6    1.92    1.08
  -5  -2  -6  199.47    1.87
  -5   4  -3   47.51    2.34
  -4  -1  -3 1558.29    4.54
  -3   3   1 1840.01    4.65
  -3   4   1  847.06    3.27
  -3   6   0  273.54    2.29
  -3   7  -1    0.75    1.36
  -2   0   0    2.93    0.79
  -2   1   1 3026.98    7.03
  -2   3   2 3980.07    7.43
  -2   5   2 1459.58    4.53
  -1  -5 -14  562.53    3.88
  -1   7   2  498.38    3.07
  -1   8   1   72.73    1.86
   0   8   2  202.72    2.31
   2  -4 -16   11.82    1.09
   2  -3 -10   16.17    1.00
   2   1   0 3693.78    9.66
   3  -3 -14  202.57    1.78
   3  -2  -9  506.06    2.52
   3   4   2 2584.48   10.42
   4   1  -3  196.50    1.63
   5   3  -2   42.79    1.24
   5   5   0  196.12    2.15
   6   4  -3  291.27    2.07
   6   5  -2  265.47    2.28
   6   7  -1   74.42    1.72
   6   8  -1  419.95    3.91
   7   6  -4  132.45    1.96
  -6  -3 -10  107.88    1.58
  -6  -2  -8  464.32    2.70
  -6   1  -5   40.54    1.40
  -6   3  -5   33.20    1.54
  -5   0  -3 1887.28    4.59
  -5   2  -2   17.79    0.97
  -4  -4  -9  615.23    4.41
  -4   5  -1  361.97    2.26
  -3   2   1 2738.27    5.77
  -3   5   1  253.22    2.05
  -2  -5 -13  156.39    2.87
  -2   7   1  152.67    1.97
  -1   4   3 1426.89    4.77
  -1   5   3  429.91    2.70
   0  -5 -17   99.57    1.72
   0   7   3  452.67    3.20
   0   9   1   46.56    2.30
   2  -4 -17   18.67    1.19
   2   9   2    6.97    1.42
   3   2   0   28.49    1.08
   4  -2 -13  228.86    1.70
   5  -1 -13  392.07    2.15
   5   0  -9  129.73    1.55
   5   2  -4 1863.82    4.93
   5   4  -1 1532.63    4.96
   5   9   0   13.31    2.34
   6   0 -15   43.77    1.78
   6   1 -10  385.72    2.38
   6   2  -7 1360.00    4.05
   7   2 -12  169.66    2.37
  -7  -2 -11   32.32    1.51
  -7  -1  -9  185.52    2.06
  -6  -1  -6  519.31    2.72
  -6   0  -5  388.01    2.36
  -5  -1  -4 1330.39    3.87
  -5   1  -2   12.47    1.00
  -5   3  -2   45.98    1.03
  -5   4  -2   56.56    1.35
  -4  -2  -4   47.25    1.20
  -4   2   0 3255.68    5.94
  -4   3   0  840.54    3.02
  -4   4   0  344.15    2.28
  -2  -2  -3 1022.42    6.52
  -2   2   2 1839.81    5.18
  -2   6   2  170.83    1.94
  -1   6   3  126.75    1.73
   0  -5 -18   77.83    1.74
   0   3   3 1546.42    6.37
   1  -2  -5 3234.98    7.66
   1   9   2   74.37    2.08
   2  -4 -19  188.53    2.10
   2  -4 -18  301.83    2.39
   2  -3 -11  861.70    3.40
   3  -3 -15  302.60    2.01
   4  -2 -14  341.70    2.19
   4  -1  -9   36.89    0.88
   5  -1 -14   93.76    1.29
   7   4  -7  249.72    1.97
   7   7  -4   88.21    1.94
  -7  -3 -13  181.21    2.35
  -6  -2  -7  726.06    3.11
  -6   1  -4  441.63    2.50
  -6   2  -4  387.98    2.28
  -6   3  -4  137.05    1.81
  -5  -2  -5  177.56    1.71
  -4  -3  -6 1726.45    5.95
  -4   5   0  322.10    2.27
  -4   6  -1   14.20    1.34
  -3   6   1  545.14    2.90
  -3   7   0  125.48    1.91
  -1  -5 -15   21.90    1.38
  -1   3   3 2239.38    6.17
   0  -5 -19  106.81    1.88
   0  -4 -11  367.84    2.79
   1   8   3  548.61    3.90
   2   0  -2 3790.86    8.30
   3  -3 -16   90.08    1.47
   3  -2 -10  289.77    1.93
   3   3   1 3467.15    9.62
   4  -2 -15  196.82    1.78
   4   2  -2  194.32    1.83
   5  -1 -15  102.75    1.50
   5   0 -10  206.11    1.76
   6   1 -11   27.78    1.04
   6   2  -8   29.68    1.30
   6   6  -2   40.82    1.42
   7   3 -10   43.22    1.42
   7   5  -6  169.63    1.96
   7   6  -5    1.88    1.26
   7   8  -4   65.75    2.00
  -7  -3 -12   85.63    1.64
  -7  -1  -8  579.69    3.04
  -7   0  -7   88.13    1.59
  -6  -4 -12  193.72    2.26
  -5   2  -1  831.76    3.06
  -5   3  -1  550.11    2.70
  -4  -1  -2  381.98    2.42
  -3  -2  -3  795.60    4.23
  -3   0   0  751.90    3.36
  -3   1   1 2688.51    5.86
  -3   3   2  595.23    2.80
  -3   4   2  451.61    2.52
  -2   4   3   57.44    1.26
  -2   5   3   15.63    1.19
  -2   7   2  257.92    2.26
  -1   8   2  219.99    2.42
   0  -5 -20  268.85    2.67
   0  -3  -7 2738.01    7.97
   1  -4 -14   23.62    1.09
   2  -3 -12  816.04    3.29
   2   8   3  403.60    4.12
   3  -3 -17  230.07    1.90
   3   0  -4 1514.18    4.41
   3   1  -2 1696.42    5.19
   3   9   2   32.42    2.52
   4  -2 -17  309.90    2.23
   4  -2 -16  134.75    1.46
   4  -1 -10 1144.44    3.39
   4   1  -4 2275.43    5.06
   5  -1 -17   86.59    1.87
   5   3  -3   90.73    1.47
   5   6   0  535.82    3.65
   6   1 -12  387.18    2.43
   6   3  -6  116.74    1.54
   6   5  -3  321.91    2.37
   6   9  -2   57.57    2.38
   7   3 -11   68.24    1.69
   7   4  -8  150.11    1.61
  -7  -2  -9    3.17    1.11
  -7   1  -6   53.70    1.65
  -6  -1  -5    1.28    0.79
  -6   0  -4  784.54    2.98
  -6   1  -3  277.16    1.99
  -6   2  -3   36.94    1.32
  -5  -5 -14   17.98    1.56
  -5  -1  -3 1069.16    3.67
  -5   4  -1  153.55    1.58
  -4   3   1    3.32    0.99
  -4   4   1 1408.08    4.11
  -4   6   0  209.16    2.09
  -3   5   2  173.54    1.65
  -2   3   3  217.59    1.96
  -1   7   3    3.76    1.15
   0   5   4  134.78    1.80
   0   8   3  152.23    2.04
   0   9   2  350.35    3.50
   1  -4 -15  513.36    2.88
   2   3   2 1415.44   10.33
   3  -3 -19   41.86    1.32
   3  -2 -11  696.35    2.89
   4  -1 -11  339.74    2.10
   4   5   1 2464.24    8.28
   5   0 -11   76.73    1.18
   5   2  -5   41.78    1.01
   6   1 -13  309.21    2.31
   6   2  -9  423.27    2.40
   7   3 -12  239.97    2.31
   7   5  -7   15.34    1.44
   7   7  -5    0.97    1.31
  -6  -2  -6  245.92    1.93
  -5   1  -1  208.68    1.59
  -4   2   1 2129.84    4.68
  -4   5   1  174.60    2.02
  -3  -5 -13   10.80    2.31
  -3  -1  -1 2064.66    5.93
  -3   2   2  487.71    2.55
  -3   6   2   47.66    1.51
  -3   7   1  202.89    2.26
  -2   6   3   61.46    1.49
  -1  -5 -16  335.38    2.88
   0   6   4  536.03    3.35
   1  -1  -3 2881.63    8.25
   1   6   4   44.00    1.60
   2  -3 -13  572.71    2.75
   2  -2  -8 2662.56    5.79
   4   3  -1 4252.64    8.32
   5   1  -8  331.90    2.00
   5   4  -2   24.99    1.15
   5   5  -1  542.23    3.27
   5   8   0  100.08    2.57
   6   1 -14  148.08    1.81
   6   2 -10  547.53    2.76
   6   4  -5    0.00    1.07
   6   8  -2    3.06    1.40
   7   6  -6  449.53    2.97
  -7  -2  -8   33.57    1.24
  -6  -4 -11  130.42    1.86
  -6  -1  -4  387.54    2.31
  -6   2  -2   49.14    1.31
  -6   3  -2   33.86    1.39
  -5  -4  -9  426.16    3.13
  -5  -2  -4  977.02    3.72
  -5   2   0  305.43    2.01
  -5   3   0  442.17    2.28
  -5   4   0  377.47    2.41
  -2  -5 -14  657.48    4.98
  -1  -5 -17  300.56    2.88
  -1   4   4  292.36    2.25
  -1   5   4   39.33    1.13
  -1   6   4  217.69    2.10
   0   7   4   54.39    1.61
   1  -4 -16  546.54    2.87
   1   0  -1  224.32    2.83
   1   5   4 2580.92    9.13
   1   7   4  358.10    3.23
   2  -1  -5 2882.82    6.42
   3  -2 -12 1727.69    4.28
   4  -1 -12   95.76    1.38
   4   4   0  335.72    2.76
   4   9   1  335.32    8.00
   5   0 -13  492.04    2.67
   5   2  -6  452.94    2.50
   7   5  -8    1.31    1.40
  -7  -3 -10  164.95    1.94
  -7  -1  -6   57.72    1.43
  -7   0  -5  234.27    2.20
  -6   1  -2   57.88    1.38
  -5   0  -1    2.44    0.90
  -4   0   0 1888.56    4.71
  -4   1   1  835.25    3.14
  -4   3   2   39.34    1.17
  -4   4   2   28.40    1.30
  -4   6   1   11.26    1.31
  -3   3   3  392.35    2.35
  -3   4   3  280.56    1.90
  -3   5   3  270.58    2.19
  -2   1   2 4730.84    8.67
  -2   7   3   56.86    1.57
  -1  -5 -18  175.06    2.46
  -1   2   3 3465.57    8.25
  -1   8   3   48.34    1.59
   0   4   4  246.25    2.52
   1  -4 -18   95.49    1.60
   1  -4 -17   21.82    1.08
   1  -2  -6 3273.38    7.36
   2  -3 -14  434.40    2.42
   3  -2 -13  424.45    2.35
   3  -1  -8 1711.44    4.30
   4  -1 -13  394.07    2.21
   4   2  -3  554.09    2.91
   5   1  -9  594.67    2.64
   5   3  -4 1845.75    5.00
   6   2 -11   21.10    1.21
   6   3  -8   88.90    1.46
   7   4 -11   40.88    1.55
   7   6  -7  115.19    1.92
   7   7  -6    9.72    1.38
  -7  -2  -7  512.10    2.82
  -6  -5 -15    1.17    1.45
  -6  -2  -5  277.00    2.00
  -6   3  -1  442.06    2.64
  -5  -1  -2  696.29    3.01
  -5   1   0 1964.09    4.47
  -4  -4  -8 1185.58    6.10
  -4  -3  -5 1171.69    4.91
  -4  -1  -1   63.83    1.22
  -4   5   2  243.10    2.10
  -3   7   2    5.42    1.40
  -2   0   1  167.13    1.91
  -2   2   3  963.06    3.67
  -2   4   4  742.46    3.26
  -2   5   4 1062.83    3.90
  -1  -5 -19  119.21    2.14
  -1   7   4  297.42    2.41
   0  -4 -13 1447.71    5.11
   1  -4 -20   55.07    1.49
   1  -4 -19  365.39    2.59
   1   9   3  176.34    2.61
   2  -2  -9 2091.26    5.12
   3  -2 -14  737.95    3.02
   3   2  -1 2510.88    6.70
   4  -1 -14  484.59    2.44
   5   0 -15   49.60    1.44
   6   4  -6  817.83    3.26
   6   7  -3   24.96    1.56
   7   4 -12   59.51    1.71
   7   5  -9   56.48    1.33
  -7  -3  -9   79.86    1.52
  -7  -1  -5  239.82    1.94
  -7   0  -4  798.20    3.42
  -6   0  -2   30.33    1.17
  -6   2  -1  110.34    1.32
  -5   3   1  256.53    1.83
  -5   4   1    1.53    1.23
  -4   2   2   39.13    0.93
  -3   0   1 3158.52    6.75
  -3   1   2 2809.91    5.90
  -3   6   3  234.02    2.00
  -2  -5 -15  497.02    4.26
  -2   6   4  367.55    2.59
  -1  -5 -20  214.85    2.52
   0   9   3   52.09    1.89
   2  -3 -16   83.60    1.49
   2   0  -3 4497.48    8.77
   2   9   3  188.17    3.39
   3  -2 -15  243.01    1.92
   3  -1  -9   91.70    1.31
   3   1  -3 1411.36    4.53
   5   0 -16   80.14    1.38
   5   4  -3 1003.21    3.95
   6   2 -13  124.36    1.75
   6   5  -5   48.01    1.39
   6   8  -3  357.98    3.44
   6   9  -3   14.51    1.85
   7   6  -8    9.55    1.31
   7   7  -7   49.82    1.67
  -7  -4 -12   20.54    1.36
  -7   1  -3   66.32    1.57
  -6   1  -1 1335.52    3.81
  -5  -2  -3   36.14    1.12
  -4   4   3  987.83    3.58
  -4   6   2    0.68    0.98
  -3   2   3   94.59    1.19
  -2   3   4 1051.77    3.83
  -1   3   4  473.88    2.93
   0   8   4   19.97    1.33
   1   8   4  135.41    2.21
   2  -3 -18  214.97    2.02
   2  -1  -6  787.84    3.36
   2   1  -1 1773.74    6.45
   3  -2 -16   76.12    1.30
   4  -1 -16   20.04    1.34
   4   3  -2 1423.29    4.76
   4   6   1  410.04    3.90
   5   1 -11  516.04    2.59
   5   3  -5 1008.00    3.70
   5   5  -2  628.63    3.37
   6   2 -14   93.23    1.57
   6   3 -10  573.55    2.94
   6   4  -7  254.42    2.12
   7   5 -11    9.05    1.45
   7   6  -9   81.82    1.89
  -7  -2  -6  132.73    1.76
  -6  -5 -14  289.84    3.22
  -6   3   0  299.22    2.12
  -5  -4  -8   15.36    1.26
  -5  -3  -5  702.20    3.35
  -5   0   0  732.70    2.85
  -5   1   1  291.41    2.00
  -4   0   1 2306.37    5.22
  -4   1   2  432.72    2.32
  -4   3   3  228.03    1.90
  -4   5   3  229.17    2.04
  -3   4   4  431.96    2.44
  -3   5   4 1056.80    3.83
  -3   7   3   34.63    1.68
  -2  -4  -9   34.98    1.98
  -2   7   4  374.80    2.78
  -1   8   4   98.16    1.81
   0  -4 -14  224.75    2.12
   2  -3 -20   32.06    1.38
   2  -3 -19   87.63    1.45
   2  -2 -10   23.06    0.80
   3  -1 -10   97.80    1.33
   4  -1 -19   17.75    1.49
   4  -1 -18  243.81    2.32
   4  -1 -17  381.13    2.47
   4   0 -10 1420.94    3.93
   5   1 -12   63.44    1.34
   5   2  -8   99.30    1.50
   6   2 -16   81.79    1.72
   6   2 -15    7.46    1.04
  -7  -1  -4  102.03    1.31
  -7   1  -2   53.10    1.46
  -6  -3  -6  129.99    1.59
  -6   0  -1  272.34    1.81
  -6   1   0  657.65    2.86
  -5  -1  -1 1155.92    3.67
  -5   2   2  100.87    1.42
  -5   3   2  179.63    1.60
  -5   4   2  249.81    1.95
  -4  -2  -2 5357.69    8.98
  -4   2   3 1533.14    4.14
  -3  -1   0   73.30    1.36
  -3   3   4 3106.57    6.06
  -3   6   4  605.38    3.34
  -2  -5 -16   42.83    1.63
  -1  -4 -11  649.44    4.12
  -1   5   5  958.30    3.86
  -1   6   5 1344.43    4.70
   0  -4 -15  103.37    1.63
   0   6   5  927.55    4.29
   1  -2  -7    7.84    0.65
   3  -2 -20    1.89    1.04
   3  -2 -19    1.23    0.83
   3   3   0   40.75    1.35
   3   5   2  607.13    5.81
   4   4  -1 1638.10    5.71
   5   1 -13  505.47    2.62
   6   3 -11   68.61    1.27
   6   4  -8    4.06    0.87
   6   6  -5    1.24    1.18
   6   7  -4   70.88    1.68
   7   6 -10    9.83    1.34
  -7  -2  -5  452.30    2.66
  -6   3   1   54.08    1.45
  -4  -1   0  333.24    2.24
  -4   6   3  308.16    2.42
  -2   4   5  865.04    3.50
  -2   5   5 1119.72    3.82
  -2   6   5  449.53    2.81
  -1   0   1  227.84    2.86
  -1   4   5 2308.56    5.98
  -1   7   5  463.02    2.97
   0   5   5  332.34    2.69
   0   7   5  516.83    3.33
   2  -2 -11 1762.90    4.61
   2   7   4 1463.27    8.90
   3  -1 -11  792.72    2.95
   4   5   0   98.26    1.83
   5   1 -14  247.23    2.05
   5   2  -9   85.62    1.46
   5   3  -6  103.65    1.32
   5   4  -4  415.87    2.52
   5   8  -1  259.58    3.17
   6   3 -12   54.14    1.40
   6   8  -4  463.84    3.61
  -7  -3  -7   26.45    1.16
  -7  -1  -3   88.24    1.46
  -7   1  -1   84.25    1.47
  -6  -2  -3  483.74    2.58
  -6   2   1    1.31    0.73
  -5  -2  -2  801.51    3.34
  -5   0   1 1495.89    4.09
  -5   1   2  631.91    2.69
  -5   3   3  679.60    2.95
  -5   4   3  213.49    2.01
  -4  -3  -4   83.85    1.50
  -4   3   4  699.45    2.95
  -4   4   4  836.33    3.39
  -4   5   4  152.15    1.81
  -3   1   3  113.25    1.40
  -3   7   4  296.90    2.81
  -2  -5 -17  794.65    4.76
  -2   1   3  589.65    3.11
  -2   2   4   37.49    1.07
   0   3   4 2422.86    7.97
   0   9   4   13.57    1.51
   1  -3 -13  789.30    3.31
   1   9   4   14.99    1.62
   3   1  -4 3584.31    6.96
   3   4   1 1517.03    7.32
   4   0 -12  118.89    1.35
   4   2  -5  771.79    3.34
   4   7   1  399.34    4.32
   5   1 -16  111.76    1.76
   5   1 -15   19.99    1.23
   5   5  -3   65.55    1.42
   5   6  -2   74.97    1.83
   6   5  -7  491.37    2.80
  -6  -1  -1  578.42    2.69
  -6   0   0  604.55    2.62
  -6   1   1    8.28    1.11
  -5  -3  -4  131.20    1.60
  -5  -1   0 2321.94    5.24
  -4   1   3  136.83    1.45
  -4   6   4  199.80    2.17
  -3   0   2 2327.80    5.71
  -3   2   4 2001.09    4.83
  -3   4   5  355.56    2.28
  -3   5   5  354.15    2.43
  -2  -5 -18  219.34    2.72
  -2   7   5  260.44    2.41
   0   8   5  230.92    2.71
   1  -3 -14   45.53    1.15
   2  -2 -12  511.72    2.46
   2   0  -4    5.16    0.81
   2   8   4  120.68    3.06
   3  -1 -12    4.28    0.66
   3   2  -2  908.97    4.16
   4   0 -13  326.92    2.04
   4   3  -3   34.44    1.22
   4   8   1  149.53    3.44
   5   1 -18   58.00    1.73
   5   1 -17  127.33    1.62
   5   2 -10   81.67    1.20
   5   3  -7 1116.68    3.78
   6   3 -15   63.19    1.66
   6   4 -10   91.63    1.54
   6   7  -5   44.89    1.51
  -8  -2  -6    2.00    1.27
  -7  -4  -9   60.22    1.37
  -7  -3  -6    2.04    0.98
  -7  -2  -4  533.98    2.63
  -6   2   2  276.79    2.07
  -6   3   2  406.60    2.43
  -5   2   3 1215.60    3.60
  -4  -4  -7  132.49    2.29
  -4   0   2   11.39    0.94
  -4   2   4 1451.51    4.07
  -3  -5 -14  692.88    6.46
  -3   3   5  781.43    3.15
  -3   6   5   21.73    1.16
  -2  -5 -20  218.60    2.83
  -2  -5 -19   69.27    1.78
  -2   3   5 4427.79    7.74
  -1  -4 -12   19.06    1.12
  -1   8   5  270.48    2.72
   1   6   5   74.12    1.87
   1   7   5   28.61    1.61
   2  -2 -13  168.50    1.64
   2   6   4 1683.59   12.07
   3  -1 -13   24.51    1.04
   4   0 -15  235.04    2.02
   4   0 -14 1478.29    4.12
   5   4  -5    8.19    0.83
   6   4 -11   19.33    1.34
   6   8  -5    1.40    1.63
  -7   1   0   37.82    1.15
  -6  -2  -2    1.13    0.97
  -6   0   1    9.43    1.01
  -5   4   4  155.94    1.92
  -4   4   5    4.06    1.14
  -4   5   5   47.89    1.30
  -3  -3  -4  695.27    4.81
  -2   5   6  220.30    1.93
  -1   2   4  680.43    3.67
  -1   6   6  469.18    2.94
   0   4   5 2060.11    6.76
   1  -3 -16  483.94    2.65
   1  -3 -15  771.26    3.12
   2  -2 -14  279.70    1.98
   4   0 -18  205.48    2.17
   4   0 -17  219.95    2.06
   4   0 -16  158.41    1.82
   4   2  -6    2.33    0.99
   5   2 -12    0.88    1.13
   5   3  -8  938.82    3.47
   5   7  -2  194.30    2.55
   6   4 -12   20.60    1.41
   6   5  -9   32.83    1.33
   6   6  -7  158.08    1.99
  -6  -3  -4 1762.38    4.89
  -6  -1   0  445.85    2.43
  -6   1   2  566.79    2.66
  -6   3   3  219.47    2.08
  -5  -2  -1   27.31    1.07
  -5   0   2    2.99    0.94
  -5   1   3  554.46    2.42
  -5   3   4   22.94    0.96
  -4  -2  -1  441.79    2.59
  -4  -1   1 1706.44    4.77
  -4   3   5  181.39    1.79
  -2  -2  -2   80.22    2.05
  -2   6   6    8.58    0.85
  -1  -4 -13 1301.67    5.38
  -1  -3  -7 1876.17    8.47
  -1   3   5 1495.23    4.92
  -1   5   6  115.50    1.57
  -1   7   6  199.43    2.16
   1  -3 -21   21.22    1.24
   1  -3 -18  596.21    3.01
   1  -3 -17   -0.02    1.01
   1   8   5  674.06    4.69
   2  -2 -15  279.36    2.01
   3  -1 -16  143.70    1.77
   3  -1 -15 1078.40    3.75
   3   1  -5 3957.73    7.56
   4   4  -2  482.40    3.06
   5   2 -13  129.14    1.59
   5   4  -6  401.40    2.55
   5   5  -4 1023.48    4.05
   6   4 -14   69.77    1.72
   6   4 -13  159.18    1.94
   6   7  -6    1.45    1.21
  -8  -3  -7   28.68    1.10
  -8  -1  -3   48.49    1.55
  -7  -1  -1  434.18    2.47
  -7   0   0    7.05    0.90
  -7   1   1  166.34    1.90
  -6   2   3  248.51    2.01
  -5  -1   1   84.12    1.33
  -5   2   4  857.30    3.24
  -4   6   5   34.31    1.29
  -3   1   4  498.01    2.58
  -3   2   5 1211.02    3.85
  -3   4   6   29.11    1.16
  -3   5   6  185.01    1.70
  -3   6   6   60.30    1.61
  -2   4   6  334.32    2.18
  -2   7   6   16.12    1.34
  -1   1   3 2588.00    7.71
   0   6   6 1808.96    6.24
   0   7   6  199.62    2.41
   1  -3 -20   40.07    1.10
   1  -3 -19  146.52    1.56
   2  -2 -21  108.95    1.66
   2  -2 -20   20.57    1.24
   2  -2 -18  407.76    2.43
   2  -2 -17   19.30    1.08
   2  -2 -16  315.15    2.06
   3  -1 -17  284.12    2.23
   4   1 -11 1727.50    4.52
   4   3  -4  855.16    3.62
   4   6   0  114.91    2.22
   5   2 -15  269.03    2.13
   5   2 -14  494.52    2.53
   5   3  -9  311.00    2.06
   5   6  -3  147.18    1.94
   5   8  -2   92.53    2.21
   5   9  -2  147.99    2.84
   6   4 -15   65.81    1.67
   6   6  -8    2.75    1.25
   6   8  -6   10.79    1.48
  -8  -2  -4  233.39    2.18
  -6  -5 -11   10.88    1.31
  -6  -2  -1  605.30    2.83
  -5  -4  -6  669.62    3.83
  -5  -3  -3 3390.21    7.08
  -5   4   5   34.40    1.47
  -4  -3  -3   32.53    1.26
  -4   0   3 1796.24    4.56
  -4   1   4 2330.93    4.94
  -4   2   5   17.37    1.03
  -3  -5 -15  587.31    5.26
  -2   2   5 3288.26    6.72
  -1   4   6 2780.88    6.61
  -1   8   6   76.86    2.00
   1  -1  -5 1455.59    5.40
   2  -2 -19  392.05    2.29
   2   0  -5 3013.48    6.81
   3   2  -3  477.67    2.97
   3   3  -1  514.83    3.53
   4   2  -7  373.98    2.23
   4   5  -1  740.03    4.06
   5   2 -18   51.75    1.53
   5   2 -17   80.62    1.38
   5   2 -16  260.86    1.99
   5   3 -10  726.58    3.13
   5   4  -7   94.24    1.52
   6   5 -11  217.23    1.91
   6   6  -9   17.20    1.50
  -8  -1  -2  113.88    1.80
  -7  -5 -12   32.96    1.71
  -7  -2  -2  586.15    2.64
  -7   0   1  125.53    1.65
  -6  -4  -6  157.41    2.00
  -6  -3  -3 1055.19    3.84
  -6  -1   1   16.10    1.00
  -6   1   3  711.72    2.84
  -6   3   4    9.89    1.31
  -5   1   4  389.49    2.20
  -5   3   5   57.19    1.15
  -4   4   6  617.04    2.91
  -4   5   6  153.55    1.90
  -3   3   6   10.74    1.00
  -2   3   6   24.03    1.05
   0   5   6 1457.25    5.69
   0   8   6  392.68    3.43
   2   9   4  149.93    3.97
   3   1  -6   49.30    1.24
   4   1 -13  112.57    1.56
   4   1 -12  175.05    1.54
   5   3 -11  232.80    2.02
   5   5  -5  423.89    2.67
   6   5 -13  172.14    2.06
   6   5 -12   18.95    1.07
  -8  -2  -3    2.62    1.23
  -7  -1   0  284.87    1.96
  -7   1   2  317.40    2.20
  -6   2   4    7.79    0.87
  -5  -2   0 1617.60    4.61
  -5   2   5  113.04    1.51
  -4   3   6  249.19    2.00
  -2   5   7  907.02    3.56
  -2   6   7  141.19    1.78
  -1  -4 -15   48.74    1.40
   1  -2 -10   96.12    1.40
   4   1 -14   58.17    1.29
   4   3  -5 1780.53    5.09
   4   4  -3  186.27    2.00
   5   7  -3   62.84    1.64
   6   5 -14   32.61    1.46
   6   6 -10   88.69    1.53
  -8  -4  -8   60.46    1.62
  -8  -3  -5  259.39    2.30
  -8  -1  -1   21.15    1.33
  -7  -5 -11  354.44    3.41
  -7  -2  -1  376.47    2.31
  -5   4   6  533.47    2.98
  -4  -4  -6  703.23    4.85
  -4  -2   0 2081.95    5.50
  -3  -5 -16    1.15    1.25
  -3   4   7  734.11    3.17
  -3   5   7  517.95    2.68
  -3   6   7  412.96    2.88
  -2   7   7  261.27    2.46
  -1  -4 -21   55.35    1.60
  -1  -4 -16 1051.59    4.47
  -1   6   7   19.58    1.23
  -1   7   7  147.31    1.92
   0   1   2   41.63    1.78
   3   0 -12 1134.71    3.81
   4   1 -20   75.52    1.69
   4   1 -18  588.90    3.07
   4   1 -17  134.82    1.77
   4   1 -16    3.98    1.16
   4   1 -15  267.41    1.91
   5   3 -13  350.51    2.33
   5   5  -6    2.07    1.13
   5   8  -3   12.43    1.58
   5   9  -3   15.30    1.94
   6   6 -12    0.98    1.42
   6   6 -11   45.63    1.31
   6   7  -9   19.77    1.41
  -8  -2  -2  196.72    1.98
  -7  -4  -6  170.74    1.92
  -7  -1   1    1.48    1.15
  -7   0   2  272.77    1.94
  -7   1   3  210.98    2.01
  -6  -2   0  624.52    2.85
  -6   0   3  433.36    2.21
  -6   1   4    1.88    0.75
  -6   3   5  304.97    2.29
  -5   3   6  408.38    2.50
  -4   1   5 1130.51    3.45
  -4   2   6  486.95    2.48
  -4   4   7  531.08    2.75
  -4   5   7  394.76    2.62
  -3  -5 -19   80.22    2.13
  -3  -5 -18  181.88    2.73
  -3  -5 -17  187.70    2.79
  -3   1   5 3134.25    6.17
  -2   4   7  293.68    2.24
  -1  -4 -20  256.67    2.37
  -1  -4 -19   98.85    1.66
  -1  -4 -18    1.45    1.09
  -1  -4 -17  387.80    2.80
  -1   5   7    0.67    0.87
   1  -2 -11  136.75    1.54
   2  -1 -11  395.19    2.27
   2   0  -6 4348.89    7.91
   4   7   0  107.70    2.21
   5   3 -18   74.83    1.78
   5   3 -17   87.30    1.76
   5   3 -16   39.64    1.49
   5   3 -15    3.42    1.15
   5   3 -14   52.83    1.21
   5   4  -9    0.89    1.08
   6   6 -13    1.19    1.44
   6   7 -10  130.65    2.01
  -8  -3  -4   26.10    1.35
  -7  -5 -10   92.42    2.02
  -6  -4  -5  344.44    2.58
  -6  -3  -2   38.61    1.19
  -6  -1   2  948.60    3.26
  -6   2   5   46.59    1.10
  -5  -4  -5   55.47    1.51
  -5   0   4  840.87    3.10
  -5   2   6  640.61    2.80
  -4   0   4 1457.22    3.98
  -3  -1   2 1742.55    5.19
  -3   3   7 1346.60    4.05
  -2   0   3 4630.82    8.91
  -1   2   5 3235.84    7.74
  -1   3   6 2057.65    5.82
  -1   8   7   61.39    1.67
   1  -2 -12  260.73    2.01
   2  -1 -12 2401.26    5.72
   3   0 -20    6.31    1.52
   3   0 -15  436.29    2.58
   3   0 -14 1106.40    3.76
   3   2  -4  304.86    2.28
   3   4   0   79.58    1.79
   3   6   2  748.60    6.69
   4   3  -6   38.02    1.07
   4   5  -2 1190.91    4.83
   5   4 -10  331.50    2.30
   6   7 -11   63.36    1.78
  -7  -4  -5  429.25    2.83
  -7  -2   0   28.32    1.16
  -7   0   3  124.10    1.67
  -6   3   6  268.12    2.28
  -5  -2   1 1826.06    4.86
  -5   4   7   94.74    1.73
  -4  -3  -2  400.13    2.81
  -4   3   7 1306.09    3.84
  -3   0   4 1480.41    4.46
  -2   2   6 2019.95    5.32
  -1  -3  -8  168.87    2.50
   0  -3 -22   52.35    1.35
   0   3   5   18.46    1.10
   0   7   7  115.02    2.08
   1   7   6 1475.45    7.14
   2  -1 -13  242.22    2.10
   3   0 -19  302.12    2.21
   3   0 -16   -0.81    0.86
   4   2 -11 1457.95    4.18
   4   4  -4  661.27    3.35
   4   6  -1  628.94    3.99
   5   4 -11  432.53    2.57
  -8  -4  -6    0.92    1.13
  -8  -3  -3   44.77    1.41
  -8  -2  -1  190.79    1.82
  -8  -1   1  109.41    1.68
  -7  -3  -2    3.88    0.86
  -7  -1   2  539.21    2.72
  -6  -5  -9  303.68    3.05
  -6  -2   1  300.64    2.10
  -6   1   5  434.43    2.32
  -6   2   6  596.89    2.93
  -5  -1   3  881.28    3.25
  -5   3   7  276.53    2.17
  -4  -1   3  204.36    1.80
  -4   5   8  140.77    1.77
  -3   4   8  609.49    2.91
  -3   5   8  330.59    2.24
  -3   6   8  302.57    2.51
  -2   3   7  447.09    2.59
  -2   5   8  693.68    3.22
  -2   6   8  448.16    2.67
  -2   7   8  527.36    3.26
  -1   4   7   16.91    1.06
   0  -3 -20  436.53    2.67
   0  -3 -19  308.81    2.30
   0  -3 -18   30.77    1.14
   0  -3 -17   88.23    1.45
   0  -3 -15   59.36    1.22
   0   4   6 2031.98    6.84
   0   6   7   65.57    1.57
   1  -2 -22  230.33    2.01
   1  -2 -21   68.86    1.48
   1  -2 -13  529.17    2.57
   1   8   6  153.93    2.71
   2  -1 -21  140.56    1.78
   2  -1 -19  157.33    1.98
   2  -1 -15 1873.54    5.04
   2  -1 -14 1101.65    3.84
   2   0  -7   12.80    1.03
   4   2 -12  649.72    2.92
   4   3  -7 1409.31    4.39
   5   4 -13   52.48    1.56
   5   4 -12  299.60    2.14
   5   5  -8  235.15    2.06
   5   9  -4  141.25    2.54
  -7  -5  -9    3.78    1.16
  -6  -4  -4  260.70    2.29
  -6  -3  -1  374.12    2.38
  -5  -3  -1  263.98    2.17
  -5   1   6  231.08    1.82
  -4  -2   1 2222.66    5.61
  -4   1   6  281.79    1.93
  -4   2   7  725.17    2.97
  -4   4   8    6.57    1.15
  -2   1   5 2968.48    6.55
  -1   6   8  882.93    3.97
   0   8   7    9.52    1.35
   1  -2 -20  143.20    1.60
   1  -2 -18  210.21    1.91
   1  -2 -15  304.75    2.07
   1   6   6  579.60    4.61
   2  -1 -17    5.26    0.92
   2  -1 -16  273.89    2.03
   4   2 -19    2.60    1.23
   4   2 -18    4.15    1.33
   4   2 -17  491.66    2.74
   4   2 -16   20.10    1.31
   4   2 -15  162.43    1.80
   4   2 -14  709.61    3.01
   4   2 -13  245.66    1.82
   5   4 -17  319.16    2.56
   5   4 -16   10.87    1.33
   5   4 -15    4.64    1.30
   5   4 -14  671.45    3.08
  -8  -2   0   22.15    1.31
  -7  -4  -4  738.68    3.44
  -7  -2   1   74.47    1.22
  -7   0   4   15.50    1.23
  -6   3   7    0.07    1.42
  -5   0   5    7.75    0.71
  -5   2   7  872.74    3.15
  -5   4   8    1.58    1.23
  -4   0   5  290.44    1.97
  -4   3   8  188.42    1.78
  -3   1   6    8.42    0.91
  -3   2   7  513.07    2.57
  -2   4   8 1623.85    4.83
  -1   1   4   34.53    1.16
  -1   7   8  272.73    2.54
   1  -1  -7 1018.12    4.15
   2   2  -1  120.10    2.06
   4   3  -8  458.78    2.50
   4   4  -5  940.96    3.88
   4   5  -3   76.28    1.53
   5   9  -5   59.67    2.20
  -8  -1   2  183.91    2.30
  -7  -5  -8    1.17    1.31
  -7  -1   3  339.65    2.16
  -6  -2   2    2.07    1.02
  -6   0   5  200.12    1.62
  -6   1   6  417.72    2.29
  -6   2   7   72.12    1.50
  -5  -5  -9  988.78    6.70
  -5  -4  -4   79.36    1.53
  -5  -1   4  593.20    2.71
  -5   3   8   28.54    1.31
  -3   3   8 1381.85    3.99
  -1   5   8  616.13    3.25
  -1   8   8  279.89    2.88
   0   2   4   67.13    1.67
   0   5   7  601.91    3.70
   1   9   6  150.37    3.28
   2   0  -8 3807.03    7.49
   2   1  -4  830.23    4.20
   4   3  -9  206.02    1.89
   4   7  -1  302.02    3.13
   5   5 -12   35.18    1.45
   5   5 -11  194.55    1.92
   5   6  -8   75.25    1.64
  -8  -4  -4  322.12    2.51
  -8  -2   1  198.30    2.04
  -7  -2   2  386.70    2.35
  -6  -3   0 1412.74    4.33
  -4  -4  -5 2892.20    9.43
  -4   4   9   29.93    1.17
  -4   5   9  161.43    2.13
  -3  -1   3 1453.18    4.66
  -3   5   9    5.96    0.89
  -3   6   9    1.38    0.93
  -2  -4 -12  119.38    2.13
  -2   6   9  175.48    1.97
  -1  -3  -9  966.58    5.12
   3   1 -20   51.16    1.74
   3   2  -6 2214.62    5.78
   3   3  -3  115.25    1.78
   4   3 -10  786.76    3.26
   4   4  -6  323.50    2.42
   4   6  -2  342.75    2.88
   5   5 -16   21.41    1.58
   5   5 -14   85.40    1.80
   5   6  -9   37.83    1.48
   5   8  -6    6.91    1.49
  -8  -3  -1  388.61    2.42
  -8  -1   3   59.67    1.63
  -7  -4  -3   57.11    1.36
  -7  -3   0  556.20    2.85
  -7  -1   4   16.68    1.29
  -7   0   5  160.47    1.63
  -7   1   6  177.30    1.76
  -6  -4  -3  264.52    2.25
  -6   3   8   58.27    1.79
  -5  -3   0  603.83    3.06
  -5   1   7  880.74    3.09
  -5   2   8  147.97    1.69
  -5   4   9  476.34    2.87
  -4  -3  -1  284.56    2.38
  -4   1   7 1360.97    3.90
  -4   2   8  628.05    2.84
  -3   4   9   44.03    1.06
  -2  -2  -1  559.64    4.56
  -2   0   4    5.33    0.87
  -2   3   8 1299.35    4.22
  -2   5   9  124.27    1.64
  -2   7   9    0.84    1.32
  -1   3   7  369.57    2.58
   3   1 -18  284.19    2.22
   3   1 -16  198.23    1.91
   3   1 -15 1362.26    4.17
   3   1 -14  332.35    2.27
   3   1 -13  282.42    1.94
   3   4  -1  441.66    3.44
   4   3 -19   22.24    1.49
   4   3 -11  536.14    2.76
   4   5  -4 1168.17    4.53
   4   8  -1  143.22    2.56
   5   6 -10    5.71    1.33
  -6  -2   3 1393.71    4.08
  -6   1   7  124.46    1.40
  -6   2   8  102.89    1.69
  -5   3   9  161.87    1.80
  -4   0   6  107.49    1.37
  -4   3   9  123.92    1.61
  -3   2   8 1635.86    4.40
  -2  -4 -19    7.02    1.10
  -2  -4 -13  967.74    4.89
  -1   4   8 1842.33    5.44
   0   7   8  157.31    2.48
   2   0 -21   29.87    1.55
   3   2  -7   36.66    1.19
   4   3 -18  316.93    2.28
   4   3 -17  166.19    1.90
   4   3 -16  187.59    2.00
   4   3 -15  325.04    2.30
   4   3 -14  255.96    2.06
   4   3 -12    4.15    0.84
   4   4  -7  812.56    3.55
   5   6 -13   59.52    1.68
   5   6 -12  191.06    2.19
   5   6 -11  402.59    2.70
  -8  -5  -7  196.40    2.44
  -8  -4  -3    7.25    1.24
  -8  -3   0   54.69    1.51
  -8  -2   2  177.87    1.77
  -7  -2   3  113.27    1.64
  -7   0   6  301.92    2.28
  -7   1   7   96.88    1.68
  -6  -5  -7  160.16    2.19
  -6  -1   5  131.54    1.57
  -5  -4  -3  704.70    3.72
  -5  -1   5  359.76    2.18
  -4  -5 -19    7.09    1.45
  -4   5  10  358.98    2.67
  -3   1   7 2155.64    5.10
  -3   3   9    7.98    1.06
  -3   6  10  292.96    2.61
  -2  -4 -18   70.68    1.56
  -2  -4 -17  346.40    2.87
  -2  -4 -15   56.21    1.50
  -2   1   6  763.63    3.39
  -2   4   9  719.02    3.33
  -1   6   9  659.59    3.62
  -1   7   9  385.16    3.08
   0  -2 -22  147.20    2.23
   0   6   8  237.86    2.67
   0   8   8  483.46    4.12
   1  -1 -22  187.96    2.16
   1  -1  -9 4693.75    8.79
   2   0 -19  628.68    3.21
   2   0 -11  481.59    2.71
   2   1  -5 3242.24    7.56
   3   7   2  146.88    3.39
   4   4  -8   95.37    1.55
   4   6  -3  140.38    1.98
   5   6 -14   43.45    1.34
   5   7 -10  115.60    2.00
   5   7  -9   17.34    1.13
  -8  -1   4   27.28    1.20
  -7  -5  -6   11.70    1.39
  -7  -4  -2   73.96    1.45
  -7  -1   5  579.82    2.87
  -6  -4  -2    3.27    0.96
  -6  -3   1    3.55    0.76
  -5   1   8  307.90    2.07
  -5   2   9  585.45    2.78
  -4  -5 -18   30.30    1.77
  -4   4  10  529.76    2.85
  -3   5  10  570.17    2.96
  -1  -3 -20  476.92    2.97
  -1   8   9  136.39    2.52
   0  -2 -21    2.97    1.38
   1  -1 -21   13.36    1.15
   1   4   5   71.24    2.39
   2   0 -17   28.74    1.33
   2   0 -16  318.98    2.35
   2   0 -13  435.67    2.60
   2   0 -12 1144.77    3.95
   3   3  -4 1820.51    5.66
   3   9   2   32.10    2.95
   4   5  -5 1795.55    5.41
   4   7  -2  863.08    4.61
   5   7 -12    1.95    1.51
   5   8 -10   10.27    1.62
   5   8  -9  101.96    2.11
  -8  -4  -2  262.27    2.44
  -8  -3   1   29.14    1.39
  -6   0   7  368.00    2.14
  -6   1   8   78.70    1.23
  -6   2   9  319.61    2.39
  -5  -5  -8  489.01    4.69
  -5  -3   1  444.98    2.62
  -5   0   7  492.62    2.34
  -5   4  10  162.02    1.88
  -4  -5 -17   12.52    1.53
  -4  -1   5 1072.48    3.61
  -4   1   8 1041.92    3.50
  -4   2   9   59.70    1.09
  -3   4  10  203.55    1.93
  -2   5  10   90.80    1.48
  -2   6  10   81.32    1.66
  -2   7  10  188.73    2.41
  -1  -3 -19  129.70    1.71
  -1  -3 -11  292.74    2.63
  -1   5   9  935.39    4.08
   0  -2 -20   95.79    1.79
   0   4   7  704.66    4.21
   1  -1 -20  246.02    2.07
   1   0  -4  305.05    2.96
   1   5   6 3239.34   11.83
   1   7   7  946.96    6.36
   2   0 -15  408.10    2.35
   2   2  -2 4259.25   10.61
   3   2 -19  238.82    2.23
   3   5   0 1278.50    6.39
   4   4 -10   20.24    1.31
   4   4  -9 1484.86    4.32
   4   8  -2  202.79    2.85
  -7  -4  -1  276.37    2.27
  -7  -3   2  563.57    2.82
  -7  -2   4   44.90    1.33
  -7   0   7  118.02    1.72
  -7   1   8  160.66    2.05
  -6  -5  -6  970.82    4.90
  -6  -2   4  262.15    1.86
  -6  -1   6  313.72    2.09
  -5   3  10  457.29    2.58
  -4  -5 -16   73.87    2.25
  -4  -5 -15  321.12    4.24
  -4  -4  -4  315.68    3.26
  -4  -3   0    8.62    0.97
  -4  -2   3  536.18    2.82
  -4   0   7  868.54    3.17
  -4   3  10  796.17    3.12
  -3  -1   4 3647.43    7.22
  -3   0   6  958.84    3.47
  -2   3   9  697.86    3.21
   0  -2 -19  510.38    3.12
   0   5   8  220.50    2.56
   1  -1 -18   22.56    1.23
   1  -1 -17    4.48    1.30
   1  -1 -12 4339.73    8.08
   1  -1 -11  288.04    2.30
   1   8   7  173.75    3.20
   3   2 -18  231.94    2.14
   3   2 -17    3.16    1.19
   3   4  -2 1710.82    6.20
   3   6   1  590.88    5.05
   4   4 -17    6.41    1.06
   4   4 -16   83.53    1.63
   4   4 -15  165.51    1.97
   4   4 -14  255.02    2.24
   4   4 -13   11.89    1.32
   4   4 -12  356.66    2.45
   4   4 -11  977.04    3.65
   4   6  -4   11.00    1.16
  -8  -5  -5   39.66    1.60
  -8  -4  -1  192.95    2.10
  -8  -2   4   61.19    1.58
  -7  -1   6  177.38    1.69
  -6  -4  -1   36.84    1.20
  -6  -3   2  480.12    2.48
  -6   1   9  301.56    2.23
  -5  -4  -2 1681.76    5.46
  -5  -2   4 1902.57    4.61
  -5  -1   6  257.86    1.80
  -5   1   9  140.42    1.61
  -4   5  11  122.02    1.96
  -3   2   9  524.10    2.67
  -3   3  10  859.56    3.41
  -3   5  11  366.85    2.58
  -3   6  11  200.48    2.28
  -2   2   8 2636.81    5.88
  -1   1   5 1434.32    5.47
   0  -2 -18   52.85    1.59
   0  -2 -17  993.89    4.11
   1  -1 -15  757.52    3.41
   1  -1 -13 2908.18    6.62
   2   1 -21   18.08    1.55
   3   2 -16   39.66    1.26
   3   2 -15  150.42    1.70
   3   2 -14  299.18    2.13
   3   2 -13   49.53    1.32
   3   3  -5 1891.99    5.54
   3   8   2   63.74    2.60
   4   7  -3   52.66    1.65
  -8  -3   2  220.12    1.98
  -6   0   8   14.99    0.89
  -5   0   8   13.11    1.03
  -5   2  10  307.72    2.05
  -4   2  10  462.02    2.48
  -4   4  11  156.06    1.67
  -3   1   8 1794.94    4.57
  -2   4  10   87.08    1.29
  -1   3   8  759.98    3.60
  -1   4   9 1267.12    4.59
  -1   6  10   19.47    1.18
  -1   7  10   12.52    1.39
   0  -2 -12  792.26    3.45
   2   1  -7  123.66    1.71
   4   5 -17   91.08    1.93
   4   5  -8 1188.15    4.24
   4   6  -5  230.01    2.23
   4   9  -3   78.25    2.34
  -8  -5  -4   10.76    1.22
  -8  -4   0    0.74    1.11
  -7  -5  -4  270.48    2.64
  -7  -4   0  201.53    2.00
  -7  -3   3  517.43    2.69
  -7  -2   5   93.44    1.38
  -7   0   8   90.99    1.44
  -6  -5  -5    2.97    1.21
  -6  -2   5   22.11    0.87
  -6  -1   7   86.90    1.43
  -5  -3   2   41.28    1.19
  -5   3  11   94.98    1.77
  -4   3  11  235.06    2.02
  -3  -2   2  919.72    4.12
  -3   4  11  843.61    3.50
  -2   1   7  103.55    1.44
  -2   6  11  501.63    3.22
  -2   7  11  260.98    2.65
  -1   2   7    9.20    0.87
   0   7   9  499.26    3.78
   1   0 -22  138.96    1.96
   1   0  -5 4304.41    9.90
   1   6   7  266.76    3.52
   2   1 -19   96.03    1.77
   3   3 -20    3.42    1.11
   3   3 -19  116.75    1.86
   3   3  -6   49.50    1.14
   4   5 -16   46.80    1.53
   4   5 -15  424.79    2.87
   4   5 -10   61.48    1.51
  -8  -3   3  107.97    1.80
  -8  -2   5   60.37    1.36
  -6  -4   0  552.90    3.00
  -6  -3   3  770.88    3.22
  -6   1  10  254.00    2.09
  -5  -2   5   39.75    1.17
  -3   0   7  437.85    2.45
  -2  -1   3  341.41    2.73
  -2   5  11  446.82    2.86
   0   8   9  330.18    3.61
   1   0 -21  104.96    1.79
   2   1 -18  335.00    2.36
   2   1  -8  911.89    3.79
   2   2  -3 5691.32   11.27
   2   3   0 1208.12    6.91
   3   3 -18  330.44    2.37
   3   3  -7  424.27    2.71
   3   4  -3 1126.96    4.76
   4   5 -14   27.64    1.13
   4   5 -13   44.63    1.24
   4   5 -12  141.82    1.74
   4   5 -11   54.90    1.19
   4   6  -6   12.70    0.89
  -6   0   9  777.82    3.03
  -5   1  10 1066.63    3.47
  -4  -3   1 4207.91    8.06
  -4  -2   4 1972.25    5.12
  -3  -1   5 3778.44    7.22
   0  -1 -22   60.23    1.47
   2   1 -17   71.16    1.31
   0   0   0    0.00    0.00
_computing_structure_solution     'SHELXT 2014/5 (Sheldrick, 2014)'
;
_shelx_hkl_checksum              51437
_shelx_res_file
;
TITL g70_a.res in P-1
    g70.res
    created by SHELXL-2018/3 at 14:43:05 on 02-Apr-2020
REM Old TITL G70 LIGAND
REM SHELXT solution in P-1
REM R1 0.078, Rweak 0.013, Alpha 0.042, Orientation as input
REM Formula found by SHELXT: C14 I N2 O S
CELL 0.71073 6.241 7.242 16.709 84.408 89.142 65.933
ZERR 2 0.0007 0.0008 0.002 0.009 0.009 0.008
LATT 1
SFAC C H I N O S
UNIT 28 22 2 4 2 2
L.S. 20
PLAN  4
SIZE 0.384 0.363 0.199
TEMP -148.15
HTAB N2 O1
BOND $H
list 4
MORE -1
fmap 2
acta
MERG 2
OMIT -2 58
OMIT 0 8 1
REM <olex2.extras>
REM <HklSrc "%.\\G70.hkl">
REM </olex2.extras>
WGHT    0.039000    0.708800
FVAR       0.92537
I1    3    0.902423    0.022304    0.150490    11.00000    0.02866    0.03127 =
         0.03389   -0.00997    0.00216   -0.00873
S1    6    0.154303    0.469263    0.222340    11.00000    0.02525    0.05011 =
         0.01975    0.00454   -0.00379   -0.02106
O1    5    0.774720    0.279774    0.397912    11.00000    0.02405    0.03693 =
         0.02184    0.00356   -0.00101   -0.01119
N2    4    0.601557    0.406979    0.248514    11.00000    0.01953    0.02642 =
         0.01628    0.00016   -0.00078   -0.00870
AFIX  43
H2    2    0.723735    0.364016    0.281876    11.00000   -1.20000
AFIX   0
N1    4    0.399143    0.350263    0.358274    11.00000    0.02296    0.02789 =
         0.01553    0.00058    0.00033   -0.01143
AFIX  43
H1    2    0.265397    0.351322    0.376215    11.00000   -1.20000
AFIX   0
C26   1    0.760567    0.334203    0.114475    11.00000    0.01779    0.03392 =
         0.01982   -0.00296   -0.00077   -0.01356
C22   1    0.529478    0.677969    0.141733    11.00000    0.02730    0.02846 =
         0.02406    0.00154   -0.00477   -0.01377
AFIX  43
H22   2    0.440446    0.772704    0.177811    11.00000   -1.20000
AFIX   0
C11   1    0.518680    0.244029    0.499106    11.00000    0.02818    0.01866 =
         0.01654   -0.00083   -0.00062   -0.00999
C21   1    0.628906    0.472268    0.167033    11.00000    0.01969    0.02954 =
         0.01578    0.00074   -0.00121   -0.01347
C1    1    0.401017    0.407935    0.276358    11.00000    0.02288    0.02260 =
         0.01721   -0.00091   -0.00019   -0.00982
C10   1    0.578357    0.291862    0.414900    11.00000    0.02548    0.01867 =
         0.01721    0.00014   -0.00170   -0.00776
C12   1    0.703225    0.160746    0.555392    11.00000    0.03140    0.03575 =
         0.02025    0.00197   -0.00369   -0.01735
AFIX  43
H12   2    0.858015    0.137499    0.539275    11.00000   -1.20000
AFIX   0
C25   1    0.794359    0.402495    0.036525    11.00000    0.02181    0.05460 =
         0.01972   -0.00568    0.00339   -0.02205
AFIX  43
H25   2    0.886598    0.308343    0.000756    11.00000   -1.20000
AFIX   0
C23   1    0.560012    0.745862    0.063449    11.00000    0.03481    0.04089 =
         0.02779    0.01243   -0.00885   -0.02431
AFIX  43
H23   2    0.489514    0.886869    0.045740    11.00000   -1.20000
AFIX   0
C16   1    0.291614    0.277749    0.523408    11.00000    0.02717    0.02641 =
         0.02103   -0.00033    0.00138   -0.00773
AFIX  43
H16   2    0.164269    0.333137    0.485342    11.00000   -1.20000
AFIX   0
C24   1    0.692797    0.608427    0.011394    11.00000    0.02987    0.06120 =
         0.02102    0.00701   -0.00280   -0.03064
AFIX  43
H24   2    0.714536    0.655435   -0.041909    11.00000   -1.20000
AFIX   0
C13   1    0.663695    0.111290    0.634768    11.00000    0.04219    0.04552 =
         0.01918    0.00426   -0.00787   -0.02418
AFIX  43
H13   2    0.791269    0.052973    0.672691    11.00000   -1.20000
AFIX   0
C14   1    0.438250    0.146873    0.658809    11.00000    0.04643    0.03654 =
         0.01759   -0.00020    0.00109   -0.02540
AFIX  43
H14   2    0.410940    0.114186    0.713373    11.00000   -1.20000
AFIX   0
C15   1    0.252221    0.230137    0.603394    11.00000    0.03566    0.03442 =
         0.02242   -0.00532    0.00703   -0.01608
AFIX  43
H15   2    0.097554    0.254730    0.620068    11.00000   -1.20000
AFIX   0
HKLF 4
REM  g70_a.res in P-1
REM wR2 = 0.0721, GooF = S = 1.068, Restrained GooF = 1.068 for all data
REM R1 = 0.0276 for 3508 Fo > 4sig(Fo) and 0.0284 for all 3616 data
REM 172 parameters refined using 0 restraints
END
WGHT      0.0390      0.7088
REM Highest difference peak  0.703,  deepest hole -0.937,  1-sigma level  0.097
Q1    1   0.7581  0.0828  0.1513  11.00000  0.05    0.70
Q2    1   0.8141 -0.0398  0.1221  11.00000  0.05    0.67
Q3    1   0.9457  0.1013  0.1605  11.00000  0.05    0.67
Q4    1   0.8141  0.0165  0.1280  11.00000  0.05    0.63
;
_shelx_res_checksum              82620
loop_
_space_group_symop_operation_xyz
'x, y, z'
'-x, -y, -z'
loop_
_atom_site_type_symbol
_atom_site_label
_atom_site_fract_x
_atom_site_fract_y
_atom_site_fract_z
_atom_site_U_iso_or_equiv
_atom_site_adp_type
_atom_site_calc_flag
_atom_site_occupancy
_atom_site_disorder_assembly
_atom_site_disorder_group
I I1 0.90242(2) 0.02230(2) 0.15049(2) 0.03196(7) Uani d 1 . .
S S1 0.15430(10) 0.46926(10) 0.22234(3) 0.03037(13) Uani d 1 . .
O O1 0.7747(3) 0.2798(3) 0.39791(9) 0.0285(3) Uani d 1 . .
N N2 0.6016(3) 0.4070(3) 0.24851(10) 0.0211(3) Uani d 1 . .
H H2 0.723735 0.364016 0.281876 0.025 Uiso calc 1 . .
N N1 0.3991(3) 0.3503(3) 0.35827(10) 0.0220(3) Uani d 1 . .
H H1 0.265397 0.351322 0.376215 0.026 Uiso calc 1 . .
C C26 0.7606(3) 0.3342(3) 0.11447(12) 0.0228(4) Uani d 1 . .
C C22 0.5295(4) 0.6780(4) 0.14173(13) 0.0261(4) Uani d 1 . .
H H22 0.440446 0.772704 0.177811 0.031 Uiso calc 1 . .
C C11 0.5187(4) 0.2440(3) 0.49911(11) 0.0210(4) Uani d 1 . .
C C21 0.6289(3) 0.4723(3) 0.16703(11) 0.0207(4) Uani d 1 . .
C C1 0.4010(3) 0.4079(3) 0.27636(12) 0.0208(3) Uani d 1 . .
C C10 0.5784(4) 0.2919(3) 0.41490(12) 0.0210(3) Uani d 1 . .
C C12 0.7032(4) 0.1607(4) 0.55539(13) 0.0282(4) Uani d 1 . .
H H12 0.858015 0.137499 0.539275 0.034 Uiso calc 1 . .
C C25 0.7944(4) 0.4025(4) 0.03653(13) 0.0298(5) Uani d 1 . .
H H25 0.886598 0.308343 0.000756 0.036 Uiso calc 1 . .
C C23 0.5600(4) 0.7459(4) 0.06345(14) 0.0326(5) Uani d 1 . .
H H23 0.489514 0.886869 0.045740 0.039 Uiso calc 1 . .
C C16 0.2916(4) 0.2777(3) 0.52341(13) 0.0261(4) Uani d 1 . .
H H16 0.164269 0.333137 0.485342 0.031 Uiso calc 1 . .
C C24 0.6928(4) 0.6084(5) 0.01139(14) 0.0342(5) Uani d 1 . .
H H24 0.714536 0.655435 -0.041909 0.041 Uiso calc 1 . .
C C13 0.6637(5) 0.1113(4) 0.63477(14) 0.0340(5) Uani d 1 . .
H H13 0.791269 0.052973 0.672691 0.041 Uiso calc 1 . .
C C14 0.4383(5) 0.1469(4) 0.65881(13) 0.0309(5) Uani d 1 . .
H H14 0.410940 0.114186 0.713373 0.037 Uiso calc 1 . .
C C15 0.2522(4) 0.2301(4) 0.60339(14) 0.0301(4) Uani d 1 . .
H H15 0.097554 0.254730 0.620068 0.036 Uiso calc 1 . .
loop_
_atom_site_aniso_label
_atom_site_aniso_U_11
_atom_site_aniso_U_22
_atom_site_aniso_U_33
_atom_site_aniso_U_12
_atom_site_aniso_U_13
_atom_site_aniso_U_23
I1 0.02866(9) 0.03127(10) 0.03389(10) -0.00873(7) 0.00216(6) -0.00997(6)
S1 0.0253(2) 0.0501(3) 0.0197(2) -0.0211(2) -0.00379(18) 0.0045(2)
O1 0.0241(7) 0.0369(9) 0.0218(7) -0.0112(6) -0.0010(5) 0.0036(6)
N2 0.0195(7) 0.0264(8) 0.0163(7) -0.0087(6) -0.0008(6) 0.0002(6)
N1 0.0230(8) 0.0279(8) 0.0155(7) -0.0114(7) 0.0003(6) 0.0006(6)
C26 0.0178(8) 0.0339(10) 0.0198(9) -0.0136(8) -0.0008(6) -0.0030(7)
C22 0.0273(10) 0.0285(10) 0.0241(9) -0.0138(8) -0.0048(7) 0.0015(8)
C11 0.0282(9) 0.0187(8) 0.0165(8) -0.0100(7) -0.0006(7) -0.0008(6)
C21 0.0197(8) 0.0295(10) 0.0158(8) -0.0135(7) -0.0012(6) 0.0007(7)
C1 0.0229(9) 0.0226(9) 0.0172(8) -0.0098(7) -0.0002(6) -0.0009(6)
C10 0.0255(9) 0.0187(8) 0.0172(8) -0.0078(7) -0.0017(7) 0.0001(6)
C12 0.0314(10) 0.0358(11) 0.0203(9) -0.0173(9) -0.0037(8) 0.0020(8)
C25 0.0218(9) 0.0546(14) 0.0197(9) -0.0220(10) 0.0034(7) -0.0057(9)
C23 0.0348(11) 0.0409(13) 0.0278(11) -0.0243(10) -0.0088(9) 0.0124(9)
C16 0.0272(10) 0.0264(10) 0.0210(9) -0.0077(8) 0.0014(7) -0.0003(7)
C24 0.0299(11) 0.0612(16) 0.0210(9) -0.0306(11) -0.0028(8) 0.0070(10)
C13 0.0422(13) 0.0455(14) 0.0192(9) -0.0242(11) -0.0079(9) 0.0043(9)
C14 0.0464(13) 0.0365(12) 0.0176(9) -0.0254(11) 0.0011(8) -0.0002(8)
C15 0.0357(11) 0.0344(11) 0.0224(10) -0.0161(10) 0.0070(8) -0.0053(8)
loop_
_atom_type_symbol
_atom_type_description
_atom_type_scat_dispersion_real
_atom_type_scat_dispersion_imag
_atom_type_scat_source
C C 0.0033 0.0016 'International Tables Vol C Tables 4.2.6.8 and 6.1.1.4'
H H 0.0000 0.0000 'International Tables Vol C Tables 4.2.6.8 and 6.1.1.4'
I I -0.4742 1.8119 'International Tables Vol C Tables 4.2.6.8 and 6.1.1.4'
N N 0.0061 0.0033 'International Tables Vol C Tables 4.2.6.8 and 6.1.1.4'
O O 0.0106 0.0060 'International Tables Vol C Tables 4.2.6.8 and 6.1.1.4'
S S 0.1246 0.1234 'International Tables Vol C Tables 4.2.6.8 and 6.1.1.4'
loop_
_geom_angle_atom_site_label_1
_geom_angle_atom_site_label_2
_geom_angle_atom_site_label_3
_geom_angle_site_symmetry_1
_geom_angle_site_symmetry_3
_geom_angle
_geom_angle_publ_flag
C21 N2 H2 . . 118.4 ?
C1 N2 H2 . . 118.4 ?
C1 N2 C21 . . 123.21(17) ?
C1 N1 H1 . . 115.7 ?
C10 N1 H1 . . 115.7 ?
C10 N1 C1 . . 128.69(17) ?
C21 C26 I1 . . 120.46(15) ?
C21 C26 C25 . . 120.1(2) ?
C25 C26 I1 . . 119.44(17) ?
C21 C22 H22 . . 120.0 ?
C21 C22 C23 . . 119.9(2) ?
C23 C22 H22 . . 120.0 ?
C12 C11 C10 . . 116.82(19) ?
C12 C11 C16 . . 119.26(19) ?
C16 C11 C10 . . 123.92(18) ?
C26 C21 N2 . . 121.15(19) ?
C22 C21 N2 . . 118.82(19) ?
C22 C21 C26 . . 119.98(19) ?
N2 C1 S1 . . 126.10(15) ?
N2 C1 N1 . . 116.28(17) ?
N1 C1 S1 . . 117.62(15) ?
O1 C10 N1 . . 122.48(18) ?
O1 C10 C11 . . 121.69(18) ?
N1 C10 C11 . . 115.83(18) ?
C11 C12 H12 . . 119.7 ?
C13 C12 C11 . . 120.6(2) ?
C13 C12 H12 . . 119.7 ?
C26 C25 H25 . . 120.2 ?
C24 C25 C26 . . 119.6(2) ?
C24 C25 H25 . . 120.2 ?
C22 C23 H23 . . 120.0 ?
C24 C23 C22 . . 120.0(2) ?
C24 C23 H23 . . 120.0 ?
C11 C16 H16 . . 120.0 ?
C15 C16 C11 . . 119.9(2) ?
C15 C16 H16 . . 120.0 ?
C25 C24 H24 . . 119.8 ?
C23 C24 C25 . . 120.3(2) ?
C23 C24 H24 . . 119.8 ?
C12 C13 H13 . . 120.0 ?
C14 C13 C12 . . 120.0(2) ?
C14 C13 H13 . . 120.0 ?
C13 C14 H14 . . 120.0 ?
C13 C14 C15 . . 120.1(2) ?
C15 C14 H14 . . 120.0 ?
C16 C15 H15 . . 119.9 ?
C14 C15 C16 . . 120.1(2) ?
C14 C15 H15 . . 119.9 ?
loop_
_geom_bond_atom_site_label_1
_geom_bond_atom_site_label_2
_geom_bond_site_symmetry_2
_geom_bond_distance
_geom_bond_publ_flag
I1 C26 . 2.090(2) ?
S1 C1 . 1.670(2) ?
O1 C10 . 1.224(3) ?
N2 H2 . 0.8800 ?
N2 C21 . 1.428(2) ?
N2 C1 . 1.326(3) ?
N1 H1 . 0.8800 ?
N1 C1 . 1.393(2) ?
N1 C10 . 1.376(3) ?
C26 C21 . 1.388(3) ?
C26 C25 . 1.392(3) ?
C22 H22 . 0.9500 ?
C22 C21 . 1.384(3) ?
C22 C23 . 1.390(3) ?
C11 C10 . 1.494(3) ?
C11 C12 . 1.389(3) ?
C11 C16 . 1.397(3) ?
C12 H12 . 0.9500 ?
C12 C13 . 1.385(3) ?
C25 H25 . 0.9500 ?
C25 C24 . 1.385(4) ?
C23 H23 . 0.9500 ?
C23 C24 . 1.381(4) ?
C16 H16 . 0.9500 ?
C16 C15 . 1.391(3) ?
C24 H24 . 0.9500 ?
C13 H13 . 0.9500 ?
C13 C14 . 1.384(4) ?
C14 H14 . 0.9500 ?
C14 C15 . 1.386(3) ?
C15 H15 . 0.9500 ?
loop_
_geom_hbond_atom_site_label_D
_geom_hbond_atom_site_label_H
_geom_hbond_atom_site_label_A
_geom_hbond_site_symmetry_A
_geom_hbond_distance_DH
_geom_hbond_distance_HA
_geom_hbond_distance_DA
_geom_hbond_angle_DHA
_geom_hbond_publ_flag
N2 H2 O1 . 0.88 1.97 2.659(2) 134.7 yes
