#------------------------------------------------------------------------------
#$Date: 2020-05-21 07:56:55 +0300 (Thu, 21 May 2020) $
#$Revision: 252239 $
#$URL: file:///home/coder/svn-repositories/cod/cif/2/02/21/2022124.cif $
#------------------------------------------------------------------------------
#
# This file is available in the Crystallography Open Database (COD),
# http://www.crystallography.net/. The original data for this entry
# were provided by IUCr Journals, http://journals.iucr.org/.
#
# The file may be used within the scientific community so long as
# proper attribution is given to the journal article from which the
# data were obtained.
#
data_2022124
loop_
_publ_author_name
'Mroz, Damian'
'Wang, Ruimin'
'Englert, Ulli'
'Dronskowski, Richard'
_publ_section_title
;
 Can we trust the experiment? Anisotropic displacement parameters in
 1-(halomethyl)-3-nitrobenzene (halogen = Cl or Br)
;
_journal_coeditor_code           SK3749
_journal_issue                   6
_journal_name_full               'Acta Crystallographica Section C'
_journal_page_first
;
;
_journal_paper_doi               10.1107/S2053229620006221
_journal_volume                  76
_journal_year                    2020
_chemical_formula_iupac          'C7 H6 Cl N O2'
_chemical_formula_moiety         'C7 H6 Cl N O2'
_chemical_formula_sum            'C7 H6 Cl N O2'
_chemical_formula_weight         171.58
_chemical_name_common            1
_chemical_name_systematic
;
1-(Chloromethyl)-3-nitrobenzene
;
_space_group_crystal_system      monoclinic
_space_group_IT_number           14
_space_group_name_Hall           '-P 2ybc'
_space_group_name_H-M_alt        'P 1 21/c 1'
_atom_sites_solution_hydrogens   geom
_atom_sites_solution_primary     other
_audit_creation_method           SHELXL-2018/3
_cell_angle_alpha                90
_cell_angle_beta                 112.537(6)
_cell_angle_gamma                90
_cell_formula_units_Z            4
_cell_length_a                   11.785(4)
_cell_length_b                   4.4690(9)
_cell_length_c                   15.004(4)
_cell_measurement_reflns_used    2924
_cell_measurement_temperature    100(2)
_cell_measurement_theta_max      24.2
_cell_measurement_theta_min      1.6
_cell_volume                     729.9(3)
_computing_cell_refinement
;
XDS (Kabsch <i>et al.</i>, 2010)
;
_computing_data_reduction
;
XDS (Kabsch <i>et al.</i>, 2010)
;
_computing_structure_refinement
;
SHELXL2018 (Sheldrick, 2015)
;
_diffrn_ambient_temperature      100(2)
_diffrn_measured_fraction_theta_full 0.998
_diffrn_measured_fraction_theta_max 0.996
_diffrn_measurement_device_type
'kappa diffractometer (EH1) with Dectris CdTe area detector'
_diffrn_measurement_method       \w
_diffrn_radiation_type           synchrotron
_diffrn_radiation_wavelength     0.61992
_diffrn_reflns_av_R_equivalents  0.1095
_diffrn_reflns_av_unetI/netI     0.0538
_diffrn_reflns_limit_h_max       19
_diffrn_reflns_limit_h_min       -18
_diffrn_reflns_limit_k_max       7
_diffrn_reflns_limit_k_min       -7
_diffrn_reflns_limit_l_max       24
_diffrn_reflns_limit_l_min       -24
_diffrn_reflns_number            19608
_diffrn_reflns_theta_full        21.836
_diffrn_reflns_theta_max         29.999
_diffrn_reflns_theta_min         1.632
_diffrn_source                   'beamline P24 at PETRA-III'
_exptl_absorpt_coefficient_mu    0.315
_exptl_absorpt_correction_T_max  0.863
_exptl_absorpt_correction_T_min  0.728
_exptl_absorpt_correction_type   multi-scan
_exptl_absorpt_process_details
;
(SADABS; Bruker, 2015)
;
_exptl_crystal_colour            colourless
_exptl_crystal_density_diffrn    1.561
_exptl_crystal_description       platelet
_exptl_crystal_F_000             352
_exptl_crystal_size_max          0.120
_exptl_crystal_size_mid          0.100
_exptl_crystal_size_min          0.040
_refine_diff_density_max         0.628
_refine_diff_density_min         -0.480
_refine_ls_extinction_coef       0.033(6)
_refine_ls_extinction_expression Fc*=kFc[1+0.001xFc^2^\l^3^/sin(2\q)]^-1/4^
_refine_ls_extinction_method
;
SHELXL2018 (Sheldrick 2015)
;
_refine_ls_goodness_of_fit_ref   1.072
_refine_ls_hydrogen_treatment    constr
_refine_ls_matrix_type           full
_refine_ls_number_parameters     101
_refine_ls_number_reflns         3194
_refine_ls_number_restraints     0
_refine_ls_restrained_S_all      1.072
_refine_ls_R_factor_all          0.0453
_refine_ls_R_factor_gt           0.0431
_refine_ls_shift/su_max          0.000
_refine_ls_shift/su_mean         0.000
_refine_ls_structure_factor_coef Fsqd
_refine_ls_weighting_details
'w=1/[\s^2^(Fo^2^)+(0.0532P)^2^+0.2792P] where P=(Fo^2^+2Fc^2^)/3'
_refine_ls_weighting_scheme      calc
_refine_ls_wR_factor_gt          0.1202
_refine_ls_wR_factor_ref         0.1220
_reflns_number_gt                2947
_reflns_number_total             3194
_reflns_threshold_expression     'I > 2\s(I)'
_cod_data_source_file            sk3749sup1.cif
_cod_data_source_block           1b
_cod_original_sg_symbol_H-M      'P 21/c'
_cod_database_code               2022124
_shelx_space_group_comment
;
The symmetry employed for this shelxl refinement is uniquely defined
by the following loop, which should always be used as a source of
symmetry information in preference to the above space-group names.
They are only intended as comments.
;
_shelx_estimated_absorpt_t_min   0.963
_shelx_estimated_absorpt_t_max   0.988
_shelx_hkl_file
;
  -1   0   0 0.47888 0.08415   3
   1   0   0 0.37847 0.07738   3
  -1   0   0 0.72417 0.17234   1
  -1   0   0 0.68612 0.16139   1
   1   0   0 0.32434 0.12002   1
   1   0   0 0.77062 0.18322   1
   1   0   0 0.26295 0.07061   3
  -1   0   0 0.40793 0.07674   3
  -1   0   0 0.58562 0.14265   2
  -2   0   0 428.891 56.6958   2
   2   0   0 531.641 65.5841   2
  -2   0   0 560.524 60.1275   3
   2   0   0 754.839 129.995   1
   2   0   0 471.325 85.5196   1
   2   0   0 517.489 57.0809   3
  -2   0   0 647.410 112.883   1
  -2   0   0 603.464 105.965   1
   2   0   0 594.188 62.5720   3
  -3   0   0 5419.38 952.974   1
   3   0   0 4940.54 605.861   2
   3   0   0 5118.41 905.847   1
  -3   0   0 5153.43 911.318   1
  -3   0   0 3985.83 470.324   3
   3   0   0 5226.90 922.823   1
  -3   0   0 5357.98 643.667   2
   4   0   0 13.1601 2.55279   1
  -4   0   0 22.4031 2.74156   2
   4   0   0 24.0148 2.88430   2
   4   0   0 17.9450 2.02161   3
   4   0   0 21.8279 3.86441   1
  -4   0   0 29.0109 5.00802   1
  -4   0   0 15.6046 1.85550   3
  -4   0   0 22.2995 3.94463   1
   5   0   0 44.8903 8.05346   1
   5   0   0 37.6183 6.94780   1
  -5   0   0 48.3567 5.18556   3
  -5   0   0 51.4592 9.08593   1
   5   0   0 54.3961 6.50967   2
  -5   0   0 61.6934 10.7050   1
  -5   0   0 36.9830 4.95818   2
  -6   0   0 487.268 50.9774   3
   6   0   0 429.749 76.5818   1
  -6   0   0 396.969 71.5297   1
  -6   0   0 455.449 80.5761   1
   6   0   0 573.966 99.2717   1
   6   0   0 350.064 46.0734   2
  -6   0   0 450.433 54.8553   2
   7   0   0 281.154 48.8478   1
   7   0   0 216.556 38.6857   1
  -7   0   0 257.492 45.0878   1
  -7   0   0 194.059 24.9093   2
   7   0   0 216.647 26.8902   2
  -7   0   0 220.254 39.2663   1
  -8   0   0 296.801 54.0629   1
  -8   0   0 304.898 39.0083   2
   8   0   0 369.195 65.2234   1
   8   0   0 387.306 68.0713   1
  -8   0   0 366.826 64.8441   1
   8   0   0 371.988 44.9807   2
  -9   0   0 405.538 71.2275   1
  -9   0   0 367.072 65.2256   1
   9   0   0 332.307 59.8692   1
   9   0   0 378.666 46.0805   2
  -9   0   0 314.557 40.4114   2
   9   0   0 404.451 71.0774   1
 -10   0   0 18.6989 3.38146   1
  10   0   0 17.6484 3.21381   1
 -10   0   0 17.9261 2.40896   2
  10   0   0 18.1095 2.39657   2
 -10   0   0 19.8782 3.56260   1
  10   0   0 10.6187 2.16256   1
  11   0   0 252.327 31.0435   2
 -11   0   0 230.393 41.4996   1
 -11   0   0 233.497 41.9656   1
 -11   0   0 246.270 30.5076   2
  12   0   0 296.569 37.2641   2
 -12   0   0 325.035 39.8144   2
  13   0   0 187.569 24.3171   2
 -13   0   0 259.789 30.8450   2
 -14   0   0 48.1394 6.21373   2
 -15   0   0 1.28071 0.63439   2
  16   0   0 37.4225 4.88297   2
 -16   0   0 35.9231 4.77052   2
  17   0   0 5.08824 1.03021   2
  18   0   0 41.1697 5.38246   2
  19   0   0 55.7892 6.92840   2
 -19   0   0 42.0959 5.69777   2
 -20   0   0 17.8172 2.55020   2
  20   0   0 16.5667 2.43045   2
   0  -1   0 0.23778 0.09978   1
   0  -1   0 0.19602 0.08055   2
   0  -1   0 0.00000 0.05887   1
   0  -1   0 0.42730 0.21322   3
   0   1   0 0.32944 0.27542   3
  -1  -1   0 144.523 16.0697   3
  -1  -1   0 177.849 31.1166   1
   1  -1   0 123.241 14.6182   3
   1  -1   0 171.161 20.4575   2
   1  -1   0 170.405 29.9509   1
  -1  -1   0 170.712 29.9819   1
   1  -1   0 172.071 30.2114   1
  -1   1   0 171.333 30.0791   1
  -1   1   0 141.906 15.8766   3
   1   1   0 135.368 15.4466   3
   1   1   0 158.151 19.2691   2
  -1   1   0 182.222 31.7930   1
  -2  -1   0 3400.81 380.915   3
   2  -1   0 3542.63 633.732   1
   2  -1   0 3403.70 428.085   2
  -2  -1   0 4144.16 727.469   1
  -2  -1   0 3188.55 579.670   1
   2  -1   0 3799.62 673.766   1
  -2   1   0 3460.09 621.099   1
  -2   1   0 3492.41 387.244   3
   2   1   0 4075.71 488.380   2
  -2   1   0 4138.91 726.490   1
   2   1   0 3889.43 415.443   3
   3  -1   0 3869.86 413.035   3
  -3  -1   0 3372.36 377.916   3
   3  -1   0 3598.84 444.450   2
   3  -1   0 3622.41 645.671   1
  -3  -1   0 5079.97 875.352   1
   3  -1   0 3965.48 699.009   1
  -3  -1   0 3949.31 696.387   1
   3   1   0 3606.68 445.109   2
   3   1   0 3508.52 387.329   3
  -3   1   0 3223.84 584.352   1
  -3   1   0 3742.90 457.327   2
   3   1   0 4459.05 776.423   1
  -3   1   0 4374.75 763.263   1
   3   1   0 3562.09 636.262   1
  -3   1   0 2989.75 352.152   3
   4  -1   0 77.2539 10.0670   2
   4  -1   0 116.619 20.2695   1
   4  -1   0 112.165 19.5555   1
  -4  -1   0 90.0747 9.90355   3
   4   1   0 81.9193 10.4610   2
   4   1   0 99.4539 17.5531   1
   4   1   0 89.4037 15.9772   1
  -4   1   0 83.8688 9.42101   3
  -4   1   0 94.0131 16.7092   1
  -4   1   0 75.6595 13.8884   1
  -4   1   0 135.950 15.4940   2
   5  -1   0 38.3263 6.77855   1
   5  -1   0 44.2137 7.71111   1
  -5  -1   0 32.5360 3.66722   3
   5  -1   0 29.5006 3.88096   2
  -5  -1   0 26.5416 3.63790   2
  -5   1   0 35.0546 4.38100   2
   5   1   0 30.9407 3.55941   3
   5   1   0 32.9462 5.93026   1
   5   1   0 46.3837 5.42358   2
  -5   1   0 38.5512 6.81840   1
  -5   1   0 50.2655 8.67406   1
   5   1   0 34.1403 6.11679   1
  -6  -1   0 1021.98 119.853   2
   6  -1   0 891.302 107.737   2
  -6  -1   0 859.627 152.491   1
   6  -1   0 956.412 167.612   1
  -6  -1   0 810.261 89.0330   3
   6  -1   0 731.747 132.740   1
  -6  -1   0 1020.27 177.668   1
   6   1   0 737.565 133.635   1
   6   1   0 688.362 89.8724   2
  -6   1   0 835.304 102.662   2
  -6   1   0 840.554 149.468   1
   6   1   0 670.261 123.457   1
   6   1   0 797.773 88.1673   3
  -6   1   0 998.649 174.232   1
  -7  -1   0 51.8296 9.26768   1
   7  -1   0 46.8449 8.50358   1
  -7  -1   0 60.0947 10.5878   1
  -7  -1   0 45.2553 5.22394   3
  -7  -1   0 46.7191 6.02447   2
   7  -1   0 59.0192 7.14650   2
   7  -1   0 47.0512 8.52788   1
   7   1   0 50.9956 9.14208   1
   7   1   0 44.5095 5.18102   3
  -7   1   0 54.5490 9.69501   1
  -7   1   0 44.2668 8.11741   1
   7   1   0 57.0682 10.0826   1
  -7   1   0 53.7614 6.67818   2
   7   1   0 56.3506 6.87761   2
  -8  -1   0 619.515 73.2766   2
   8  -1   0 428.328 56.2411   2
  -8  -1   0 608.981 106.585   1
   8  -1   0 425.194 78.2391   1
   8  -1   0 536.844 95.3257   1
  -8  -1   0 475.968 53.7072   3
  -8  -1   0 602.344 105.572   1
   8   1   0 511.710 63.4419   2
  -8   1   0 607.559 106.389   1
   8   1   0 565.258 99.7353   1
   8   1   0 582.422 102.440   1
  -8   1   0 638.595 75.0726   2
  -8   1   0 413.626 76.5313   1
   9  -1   0 138.340 24.5240   1
   9  -1   0 118.036 21.3974   1
  -9  -1   0 173.838 30.1518   1
  -9  -1   0 124.689 13.8688   3
   9  -1   0 145.328 17.5666   2
  -9  -1   0 136.582 16.7673   2
  -9  -1   0 114.723 20.8794   1
   9   1   0 148.478 26.1214   1
  -9   1   0 111.973 20.4679   1
  -9   1   0 91.0039 17.3593   1
   9   1   0 148.483 26.1137   1
   9   1   0 135.256 16.6266   2
  -9   1   0 130.868 16.2598   2
  10  -1   0 4.50094 0.93339   1
  10  -1   0 7.16645 1.34837   1
 -10  -1   0 4.65785 0.85320   2
 -10  -1   0 5.24375 1.05929   1
  10  -1   0 4.61659 0.85987   2
 -10  -1   0 2.60399 0.71267   1
  10   1   0 4.26302 0.89498   1
  10   1   0 5.78156 1.13618   1
 -10   1   0 3.78144 0.84962   2
 -10   1   0 3.45019 0.78965   1
  10   1   0 4.89503 0.84117   2
 -10   1   0 4.13498 0.90540   1
 -11  -1   0 26.7557 3.64597   2
 -11  -1   0 29.3973 5.36429   1
  11  -1   0 30.3476 5.50736   1
  11  -1   0 26.7823 3.65237   2
 -11   1   0 31.9972 4.12928   2
  11   1   0 36.4592 4.51859   2
 -11   1   0 32.3115 5.81238   1
  11   1   0 30.8378 5.58145   1
  12  -1   0 80.4169 10.0666   2
 -12  -1   0 87.9249 10.7647   2
  12   1   0 89.6237 10.9360   2
 -12   1   0 63.5673 8.60001   2
  13  -1   0 7.17963 1.22907   2
 -13  -1   0 7.41082 1.23566   2
  13   1   0 7.07980 1.22570   2
 -13   1   0 7.31053 1.23238   2
 -14  -1   0 66.6687 8.45595   2
  14  -1   0 65.9771 8.39349   2
 -14   1   0 68.0878 8.59012   2
  14   1   0 62.4051 8.07656   2
  15  -1   0 89.7950 11.6271   2
 -15  -1   0 102.692 12.7779   2
 -15   1   0 95.0412 12.0963   2
  15   1   0 106.642 13.1276   2
  16  -1   0 26.0106 3.54389   2
 -16  -1   0 27.0499 3.64487   2
 -16   1   0 27.7859 3.72089   2
  16   1   0 25.8132 3.51800   2
  17  -1   0 9.33906 1.55222   2
 -17  -1   0 7.62491 1.39718   2
 -17   1   0 12.2318 1.83074   2
  17   1   0 9.77702 1.56118   2
 -18  -1   0 9.74898 1.62530   2
  18  -1   0 9.76572 1.62891   2
  18   1   0 12.4779 1.84670   2
 -18   1   0 9.64789 1.64727   2
 -19  -1   0 1.27123 0.72033   2
  19  -1   0 2.53922 0.82246   2
  19   1   0 1.66893 0.79543   2
 -19   1   0 1.01528 0.65282   2
  20  -1   0 1.08026 0.63153   2
 -20   1   0 0.18530 0.56239   2
   0  -2   0 47.0297 8.11286   1
   0  -2   0 33.8030 3.78604   3
   0  -2   0 27.1314 5.00651   1
   0   2   0 33.0081 3.73580   3
   0   2   0 35.1563 6.23353   1
   1  -2   0 525.395 91.1699   1
  -1  -2   0 417.659 45.3125   3
   1  -2   0 409.886 44.7485   3
   1  -2   0 461.378 81.0443   1
   1   2   0 326.413 39.0908   3
  -1   2   0 787.695 133.419   1
  -1   2   0 393.472 49.0315   2
  -1   2   0 474.204 83.0715   1
  -2  -2   0 545.617 97.5057   1
   2  -2   0 620.976 65.4672   3
   2  -2   0 588.107 104.096   1
   2  -2   0 513.475 64.8594   2
  -2  -2   0 647.940 67.5129   3
   2  -2   0 524.037 94.2015   1
  -2   2   0 457.325 84.0731   1
  -2   2   0 511.626 57.7158   3
   2   2   0 528.209 58.8608   3
   2   2   0 523.566 94.1311   1
  -2   2   0 638.660 112.024   1
   2   2   0 604.571 106.660   1
  -2   2   0 584.680 71.1856   2
  -3  -2   0 241.591 41.6438   1
   3  -2   0 224.353 38.9004   1
   3  -2   0 142.207 16.8103   3
   3  -2   0 165.909 20.7275   2
   3  -2   0 185.841 32.8320   1
  -3  -2   0 131.155 16.1271   3
   3   2   0 231.031 23.2737   3
  -3   2   0 169.059 21.0078   2
   3   2   0 211.692 36.8748   1
  -3   2   0 216.834 37.7197   1
   3   2   0 206.154 24.3674   2
  -3   2   0 192.065 33.8065   1
  -3   2   0 151.390 17.4196   3
   3   2   0 202.165 35.3946   1
   4  -2   0 896.028 113.109   2
  -4  -2   0 1143.34 199.963   1
   4  -2   0 663.540 126.848   1
   4  -2   0 1388.91 239.072   1
  -4  -2   0 981.120 174.556   1
  -4   2   0 1127.01 197.432   1
   4   2   0 960.338 105.305   3
  -4   2   0 1400.79 159.846   2
  -4   2   0 1191.17 207.501   1
  -4   2   0 942.290 103.970   3
   4   2   0 865.392 110.438   2
   4   2   0 847.883 154.185   1
   4   2   0 1163.93 203.268   1
   5  -2   0 387.567 54.0987   2
  -5  -2   0 727.833 125.993   1
  -5  -2   0 585.422 62.6159   3
  -5  -2   0 501.216 90.5279   1
   5  -2   0 612.542 107.784   1
   5  -2   0 549.138 97.9025   1
  -5   2   0 589.063 62.8708   3
  -5   2   0 680.994 79.8739   2
  -5   2   0 769.506 132.652   1
  -5   2   0 462.830 84.7154   1
   5   2   0 780.977 134.482   1
   5   2   0 622.356 109.301   1
   6  -2   0 263.042 46.1213   1
  -6  -2   0 236.519 41.9485   1
  -6  -2   0 235.747 25.4645   3
  -6  -2   0 252.967 44.5191   1
   6  -2   0 245.067 29.7177   2
   6  -2   0 140.184 27.5381   1
  -6  -2   0 213.329 26.8354   2
   6   2   0 239.232 29.1343   2
   6   2   0 197.768 22.8322   3
   6   2   0 241.829 42.7713   1
  -6   2   0 214.274 38.5073   1
  -6   2   0 278.768 32.8230   2
   6   2   0 290.595 50.4658   1
  -6   2   0 235.703 41.8452   1
   7  -2   0 2.98559 0.67998   1
   7  -2   0 3.24925 0.71675   1
   7  -2   0 2.99877 0.61462   2
  -7  -2   0 3.24053 0.54563   3
  -7  -2   0 3.81737 0.76681   1
  -7  -2   0 2.17305 0.56036   1
  -7  -2   0 3.15985 0.60646   2
   7   2   0 2.65277 0.59820   1
  -7   2   0 3.64671 0.70519   2
   7   2   0 3.98331 0.69273   2
  -7   2   0 2.27157 0.59136   1
  -7   2   0 2.92030 0.70287   1
   7   2   0 2.73124 0.60155   3
   7   2   0 3.03445 0.67605   1
   8  -2   0 158.896 28.0178   1
  -8  -2   0 151.072 16.3183   3
  -8  -2   0 141.874 17.6508   2
   8  -2   0 138.786 17.4139   2
  -8  -2   0 143.009 25.5507   1
  -8  -2   0 135.898 24.4472   1
   8  -2   0 163.222 28.6961   1
   8   2   0 148.036 16.1056   3
  -8   2   0 122.004 22.3423   1
   8   2   0 123.297 22.5248   1
   8   2   0 110.166 20.5557   1
  -8   2   0 167.222 19.9973   2
  -8   2   0 150.075 26.6544   1
   9  -2   0 4.15478 0.88875   1
  -9  -2   0 3.86452 0.84142   1
  -9  -2   0 2.94734 0.57059   3
  -9  -2   0 4.88660 0.82689   2
   9  -2   0 4.83779 0.99422   1
  -9  -2   0 4.35761 0.88974   1
   9   2   0 4.20395 0.77556   2
  -9   2   0 3.68755 0.81107   1
   9   2   0 2.76476 0.60425   3
  -9   2   0 4.76828 0.98382   1
   9   2   0 3.50263 0.78479   1
  -9   2   0 2.34675 0.68938   2
   9   2   0 3.41046 0.75255   1
 -10  -2   0 140.466 17.2984   2
 -10  -2   0 131.098 14.5926   3
 -10  -2   0 135.093 24.1611   1
  10  -2   0 134.460 24.0609   1
  10  -2   0 116.183 21.2674   1
 -10  -2   0 135.162 24.1504   1
 -10   2   0 118.898 21.6679   1
 -10   2   0 146.227 17.8525   2
  10   2   0 136.794 16.9625   2
  11  -2   0 21.9358 3.07275   2
 -11  -2   0 24.5140 2.84361   3
 -11   2   0 28.5071 3.65727   2
 -12  -2   0 5.09510 0.97181   2
  12  -2   0 4.80969 1.01762   2
  12   2   0 3.38590 0.83436   2
  13  -2   0 37.7909 4.78393   2
 -13  -2   0 30.7175 4.14516   2
  13   2   0 31.6438 4.21769   2
  14  -2   0 -0.4971 0.50346   2
 -14  -2   0 -0.2022 0.64170   2
  14   2   0 -0.0608 0.53746   2
 -15  -2   0 17.1316 2.40942   2
  15  -2   0 14.4111 2.16981   2
  17  -2   0 0.10797 0.56046   2
 -17   2   0 -0.1744 0.54512   2
  17   2   0 -0.3680 0.61733   2
 -18  -2   0 8.39597 1.52983   2
  18  -2   0 7.99865 1.43702   2
  18   2   0 12.3131 1.87120   2
 -18   2   0 11.8100 1.78690   2
  19  -2   0 1.43313 0.71763   2
 -19   2   0 1.49021 0.73792   2
  20  -2   0 1.11859 0.73085   2
   0  -3   0 -0.4299 0.39425   3
   1  -3   0 28.0999 4.90068   1
  -1  -3   0 25.4939 2.82667   3
  -1   3   0 22.6695 4.04350   1
  -1   3   0 16.9715 2.21879   3
  -1   3   0 23.7671 4.21224   1
   1   3   0 22.0446 2.58488   3
   2  -3   0 281.468 31.5163   3
  -2  -3   0 401.525 40.3747   3
   2  -3   0 310.035 55.0172   1
  -2   3   0 244.005 28.9962   3
  -2   3   0 426.644 73.4478   1
  -2   3   0 320.662 56.6651   1
   2   3   0 288.043 31.9968   3
   3  -3   0 86.0055 15.6222   1
   3  -3   0 98.0270 10.7629   3
  -3  -3   0 118.452 12.2912   3
  -3   3   0 109.712 19.2934   1
  -3   3   0 96.9402 17.2997   1
   3   3   0 86.9522 10.0201   3
  -3   3   0 83.7955 9.77363   3
  -3   3   0 104.331 12.6710   2
   4  -3   0 1346.25 238.917   1
  -4  -3   0 1214.09 136.040   3
   4  -3   0 1136.83 130.745   3
   4  -3   0 1431.88 252.272   1
  -4   3   0 1402.11 247.552   1
   4   3   0 1495.91 262.220   1
   4   3   0 1639.25 166.959   3
   4   3   0 1717.82 297.557   1
  -4   3   0 1332.72 236.770   1
  -4   3   0 1596.58 163.713   3
  -4   3   0 1012.39 135.609   2
   5  -3   0 84.5478 15.2523   1
   5  -3   0 97.6386 11.8959   2
  -5   3   0 77.5543 9.06478   3
  -5   3   0 83.8086 15.1385   1
  -5   3   0 92.2938 11.4047   2
   5   3   0 99.8937 17.6023   1
   5   3   0 81.3310 14.7261   1
  -5   3   0 116.120 20.1849   1
   5   3   0 91.9170 10.1262   3
   6  -3   0 2.11709 0.53575   1
  -6  -3   0 2.42823 0.56938   3
   6  -3   0 1.50883 0.42390   1
  -6  -3   0 1.03050 0.31319   1
   6  -3   0 2.07082 0.53289   2
  -6   3   0 2.18959 0.55310   1
  -6   3   0 1.03607 0.36526   1
   6   3   0 1.37060 0.36057   1
  -6   3   0 1.83779 0.49215   2
   6   3   0 1.44285 0.35674   1
   7  -3   0 622.288 76.8351   2
  -7  -3   0 577.139 64.8725   3
  -7  -3   0 559.004 101.202   1
   7  -3   0 548.412 99.6061   1
   7  -3   0 622.012 110.915   1
   7   3   0 691.934 73.0514   3
   7   3   0 659.579 116.700   1
  -7   3   0 577.341 104.030   1
  -7   3   0 804.586 139.568   1
  -7   3   0 602.832 75.0979   2
   7   3   0 666.548 117.797   1
   8  -3   0 14.3510 2.63553   1
  -8  -3   0 14.9549 2.70986   1
   8  -3   0 8.03803 1.68891   1
  -8  -3   0 15.4589 1.84390   3
   8  -3   0 16.2676 2.15147   2
   8   3   0 14.8143 2.67731   1
   8   3   0 11.2305 1.64806   2
  -8   3   0 14.2173 2.60547   1
   8   3   0 16.1734 2.89794   1
   8   3   0 15.4125 1.86255   3
  -8   3   0 12.7051 1.82057   2
  -8   3   0 14.2404 2.63407   1
  -9  -3   0 88.7493 16.0670   1
   9  -3   0 91.8463 16.5723   1
  -9  -3   0 102.854 18.2585   1
  -9  -3   0 100.265 10.9673   3
   9   3   0 93.0004 11.7256   2
   9   3   0 96.5295 10.7222   3
  10  -3   0 28.7226 3.83668   2
 -10  -3   0 31.7322 3.67842   3
  10   3   0 32.8752 3.78885   3
  10   3   0 30.4194 3.97070   2
 -10   3   0 30.5606 4.02096   2
  11  -3   0 88.1978 11.5455   2
 -11  -3   0 106.396 11.5939   3
 -11   3   0 97.5600 12.3755   2
  11   3   0 115.763 14.0164   2
 -12  -3   0 0.17258 0.42014   3
  12  -3   0 0.60165 0.57614   2
  12   3   0 -0.0318 0.56771   3
  12   3   0 0.24662 0.54539   2
 -12   3   0 0.72643 0.65175   2
  13  -3   0 1.15410 0.57412   2
 -13   3   0 0.96012 0.62510   2
  13   3   0 2.50318 0.74923   2
  14  -3   0 64.3719 8.26279   2
 -14   3   0 66.4211 8.45258   2
 -15   3   0 41.2716 5.42175   2
  16  -3   0 26.9311 3.74117   2
 -16   3   0 33.4099 4.34489   2
  17  -3   0 39.4985 5.22465   2
 -17   3   0 42.4211 5.50095   2
  18  -3   0 28.5703 3.77872   2
 -18   3   0 24.0079 3.35657   2
  19  -3   0 5.39067 1.16858   2
   0   4   0 150.732 16.6878   3
   1  -4   0 443.323 50.1920   3
  -1  -4   0 498.999 54.0998   3
   1   4   0 626.478 63.5671   3
  -1   4   0 432.223 49.4533   3
   2  -4   0 2.46561 0.50523   1
   2  -4   0 1.96295 0.50577   3
  -2  -4   0 2.08896 0.57495   3
   2   4   0 3.75870 0.75612   3
  -2   4   0 1.33752 0.30894   1
  -2   4   0 2.14275 0.58607   3
  -2   4   0 2.08227 0.41695   1
  -3  -4   0 1.37804 0.53846   3
   3  -4   0 0.95223 0.29830   1
   3  -4   0 1.81815 0.51580   3
   3   4   0 0.79307 0.59239   3
  -3   4   0 0.53168 0.26300   1
  -3   4   0 0.74642 0.27476   1
  -3   4   0 1.04409 0.53280   3
   4  -4   0 415.456 43.5370   3
  -4  -4   0 387.884 41.5513   3
   4  -4   0 335.766 60.5044   1
   4   4   0 409.958 43.1954   3
  -4   4   0 307.763 35.9372   3
  -4   4   0 336.808 60.6663   1
  -4   4   0 325.570 58.9478   1
   5  -4   0 1.20311 0.47798   3
  -5  -4   0 3.45372 0.70391   3
   5  -4   0 1.82173 0.46625   1
   5   4   0 0.51419 0.60543   3
  -5   4   0 1.54471 0.58276   3
  -5   4   0 1.51996 0.40487   1
  -5   4   0 0.89022 0.43217   2
  -5   4   0 1.63686 0.43366   1
   6  -4   0 9.13481 1.70108   1
   6  -4   0 7.44237 1.43623   1
  -6  -4   0 7.05185 1.31810   1
  -6   4   0 12.6738 2.27936   1
   6   4   0 8.90859 1.28802   3
  -6   4   0 8.67601 1.20420   3
  -6   4   0 7.18732 1.15725   2
   7  -4   0 100.147 12.3472   2
  -7  -4   0 90.4481 10.2359   3
   7   4   0 86.2440 9.96740   3
  -7   4   0 101.942 12.5032   2
  -8  -4   0 126.682 14.6929   3
  -8   4   0 157.139 19.1186   2
   8   4   0 149.355 16.2989   3
  -9  -4   0 4.25716 0.76700   3
   9   4   0 3.40800 0.77811   3
  -9   4   0 1.98361 0.72260   2
 -10  -4   0 61.4477 6.61495   3
 -10   4   0 45.2520 6.08960   2
  10   4   0 54.2650 6.12087   3
  11  -4   0 88.4053 11.2260   2
 -11  -4   0 83.8202 9.62350   3
 -11   4   0 110.973 13.2947   2
  11   4   0 83.1037 9.60549   3
  12  -4   0 118.942 14.9425   2
 -12  -4   0 118.082 13.1649   3
  12   4   0 119.369 13.2999   3
  13  -4   0 52.0071 6.65877   2
 -13  -4   0 52.8782 5.95010   3
  13   4   0 47.6982 5.61748   3
  14  -4   0 0.75757 0.56396   2
  15  -4   0 0.59479 0.66016   2
  16  -4   0 2.58349 0.75892   2
  17  -4   0 1.25591 0.71391   2
   0  -5   0 0.56319 0.57850   3
   0   5   0 0.48068 0.62602   3
   1  -5   0 254.605 30.6729   3
  -1  -5   0 357.019 37.8343   3
   1   5   0 368.651 38.6664   3
  -1   5   0 340.562 36.6065   3
   2  -5   0 91.9596 10.9147   3
   2   5   0 139.733 14.3799   3
   3  -5   0 1.84131 0.62178   3
  -3  -5   0 1.61438 0.59394   3
  -3   5   0 1.18139 0.68814   3
   3   5   0 0.66124 0.64183   3
   4  -5   0 1.60062 0.55356   3
  -4  -5   0 1.24696 0.57043   3
   4   5   0 1.95382 0.71877   3
  -5  -5   0 11.8005 1.53917   3
   5   5   0 9.82945 1.48223   3
  -6  -5   0 1.05257 0.56259   3
   6   5   0 0.58235 0.68400   3
   7   5   0 4.50461 0.91897   3
  -8  -5   0 0.69631 0.48155   3
   8   5   0 0.99911 0.71367   3
  -9  -5   0 15.4559 2.00084   3
   9   5   0 16.2692 2.12078   3
 -10  -5   0 0.24273 0.58119   3
  10   5   0 -0.3823 0.65507   3
 -11  -5   0 2.57053 0.74535   3
  11   5   0 3.42367 0.89875   3
 -12  -5   0 0.41702 0.54766   3
  12   5   0 1.10511 0.71779   3
 -13  -5   0 0.11649 0.57520   3
  13   5   0 0.37865 0.71906   3
   0  -6   0 244.562 25.4626   3
   0   6   0 178.150 20.7342   3
  -1  -6   0 1.76062 0.60995   3
   1  -6   0 1.59658 0.64952   3
  -1   6   0 2.50484 0.79240   3
   1   6   0 1.90689 0.85342   3
  -2  -6   0 -0.1443 0.51284   3
   2  -6   0 -0.0575 0.53112   3
  -2   6   0 -0.0112 0.72762   3
   2   6   0 0.06574 0.78141   3
  -3  -6   0 58.8191 6.79241   3
   3  -6   0 60.3493 6.91883   3
   3   6   0 65.8896 7.33087   3
   4  -6   0 -0.0682 0.47919   3
  -4  -6   0 0.16732 0.47919   3
  -4   6   0 0.10438 0.63919   3
   4   6   0 0.61718 0.80732   3
   5  -6   0 15.0675 2.01386   3
  -5  -6   0 15.0676 1.96313   3
   5   6   0 15.6921 2.13420   3
  -5   6   0 17.6541 2.23862   3
  -6  -6   0 0.48426 0.51213   3
   6   6   0 -0.1863 0.69301   3
  -7  -6   0 10.4532 1.51035   3
   7   6   0 11.1703 1.63039   3
  -8  -6   0 11.9181 1.64259   3
  -9  -6   0 15.9199 2.05210   3
   9   6   0 14.3749 2.00347   3
 -10  -6   0 9.90242 1.46786   3
  10   6   0 12.0409 1.68268   3
 -11  -6   0 26.1772 3.23988   3
  11   6   0 30.3877 3.57791   3
  12   6   0 9.03758 1.48784   3
   0  -7   0 2.00828 0.74877   3
   0   7   0 0.77429 0.78982   3
  -1  -7   0 10.5976 1.59749   3
   1  -7   0 15.0104 1.95385   3
  -1   7   0 12.1182 1.85463   3
   1   7   0 9.51452 1.58623   3
   2  -7   0 3.45461 0.89626   3
  -2  -7   0 1.53012 0.77658   3
   2   7   0 2.74108 0.88867   3
   3  -7   0 136.692 14.4919   3
  -3  -7   0 87.2344 11.0168   3
   3   7   0 149.692 15.5002   3
  -3   7   0 125.667 13.7018   3
  -4  -7   0 20.6240 2.54894   3
   4   7   0 18.2336 2.42726   3
  -5  -7   0 5.07195 0.97928   3
   5   7   0 4.18617 1.05196   3
  -6  -7   0 13.6187 1.85604   3
   6   7   0 14.0310 1.95763   3
  -7  -7   0 0.31546 0.59080   3
   7   7   0 0.07511 0.72187   3
   8   7   0 13.1712 1.86633   3
  -9  -7   0 7.46428 1.21590   3
   9   7   0 7.87350 1.36823   3
 -10  -7   0 0.74405 0.60312   3
  10   7   0 -0.5568 0.71877   3
   0  -8   0 0.79604 0.64860   3
   0   8   0 1.42304 0.83411   3
  -1  -8   0 0.50576 0.59961   3
   1   8   0 1.55505 0.83610   3
  -2  -8   0 -0.2947 0.59286   3
   2   8   0 1.11943 0.78401   3
  -3  -8   0 6.08826 1.04232   3
   3   8   0 5.64205 1.11502   3
  -4  -8   0 4.50901 0.96322   3
   4   8   0 3.77019 0.99814   3
  -5  -8   0 40.9507 4.66311   3
   5   8   0 34.8275 4.25829   3
  -6  -8   0 1.46652 0.66707   3
   6   8   0 2.88142 0.88191   3
 -20   0   1 -0.2376 0.62718   2
  20   0  -1 0.24070 0.59098   2
  19   0  -1 -0.7238 0.52932   2
 -19   0   1 0.01570 0.60124   2
  18   0  -1 0.24313 0.58224   2
  17   0  -1 0.43498 0.64140   2
  16   0  -1 0.13867 0.62039   2
 -16   0   1 -0.7002 0.61123   2
 -15   0   1 -0.2013 0.63876   2
 -14   0   1 0.28339 0.54148   2
 -13   0   1 -0.1707 0.54877   2
  13   0  -1 0.16940 0.57473   2
 -12   0   1 1.09999 0.61221   2
  12   0  -1 0.33605 0.55682   2
 -11   0   1 -0.1619 0.54044   2
  11   0  -1 0.59674 0.41441   1
 -11   0   1 -0.3883 0.31524   1
  11   0  -1 -0.4720 0.49444   2
 -11   0   1 0.74787 0.45596   1
  10   0  -1 -0.4889 0.32130   1
 -10   0   1 -0.3107 0.37609   1
  10   0  -1 -0.3329 0.48266   2
  10   0  -1 -0.3179 0.33790   1
 -10   0   1 -0.6002 0.50982   2
 -10   0   1 0.53245 0.38825   1
  -9   0   1 0.00000 0.33175   1
   9   0  -1 0.58029 0.44992   2
   9   0  -1 -0.6561 0.34111   1
  -9   0   1 -0.1123 0.32942   1
  -9   0   1 0.00000 0.48226   2
   9   0  -1 -0.8983 0.36615   1
  -8   0   1 -0.1022 0.27385   1
   8   0  -1 0.37751 0.32645   1
   8   0  -1 0.09097 0.35740   2
  -8   0   1 -0.3389 0.33935   1
  -8   0   1 0.28190 0.39992   2
   8   0  -1 0.25864 0.33085   1
  -7   0   1 0.10788 0.29927   1
   7   0  -1 0.42748 0.33586   1
  -7   0   1 -0.0636 0.40577   2
  -7   0   1 0.15254 0.34135   1
   7   0  -1 -0.5522 0.37186   2
   7   0  -1 -0.3312 0.25541   1
   6   0  -1 0.82248 0.39963   1
   6   0  -1 -0.2754 0.36066   2
  -6   0   1 0.29923 0.28460   1
  -6   0   1 0.00000 0.10675   3
  -6   0   1 -0.0536 0.32292   1
  -6   0   1 -0.1701 0.37957   2
   6   0  -1 -0.0717 0.23857   1
   5   0  -1 0.19834 0.32973   2
  -5   0   1 0.44467 0.24889   1
  -5   0   1 0.18615 0.32001   2
   5   0  -1 0.19987 0.27286   1
  -5   0   1 -0.1244 0.25359   1
   5   0  -1 -0.0981 0.23760   1
  -5   0   1 0.10955 0.10680   3
   4   0  -1 0.14215 0.25454   1
  -4   0   1 0.22910 0.25985   1
   4   0  -1 0.11444 0.22612   1
  -4   0   1 0.10186 0.23417   1
  -4   0   1 0.02189 0.11544   3
   4   0  -1 0.14097 0.13193   3
   4   0  -1 0.22976 0.30091   2
  -4   0   1 -0.2668 0.27658   2
   3   0  -1 0.34909 0.23488   1
  -3   0   1 0.06935 0.19794   1
  -3   0   1 0.07617 0.09711   3
   3   0  -1 0.05818 0.21430   2
  -3   0   1 0.34177 0.23342   1
  -3   0   1 -0.2442 0.22484   2
   3   0  -1 -0.0806 0.19598   1
   2   0  -1 -0.2082 0.18149   1
   2   0  -1 0.01779 0.18609   1
  -2   0   1 -0.0312 0.18366   2
  -2   0   1 0.00899 0.17959   1
   2   0  -1 0.17634 0.12611   3
  -2   0   1 0.00892 0.16122   1
   2   0  -1 0.00910 0.07380   3
  -2   0   1 0.03810 0.10037   3
  -2   0   1 0.21750 0.09616   3
   2   0  -1 -0.2394 0.18812   2
   0   0   1 0.35563 0.11309   1
   0   0  -1 0.04808 0.09188   1
   0   0  -1 0.16306 0.09518   1
   0   0   1 0.05528 0.04565   3
   0   0   1 0.12180 0.10291   2
   0   0   1 0.27603 0.10204   2
   0   0   1 0.09204 0.06166   3
   0   0  -1 0.06870 0.10158   2
   0   0   1 0.30580 0.10613   1
   0   0  -1 0.06847 0.08452   2
   0   0  -1 0.04126 0.05422   3
   0   0  -1 0.31854 0.05875   3
   1   0   1 0.13792 0.18383   1
  -1   0  -1 0.06422 0.07203   3
   1   0   1 0.10506 0.19093   1
   1   0   1 0.18035 0.17731   2
  -1   0  -1 0.36530 0.20131   1
   1   0   1 0.04931 0.08697   3
  -1   0  -1 0.12923 0.19055   2
  -1   0  -1 0.50115 0.21098   1
   2   0   1 0.39935 0.12146   3
   2   0   1 0.50341 0.24051   2
   2   0   1 0.23844 0.22814   1
  -2   0  -1 0.56928 0.27643   1
   2   0   1 0.20898 0.24733   1
  -3   0  -1 -0.3080 0.24743   1
  -3   0  -1 0.26084 0.26606   1
  -3   0  -1 0.58343 0.31853   2
  -3   0  -1 0.33714 0.10311   3
   3   0   1 0.04592 0.24487   1
   3   0   1 -0.0483 0.26877   2
   3   0   1 -0.0097 0.25000   1
   4   0   1 -0.5596 0.27477   1
   4   0   1 0.14550 0.26821   1
   4   0   1 0.15343 0.10385   3
  -4   0  -1 -0.2326 0.26559   1
  -4   0  -1 0.22062 0.09652   3
  -4   0  -1 -0.2849 0.28004   1
  -4   0  -1 0.45697 0.35269   2
   4   0   1 0.42610 0.34104   2
  -5   0  -1 0.00000 0.27245   1
  -5   0  -1 0.22744 0.38292   2
  -5   0  -1 -0.1103 0.29711   1
  -5   0  -1 0.17017 0.10343   3
   5   0   1 -0.9140 0.33566   1
   5   0   1 -0.1096 0.29213   2
   5   0   1 -0.1474 0.24532   1
  -6   0  -1 0.13956 0.09929   3
   6   0   1 0.39116 0.39960   2
  -6   0  -1 0.48109 0.31623   1
  -6   0  -1 0.49659 0.40911   2
   6   0   1 -0.5836 0.28193   1
   7   0   1 -0.3135 0.41558   2
  -7   0  -1 -0.1499 0.26731   1
  -7   0  -1 0.01583 0.45084   2
  -7   0  -1 0.19447 0.31107   1
   7   0   1 -0.1520 0.31462   1
   7   0   1 -0.3706 0.27691   1
  -8   0  -1 0.04516 0.30068   1
   8   0   1 0.55763 0.36202   1
  -8   0  -1 -0.8053 0.37410   1
   8   0   1 0.36034 0.44622   2
   8   0   1 0.26352 0.29245   1
  -8   0  -1 -0.1270 0.48327   2
   9   0   1 0.63509 0.38754   1
   9   0   1 0.94589 0.39465   1
  -9   0  -1 0.74312 0.34247   1
   9   0   1 -0.1883 0.46377   2
  -9   0  -1 0.79223 0.37411   1
  -9   0  -1 0.04775 0.42354   2
 -10   0  -1 0.57314 0.39565   1
  10   0   1 0.51827 0.35456   1
 -10   0  -1 -0.4136 0.28455   1
  10   0   1 -0.3570 0.45733   2
  10   0   1 -0.3801 0.32791   1
 -10   0  -1 0.41841 0.44135   2
 -11   0  -1 -0.5644 0.55431   2
  11   0   1 -0.1209 0.44525   2
 -11   0  -1 -0.3184 0.39188   1
  12   0   1 -0.1854 0.47037   2
 -12   0  -1 0.18734 0.56728   2
  13   0   1 0.40322 0.51896   2
 -13   0  -1 0.68860 0.61573   2
 -14   0  -1 -0.3121 0.59768   2
 -15   0  -1 -0.0634 0.60714   2
 -16   0  -1 -0.0623 0.68801   2
  16   0   1 -0.6896 0.49668   2
  17   0   1 0.14915 0.55669   2
 -18   0  -1 -0.1681 0.63049   2
  18   0   1 0.40136 0.60647   2
  19   0   1 0.69994 0.67274   2
 -19   0  -1 0.18376 0.67737   2
 -20   0  -1 0.23371 0.67342   2
  20   0   1 0.18714 0.64340   2
  20  -1  -1 29.9273 3.98456   2
 -20  -1   1 23.4217 3.43152   2
 -20   1   1 34.7447 4.43650   2
  19  -1  -1 52.7691 6.96023   2
 -19  -1   1 57.6777 7.42169   2
  19   1  -1 56.4776 7.28398   2
 -19   1   1 60.1522 7.63915   2
  18  -1  -1 3.87917 0.98068   2
 -18  -1   1 4.80538 1.08111   2
 -18   1   1 4.12879 1.02762   2
  18   1  -1 4.97601 1.01617   2
 -17  -1   1 16.4767 2.48753   2
  17  -1  -1 20.8426 2.83408   2
  17   1  -1 18.4813 2.66970   2
 -17   1   1 16.2226 2.41057   2
 -16  -1   1 85.6457 11.1036   2
  16  -1  -1 84.8535 11.0174   2
 -16   1   1 113.929 13.6778   2
  16   1  -1 95.4187 11.9586   2
  15  -1  -1 16.6217 2.37281   2
 -15  -1   1 17.5493 2.44773   2
 -15   1   1 16.5440 2.39890   2
  15   1  -1 16.8532 2.38979   2
  14  -1  -1 5.86054 1.12807   2
 -14  -1   1 5.05638 1.07393   2
 -14   1   1 4.93472 1.04021   2
  14   1  -1 5.96023 1.15543   2
  13  -1  -1 52.4552 6.37761   2
 -13  -1   1 31.6551 4.49026   2
 -13   1   1 50.6525 6.19847   2
  13   1  -1 39.9411 5.21072   2
 -12  -1   1 119.594 14.5405   2
  12  -1  -1 95.9882 12.4279   2
 -12   1   1 126.191 15.1693   2
  12   1  -1 95.5784 12.3882   2
 -11  -1   1 18.2027 3.37203   1
  11  -1  -1 19.5612 3.59287   1
 -11  -1   1 18.3691 3.41144   1
 -11  -1   1 21.9319 2.89997   2
  11  -1  -1 17.9334 3.34028   1
  11  -1  -1 20.7445 2.75034   2
 -11   1   1 16.9680 2.44423   2
  11   1  -1 19.1539 3.53250   1
  11   1  -1 21.6859 2.83549   2
 -11   1   1 23.9668 4.28189   1
 -11   1   1 18.8819 3.49619   1
  11   1  -1 16.7705 3.16150   1
 -10  -1   1 178.699 21.7003   2
  10  -1  -1 169.358 30.1167   1
  10  -1  -1 147.714 26.7930   1
 -10  -1   1 156.320 28.1085   1
  10  -1  -1 173.504 21.2354   2
 -10  -1   1 119.907 22.6184   1
  10   1  -1 149.430 19.0739   2
  10   1  -1 165.628 29.5317   1
 -10   1   1 200.470 23.7340   2
  10   1  -1 161.052 28.8256   1
 -10   1   1 191.150 33.5293   1
 -10   1   1 148.313 26.8906   1
  -9  -1   1 824.741 95.5527   2
  -9  -1   1 718.825 126.036   1
   9  -1  -1 771.605 134.352   1
  -9  -1   1 528.060 96.5335   1
  -9  -1   1 490.803 59.0834   3
   9  -1  -1 583.271 73.3679   2
   9  -1  -1 803.702 139.440   1
  -9   1   1 482.559 89.7362   1
  -9   1   1 721.596 126.449   1
   9   1  -1 637.593 113.334   1
   9   1  -1 666.046 80.7669   2
   9   1  -1 587.533 105.598   1
  -9   1   1 683.172 82.3092   2
   8  -1  -1 226.058 40.6009   1
  -8  -1   1 214.760 24.3658   3
  -8  -1   1 292.016 50.8987   1
   8  -1  -1 210.313 38.1905   1
   8  -1  -1 242.677 29.8339   2
  -8  -1   1 216.668 39.1462   1
  -8  -1   1 229.239 28.6365   2
  -8   1   1 262.863 31.6749   2
   8   1  -1 231.931 41.4832   1
   8   1  -1 240.173 42.7693   1
  -8   1   1 224.075 40.3024   1
  -8   1   1 249.240 44.1856   1
   8   1  -1 242.770 29.8265   2
  -7  -1   1 139.080 15.9417   3
   7  -1  -1 152.895 19.0943   2
  -7  -1   1 142.410 18.1521   2
   7  -1  -1 183.732 32.2071   1
  -7  -1   1 181.962 31.9235   1
   7  -1  -1 209.831 36.3455   1
   7   1  -1 138.607 15.9156   3
   7   1  -1 174.704 21.0407   2
   7   1  -1 138.020 25.1073   1
  -7   1   1 171.354 30.2581   1
  -7   1   1 167.686 20.4305   2
  -7   1   1 171.464 30.2663   1
   6  -1  -1 348.839 43.2488   2
  -6  -1   1 314.581 40.2406   2
   6  -1  -1 362.692 64.4708   1
  -6  -1   1 424.067 74.0693   1
   6  -1  -1 339.744 60.9254   1
  -6  -1   1 362.443 39.2823   3
  -6  -1   1 384.644 67.8892   1
   6   1  -1 339.114 37.6370   3
  -6   1   1 458.478 53.3827   2
  -6   1   1 410.489 71.9548   1
   6   1  -1 403.671 70.8532   1
   6   1  -1 297.808 54.5298   1
  -6   1   1 383.212 67.6542   1
   6   1  -1 301.773 39.1368   2
  -5  -1   1 39.8169 4.87358   2
   5  -1  -1 28.1240 3.85741   2
   5  -1  -1 37.0029 6.61670   1
   5  -1  -1 49.4060 8.57847   1
  -5  -1   1 32.4759 3.75790   3
   5   1  -1 53.9997 9.31472   1
   5   1  -1 49.8141 8.63339   1
  -5   1   1 32.6731 4.25338   2
  -5   1   1 45.0572 7.88643   1
   5   1  -1 35.8602 4.51083   2
  -5   1   1 50.9591 8.82061   1
   5   1  -1 35.4946 3.97683   3
  -4  -1   1 11.9982 1.46537   3
   4  -1  -1 14.8360 2.67238   1
   4  -1  -1 16.0983 2.86819   1
   4  -1  -1 16.3075 2.03451   2
   4   1  -1 16.9878 2.99756   1
  -4   1   1 16.3198 2.02620   2
  -4   1   1 17.2477 3.04456   1
  -4   1   1 17.1511 3.03446   1
   4   1  -1 12.3418 1.65190   2
   4   1  -1 10.0933 1.94534   1
  -4   1   1 12.5585 1.43965   3
   3  -1  -1 3073.82 539.586   1
  -3  -1   1 1853.67 354.150   1
   3  -1  -1 2668.14 330.320   2
  -3  -1   1 2661.81 292.383   3
   3  -1  -1 2521.30 282.603   3
  -3  -1   1 3427.40 595.473   1
   3  -1  -1 2227.44 409.326   1
  -3   1   1 2738.06 487.214   1
  -3   1   1 2916.75 310.544   3
   3   1  -1 2812.55 343.225   2
   3   1  -1 2532.14 283.354   3
   3   1  -1 3384.75 588.741   1
  -3   1   1 3161.53 553.509   1
   3   1  -1 2979.30 524.761   1
  -3   1   1 3127.70 372.000   2
  -2  -1   1 280.672 49.2740   1
  -2  -1   1 273.983 48.2160   1
   2  -1  -1 255.336 45.3237   1
  -2  -1   1 247.944 27.0671   3
   2  -1  -1 213.936 24.6929   3
   2  -1  -1 230.158 28.9782   2
   2  -1  -1 369.564 63.4326   1
   2   1  -1 214.873 27.6535   2
   2   1  -1 258.477 27.8233   3
  -2   1   1 260.369 46.1027   1
  -2   1   1 273.301 28.8701   3
  -2   1   1 257.219 45.6289   1
  -1  -1   1 5476.56 962.504   1
   1  -1  -1 5908.96 1030.62   1
   1  -1  -1 3903.57 517.264   2
   1  -1  -1 5125.13 550.201   3
  -1  -1   1 6255.64 633.847   3
   1  -1  -1 6265.90 1087.30   1
  -1  -1   1 5602.35 982.253   1
  -1   1   1 6028.42 1049.40   1
   1   1  -1 4574.50 511.426   3
  -1   1   1 3679.39 452.158   3
  -1   1   1 5869.35 1024.33   1
   1   1  -1 5877.22 692.920   2
   0  -1  -1 89.3413 11.1208   2
   0  -1  -1 107.682 18.8563   1
   0  -1   1 104.674 12.5039   2
   0  -1   1 105.929 18.5797   1
   0  -1  -1 91.2774 10.0383   3
   0  -1   1 69.6329 13.0136   1
   0  -1  -1 143.858 24.6194   1
   0  -1   1 110.365 11.4270   3
   0   1  -1 97.8974 11.8889   2
   0   1   1 81.4598 10.4205   2
   0   1   1 85.3128 9.61549   3
   0   1  -1 81.3718 9.34596   3
   1  -1   1 9.49368 1.67411   1
   1  -1   1 6.31719 0.86193   2
  -1  -1  -1 7.96950 0.91736   3
  -1  -1  -1 14.2620 2.43016   1
   1  -1   1 9.62551 1.68464   1
   1  -1   1 6.93236 0.82777   3
  -1  -1  -1 8.47923 1.50133   1
  -1   1  -1 7.88579 0.89908   3
   1   1   1 6.42794 0.83277   3
  -1   1  -1 10.0806 1.76193   1
   1   1   1 5.14282 0.73614   2
  -1   1  -1 6.52783 1.20984   1
   2  -1   1 3423.41 608.424   1
  -2  -1  -1 4478.07 774.642   1
  -2  -1  -1 3709.26 652.911   1
   2  -1   1 5425.29 926.625   1
  -2  -1  -1 3390.31 368.616   3
   2  -1   1 3237.53 403.089   2
  -2   1  -1 3901.70 463.274   2
   2   1   1 3581.91 433.905   2
   2   1   1 2794.06 327.769   3
  -2   1  -1 2332.81 443.931   1
  -2   1  -1 3437.09 371.942   3
  -2   1  -1 3489.54 618.701   1
   3  -1   1 971.842 112.808   3
   3  -1   1 1800.36 307.754   1
   3  -1   1 1417.59 165.963   2
   3  -1   1 1471.43 255.198   1
  -3   1  -1 922.749 109.573   3
   3   1   1 1083.72 194.450   1
   3   1   1 1126.00 139.232   2
   3   1   1 1330.20 232.880   1
  -3   1  -1 1146.93 141.094   2
  -3   1  -1 1089.17 195.268   1
   3   1   1 1102.41 121.743   3
  -3   1  -1 1732.84 296.893   1
  -4  -1  -1 812.402 92.8877   3
   4  -1   1 1044.55 124.653   2
   4  -1   1 877.916 157.390   1
   4  -1   1 933.625 166.042   1
   4   1   1 1128.58 196.614   1
  -4   1  -1 724.601 87.0735   3
  -4   1  -1 832.943 105.695   2
   4   1   1 973.851 172.191   1
   4   1   1 1250.88 144.082   2
  -4   1  -1 1038.40 182.434   1
  -4   1  -1 1215.47 210.439   1
   5  -1   1 1042.04 124.990   2
  -5  -1  -1 836.243 95.2303   3
   5  -1   1 994.778 175.920   1
  -5  -1  -1 1106.15 130.953   2
   5  -1   1 987.743 174.888   1
   5   1   1 940.296 115.753   2
   5   1   1 877.690 98.0741   3
  -5   1  -1 1058.46 185.947   1
  -5   1  -1 1187.08 206.189   1
   5   1   1 757.038 139.510   1
   5   1   1 775.897 142.338   1
  -5   1  -1 895.728 111.846   2
   6  -1   1 21.8955 3.90121   1
  -6  -1  -1 18.6794 2.43699   2
  -6  -1  -1 21.0896 3.76781   1
  -6  -1  -1 24.2643 4.26360   1
   6  -1   1 15.0928 2.85160   1
   6  -1   1 18.4785 2.42271   2
  -6  -1  -1 15.9971 1.93032   3
   6   1   1 20.9569 3.73915   1
  -6   1  -1 21.9640 3.91207   1
   6   1   1 20.9699 3.74839   1
  -6   1  -1 18.0406 2.39397   2
   6   1   1 16.7540 1.99494   3
  -6   1  -1 20.5898 3.69646   1
   6   1   1 17.8883 2.35211   2
  -7  -1  -1 -0.0157 0.32406   2
  -7  -1  -1 0.00000 0.28851   1
  -7  -1  -1 0.33354 0.24500   3
   7  -1   1 0.86411 0.38977   1
  -7  -1  -1 -0.2494 0.30497   1
   7  -1   1 0.14068 0.36846   2
   7  -1   1 0.14968 0.32662   1
  -7   1  -1 0.55725 0.46910   2
  -7   1  -1 0.14690 0.30566   1
   7   1   1 0.65447 0.35071   1
   7   1   1 -0.5661 0.35524   2
  -7   1  -1 0.13582 0.31866   1
   7   1   1 -0.0213 0.22462   3
   7   1   1 -0.7200 0.34666   1
   8  -1   1 16.7488 2.26888   2
  -8  -1  -1 20.6372 2.63711   2
  -8  -1  -1 22.6024 3.99311   1
  -8  -1  -1 14.7487 2.77271   1
  -8  -1  -1 17.0110 1.95810   3
   8  -1   1 16.8333 3.09736   1
   8  -1   1 16.5765 3.06203   1
   8   1   1 19.9061 3.57813   1
  -8   1  -1 11.7649 2.34790   1
   8   1   1 21.0965 2.65373   2
  -8   1  -1 20.5775 3.68345   1
   8   1   1 14.9544 2.80741   1
  -8   1  -1 15.7865 2.20106   2
  -9  -1  -1 109.453 19.5253   1
  -9  -1  -1 99.9407 11.2481   3
   9  -1   1 114.181 14.0123   2
  -9  -1  -1 103.619 18.6198   1
   9  -1   1 78.6400 14.8548   1
   9  -1   1 100.900 18.2005   1
  -9  -1  -1 105.892 13.2546   2
  -9   1  -1 109.883 19.5994   1
   9   1   1 115.191 14.0741   2
   9   1   1 108.614 19.3894   1
  -9   1  -1 106.995 13.3561   2
  -9   1  -1 118.454 20.9503   1
   9   1   1 131.783 23.0289   1
 -10  -1  -1 134.655 24.1872   1
 -10  -1  -1 133.522 24.0264   1
  10  -1   1 105.712 14.4824   2
 -10  -1  -1 150.144 18.3409   2
  10  -1   1 146.822 26.0716   1
  10  -1   1 150.586 26.6594   1
 -10   1  -1 131.508 23.7136   1
  10   1   1 151.001 26.7369   1
  10   1   1 144.429 17.8133   2
 -10   1  -1 222.351 38.0698   1
 -10   1  -1 158.487 19.1070   2
  10   1   1 141.717 25.2790   1
  11  -1   1 131.544 16.5534   2
 -11  -1  -1 131.035 16.4986   2
 -11   1  -1 134.036 16.8015   2
  11   1   1 142.643 17.5418   2
  12  -1   1 182.161 22.2884   2
 -12  -1  -1 199.376 23.8634   2
 -12   1  -1 141.319 18.6937   2
  12   1   1 174.326 21.5704   2
 -13  -1  -1 82.9468 10.1910   2
  13  -1   1 78.9929 9.82704   2
 -13   1  -1 74.5413 9.41170   2
  13   1   1 63.4983 8.44934   2
 -14  -1  -1 30.8284 4.07438   2
  14  -1   1 26.8668 3.73347   2
  14   1   1 34.1446 4.38606   2
 -14   1  -1 32.0273 4.19495   2
  15  -1   1 58.1818 7.01652   2
 -15  -1  -1 46.5684 5.94910   2
  15   1   1 49.9262 6.24888   2
 -15   1  -1 33.1269 4.78805   2
  16  -1   1 31.5280 4.27617   2
 -16  -1  -1 36.7797 4.76129   2
  16   1   1 39.9121 5.04597   2
 -16   1  -1 29.6947 4.13109   2
  17  -1   1 5.91962 1.14880   2
 -17  -1  -1 3.39917 0.91841   2
  17   1   1 3.23179 0.89753   2
 -17   1  -1 3.69540 0.95230   2
 -18  -1  -1 -0.1674 0.61399   2
  18  -1   1 0.21552 0.54574   2
 -18   1  -1 1.10928 0.64297   2
  18   1   1 1.96228 0.77493   2
 -19  -1  -1 0.91439 0.68504   2
  19  -1   1 0.42206 0.64491   2
  19   1   1 -0.3095 0.72965   2
 -19   1  -1 -0.1376 0.55571   2
  20  -1   1 0.94507 0.68584   2
 -20   1  -1 0.26158 0.69625   2
  20  -2  -1 3.14782 0.92670   2
 -20   2   1 2.22236 0.78543   2
  19  -2  -1 0.04666 0.54992   2
 -19   2   1 0.17409 0.55959   2
  18  -2  -1 13.4182 1.98263   2
 -18  -2   1 10.6713 1.80260   2
 -18   2   1 16.1558 2.26091   2
  18   2  -1 10.9590 1.79846   2
  17  -2  -1 33.6349 4.53766   2
 -17   2   1 38.7048 4.99074   2
 -16  -2   1 97.8161 12.2760   2
  16   2  -1 91.6533 11.7101   2
 -15  -2   1 38.9213 5.08161   2
  15  -2  -1 36.8157 4.87332   2
 -14  -2   1 18.2929 2.51025   2
  14  -2  -1 18.0037 2.49051   2
  14   2  -1 13.9741 2.11564   2
 -13  -2   1 252.660 31.4421   2
  13  -2  -1 271.232 33.1293   2
  13   2  -1 239.428 30.2679   2
 -12  -2   1 201.440 25.2618   2
  12  -2  -1 196.131 24.7843   2
  12   2  -1 224.954 27.3785   2
 -11  -2   1 66.1303 8.57466   2
  11  -2  -1 78.7059 9.75278   2
 -11  -2   1 66.5188 7.65152   3
  11   2  -1 73.0261 9.16486   2
 -11   2   1 81.7123 10.0175   2
 -10  -2   1 111.896 14.1059   2
 -10  -2   1 168.346 29.0264   1
 -10  -2   1 126.696 22.4190   1
  10  -2  -1 94.3995 17.4611   1
  10  -2  -1 120.100 21.3889   1
  10   2  -1 114.006 12.6636   3
 -10   2   1 144.798 25.2754   1
 -10   2   1 131.586 23.1898   1
  10   2  -1 122.193 21.7076   1
  10   2  -1 100.919 13.1210   2
  10   2  -1 122.058 21.6831   1
  -9  -2   1 4.05636 0.86511   1
  -9  -2   1 3.74953 0.74379   2
  -9  -2   1 4.60254 0.69692   3
  -9  -2   1 3.89641 0.83416   1
   9  -2  -1 4.27461 0.89356   1
   9  -2  -1 3.42411 0.81854   1
   9   2  -1 5.29695 0.85239   2
  -9   2   1 5.45317 1.10583   1
  -9   2   1 4.26955 0.91176   1
  -9   2   1 5.83761 0.95830   2
   9   2  -1 4.31159 0.88729   1
   9   2  -1 4.24873 0.89300   1
   9   2  -1 4.14875 0.70542   3
   8  -2  -1 51.0983 9.06431   1
  -8  -2   1 40.9088 4.78844   3
   8  -2  -1 49.5294 8.81626   1
  -8  -2   1 40.9785 5.35947   2
  -8  -2   1 58.1402 10.1657   1
  -8  -2   1 46.0652 8.26266   1
   8  -2  -1 48.1412 6.02812   2
   8   2  -1 43.0133 4.95202   3
   8   2  -1 46.5925 5.84969   2
   8   2  -1 44.1459 7.96974   1
  -8   2   1 63.4592 11.0189   1
   8   2  -1 41.3560 7.54311   1
  -8   2   1 44.7037 5.71317   2
  -8   2   1 50.6059 8.99601   1
   7  -2  -1 51.4895 6.49636   2
  -7  -2   1 63.4779 11.1129   1
  -7  -2   1 57.7692 10.2100   1
   7  -2  -1 41.5921 7.74133   1
   7  -2  -1 53.9764 9.62761   1
  -7  -2   1 54.6322 5.98174   3
  -7  -2   1 47.0727 6.07196   2
   7   2  -1 47.1968 5.46933   3
   7   2  -1 54.9755 9.77061   1
  -7   2   1 64.3363 11.2650   1
  -7   2   1 61.6507 10.8384   1
   7   2  -1 52.9438 9.45557   1
  -7   2   1 49.8437 6.35606   2
   7   2  -1 49.6894 6.29999   2
   6  -2  -1 9.57237 1.79006   1
  -6  -2   1 9.97344 1.22337   3
   6  -2  -1 9.69966 1.35590   2
   6  -2  -1 10.9067 2.01455   1
  -6  -2   1 7.95311 1.50490   1
  -6  -2   1 8.17273 1.16368   2
  -6  -2   1 10.7124 1.93404   1
   6   2  -1 9.11421 1.25218   2
   6   2  -1 10.2972 1.27618   3
   6   2  -1 9.38780 1.72487   1
   6   2  -1 9.63269 1.77114   1
  -6   2   1 7.73741 1.19600   2
  -6   2   1 10.5263 1.92246   1
   5  -2  -1 3509.25 616.048   1
  -5  -2   1 3397.32 598.649   1
   5  -2  -1 2674.51 344.842   2
  -5  -2   1 3308.71 353.176   3
   5  -2  -1 3037.63 542.649   1
  -5  -2   1 3173.86 563.822   1
   5   2  -1 3572.99 425.039   2
   5   2  -1 3859.67 671.456   1
  -5   2   1 3029.08 541.470   1
   5   2  -1 3441.45 605.504   1
  -5   2   1 3303.40 583.907   1
  -5   2   1 2875.49 322.554   3
  -5   2   1 2690.49 346.192   2
   4  -2  -1 1914.23 345.313   1
   4  -2  -1 2304.13 405.661   1
  -4  -2   1 2200.83 389.453   1
  -4  -2   1 2448.61 428.384   1
   4  -2  -1 2609.79 305.177   2
   4  -2  -1 2005.69 221.924   3
  -4  -2   1 1936.65 217.219   3
  -4   2   1 2603.16 452.754   1
   4   2  -1 2067.88 255.464   2
   4   2  -1 2025.25 223.349   3
   4   2  -1 2139.29 379.885   1
  -4   2   1 2075.98 226.915   3
   4   2  -1 1903.69 343.630   1
  -4   2   1 2268.54 400.083   1
  -4   2   1 1761.56 228.839   2
  -3  -2   1 12.7269 1.57796   3
  -3  -2   1 17.0296 2.99238   1
   3  -2  -1 17.1089 3.02671   1
   3  -2  -1 14.1877 1.82765   2
   3  -2  -1 13.2323 2.42592   1
   3  -2  -1 11.7089 1.46138   3
  -3   2   1 17.1420 3.03052   1
   3   2  -1 12.6665 2.30804   1
   3   2  -1 13.6841 1.67255   3
  -3   2   1 12.4422 1.51478   3
  -3   2   1 14.0684 1.82089   2
   3   2  -1 16.7642 2.94520   1
  -3   2   1 15.4583 2.76377   1
   3   2  -1 17.3401 2.07227   2
   2  -2  -1 850.386 148.290   1
  -2  -2   1 798.857 140.245   1
   2  -2  -1 948.959 163.944   1
  -2  -2   1 961.662 166.045   1
  -2  -2   1 718.959 77.9286   3
   2  -2  -1 678.811 84.5087   2
  -2   2   1 1065.55 182.620   1
  -2   2   1 482.366 62.2757   3
  -2   2   1 978.350 168.739   1
  -2   2   1 735.518 89.5883   2
   2   2  -1 749.603 80.1366   3
   1  -2  -1 1582.58 165.964   3
   1  -2  -1 2084.64 357.607   1
  -1  -2   1 1486.67 158.989   3
   1  -2  -1 1348.71 241.481   1
  -1   2   1 1080.14 145.061   2
  -1   2   1 1296.39 233.532   1
  -1   2   1 1527.61 269.297   1
   1   2  -1 1549.41 163.561   3
   0  -2  -1 320.198 56.2585   1
   0  -2   1 371.763 64.4129   1
   0  -2   1 224.525 27.0670   3
   0  -2  -1 302.579 32.4216   3
   0  -2  -1 308.625 54.4540   1
   0   2   1 268.368 48.2016   1
   0   2   1 290.458 31.5518   3
   0   2  -1 224.905 41.6321   1
   0   2  -1 288.353 31.4073   3
   0   2  -1 270.208 48.5088   1
   0   2  -1 345.586 40.6615   2
   0   2   1 332.093 58.1451   1
  -1  -2  -1 36.8847 4.36677   3
   1  -2   1 71.2880 12.1709   1
  -1  -2  -1 85.4912 14.4768   1
   1  -2   1 33.0496 4.10716   3
  -1  -2  -1 60.7200 10.4668   1
   1  -2   1 50.8203 8.89746   1
  -1   2  -1 43.4627 4.81539   3
   1   2   1 42.0975 4.73576   3
  -1   2  -1 34.9912 4.63007   2
   1   2   1 73.7251 12.5566   1
   1   2   1 68.5979 11.7351   1
  -1   2  -1 64.6463 11.1095   1
  -1   2  -1 56.5672 9.81664   1
  -2  -2  -1 249.671 44.1432   1
   2  -2   1 277.945 48.6025   1
   2  -2   1 361.171 61.8704   1
   2  -2   1 240.846 29.5076   2
  -2  -2  -1 253.488 27.0304   3
  -2   2  -1 222.556 39.9679   1
   2   2   1 213.422 38.5483   1
   2   2   1 299.924 52.0423   1
   2   2   1 244.820 26.4113   3
  -2   2  -1 219.972 27.6552   2
  -2   2  -1 220.681 39.6699   1
   2   2   1 189.773 25.0461   2
   3  -2   1 364.676 64.5782   1
   3  -2   1 410.821 48.6287   2
  -3  -2  -1 316.953 35.8130   3
   3  -2   1 305.579 55.4740   1
  -3  -2  -1 297.377 54.2169   1
   3  -2   1 386.455 40.7255   3
   3   2   1 309.106 39.4233   2
  -3   2  -1 309.806 35.2988   3
  -3   2  -1 360.719 44.0294   2
  -3   2  -1 358.905 63.6734   1
   3   2   1 421.864 73.5389   1
   3   2   1 346.660 37.8905   3
   3   2   1 347.547 61.9045   1
  -3   2  -1 387.973 68.2281   1
  -4  -2  -1 29.8834 5.27787   1
   4  -2   1 30.9632 3.76299   2
  -4  -2  -1 26.9492 4.81647   1
   4  -2   1 27.1245 4.85643   1
   4  -2   1 25.1050 4.54615   1
   4   2   1 30.0914 5.30948   1
   4   2   1 29.9037 5.27618   1
   4   2   1 31.0212 3.73756   2
  -4   2  -1 21.8695 2.95638   2
  -4   2  -1 21.6138 4.01816   1
  -4   2  -1 21.9722 2.64532   3
   4   2   1 25.3930 2.94124   3
  -4   2  -1 25.9362 4.67037   1
  -5  -2  -1 135.781 17.6651   2
   5  -2   1 173.541 21.0295   2
  -5  -2  -1 130.017 15.4829   3
   5  -2   1 213.437 36.9477   1
   5  -2   1 174.991 30.8878   1
  -5  -2  -1 179.077 31.5079   1
  -5  -2  -1 182.926 32.1059   1
  -5   2  -1 175.294 21.1958   2
  -5   2  -1 148.256 26.7334   1
   5   2   1 207.052 35.9200   1
  -5   2  -1 251.475 43.0580   1
   5   2   1 141.944 18.1845   2
  -5   2  -1 152.795 16.9810   3
   5   2   1 189.776 33.2010   1
  -6  -2  -1 108.053 11.2163   3
  -6  -2  -1 101.297 17.8160   1
  -6  -2  -1 88.6608 11.0305   2
  -6  -2  -1 97.8300 17.2736   1
   6  -2   1 96.4490 11.7599   2
   6  -2   1 85.0840 15.2990   1
   6  -2   1 88.8449 15.8751   1
  -6   2  -1 75.6542 9.91810   2
  -6   2  -1 83.3987 15.0406   1
   6   2   1 76.3193 9.93633   2
   6   2   1 86.0373 15.4354   1
   6   2   1 105.529 18.4775   1
   6   2   1 86.7222 9.66396   3
   7  -2   1 397.760 69.0169   1
  -7  -2  -1 306.135 54.6078   1
  -7  -2  -1 292.561 36.6424   2
   7  -2   1 268.474 34.5619   2
   7  -2   1 278.553 50.3886   1
  -7  -2  -1 391.161 67.9439   1
  -7  -2  -1 347.552 36.5097   3
   7   2   1 373.014 65.0879   1
  -7   2  -1 334.476 40.4312   2
   7   2   1 339.793 59.8485   1
   7   2   1 337.515 40.6685   2
  -7   2  -1 256.814 47.0636   1
   7   2   1 296.051 32.8200   3
  -7   2  -1 221.693 41.8775   1
  -8  -2  -1 849.107 93.7381   3
   8  -2   1 673.913 125.435   1
   8  -2   1 903.780 160.437   1
  -8  -2  -1 913.069 161.854   1
  -8  -2  -1 945.013 166.774   1
  -8  -2  -1 897.162 109.886   2
  -8   2  -1 1152.43 199.595   1
   8   2   1 905.030 160.658   1
  -8   2  -1 842.458 105.059   2
   8   2   1 870.910 155.350   1
  -8   2  -1 853.455 152.637   1
   8   2   1 833.582 104.294   2
   8   2   1 931.623 99.6150   3
  -9  -2  -1 94.7852 16.9371   1
  -9  -2  -1 107.349 18.8865   1
  -9  -2  -1 96.2838 10.5222   3
  -9  -2  -1 75.4671 10.1194   2
   9  -2   1 103.239 18.2511   1
   9  -2   1 103.723 18.3272   1
  -9   2  -1 106.676 18.7939   1
  -9   2  -1 76.4102 14.1357   1
   9   2   1 81.9589 9.54057   3
  -9   2  -1 117.961 13.9684   2
   9   2   1 113.057 19.7984   1
   9   2   1 101.118 12.3677   2
   9   2   1 84.9749 15.4141   1
 -10  -2  -1 8.25673 1.64799   1
 -10  -2  -1 9.84214 1.26932   3
 -10  -2  -1 9.72809 1.45383   2
  10  -2   1 13.2720 2.42248   1
  10   2   1 11.7272 1.64043   2
 -10   2  -1 10.2182 1.56178   2
  11  -2   1 186.894 24.9452   2
 -11  -2  -1 220.952 27.8606   2
 -11  -2  -1 234.765 25.6877   3
  11   2   1 246.457 30.1343   2
 -11   2  -1 382.532 43.1001   2
  12  -2   1 95.5798 12.1834   2
 -12  -2  -1 95.1806 12.1264   2
  12   2   1 109.973 13.4553   2
  13  -2   1 7.35665 1.28550   2
 -13  -2  -1 9.30128 1.46264   2
  13   2   1 8.56492 1.37579   2
  14  -2   1 24.7906 3.40276   2
 -14  -2  -1 24.8850 3.40741   2
  14   2   1 30.7169 3.96428   2
 -15  -2  -1 14.6055 2.24234   2
  15  -2   1 19.9217 2.68925   2
  16  -2   1 62.9184 7.75225   2
  16   2   1 44.7596 6.13699   2
 -16   2  -1 56.2505 7.12968   2
  17  -2   1 83.1259 10.3875   2
 -17  -2  -1 78.5479 10.0042   2
 -17   2  -1 82.7884 10.3209   2
  17   2   1 67.0812 8.93312   2
 -18  -2  -1 25.8448 3.57189   2
  18  -2   1 26.1734 3.55368   2
  18   2   1 21.9630 3.19621   2
 -18   2  -1 30.7955 3.97436   2
  19  -2   1 11.5764 1.85405   2
 -19   2  -1 13.6285 2.05006   2
  19  -3  -1 2.50493 0.87362   2
 -19   3   1 3.79738 0.93256   2
  18  -3  -1 2.07080 0.77587   2
 -18   3   1 4.82866 1.00003   2
  17  -3  -1 10.5005 1.64330   2
 -17   3   1 8.33064 1.50696   2
  16  -3  -1 19.2682 2.61340   2
 -16   3   1 12.6700 2.03153   2
  15  -3  -1 5.06187 1.02817   2
 -15   3   1 5.78234 1.15314   2
  14  -3  -1 1.80915 0.64915   2
 -14   3   1 2.96584 0.82309   2
  13  -3  -1 27.4527 3.74614   2
  13   3  -1 31.1682 4.06941   2
 -13   3   1 30.6097 4.04467   2
  12  -3  -1 21.6586 2.91766   2
 -12  -3   1 20.2607 2.46405   3
 -12   3   1 24.0027 3.15530   2
  12   3  -1 19.4547 2.44025   3
  12   3  -1 19.3311 2.68718   2
 -11  -3   1 18.9699 2.28521   3
  11  -3  -1 15.5361 2.27409   2
  11   3  -1 19.5079 2.36266   3
 -11   3   1 21.0018 2.77557   2
  11   3  -1 17.7237 2.43430   2
  10  -3  -1 51.2908 6.61513   2
  10   3  -1 45.0838 6.02062   2
 -10   3   1 79.3921 9.24570   2
  -9  -3   1 4.17190 0.83424   1
  -9  -3   1 4.12629 0.73241   3
   9  -3  -1 3.37033 0.77840   1
   9  -3  -1 3.36075 0.72743   2
  -9  -3   1 3.32359 0.72134   1
  -9   3   1 3.95476 0.78765   2
  -9   3   1 3.94707 0.89737   1
   9   3  -1 3.08143 0.68137   1
   9   3  -1 4.69099 0.78703   2
   9   3  -1 4.59621 0.82684   3
  -8  -3   1 111.611 12.4393   3
   8  -3  -1 93.7140 17.2858   1
   8  -3  -1 104.128 18.8683   1
   8  -3  -1 149.364 17.4788   2
  -8  -3   1 109.672 19.7009   1
  -8   3   1 110.076 19.7794   1
   8   3  -1 117.692 14.4884   2
   8   3  -1 120.464 13.0955   3
   8   3  -1 114.795 20.4945   1
  -8   3   1 95.6399 17.5828   1
  -8   3   1 109.610 13.8289   2
   8   3  -1 110.799 19.8761   1
   7  -3  -1 88.3912 15.4250   1
  -7  -3   1 58.1598 6.99631   3
  -7  -3   1 86.7063 15.1440   1
   7  -3  -1 61.0081 7.99965   2
   7  -3  -1 73.6974 13.1161   1
   7   3  -1 63.1918 11.4774   1
  -7   3   1 97.2336 16.8444   1
   7   3  -1 65.4205 11.8162   1
  -7   3   1 82.1898 9.90470   2
  -7   3   1 62.5692 11.4054   1
   7   3  -1 78.3781 8.44143   3
   6  -3  -1 241.955 43.3055   1
   6  -3  -1 236.618 42.4850   1
  -6  -3   1 322.995 56.0098   1
  -6  -3   1 231.962 26.0729   3
  -6   3   1 242.995 43.4748   1
   6   3  -1 251.427 44.7493   1
  -6   3   1 245.982 30.4970   2
  -6   3   1 264.588 28.3298   3
   6   3  -1 252.567 44.9307   1
  -6   3   1 212.074 38.7475   1
  -5  -3   1 9.98650 1.27899   3
   5  -3  -1 6.95010 1.02436   2
   5  -3  -1 5.02266 1.04307   1
   5  -3  -1 7.35117 1.39247   1
   5   3  -1 9.45642 1.68351   1
  -5   3   1 6.65149 1.01968   2
   5   3  -1 9.94297 1.76247   1
  -5   3   1 7.57145 1.42454   1
   5   3  -1 8.33961 1.17615   3
  -5   3   1 9.11921 1.12735   3
  -5   3   1 7.72602 1.44941   1
   4  -3  -1 127.901 24.4707   1
   4  -3  -1 178.126 31.9824   1
   4  -3  -1 227.057 23.4395   3
  -4  -3   1 169.389 19.3232   3
  -4   3   1 230.258 27.1094   2
   4   3  -1 185.643 20.4721   3
  -4   3   1 190.278 33.8731   1
  -4   3   1 196.199 21.1769   3
  -4   3   1 183.107 32.7497   1
  -3  -3   1 0.12022 0.39930   3
   3  -3  -1 0.02586 0.16575   1
   3  -3  -1 0.74198 0.36158   3
  -3   3   1 0.75192 0.22844   1
  -3   3   1 0.77077 0.26917   2
   3   3  -1 0.46581 0.49221   3
  -3   3   1 0.26803 0.39895   3
  -3   3   1 0.31522 0.20132   1
   2  -3  -1 17.0120 2.06177   3
  -2  -3   1 18.7832 2.21630   3
   2  -3  -1 18.2117 3.27901   1
  -2   3   1 18.2016 3.27409   1
   2   3  -1 16.3893 2.08213   3
  -2   3   1 20.6187 3.65362   1
  -2   3   1 19.7454 2.27361   3
  -1  -3   1 34.6293 3.81322   3
   1  -3  -1 30.4549 5.45495   1
  -1   3   1 27.9852 5.07569   1
   1   3  -1 29.0816 3.42424   3
  -1   3   1 38.1025 6.65333   1
  -1   3   1 28.5017 3.36759   3
   0  -3  -1 0.78780 0.40992   3
   0  -3   1 0.76228 0.41766   3
   0   3   1 0.61208 0.50731   3
  -1  -3  -1 12.3157 1.48111   3
   1  -3   1 9.75269 1.28816   3
   1  -3   1 12.8955 2.27115   1
  -1   3  -1 8.05679 1.19169   3
  -1   3  -1 12.6502 2.23556   1
   1   3   1 11.3805 1.43969   3
  -1   3  -1 9.70746 1.77081   1
  -2  -3  -1 128.855 14.4086   3
   2  -3   1 147.156 25.9591   1
   2  -3   1 130.665 14.5326   3
  -2   3  -1 121.215 21.9567   1
  -2   3  -1 154.421 18.4716   2
  -2   3  -1 140.173 24.8804   1
  -2   3  -1 114.660 13.4331   3
   2   3   1 150.247 15.9583   3
  -3  -3  -1 106.236 11.8444   3
   3  -3   1 117.609 12.6390   3
   3  -3   1 105.204 18.8737   1
  -3   3  -1 111.438 12.1987   3
  -3   3  -1 100.348 18.1192   1
  -3   3  -1 94.4042 12.2314   2
  -3   3  -1 200.362 34.0489   1
   3   3   1 110.241 12.1378   3
  -4  -3  -1 254.854 26.8763   3
   4  -3   1 206.230 37.2657   1
   4  -3   1 220.073 24.3448   3
   4  -3   1 270.154 47.2304   1
   4   3   1 229.882 40.8888   1
  -4   3  -1 169.595 31.7572   1
   4   3   1 250.117 44.0325   1
   4   3   1 225.622 24.7794   3
  -4   3  -1 233.659 25.3079   3
  -4   3  -1 207.149 37.4123   1
   5  -3   1 216.851 36.9956   1
   5  -3   1 111.558 14.4383   2
   5   3   1 125.406 22.4294   1
  -5   3  -1 112.054 14.4789   2
   5   3   1 140.289 24.7448   1
  -5   3  -1 143.306 25.2391   1
   5   3   1 144.365 15.3026   3
   6  -3   1 1.85913 0.52021   1
  -6  -3  -1 1.86470 0.45269   1
   6  -3   1 1.00041 0.48269   2
  -6  -3  -1 1.50728 0.49882   3
   6   3   1 0.96306 0.31044   1
   6   3   1 0.46494 0.53191   3
  -6   3  -1 1.08793 0.41178   1
  -6   3  -1 1.40848 0.45937   1
  -6   3  -1 0.99635 0.44921   2
   6   3   1 1.40356 0.36501   1
   7  -3   1 11.5917 2.14254   1
  -7  -3  -1 12.6817 1.54302   3
   7  -3   1 11.7794 2.19616   1
  -7  -3  -1 12.8774 2.33253   1
   7  -3   1 9.70881 1.43425   2
  -7   3  -1 12.1627 2.23020   1
  -7   3  -1 13.2491 2.39906   1
  -7   3  -1 12.0843 1.66411   2
   7   3   1 10.4318 1.44462   2
   7   3   1 8.63380 1.67066   1
   7   3   1 10.5957 1.95907   1
   7   3   1 8.66204 1.33094   3
   8  -3   1 2.57178 0.67244   2
  -8  -3  -1 3.43655 0.65139   3
   8  -3   1 3.12039 0.69853   1
  -8  -3  -1 2.43604 0.60978   1
  -8  -3  -1 2.98163 0.62616   1
   8  -3   1 4.43181 0.93764   1
   8   3   1 3.69276 0.68962   2
   8   3   1 2.88194 0.71666   3
  -8   3  -1 4.32197 0.89320   1
   8   3   1 2.26560 0.56150   1
   8   3   1 4.14515 0.81939   1
  -8   3  -1 3.46553 0.77487   2
  -8   3  -1 2.20081 0.58504   1
   9  -3   1 0.09406 0.44697   2
   9   3   1 0.34998 0.46916   2
  -9   3  -1 0.55096 0.47971   2
  10  -3   1 44.5971 5.62196   2
 -10  -3  -1 40.6220 4.65347   3
 -10   3  -1 39.3252 5.14837   2
  10   3   1 42.5879 5.40611   2
  10   3   1 38.2324 4.51088   3
  11  -3   1 109.302 13.2972   2
 -11  -3  -1 96.2717 10.6940   3
 -11   3  -1 86.1348 11.2065   2
 -12  -3  -1 0.13908 0.45088   3
  12  -3   1 -0.0465 0.48752   2
  12   3   1 0.64129 0.55303   2
 -12   3  -1 -0.3303 0.57160   2
  13  -3   1 0.18382 0.52661   2
  13   3   1 -0.3789 0.57381   2
 -13   3  -1 0.58009 0.56976   2
  14  -3   1 15.5039 2.29264   2
 -14   3  -1 19.5206 2.68470   2
  15  -3   1 0.55616 0.57771   2
 -15   3  -1 0.57290 0.62454   2
  16  -3   1 0.00000 0.68576   2
 -16   3  -1 0.29971 0.67705   2
  17  -3   1 6.17834 1.15879   2
 -17   3  -1 5.84258 1.14935   2
  18  -3   1 5.33173 1.09739   2
 -18   3  -1 3.07706 0.93333   2
  17  -4  -1 0.71625 0.70497   2
  16  -4  -1 7.13737 1.26213   2
  15  -4  -1 25.5681 3.48537   2
  14  -4  -1 24.6240 3.38701   2
 -13  -4   1 30.0648 3.54578   3
  13  -4  -1 28.7828 3.91651   2
  13   4  -1 30.3881 3.60730   3
  12  -4  -1 40.8157 5.30853   2
 -12  -4   1 39.6136 4.60972   3
  11  -4  -1 0.24513 0.49761   2
 -11  -4   1 0.59743 0.50284   3
 -11   4   1 0.52112 0.51284   2
  11   4  -1 1.03472 0.69505   3
 -10  -4   1 16.7591 2.09066   3
 -10   4   1 14.2001 2.10432   2
  10   4  -1 17.4952 2.20598   3
  -9  -4   1 1.97604 0.63427   3
   9   4  -1 2.73516 0.75007   3
  -9   4   1 3.15604 0.70505   2
  -8  -4   1 227.671 24.2137   3
   8  -4  -1 204.063 25.3914   2
  -8   4   1 216.526 26.4844   2
   8   4  -1 177.085 20.6624   3
   7  -4  -1 69.5221 8.71912   2
  -7  -4   1 61.7431 11.2128   1
  -7  -4   1 69.4643 7.77168   3
  -7   4   1 69.0384 8.67013   2
   6  -4  -1 0.83191 0.29508   1
   6  -4  -1 -0.0518 0.23856   1
  -6   4   1 -0.0587 0.44777   3
  -6   4   1 0.21209 0.26110   1
   6   4  -1 0.23502 0.59758   3
  -6   4   1 0.36561 0.39065   2
  -5  -4   1 396.576 42.3175   3
   5  -4  -1 464.477 80.7307   1
   5  -4  -1 378.025 40.9300   3
  -5   4   1 328.802 41.9679   2
   5   4  -1 344.194 38.6044   3
  -5   4   1 353.268 63.3056   1
   4  -4  -1 33.9655 6.07005   1
   4  -4  -1 35.1312 3.90929   3
  -4   4   1 31.2147 3.66175   3
  -4   4   1 31.2837 5.65432   1
  -4   4   1 28.9055 5.28846   1
  -2  -4   1 225.492 24.7043   3
   2  -4  -1 217.527 24.1307   3
   2  -4  -1 220.467 39.3741   1
  -2   4   1 198.084 22.7967   3
   2   4  -1 262.722 27.4490   3
   1  -4  -1 27.1915 3.11743   3
  -1  -4   1 22.8964 2.83188   3
  -1   4   1 27.3061 3.16688   3
   0  -4  -1 23.6371 2.85813   3
   0   4   1 28.7748 3.25876   3
   0   4  -1 23.6006 2.89363   3
  -1  -4  -1 83.3446 9.45899   3
   1  -4   1 103.324 10.9110   3
  -1   4  -1 85.0569 9.60340   3
   1   4   1 82.3080 9.40154   3
   2  -4   1 14.7943 1.85507   3
  -2  -4  -1 16.2914 1.96471   3
   2  -4   1 16.5076 2.94137   1
   2   4   1 12.3818 1.74867   3
  -2   4  -1 16.9022 2.03941   3
  -2   4  -1 13.3980 2.46232   1
  -2   4  -1 14.9388 2.70204   1
   3  -4   1 5.40313 1.02873   1
   3  -4   1 6.89758 1.01210   3
  -3   4  -1 5.16612 0.99981   1
  -3   4  -1 5.80115 0.94329   3
  -3   4  -1 5.65718 1.07404   1
   4  -4   1 20.1535 2.39496   3
   4  -4   1 16.9751 3.15046   1
  -4  -4  -1 19.6539 2.36052   3
   4   4   1 19.9722 2.42204   3
  -4   4  -1 22.5101 2.61008   3
  -4   4  -1 15.4247 2.91678   1
  -4   4  -1 20.1756 3.63604   1
  -5  -4  -1 56.2210 6.05529   3
   5  -4   1 43.1447 7.88017   1
   5  -4   1 41.7359 7.67091   1
  -5   4  -1 47.6913 5.42278   3
   5   4   1 47.3270 5.42620   3
  -5   4  -1 38.5870 7.19234   1
  -5   4  -1 52.2341 6.45204   2
  -5   4  -1 57.1117 10.0603   1
  -6  -4  -1 112.390 19.7736   1
   6  -4   1 88.1073 16.0474   1
   6   4   1 99.3871 11.0595   3
  -6   4  -1 92.3794 10.5302   3
  -6   4  -1 106.859 13.0947   2
  -7  -4  -1 67.3511 7.61363   3
   7  -4   1 61.4250 8.00564   2
   7   4   1 79.0987 8.49403   3
  -7   4  -1 70.5549 8.82643   2
  -8  -4  -1 79.3410 9.23265   3
   8   4   1 103.506 10.9932   3
  -8   4  -1 86.6261 10.9605   2
  -9  -4  -1 33.0471 3.79049   3
  -9   4  -1 30.3648 4.02875   2
   9   4   1 30.7414 3.66617   3
 -10  -4  -1 8.97712 1.29888   3
  10   4   1 9.98454 1.40435   3
 -10   4  -1 9.41268 1.48465   2
  11  -4   1 5.75569 1.05007   2
  11   4   1 4.13821 0.93820   3
 -11   4  -1 2.85325 0.79708   2
 -12  -4  -1 6.18164 1.02063   3
  12  -4   1 5.09601 1.01742   2
  12   4   1 8.01056 1.22273   3
  13  -4   1 48.4997 6.03039   2
 -13  -4  -1 33.9257 4.16686   3
  14  -4   1 5.38745 1.06036   2
  15  -4   1 3.01918 0.86757   2
  16  -4   1 2.88631 0.89802   2
 -13  -5   1 2.43739 0.74501   3
  13   5  -1 2.31517 0.83113   3
  12   5  -1 4.15359 1.00149   3
 -11  -5   1 10.3298 1.49593   3
  11   5  -1 9.50028 1.48692   3
 -10  -5   1 -0.1807 0.51678   3
  10   5  -1 0.18807 0.69930   3
  -9  -5   1 165.772 18.2721   3
   9   5  -1 160.548 17.9324   3
  -8  -5   1 230.094 24.9838   3
   8   5  -1 210.249 23.6121   3
   7   5  -1 49.6493 5.71933   3
  -6  -5   1 92.3276 9.77860   3
   6   5  -1 79.8433 8.90945   3
  -6   5   1 66.3886 7.92065   3
  -5  -5   1 0.44875 0.54557   3
   5   5  -1 -0.3180 0.66655   3
   4  -5  -1 31.9956 3.95111   3
  -4  -5   1 42.5585 4.73169   3
   4   5  -1 41.5892 4.67648   3
   3  -5  -1 78.1863 8.35428   3
  -3  -5   1 60.9384 7.13195   3
   3   5  -1 68.8797 7.70366   3
  -3   5   1 62.7925 7.25694   3
  -2  -5   1 337.125 33.6076   3
   2  -5  -1 245.346 26.6849   3
  -2   5   1 228.607 25.5096   3
   2   5  -1 196.879 23.3606   3
   1  -5  -1 184.600 21.3452   3
  -1   5   1 208.190 22.9922   3
   1   5  -1 247.377 25.8579   3
   0  -5  -1 57.8718 6.21277   3
   0  -5   1 41.6584 5.06329   3
   0   5   1 49.2662 5.60830   3
   0   5  -1 48.2208 5.53862   3
  -1  -5  -1 73.0462 7.80027   3
   1  -5   1 52.5550 6.35023   3
  -1   5  -1 64.5896 7.21223   3
  -2  -5  -1 51.6101 6.18015   3
   2  -5   1 77.0641 8.05902   3
   2   5   1 58.4839 6.67978   3
   3  -5   1 97.0159 11.0616   3
  -3  -5  -1 97.2707 11.0584   3
  -3   5  -1 120.413 12.7575   3
   3   5   1 100.681 11.3174   3
  -4  -5  -1 45.9750 5.54397   3
   4  -5   1 60.0351 6.55095   3
   4   5   1 49.8355 5.82533   3
  -4   5  -1 61.5024 6.69045   3
  -5  -5  -1 28.0359 3.18870   3
   5   5   1 21.2761 2.75580   3
  -6  -5  -1 0.31728 0.43710   3
   6   5   1 -1.1448 0.63339   3
  -7  -5  -1 3.07010 0.76010   3
  -8  -5  -1 26.5724 3.15121   3
   8   5   1 24.7770 3.06590   3
  -9  -5  -1 4.15448 0.84879   3
   9   5   1 3.97399 0.92056   3
 -10  -5  -1 45.4355 5.27808   3
  10   5   1 48.0380 5.49869   3
 -11  -5  -1 39.8939 4.50107   3
  11   5   1 33.5828 4.09600   3
 -12  -5  -1 37.3262 4.37562   3
 -13  -5  -1 31.8626 3.63243   3
  13   5   1 24.7161 3.13189   3
  13   6  -1 3.64256 1.01767   3
 -12  -6   1 51.2736 6.07128   3
  12   6  -1 61.5311 6.84427   3
 -11  -6   1 4.32145 0.92421   3
  11   6  -1 4.12445 0.99636   3
 -10  -6   1 26.1886 3.28292   3
  10   6  -1 31.0118 3.64025   3
  -9  -6   1 0.14917 0.56130   3
   9   6  -1 0.06604 0.74931   3
  -8  -6   1 2.49656 0.68318   3
   8   6  -1 2.57709 0.90881   3
  -7  -6   1 0.71838 0.58230   3
   7   6  -1 -0.3892 0.60472   3
  -6  -6   1 2.13482 0.66742   3
   6   6  -1 1.84416 0.79702   3
  -5  -6   1 29.6483 3.44876   3
   5  -6  -1 22.9164 2.98572   3
   5   6  -1 30.4306 3.59394   3
  -5   6   1 31.5134 3.64716   3
   4  -6  -1 33.6698 3.87973   3
  -4  -6   1 31.4311 3.70920   3
  -4   6   1 36.3853 4.12092   3
   4   6  -1 26.3153 3.41845   3
  -3  -6   1 23.4240 2.85104   3
   3  -6  -1 21.8437 2.75428   3
   3   6  -1 27.0004 3.20768   3
   2  -6  -1 48.3739 5.47342   3
   2   6  -1 43.2821 5.17916   3
  -2   6   1 46.7377 5.40518   3
  -1  -6   1 31.7800 3.81031   3
   1  -6  -1 36.7382 4.17132   3
   1   6  -1 32.8125 3.96126   3
  -1   6   1 31.4689 3.83144   3
   0  -6  -1 289.349 31.2436   3
   0  -6   1 284.513 30.9107   3
   0   6   1 246.598 28.2723   3
   0   6  -1 277.739 30.4699   3
  -1  -6  -1 1.65647 0.64720   3
   1  -6   1 1.32008 0.63612   3
  -1   6  -1 2.38571 0.86942   3
   1   6   1 0.73069 0.67150   3
  -2  -6  -1 3.19019 0.77063   3
   2  -6   1 3.05916 0.77345   3
  -2   6  -1 3.92900 0.99823   3
  -3  -6  -1 0.82018 0.51479   3
   3  -6   1 1.46918 0.64479   3
   3   6   1 1.46542 0.79526   3
  -4  -6  -1 15.7395 2.05010   3
   4  -6   1 17.7101 2.19475   3
  -4   6  -1 16.8577 2.20781   3
   4   6   1 15.5325 2.12762   3
  -5  -6  -1 0.96010 0.58607   3
   5   6   1 -0.7519 0.74397   3
  -6  -6  -1 29.4261 3.60088   3
   6   6   1 35.0129 4.03582   3
  -7  -6  -1 102.133 11.5976   3
   7   6   1 109.990 12.1558   3
  -8  -6  -1 15.6316 2.03315   3
  -9  -6  -1 8.04589 1.26144   3
   9   6   1 8.74888 1.38506   3
 -10  -6  -1 2.15474 0.70358   3
  10   6   1 2.95763 0.84812   3
 -11  -6  -1 -0.1660 0.58859   3
  11   6   1 0.75000 0.71920   3
  12   6   1 0.82914 0.82206   3
  11   7  -1 1.59284 0.82184   3
 -10  -7   1 4.56898 0.93197   3
  10   7  -1 3.50863 1.01197   3
  -9  -7   1 1.02975 0.65349   3
  -8  -7   1 8.18994 1.29618   3
   8   7  -1 7.38490 1.33260   3
  -7  -7   1 1.29587 0.65243   3
   7   7  -1 0.07599 0.64371   3
  -6  -7   1 4.90866 0.97227   3
   6   7  -1 4.16752 1.00953   3
  -5  -7   1 4.76405 0.93372   3
   5   7  -1 2.85690 0.86866   3
   4  -7  -1 27.7705 3.25794   3
  -4  -7   1 25.0950 3.05897   3
  -4   7   1 21.8002 2.85976   3
   4   7  -1 23.9781 3.04284   3
   3  -7  -1 -0.4947 0.73694   3
   3   7  -1 1.39971 0.86676   3
  -3   7   1 0.58060 0.75696   3
   2  -7  -1 32.2013 3.66976   3
  -2  -7   1 28.0593 3.35011   3
   2   7  -1 22.7629 3.01270   3
   1  -7  -1 13.1538 1.80864   3
  -1  -7   1 11.8603 1.66559   3
  -1   7   1 13.2688 1.86052   3
   1   7  -1 10.4376 1.64647   3
   0  -7   1 9.05494 1.38107   3
   0  -7  -1 8.08614 1.31777   3
   0   7  -1 11.1451 1.61064   3
   0   7   1 7.89987 1.37290   3
  -1  -7  -1 -0.0558 0.65178   3
   1  -7   1 0.63572 0.69615   3
  -1   7  -1 0.30540 0.82515   3
   1   7   1 0.20047 0.70421   3
  -2  -7  -1 50.5723 5.46268   3
   2  -7   1 41.8531 4.90371   3
   2   7   1 30.2309 4.04555   3
  -2   7  -1 48.1121 5.35204   3
  -4  -7  -1 0.44054 0.63513   3
   4   7   1 0.96916 0.76894   3
  -5  -7  -1 8.89289 1.42107   3
   5   7   1 12.5054 1.72211   3
  -6  -7  -1 0.79292 0.63695   3
   6   7   1 1.20214 0.77842   3
  -7  -7  -1 2.70582 0.77018   3
   7   7   1 2.92007 0.90171   3
   8   7   1 1.42759 0.81600   3
  -9  -7  -1 18.5941 2.31331   3
   9   7   1 16.0083 2.18874   3
 -10  -7  -1 -0.1352 0.54784   3
  10   7   1 -0.3716 0.69686   3
  -6  -8   1 0.67327 0.66135   3
   6   8  -1 1.52982 0.86336   3
  -5  -8   1 3.58687 0.85640   3
   5   8  -1 3.06261 0.96563   3
   4   8  -1 34.6196 4.14753   3
  -3  -8   1 0.79138 0.62429   3
   3   8  -1 0.03285 0.74605   3
  -2  -8   1 0.87190 0.71844   3
   2   8  -1 1.14665 0.81565   3
   1  -8  -1 6.75333 1.26421   3
  -1  -8   1 9.83956 1.45563   3
   1   8  -1 8.88882 1.46319   3
   0  -8  -1 0.86915 0.54918   3
   0  -8   1 1.02144 0.72264   3
   0   8  -1 0.60501 0.81166   3
   0   8   1 2.74231 0.85678   3
  -1  -8  -1 5.45295 0.99283   3
   1   8   1 4.27662 1.01241   3
  -2  -8  -1 7.90576 1.25200   3
   2   8   1 7.08565 1.24630   3
  -3  -8  -1 2.77042 0.76967   3
   3   8   1 4.07899 0.97536   3
  -4  -8  -1 1.57011 0.67835   3
  -5  -8  -1 6.32925 1.11155   3
   5   8   1 6.43713 1.21395   3
  -6  -8  -1 2.97258 0.79600   3
   6   8   1 2.19242 0.85129   3
 -20   0   2 29.6247 3.93981   2
  20   0  -2 25.0607 3.50397   2
  19   0  -2 -0.4928 0.57470   2
 -19   0   2 -0.9167 0.69850   2
  18   0  -2 26.9781 3.65378   2
  17   0  -2 252.247 31.4038   2
  16   0  -2 24.6690 3.40082   2
 -16   0   2 25.8173 3.46629   2
 -15   0   2 193.577 24.1421   2
 -14   0   2 40.1283 5.22204   2
 -13   0   2 21.3492 2.89274   2
  13   0  -2 19.5778 2.71951   2
 -12   0   2 835.218 100.204   2
  12   0  -2 675.868 85.9153   2
  11   0  -2 51.3121 8.99352   1
 -11   0   2 39.3939 7.11899   1
  11   0  -2 41.7505 7.48500   1
 -11   0   2 32.7568 6.11122   1
  10   0  -2 616.066 109.041   1
 -10   0   2 643.053 113.260   1
  10   0  -2 564.578 70.2887   2
  10   0  -2 497.502 90.8248   1
 -10   0   2 638.397 112.528   1
   9   0  -2 311.783 55.5638   1
  -9   0   2 238.755 32.2011   2
  -9   0   2 374.398 65.3868   1
   9   0  -2 345.474 41.5365   2
  -9   0   2 457.455 78.6090   1
   9   0  -2 429.371 74.1109   1
  -8   0   2 856.648 152.409   1
   8   0  -2 699.669 91.6322   2
   8   0  -2 1006.32 175.852   1
   8   0  -2 932.290 164.267   1
  -8   0   2 1045.87 182.107   1
  -8   0   2 896.335 108.878   2
  -7   0   2 197.968 26.0141   2
   7   0  -2 286.351 50.0554   1
  -7   0   2 254.685 45.0832   1
   7   0  -2 270.636 47.5765   1
   7   0  -2 247.074 30.2942   2
  -7   0   2 294.754 51.3869   1
  -6   0   2 3012.02 511.055   1
  -6   0   2 1830.98 218.786   2
   6   0  -2 1598.99 197.760   2
   6   0  -2 1559.92 279.463   1
  -6   0   2 1785.82 314.397   1
  -6   0   2 1331.64 157.007   3
   6   0  -2 1600.13 285.533   1
  -5   0   2 1666.03 295.223   1
   5   0  -2 1700.27 300.421   1
   5   0  -2 1497.87 187.814   2
   5   0  -2 1536.62 275.128   1
  -5   0   2 1938.28 337.742   1
  -5   0   2 1794.09 214.487   2
  -5   0   2 1385.16 159.363   3
   4   0  -2 943.287 107.559   3
   4   0  -2 1152.88 139.029   2
   4   0  -2 1165.97 205.359   1
  -4   0   2 1576.41 270.622   1
  -4   0   2 971.829 175.318   1
  -4   0   2 1095.59 133.810   2
  -4   0   2 934.510 106.944   3
   4   0  -2 1193.87 209.781   1
   3   0  -2 88.4411 15.5459   1
   3   0  -2 79.2103 8.59842   3
  -3   0   2 79.0670 14.0755   1
   3   0  -2 72.1575 9.12837   2
  -3   0   2 73.2969 8.17787   3
  -3   0   2 75.1318 9.40040   2
   3   0  -2 84.4510 14.9197   1
  -3   0   2 83.0330 14.6992   1
  -2   0   2 1364.76 172.096   2
   2   0  -2 1755.80 306.813   1
  -2   0   2 1661.20 291.846   1
   2   0  -2 1401.79 175.347   2
   2   0  -2 1397.45 155.523   3
   2   0  -2 1879.12 326.306   1
  -2   0   2 1458.06 159.765   3
  -2   0   2 1509.93 268.199   1
   1   0  -2 488.392 85.7539   1
   1   0  -2 425.019 75.8650   1
  -1   0   2 396.253 44.5941   3
   1   0  -2 477.922 50.3789   3
  -1   0   2 441.083 78.3438   1
  -1   0   2 378.717 48.5225   2
  -1   0   2 490.918 86.1493   1
   1   0  -2 439.600 53.8789   2
   0   0   2 129.361 22.8067   1
   0   0  -2 94.7095 11.2979   3
   0   0   2 106.701 12.0921   3
   0   0  -2 123.766 21.9335   1
   0   0   2 165.533 28.5397   1
   0   0  -2 127.549 22.5125   1
   0   0   2 133.752 15.9967   2
   0   0  -2 128.140 15.4764   2
  -1   0  -2 127.303 14.8151   2
  -1   0  -2 103.121 11.0667   3
  -1   0  -2 101.414 18.0041   1
   1   0   2 94.7944 16.9820   1
   1   0   2 88.0953 11.2327   2
   1   0   2 99.5931 10.8128   3
  -1   0  -2 73.2918 13.7348   1
   1   0   2 97.6633 17.4209   1
  -2   0  -2 129.276 22.6540   1
   2   0   2 148.505 25.7077   1
   2   0   2 111.292 19.8637   1
   2   0   2 109.194 13.5753   2
   2   0   2 89.7035 10.6820   3
  -2   0  -2 119.181 14.4751   2
  -2   0  -2 137.049 23.8912   1
   3   0   2 3041.38 537.816   1
  -3   0  -2 2970.81 319.716   3
  -3   0  -2 2681.16 481.971   1
  -3   0  -2 3422.44 403.671   2
   3   0   2 1794.01 350.569   1
   3   0   2 3101.62 374.050   2
  -3   0  -2 3732.49 646.671   1
   3   0   2 2827.19 309.505   3
   4   0   2 1163.42 144.515   2
  -4   0  -2 1503.74 261.343   1
  -4   0  -2 1193.27 130.233   3
   4   0   2 1200.41 213.716   1
  -4   0  -2 1180.67 146.051   2
   4   0   2 1154.55 127.533   3
  -4   0  -2 1248.82 221.310   1
   4   0   2 1075.43 194.613   1
  -5   0  -2 29.5743 3.55292   2
  -5   0  -2 22.1589 2.44235   3
  -5   0  -2 17.8259 3.33809   1
   5   0   2 19.4315 3.59488   1
   5   0   2 17.3555 3.28289   1
   5   0   2 22.7199 2.90272   2
  -5   0  -2 25.3485 4.51475   1
  -6   0  -2 900.484 96.3827   3
   6   0   2 677.905 125.347   1
  -6   0  -2 815.071 101.754   2
   6   0   2 888.726 108.402   2
  -6   0  -2 1017.76 177.782   1
   6   0   2 838.483 149.747   1
   7   0   2 2709.33 478.277   1
   7   0   2 3184.27 553.060   1
  -7   0  -2 2164.85 394.518   1
  -7   0  -2 2890.30 344.030   2
  -7   0  -2 2305.99 415.890   1
   7   0   2 2248.79 286.434   2
  -8   0  -2 0.43893 0.30772   1
  -8   0  -2 0.60332 0.49958   2
  -8   0  -2 0.29433 0.33178   1
   8   0   2 -0.1340 0.32387   1
   8   0   2 0.36091 0.41683   2
   8   0   2 1.12643 0.41215   1
   9   0   2 31.6615 4.08884   2
  -9   0  -2 29.3919 5.37431   1
  -9   0  -2 31.2245 5.65876   1
   9   0   2 30.4538 5.53944   1
  -9   0  -2 31.2541 4.06303   2
   9   0   2 33.0806 5.94569   1
 -10   0  -2 12.1536 2.27621   1
  10   0   2 16.3316 2.15887   2
 -10   0  -2 11.7965 2.23130   1
 -10   0  -2 13.7821 1.93212   2
  10   0   2 8.49381 1.75015   1
  10   0   2 14.2633 2.61710   1
 -11   0  -2 124.301 15.8434   2
  11   0   2 142.857 17.4910   2
  12   0   2 153.724 19.4621   2
 -12   0  -2 170.271 20.9511   2
 -13   0  -2 204.596 25.5076   2
 -14   0  -2 73.8003 9.37073   2
 -15   0  -2 173.268 21.6690   2
  16   0   2 107.919 13.5965   2
  17   0   2 8.95527 1.50478   2
  18   0   2 5.29817 1.10022   2
 -18   0  -2 5.39417 1.14952   2
 -19   0  -2 8.99449 1.52302   2
  19   0   2 8.13721 1.44588   2
 -20  -1   2 31.3105 4.22041   2
  20  -1  -2 32.1358 4.27382   2
 -20   1   2 34.5853 4.50916   2
  20   1  -2 28.3014 3.93631   2
  19  -1  -2 -1.1063 0.64272   2
 -19  -1   2 0.29766 0.61543   2
 -19   1   2 0.91448 0.71228   2
  19   1  -2 -0.0915 0.53929   2
  18  -1  -2 3.43509 0.92751   2
 -18  -1   2 2.84078 0.86302   2
  18   1  -2 3.90705 0.92566   2
 -18   1   2 2.48788 0.87471   2
 -17  -1   2 20.2141 2.80119   2
  17  -1  -2 20.5883 2.85693   2
 -17   1   2 20.5906 2.85490   2
  17   1  -2 16.7597 2.50286   2
 -16  -1   2 8.47402 1.50734   2
  16  -1  -2 10.3829 1.60996   2
 -16   1   2 10.0891 1.64920   2
  16   1  -2 11.6493 1.77528   2
 -15  -1   2 1.11335 0.69191   2
  15  -1  -2 2.04708 0.69388   2
  15   1  -2 1.84952 0.71962   2
 -15   1   2 1.65929 0.63955   2
  14  -1  -2 251.664 33.4993   2
 -14  -1   2 368.100 43.8312   2
 -14   1   2 344.511 41.6751   2
  14   1  -2 327.430 40.0971   2
  13  -1  -2 13.6817 2.02666   2
 -13  -1   2 16.9628 2.29012   2
 -13   1   2 13.5203 2.01567   2
  13   1  -2 13.7133 1.98956   2
  12  -1  -2 75.7508 9.40681   2
 -12  -1   2 86.3651 10.3740   2
  12   1  -2 78.6232 9.66276   2
 -12   1   2 55.3030 7.61690   2
 -11  -1   2 159.112 20.6859   2
  11  -1  -2 172.288 31.0653   1
 -11  -1   2 222.393 38.8691   1
 -11  -1   2 207.482 36.5166   1
  11  -1  -2 185.902 33.1754   1
  11  -1  -2 184.988 22.9477   2
  11   1  -2 190.343 33.8524   1
  11   1  -2 195.176 23.8657   2
 -11   1   2 208.094 36.6199   1
 -11   1   2 141.372 26.3961   1
  11   1  -2 203.563 35.8968   1
 -11   1   2 193.644 23.7245   2
  10  -1  -2 166.452 29.3260   1
 -10  -1   2 190.299 33.0976   1
 -10  -1   2 130.159 16.8474   2
  10  -1  -2 167.360 20.1748   2
  10  -1  -2 151.080 26.9275   1
 -10  -1   2 138.559 24.9921   1
  10   1  -2 153.251 18.8701   2
  10   1  -2 127.759 23.3460   1
 -10   1   2 164.851 29.0903   1
 -10   1   2 126.898 16.5712   2
 -10   1   2 240.981 41.2389   1
  10   1  -2 145.997 26.1335   1
   9  -1  -2 303.794 53.2038   1
   9  -1  -2 201.082 37.3997   1
  -9  -1   2 219.213 40.1021   1
  -9  -1   2 261.351 32.2320   2
   9  -1  -2 232.183 29.6681   2
  -9  -1   2 274.493 48.5962   1
  -9   1   2 227.327 41.3305   1
   9   1  -2 325.360 56.6044   1
  -9   1   2 340.306 58.9915   1
   9   1  -2 250.145 31.2205   2
  -9   1   2 295.202 35.3323   2
   9   1  -2 290.168 51.0389   1
  -8  -1   2 141.889 18.8141   2
  -8  -1   2 251.998 43.3918   1
  -8  -1   2 172.238 18.9640   3
   8  -1  -2 237.728 41.1153   1
   8  -1  -2 257.579 44.2892   1
  -8  -1   2 172.374 30.8375   1
   8  -1  -2 234.224 27.1792   2
   8   1  -2 195.758 34.4534   1
  -8   1   2 125.572 23.7737   1
  -8   1   2 236.245 27.3856   2
   8   1  -2 221.678 38.5629   1
  -8   1   2 105.062 20.8516   1
   8   1  -2 191.507 23.1689   2
  -7  -1   2 12.3937 1.66020   2
   7  -1  -2 11.3884 1.59418   2
  -7  -1   2 12.9191 2.36555   1
  -7  -1   2 11.4366 1.37959   3
   7  -1  -2 13.5053 2.45225   1
   7  -1  -2 10.2539 1.96218   1
  -7  -1   2 12.9237 2.36445   1
   7   1  -2 12.3142 2.25789   1
   7   1  -2 13.4103 1.75842   2
  -7   1   2 11.3520 2.13903   1
  -7   1   2 11.3857 2.12519   1
   7   1  -2 11.7775 2.18334   1
   7   1  -2 11.4784 1.39247   3
  -7   1   2 15.2579 1.95139   2
  -6  -1   2 90.2028 16.0006   1
   6  -1  -2 84.6250 15.1271   1
  -6  -1   2 90.1371 9.71205   3
   6  -1  -2 78.3515 14.1632   1
  -6  -1   2 73.0695 13.3501   1
   6  -1  -2 78.3563 9.98273   2
  -6   1   2 125.975 21.6805   1
  -6   1   2 73.4718 9.55322   2
   6   1  -2 104.203 18.1931   1
   6   1  -2 87.9471 10.8244   2
   6   1  -2 107.702 18.7491   1
   6   1  -2 90.3211 9.73299   3
  -6   1   2 70.5199 12.9702   1
  -5  -1   2 108.934 11.3262   3
   5  -1  -2 107.210 18.7963   1
   5  -1  -2 92.5752 16.5034   1
   5  -1  -2 89.4456 11.1543   2
  -5  -1   2 113.808 13.3851   2
  -5   1   2 65.1230 9.09422   2
   5   1  -2 104.607 18.3672   1
   5   1  -2 89.0977 11.1070   2
   5   1  -2 97.1653 10.4493   3
   5   1  -2 80.4166 14.6202   1
  -5   1   2 95.0378 16.8847   1
  -5   1   2 101.849 17.9537   1
   4  -1  -2 968.616 121.364   2
   4  -1  -2 1506.25 147.938   3
   4  -1  -2 1049.49 186.429   1
   4  -1  -2 1415.22 244.195   1
  -4  -1   2 1037.24 112.678   3
  -4   1   2 1057.42 187.611   1
   4   1  -2 860.593 100.519   3
  -4   1   2 821.555 151.582   1
   4   1  -2 1226.01 214.007   1
   4   1  -2 908.203 116.047   2
   4   1  -2 1299.86 225.732   1
  -4   1   2 1023.44 111.648   3
  -3  -1   2 720.052 79.1328   3
   3  -1  -2 761.119 135.012   1
  -3  -1   2 767.319 135.961   1
   3  -1  -2 734.895 130.936   1
   3  -1  -2 640.945 82.3414   2
   3  -1  -2 844.743 88.1129   3
  -3  -1   2 989.210 170.967   1
  -3   1   2 817.630 143.830   1
   3   1  -2 703.154 126.029   1
   3   1  -2 748.588 81.1569   3
   3   1  -2 598.768 110.176   1
  -3   1   2 742.397 80.6534   3
   3   1  -2 687.095 86.3478   2
  -3   1   2 719.293 89.1649   2
  -3   1   2 812.277 142.991   1
   2  -1  -2 2342.32 416.326   1
   2  -1  -2 1786.65 331.662   1
  -2  -1   2 2301.37 250.934   3
  -2  -1   2 2591.16 455.090   1
  -2  -1   2 2459.41 434.652   1
   2  -1  -2 1910.48 224.169   3
   2  -1  -2 2306.98 283.968   2
  -2   1   2 2428.18 429.546   1
   2   1  -2 2432.65 260.297   3
   2   1  -2 2849.87 333.770   2
  -2   1   2 2302.29 410.090   1
   1  -1  -2 985.178 106.893   3
  -1  -1   2 1047.17 184.792   1
   1  -1  -2 813.934 105.920   2
  -1  -1   2 962.890 171.722   1
   1  -1  -2 1111.92 195.017   1
  -1  -1   2 1008.62 108.566   3
  -1  -1   2 1208.24 141.414   2
   1  -1  -2 1038.13 183.363   1
  -1   1   2 1733.70 294.566   1
   1   1  -2 919.396 115.010   2
  -1   1   2 928.922 102.944   3
  -1   1   2 968.787 172.617   1
   1   1  -2 840.089 96.8570   3
   0  -1  -2 1905.76 206.445   3
   0  -1  -2 3098.24 528.344   1
   0  -1  -2 2429.95 421.112   1
   0  -1   2 2499.77 432.181   1
   0  -1  -2 1594.58 206.305   2
   0  -1   2 1783.19 197.837   3
   0  -1   2 2656.25 457.163   1
   0  -1   2 2069.37 248.384   2
   0   1   2 2028.97 215.334   3
   0   1  -2 1455.52 175.932   3
   1  -1   2 770.407 136.292   1
   1  -1   2 719.642 88.9559   2
  -1  -1  -2 953.858 165.264   1
   1  -1   2 772.571 136.633   1
  -1  -1  -2 752.758 133.534   1
  -1  -1  -2 693.595 77.0188   3
   1  -1   2 695.980 77.1558   3
   1   1   2 709.698 78.1490   3
  -1   1  -2 668.778 120.619   1
  -1   1  -2 709.167 126.802   1
   2  -1   2 90.7443 11.3369   2
  -2  -1  -2 111.357 19.4851   1
   2  -1   2 107.410 18.8674   1
  -2  -1  -2 113.930 19.8921   1
  -2  -1  -2 91.6316 10.1352   3
   2  -1   2 135.254 23.2913   1
  -2   1  -2 72.1129 9.74647   2
   2   1   2 86.1378 15.5571   1
  -2   1  -2 83.3132 9.53808   3
  -2   1  -2 110.532 19.3535   1
   2   1   2 106.553 12.7693   2
   2   1   2 92.3668 10.1868   3
  -2   1  -2 110.461 19.3484   1
   2   1   2 116.262 20.2596   1
   3  -1   2 17.0116 3.23402   1
   3  -1   2 26.1981 4.64007   1
   3  -1   2 22.9964 2.53450   3
   3  -1   2 21.7197 2.79928   2
  -3   1  -2 26.6926 4.71441   1
   3   1   2 23.6182 2.63313   3
  -3   1  -2 26.3464 4.66527   1
   3   1   2 25.7147 4.55924   1
   3   1   2 20.4746 2.68325   2
  -3   1  -2 21.6450 2.80458   2
   3   1   2 33.8634 5.84859   1
  -4  -1  -2 99.7420 10.6795   3
   4  -1   2 100.936 17.8410   1
   4  -1   2 88.7374 11.1605   2
   4  -1   2 103.557 18.2550   1
   4   1   2 80.3266 9.32482   3
  -4   1  -2 80.1389 9.27504   3
  -4   1  -2 108.278 18.9848   1
   4   1   2 126.666 21.9107   1
   4   1   2 102.372 18.0610   1
  -4   1  -2 98.9952 17.5480   1
  -4   1  -2 120.316 14.0727   2
   4   1   2 78.7241 10.2862   2
  -5  -1  -2 223.167 25.9831   3
  -5  -1  -2 311.599 54.4969   1
   5  -1   2 240.936 30.5417   2
   5  -1   2 303.025 53.1381   1
   5  -1   2 291.188 51.2963   1
  -5   1  -2 174.135 33.5711   1
  -5   1  -2 255.006 31.7833   2
   5   1   2 332.917 38.9122   2
   5   1   2 288.753 30.5845   3
  -5   1  -2 270.792 48.1004   1
  -5   1  -2 286.578 30.3860   3
   5   1   2 265.555 47.2911   1
   5   1   2 300.137 52.6776   1
  -6  -1  -2 190.500 21.8897   3
   6  -1   2 235.029 28.4783   2
   6  -1   2 217.980 38.8670   1
  -6  -1  -2 198.082 35.7952   1
  -6  -1  -2 204.781 25.7563   2
   6  -1   2 282.359 48.9931   1
  -6  -1  -2 202.332 36.4616   1
   6   1   2 200.204 36.1186   1
  -6   1  -2 212.323 37.9823   1
  -6   1  -2 209.007 37.4780   1
   6   1   2 225.680 27.6135   2
   6   1   2 221.330 39.3687   1
   6   1   2 213.671 23.4960   3
  -6   1  -2 238.771 28.8287   2
  -7  -1  -2 370.858 41.3002   3
  -7  -1  -2 402.323 49.3241   2
   7  -1   2 494.514 57.8361   2
   7  -1   2 418.941 74.0528   1
  -7  -1  -2 476.132 83.0487   1
   7  -1   2 448.615 78.7133   1
  -7  -1  -2 387.535 69.1753   1
   7   1   2 377.607 41.7786   3
   7   1   2 323.183 59.3702   1
  -7   1  -2 421.218 74.4255   1
  -7   1  -2 325.209 42.5916   2
   7   1   2 405.089 49.5544   2
   7   1   2 426.690 75.2872   1
  -7   1  -2 338.345 61.6594   1
  -8  -1  -2 41.4174 5.20453   2
   8  -1   2 46.7985 5.70008   2
  -8  -1  -2 43.0072 7.65194   1
  -8  -1  -2 34.8717 4.05713   3
  -8  -1  -2 32.2301 5.99111   1
   8  -1   2 30.9472 5.79848   1
   8  -1   2 32.0961 5.97868   1
  -8   1  -2 36.1831 6.59247   1
  -8   1  -2 45.0891 7.98059   1
   8   1   2 44.1356 5.43037   2
   8   1   2 43.6175 7.74384   1
   8   1   2 35.1479 6.43838   1
  -8   1  -2 41.3666 5.21341   2
   9  -1   2 0.26559 0.43005   2
  -9  -1  -2 0.72635 0.49180   2
  -9  -1  -2 -0.1293 0.35194   1
   9  -1   2 0.10621 0.33729   1
  -9  -1  -2 0.46481 0.37325   1
   9  -1   2 -0.3390 0.33994   1
  -9  -1  -2 0.32839 0.20445   3
  -9   1  -2 -0.0158 0.45133   2
  -9   1  -2 0.41745 0.35442   1
   9   1   2 0.23750 0.34807   1
   9   1   2 0.85467 0.41537   1
  -9   1  -2 0.61560 0.35692   1
   9   1   2 0.97852 0.48852   2
 -10  -1  -2 272.927 48.2189   1
 -10  -1  -2 240.809 43.2135   1
  10  -1   2 272.396 33.0494   2
  10  -1   2 250.758 44.7551   1
  10  -1   2 242.386 43.4686   1
  10   1   2 217.332 39.6351   1
 -10   1  -2 309.876 54.0396   1
  10   1   2 203.543 37.5842   1
 -10   1  -2 229.486 41.4984   1
 -10   1  -2 265.468 32.4219   2
  11  -1   2 16.1035 2.17000   2
 -11  -1  -2 14.9745 2.06274   2
  11   1   2 14.6693 2.01543   2
 -11   1  -2 9.28539 1.57542   2
 -12  -1  -2 21.3870 2.89136   2
  12  -1   2 16.7656 2.49392   2
 -12   1  -2 29.4483 3.65588   2
  12   1   2 20.6667 2.82616   2
 -13  -1  -2 27.4700 3.74220   2
  13  -1   2 45.7188 5.45920   2
  13   1   2 32.9465 4.24848   2
 -13   1  -2 24.0972 3.47049   2
  14  -1   2 10.6212 1.62717   2
 -14  -1  -2 12.5293 1.81218   2
 -14   1  -2 8.06173 1.41040   2
  14   1   2 11.6378 1.75035   2
 -15  -1  -2 4.96848 1.07336   2
  15  -1   2 4.32707 0.94588   2
  15   1   2 5.13804 1.06796   2
 -15   1  -2 6.39601 1.18655   2
  16  -1   2 1.73700 0.75518   2
 -16   1  -2 1.42648 0.71522   2
  17  -1   2 0.15564 0.55142   2
 -17  -1  -2 0.83686 0.59877   2
  17   1   2 0.27471 0.63051   2
 -17   1  -2 1.19689 0.75432   2
 -18  -1  -2 8.18652 1.43324   2
  18  -1   2 7.94305 1.40337   2
 -18   1  -2 6.72354 1.29148   2
  18   1   2 9.97602 1.61418   2
  19  -1   2 13.8601 2.04473   2
 -19  -1  -2 13.2184 2.03762   2
 -19   1  -2 10.1790 1.73643   2
  19   1   2 12.2490 1.90598   2
  20  -2  -2 -0.4681 0.62833   2
 -20   2   2 0.78307 0.70628   2
  19  -2  -2 3.58614 0.98247   2
 -19  -2   2 7.29506 1.33626   2
 -19   2   2 3.10101 0.92334   2
  18  -2  -2 22.7973 3.16574   2
 -18  -2   2 18.3549 2.79063   2
  18   2  -2 27.2069 3.56056   2
 -18   2   2 24.0043 3.26837   2
  17  -2  -2 1.56156 0.67145   2
  17   2  -2 1.00583 0.59354   2
 -17   2   2 0.52335 0.67306   2
 -16  -2   2 44.6534 5.68457   2
  16  -2  -2 44.1067 5.60694   2
 -16   2   2 34.7006 4.77475   2
  15  -2  -2 3.11756 0.84616   2
 -15  -2   2 3.88410 0.91781   2
 -14  -2   2 13.8658 2.02358   2
  14  -2  -2 9.16567 1.53105   2
  14   2  -2 12.6278 1.96465   2
 -13  -2   2 2.20006 0.71239   2
  13  -2  -2 2.78806 0.71220   2
  13   2  -2 1.47771 0.56015   2
 -12  -2   2 15.8668 2.20134   2
  12  -2  -2 13.8050 2.01657   2
  12   2  -2 16.1822 2.21400   2
 -11  -2   2 38.0414 5.03946   2
 -11  -2   2 40.0246 4.63445   3
 -11  -2   2 36.0077 6.65964   1
  11   2  -2 46.9215 5.83924   2
 -11   2   2 50.0994 6.16006   2
 -10  -2   2 202.901 36.1129   1
  10  -2  -2 203.491 36.2056   1
  10  -2  -2 216.011 38.1706   1
 -10  -2   2 197.565 24.5330   2
 -10  -2   2 210.781 37.3434   1
  10   2  -2 224.888 23.7334   3
 -10   2   2 236.686 41.4023   1
  10   2  -2 170.693 31.1798   1
  10   2  -2 176.413 22.6710   2
  10   2  -2 183.687 33.1518   1
 -10   2   2 185.440 33.4457   1
   9  -2  -2 0.04501 0.35109   1
  -9  -2   2 -0.5190 0.25988   1
   9  -2  -2 -0.2442 0.34417   1
  -9  -2   2 0.31929 0.35694   3
  -9  -2   2 -0.2895 0.37907   2
  -9  -2   2 0.14979 0.29337   1
   9   2  -2 0.20544 0.38805   2
  -9   2   2 0.40351 0.38382   1
   9   2  -2 0.44363 0.33408   1
   9   2  -2 0.43223 0.29370   1
  -9   2   2 0.53193 0.49170   2
  -9   2   2 0.46934 0.35016   1
   9   2  -2 -0.4396 0.41712   3
   8  -2  -2 189.638 33.4789   1
  -8  -2   2 172.853 18.9724   3
  -8  -2   2 235.564 40.7231   1
   8  -2  -2 234.275 40.5498   1
   8  -2  -2 202.812 24.1794   2
  -8  -2   2 178.157 31.6744   1
  -8  -2   2 162.936 20.5297   2
   8   2  -2 166.013 20.7910   2
  -8   2   2 142.569 18.8191   2
  -8   2   2 146.204 26.7805   1
   8   2  -2 149.709 27.3011   1
   8   2  -2 191.033 20.3033   3
  -8   2   2 197.172 34.6604   1
   8   2  -2 157.859 28.5500   1
  -7  -2   2 800.714 138.920   1
   7  -2  -2 558.805 101.177   1
   7  -2  -2 606.697 75.3927   2
  -7  -2   2 662.535 80.4128   2
  -7  -2   2 562.018 63.7865   3
   7  -2  -2 631.284 112.325   1
  -7  -2   2 645.924 114.572   1
   7   2  -2 629.471 68.5059   3
  -7   2   2 678.306 119.646   1
  -7   2   2 438.464 83.2212   1
   7   2  -2 551.480 100.041   1
  -7   2   2 636.184 78.0070   2
   7   2  -2 816.506 141.410   1
   7   2  -2 711.939 84.8991   2
   6  -2  -2 109.704 19.8101   1
  -6  -2   2 114.612 14.3293   2
   6  -2  -2 115.189 20.6468   1
   6  -2  -2 118.818 14.7449   2
  -6  -2   2 144.550 14.9626   3
  -6  -2   2 135.484 23.8114   1
  -6  -2   2 135.894 23.8593   1
  -6   2   2 88.3814 16.6129   1
  -6   2   2 133.953 23.5758   1
   6   2  -2 107.551 13.7058   2
  -6   2   2 126.642 15.4576   2
   6   2  -2 120.850 21.5176   1
   6   2  -2 114.334 12.7600   3
   6   2  -2 111.813 20.1129   1
  -5  -2   2 0.98091 0.31308   1
   5  -2  -2 0.77637 0.31176   1
  -5  -2   2 0.52886 0.36044   3
   5  -2  -2 0.17803 0.27333   1
  -5  -2   2 0.86680 0.27178   1
   5  -2  -2 0.78109 0.33946   2
   5   2  -2 0.03049 0.43803   3
   5   2  -2 0.62434 0.24200   2
  -5   2   2 0.62989 0.31856   2
  -5   2   2 0.87632 0.24848   3
   5   2  -2 0.23835 0.22957   1
   5   2  -2 0.28254 0.18826   1
  -5   2   2 0.91968 0.29381   1
  -5   2   2 0.38855 0.29618   1
   4  -2  -2 665.049 82.0691   2
  -4  -2   2 665.358 118.579   1
   4  -2  -2 733.916 129.281   1
  -4  -2   2 674.930 73.3823   3
   4  -2  -2 551.829 101.263   1
   4  -2  -2 664.944 72.6381   3
   4   2  -2 689.749 84.2569   2
  -4   2   2 731.312 128.863   1
   4   2  -2 674.567 73.3747   3
   4   2  -2 768.268 134.647   1
  -4   2   2 669.056 119.169   1
  -4   2   2 619.329 78.0183   2
  -4   2   2 630.917 70.2734   3
   4   2  -2 660.814 117.877   1
   3  -2  -2 4.21066 0.79271   1
   3  -2  -2 4.29637 0.57239   3
  -3  -2   2 3.85494 0.71593   1
   3  -2  -2 3.28403 0.53035   2
   3  -2  -2 4.61546 0.86794   1
  -3  -2   2 3.37567 0.60665   3
   3   2  -2 3.24481 0.46413   2
  -3   2   2 3.45415 0.54891   3
   3   2  -2 4.23863 0.69338   3
   3   2  -2 4.70864 0.84593   1
   3   2  -2 4.66439 0.83963   1
  -3   2   2 3.07024 0.62187   1
  -3   2   2 3.31886 0.53990   2
   2  -2  -2 74.6367 9.49758   2
  -2  -2   2 89.5635 15.8034   1
  -2  -2   2 85.1639 9.27708   3
   2  -2  -2 138.174 23.5690   1
   2  -2  -2 70.7106 12.9021   1
   2   2  -2 81.7219 14.5786   1
  -2   2   2 92.7412 9.80898   3
   2   2  -2 70.7439 8.27055   3
  -2   2   2 70.5124 12.8833   1
  -2   2   2 87.1860 15.4332   1
  -2   2   2 84.1458 10.3472   2
   2   2  -2 97.4946 17.0400   1
   1  -2  -2 14.4205 1.76509   3
   1  -2  -2 15.4643 2.80406   1
   1  -2  -2 16.8517 3.02162   1
  -1  -2   2 21.4029 2.28631   3
  -1  -2   2 17.6865 3.13719   1
  -1  -2   2 16.5104 2.95054   1
  -1   2   2 19.0368 3.36189   1
   1   2  -2 21.5450 3.74548   1
  -1   2   2 17.5580 2.00221   3
   1   2  -2 14.1645 2.59292   1
   1   2  -2 17.4522 2.00134   3
   1   2  -2 14.6020 1.88187   2
  -1   2   2 12.6072 2.37308   1
  -1   2   2 17.5879 2.17701   2
   0  -2   2 43.8827 7.91987   1
   0  -2  -2 45.5586 8.17526   1
   0  -2   2 65.7922 11.3597   1
   0  -2  -2 48.5530 8.63856   1
   0  -2  -2 51.1295 5.53485   3
   0  -2   2 36.7890 4.54751   3
   0   2  -2 46.4612 5.78421   2
   0   2  -2 46.6040 5.21379   3
   0   2   2 47.8409 8.53043   1
   0   2   2 49.6815 5.43906   3
   0   2   2 47.8364 5.91619   2
   0   2   2 53.4275 9.40278   1
   0   2  -2 49.7876 8.83930   1
   0   2  -2 55.5394 9.72979   1
  -1  -2  -2 32.2884 3.86462   3
  -1  -2  -2 35.6803 6.43741   1
   1  -2   2 40.3739 7.17588   1
   1  -2   2 41.7559 7.38877   1
   1   2   2 36.1919 4.57457   2
  -1   2  -2 38.3981 4.78474   2
   1   2   2 43.5344 7.65587   1
  -1   2  -2 46.1906 8.08445   1
   1   2   2 39.3484 7.00421   1
  -1   2  -2 37.6131 4.23450   3
  -1   2  -2 43.6949 7.69654   1
   1   2   2 39.7569 4.39935   3
   2  -2   2 7.65844 1.42499   1
  -2  -2  -2 6.60684 0.92607   3
  -2  -2  -2 10.6173 1.88351   1
   2  -2   2 8.30141 1.52817   1
   2  -2   2 8.06910 1.01825   3
   2  -2   2 8.67232 1.13753   2
  -2   2  -2 6.97531 0.99373   2
  -2   2  -2 7.12649 0.95036   3
   2   2   2 7.79768 1.04491   3
   2   2   2 11.1824 1.96069   1
  -2   2  -2 12.1050 2.14475   1
   2   2   2 9.26529 1.65670   1
  -2   2  -2 8.75165 1.59066   1
   2   2   2 8.33018 1.07513   2
   3  -2   2 808.072 140.866   1
   3  -2   2 598.429 76.0419   2
  -3  -2  -2 721.814 76.6597   3
  -3  -2  -2 668.392 118.974   1
   3  -2   2 720.372 127.081   1
  -3  -2  -2 825.386 143.605   1
   3   2   2 709.786 85.9555   2
   3   2   2 755.662 132.609   1
   3   2   2 650.184 71.5007   3
  -3   2  -2 660.409 117.760   1
  -3   2  -2 488.141 60.7078   3
  -3   2  -2 708.325 85.8859   2
   3   2   2 831.277 144.540   1
  -3   2  -2 716.994 126.555   1
   4  -2   2 30.1325 5.35808   1
   4  -2   2 26.4057 3.39395   2
  -4  -2  -2 23.9834 4.39044   1
   4  -2   2 25.4566 4.62274   1
  -4  -2  -2 25.6618 4.64907   1
  -4   2  -2 32.1746 5.67750   1
  -4   2  -2 24.3703 2.83764   3
  -4   2  -2 26.8571 3.42880   2
   4   2   2 25.5958 4.63125   1
  -4   2  -2 31.9717 5.64555   1
   4   2   2 26.1400 3.02538   3
   4   2   2 31.1788 5.50421   1
   5  -2   2 9.69923 1.82841   1
  -5  -2  -2 9.95588 1.83361   1
   5  -2   2 9.55385 1.36540   2
  -5  -2  -2 9.70591 1.79917   1
   5  -2   2 9.99195 1.87421   1
  -5  -2  -2 9.41699 1.31397   2
  -5  -2  -2 13.5963 1.52275   3
   5   2   2 7.84839 1.17314   2
   5   2   2 10.7942 1.96162   1
  -5   2  -2 14.0303 2.51068   1
   5   2   2 12.4668 2.23463   1
  -5   2  -2 9.57996 1.16063   3
  -5   2  -2 10.4870 1.93607   1
   5   2   2 11.1289 1.38048   3
  -5   2  -2 10.3763 1.44436   2
   6  -2   2 191.541 33.8153   1
  -6  -2  -2 224.624 39.0154   1
   6  -2   2 205.003 24.4184   2
  -6  -2  -2 145.581 19.0956   2
  -6  -2  -2 175.223 19.2022   3
   6  -2   2 221.551 38.5427   1
  -6  -2  -2 148.545 27.1828   1
  -6   2  -2 186.504 33.0149   1
   6   2   2 211.953 37.0041   1
  -6   2  -2 184.815 22.5740   2
   6   2   2 186.168 32.9718   1
  -6   2  -2 138.605 25.6859   1
   6   2   2 162.140 20.5282   2
   6   2   2 170.742 18.8945   3
  -7  -2  -2 4.26453 0.88068   1
   7  -2   2 2.45865 0.63268   1
  -7  -2  -2 4.84921 0.95626   1
   7  -2   2 4.74036 0.82425   2
  -7  -2  -2 5.43328 0.84053   2
   7  -2   2 4.74214 0.96275   1
  -7  -2  -2 3.89273 0.63716   3
   7   2   2 3.54789 0.76407   1
  -7   2  -2 3.33178 0.76429   1
   7   2   2 4.61636 0.79273   2
  -7   2  -2 5.31053 0.87313   2
   7   2   2 4.35882 0.88181   1
  -7   2  -2 4.57061 0.92372   1
   8  -2   2 5.09032 1.05167   1
  -8  -2  -2 4.45491 0.94033   1
  -8  -2  -2 4.41842 0.79425   2
  -8  -2  -2 3.93815 0.85301   1
   8  -2   2 5.00864 1.03724   1
  -8  -2  -2 5.52724 0.78414   3
   8   2   2 5.19388 0.79802   3
   8   2   2 6.59141 1.24670   1
   8   2   2 5.86577 0.97740   2
  -8   2  -2 6.50796 1.06922   2
  -8   2  -2 5.48750 1.11058   1
   8   2   2 5.25872 1.04807   1
  -8   2  -2 4.92456 1.01547   1
  -9  -2  -2 19.6243 2.55174   2
  -9  -2  -2 23.1915 4.10318   1
  -9  -2  -2 17.2878 2.05784   3
   9  -2   2 13.4064 2.60333   1
   9  -2   2 17.5780 3.23588   1
  -9  -2  -2 19.9752 3.59393   1
   9   2   2 16.9051 3.12844   1
   9   2   2 14.5866 1.87995   3
  -9   2  -2 17.0094 3.13370   1
   9   2   2 18.2388 3.32945   1
  -9   2  -2 17.5410 3.23941   1
   9   2   2 18.8733 2.50199   2
 -10  -2  -2 9.18185 1.18082   3
 -10  -2  -2 9.40717 1.41981   2
  10   2   2 8.29979 1.33875   2
  10   2   2 9.10151 1.22470   3
 -10   2  -2 10.8041 1.59441   2
 -11  -2  -2 -0.1163 0.31408   3
  11  -2   2 0.12451 0.47382   2
 -11  -2  -2 0.20085 0.40967   2
  11   2   2 -0.8585 0.55183   2
 -11   2  -2 -0.0473 0.57335   2
 -12  -2  -2 38.0696 4.66632   2
  12  -2   2 30.6630 3.97422   2
  12   2   2 22.7022 3.29508   2
  13  -2   2 6.02837 1.12684   2
 -13  -2  -2 6.26226 1.18758   2
  13   2   2 7.32747 1.27870   2
 -14  -2  -2 0.39589 0.59956   2
  14  -2   2 0.91085 0.65324   2
  15  -2   2 15.1244 2.24074   2
 -15  -2  -2 12.5641 1.97076   2
  16  -2   2 11.5502 1.81750   2
 -16   2  -2 10.1478 1.71972   2
  16   2   2 16.7778 2.38086   2
 -17  -2  -2 0.27408 0.69668   2
  17  -2   2 -1.0953 0.64539   2
 -17   2  -2 -0.5358 0.61636   2
  17   2   2 -0.3463 0.63591   2
  18  -2   2 3.73439 0.97663   2
 -18   2  -2 3.54859 0.93952   2
  19  -2   2 8.40366 1.42474   2
 -19   2  -2 7.25021 1.35357   2
  19  -3  -2 16.9276 2.45629   2
 -19   3   2 15.3516 2.29470   2
  18  -3  -2 7.92296 1.42222   2
 -18   3   2 7.75542 1.41711   2
  17  -3  -2 0.20439 0.64852   2
 -17   3   2 -0.6493 0.71539   2
  16  -3  -2 14.9513 2.17861   2
 -16   3   2 12.9581 2.03036   2
  15  -3  -2 26.6065 3.66076   2
 -15   3   2 29.2551 3.89723   2
  14  -3  -2 45.2200 5.87748   2
 -14   3   2 46.6264 6.01141   2
  13  -3  -2 165.913 20.7882   2
 -13   3   2 163.627 20.5871   2
  13   3  -2 173.991 21.4876   2
  12  -3  -2 103.746 12.4875   2
 -12  -3   2 93.4808 10.1695   3
  12   3  -2 96.7488 10.4367   3
 -12   3   2 68.5601 9.39083   2
  11  -3  -2 158.415 19.4357   2
  11   3  -2 165.280 17.6520   3
 -11   3   2 135.980 17.4678   2
  11   3  -2 141.438 17.8819   2
  10  -3  -2 153.686 19.8212   2
 -10  -3   2 196.691 20.8145   3
 -10   3   2 161.937 20.5497   2
  10   3  -2 184.429 19.9642   3
  10   3  -2 175.512 21.7220   2
   9  -3  -2 8.68045 1.72680   1
  -9  -3   2 12.1503 1.52749   3
  -9  -3   2 8.52729 1.66157   1
  -9  -3   2 11.6935 2.15361   1
   9  -3  -2 13.8392 2.52323   1
   9  -3  -2 10.4235 1.54683   2
   9   3  -2 11.5543 2.14502   1
   9   3  -2 10.7451 1.50117   2
   9   3  -2 10.7947 1.47111   3
  -9   3   2 14.4416 1.93425   2
   9   3  -2 9.56707 1.82046   1
   8  -3  -2 830.330 150.091   1
   8  -3  -2 987.990 119.562   2
  -8  -3   2 1018.44 179.218   1
   8  -3  -2 892.709 159.714   1
  -8  -3   2 948.149 102.431   3
   8   3  -2 994.817 175.551   1
  -8   3   2 1104.05 130.261   2
   8   3  -2 720.141 96.1143   2
   8   3  -2 875.576 157.079   1
  -8   3   2 1207.98 209.227   1
   8   3  -2 816.139 93.2441   3
  -8   3   2 1436.68 245.886   1
  -7  -3   2 9.79953 1.81778   1
   7  -3  -2 11.3677 2.09573   1
   7  -3  -2 11.9019 1.60817   2
  -7  -3   2 12.7794 1.56402   3
   7  -3  -2 11.7483 2.14689   1
  -7   3   2 14.9164 2.65259   1
  -7   3   2 8.89026 1.72405   1
   7   3  -2 11.9667 1.53833   3
   7   3  -2 10.0608 1.87349   1
  -7   3   2 7.47891 1.23966   2
   7   3  -2 8.50218 1.61786   1
  -6  -3   2 1071.41 118.274   3
   6  -3  -2 986.607 178.796   1
   6  -3  -2 1359.14 236.716   1
   6  -3  -2 1377.83 161.328   2
  -6  -3   2 990.923 179.418   1
  -6   3   2 888.867 164.021   1
   6   3  -2 1114.16 198.321   1
  -6   3   2 941.516 109.356   3
  -6   3   2 1220.45 146.721   2
   6   3  -2 1264.90 221.894   1
  -6   3   2 1192.56 210.598   1
   5  -3  -2 40.1156 4.94933   2
   5  -3  -2 40.0639 7.12542   1
   5  -3  -2 31.1221 5.73824   1
  -5  -3   2 42.6500 4.62983   3
   5   3  -2 36.3685 6.50674   1
  -5   3   2 43.1733 7.60853   1
  -5   3   2 35.6834 6.43539   1
   5   3  -2 49.6526 8.61532   1
  -5   3   2 38.3500 4.24451   3
   5   3  -2 34.0215 4.01762   3
  -5   3   2 29.2564 4.00273   2
  -4  -3   2 39.3117 4.40315   3
   4  -3  -2 39.7632 7.07771   1
   4  -3  -2 35.1908 6.38703   1
   4  -3  -2 38.2315 4.26800   3
  -4   3   2 37.3047 4.21636   3
  -4   3   2 32.0535 5.89284   1
  -4   3   2 52.9559 9.16574   1
  -4   3   2 35.5439 4.54993   2
   4   3  -2 36.2879 4.21026   3
  -3  -3   2 386.881 44.4531   3
   3  -3  -2 533.818 93.0973   1
   3  -3  -2 360.909 42.6887   3
  -3   3   2 425.651 76.2098   1
  -3   3   2 457.039 49.3116   3
  -3   3   2 467.146 56.7280   2
  -3   3   2 529.020 92.3570   1
   3   3  -2 537.247 55.2484   3
  -2  -3   2 407.608 42.3191   3
   2  -3  -2 384.179 67.5854   1
   2  -3  -2 273.737 32.9021   3
  -2   3   2 329.067 36.6354   3
   2   3  -2 369.931 39.5610   3
  -2   3   2 419.120 73.0996   1
  -2   3   2 359.822 63.7874   1
   1  -3  -2 476.573 84.8041   1
   1  -3  -2 585.562 59.9511   3
  -1  -3   2 493.784 53.1740   3
  -1   3   2 461.380 50.8527   3
   1   3  -2 420.144 48.0159   3
  -1   3   2 397.688 72.7425   1
  -1   3   2 468.774 83.6137   1
   0  -3   2 290.251 33.7517   3
   0  -3   2 353.985 62.7209   1
   0  -3  -2 375.091 39.7004   3
   0   3  -2 356.690 63.1685   1
   0   3   2 350.522 37.9286   3
  -1  -3  -2 60.9440 7.05041   3
   1  -3   2 85.1305 8.81889   3
  -1   3  -2 58.2145 10.6380   1
  -1   3  -2 75.7304 8.11603   3
   1   3   2 76.4606 8.17738   3
  -1   3  -2 49.3405 9.31424   1
   2  -3   2 125.898 21.9022   1
  -2  -3  -2 112.745 11.9696   3
   2  -3   2 81.3678 9.75937   3
  -2   3  -2 103.293 18.3551   1
  -2   3  -2 95.9713 10.7553   3
  -2   3  -2 96.5234 17.3139   1
   2   3   2 112.718 11.9826   3
  -2   3  -2 97.4232 12.1708   2
   3  -3   2 94.1660 11.1566   3
  -3  -3  -2 120.605 13.0099   3
   3  -3   2 118.757 21.0602   1
  -3  -3  -2 132.488 23.1984   1
  -3   3  -2 123.750 13.2341   3
  -3   3  -2 114.595 20.4182   1
  -3   3  -2 92.2781 17.0056   1
   3   3   2 140.766 24.5034   1
  -3   3  -2 100.256 12.8849   2
   3   3   2 110.008 19.6907   1
   3   3   2 134.059 14.0182   3
   4  -3   2 0.56600 0.31474   2
   4  -3   2 0.95588 0.32844   3
   4  -3   2 1.12075 0.31886   1
  -4  -3  -2 1.04308 0.42701   3
   4  -3   2 0.88685 0.32105   1
  -4   3  -2 0.77675 0.32611   2
   4   3   2 1.00868 0.28596   1
  -4   3  -2 0.58183 0.27511   1
  -4   3  -2 1.11821 0.38591   1
   4   3   2 1.26947 0.29799   1
  -4   3  -2 1.46499 0.42960   3
   4   3   2 1.02071 0.56969   3
   5  -3   2 37.1494 6.57345   1
   5  -3   2 33.7796 4.24640   2
  -5  -3  -2 32.7152 5.85864   1
   5  -3   2 31.6478 5.72063   1
   5   3   2 37.2433 6.56949   1
   5   3   2 38.6048 6.77758   1
  -5   3  -2 24.4761 4.63125   1
  -5   3  -2 26.2757 3.59496   2
  -5   3  -2 35.4017 6.30716   1
   5   3   2 36.9291 4.05843   3
   6  -3   2 187.633 33.3724   1
   6  -3   2 179.273 22.3292   2
   6  -3   2 182.546 32.5804   1
  -6  -3  -2 183.631 20.1348   3
  -6  -3  -2 200.290 35.3256   1
   6   3   2 146.431 27.0594   1
  -6   3  -2 203.235 24.5091   2
  -6   3  -2 174.559 31.3621   1
  -6   3  -2 158.060 28.8376   1
   6   3   2 198.468 21.2213   3
   6   3   2 166.346 30.0736   1
   7  -3   2 188.544 33.9664   1
   7  -3   2 164.692 21.7778   2
  -7  -3  -2 310.933 53.3141   1
   7  -3   2 262.969 45.6403   1
  -7  -3  -2 273.895 27.5256   3
  -7   3  -2 138.716 19.6665   2
  -7   3  -2 263.529 45.7261   1
  -7   3  -2 210.600 37.3818   1
   7   3   2 227.136 27.2783   2
   7   3   2 237.919 24.7965   3
   7   3   2 251.687 43.8319   1
   7   3   2 218.502 38.6076   1
  -8  -3  -2 37.9488 7.02153   1
   8  -3   2 41.5031 7.57129   1
  -8  -3  -2 39.0861 7.18947   1
   8  -3   2 54.4385 6.60561   2
  -8  -3  -2 42.7869 4.94050   3
   8   3   2 41.7394 4.88276   3
   8   3   2 46.8554 5.87612   2
   8   3   2 45.8537 8.22181   1
  -8   3  -2 43.5318 7.90544   1
  -8   3  -2 52.1308 6.41011   2
  -9  -3  -2 115.372 13.5980   3
   9  -3   2 134.873 16.8613   2
   9   3   2 150.761 16.0985   3
   9   3   2 151.293 18.3219   2
  10  -3   2 270.964 32.4643   2
  10   3   2 262.717 31.6808   2
  10   3   2 232.481 25.6692   3
 -10   3  -2 249.496 30.5089   2
  10   3   2 189.184 25.1992   2
  11  -3   2 189.615 24.6800   2
 -11  -3  -2 247.008 26.1366   3
  11   3   2 211.300 23.5897   3
 -11   3  -2 213.955 26.8139   2
  11   3   2 237.021 28.8864   2
  11   3   2 230.497 28.2621   2
  12  -3   2 22.5699 3.13129   2
 -12  -3  -2 26.3082 3.01967   3
 -12   3  -2 24.8983 3.34524   2
  12   3   2 22.2377 3.06803   2
  12   3   2 25.5800 3.38032   2
  13  -3   2 15.7492 2.14959   2
 -13   3  -2 9.27285 1.59496   2
  13   3   2 12.3961 1.80993   2
  14  -3   2 13.2647 1.99222   2
 -14   3  -2 13.8603 2.07792   2
  15  -3   2 1.59242 0.66061   2
 -15   3  -2 3.38190 0.84704   2
  16  -3   2 16.5567 2.37991   2
 -16   3  -2 14.5564 2.21982   2
  17  -3   2 13.7810 2.01824   2
 -17   3  -2 10.0113 1.64874   2
  18  -3   2 2.65132 0.86724   2
 -18   3  -2 0.55942 0.68075   2
  17  -4  -2 31.7983 4.25222   2
  16  -4  -2 74.7504 9.54100   2
  15  -4  -2 1.55090 0.71489   2
  14  -4  -2 0.68407 0.59714   2
  13  -4  -2 30.2263 3.96766   2
 -13  -4   2 26.4239 3.24178   3
  13   4  -2 28.5397 3.44022   3
  12  -4  -2 11.4485 1.74398   2
 -12  -4   2 9.82845 1.41020   3
  11  -4  -2 50.3127 6.48106   2
 -11  -4   2 51.9338 5.86814   3
 -11   4   2 47.1215 6.20489   2
  11   4  -2 53.3475 6.00240   3
 -10  -4   2 75.1866 8.69434   3
  10   4  -2 92.3385 9.96430   3
 -10   4   2 80.5749 10.2124   2
  -9  -4   2 356.576 39.9159   3
   9   4  -2 333.679 38.3584   3
  -9   4   2 480.510 56.2270   2
  -8  -4   2 0.71992 0.53379   3
   8  -4  -2 0.70716 0.45691   2
  -8   4   2 1.54274 0.55565   2
   8   4  -2 0.62749 0.65780   3
  -7  -4   2 54.2553 5.84065   3
  -7  -4   2 43.5289 7.84368   1
   7  -4  -2 45.4513 8.19173   1
  -7  -4   2 41.5966 7.54470   1
  -7   4   2 42.3622 5.51671   2
  -6  -4   2 54.0418 6.00331   3
   6  -4  -2 45.2184 8.25303   1
   6  -4  -2 50.3546 9.04795   1
  -6   4   2 44.4865 5.26162   3
  -6   4   2 47.2051 8.55802   1
   6   4  -2 50.2236 5.73532   3
  -6   4   2 57.1838 6.98584   2
  -6   4   2 54.6266 9.71497   1
   5  -4  -2 448.255 81.0779   1
   5  -4  -2 499.116 54.4499   3
  -5  -4   2 433.832 49.9897   3
   5   4  -2 670.585 67.2785   3
  -5   4   2 462.110 83.1984   1
   4  -4  -2 266.046 29.3657   3
   4  -4  -2 297.055 52.4078   1
  -4   4   2 275.863 30.0784   3
  -4   4   2 284.739 50.4804   1
  -4   4   2 235.326 42.8713   1
   3  -4  -2 39.6988 4.57861   3
   3  -4  -2 34.9103 6.43206   1
  -3  -4   2 43.4718 4.89036   3
  -3   4   2 38.7646 7.01522   1
  -3   4   2 46.9706 5.12301   3
   3   4  -2 42.2834 4.83608   3
  -3   4   2 39.6025 7.15600   1
  -2  -4   2 28.0088 3.13952   3
   2  -4  -2 27.0544 3.03637   3
   2  -4  -2 23.6940 4.25804   1
   2   4  -2 33.1336 3.57196   3
  -2   4   2 16.6708 2.33561   3
   1  -4  -2 9.68464 1.29183   3
  -1  -4   2 7.69552 1.20163   3
  -1   4   2 12.4492 1.54199   3
   0  -4   2 11.7778 1.59234   3
   0  -4  -2 12.9413 1.60906   3
   0   4  -2 12.2345 1.65670   3
  -1  -4  -2 23.1164 3.08153   3
   1  -4   2 36.6845 4.05583   3
   1   4   2 35.8886 4.00312   3
  -1   4  -2 43.2180 4.57760   3
   2  -4   2 120.558 21.9301   1
  -2  -4  -2 131.936 14.7803   3
   2  -4   2 144.837 15.7111   3
  -2   4  -2 130.539 23.4578   1
  -2   4  -2 126.770 22.8748   1
   2   4   2 157.559 16.6355   3
  -2   4  -2 132.452 14.8315   3
   3  -4   2 365.954 64.1890   1
   3  -4   2 253.478 30.4953   3
  -3   4  -2 320.293 57.0593   1
  -3   4  -2 408.923 41.6031   3
  -3   4  -2 363.465 63.7966   1
  -4  -4  -2 175.365 18.0654   3
   4  -4   2 154.372 16.4808   3
   4  -4   2 108.036 20.1321   1
  -4   4  -2 142.815 15.6610   3
  -4   4  -2 130.920 23.5927   1
   4   4   2 125.034 14.4214   3
  -5  -4  -2 30.7717 5.71870   1
   5  -4   2 38.1679 6.88970   1
  -5  -4  -2 42.1744 4.67934   3
   5  -4   2 37.4893 6.78106   1
  -5   4  -2 41.8455 5.22737   2
  -5   4  -2 35.2450 6.44982   1
   5   4   2 41.6917 4.68084   3
  -5   4  -2 37.0862 4.32144   3
  -6  -4  -2 70.9370 12.8374   1
  -6  -4  -2 75.4730 8.50625   3
   6   4   2 78.6470 8.76882   3
  -6   4  -2 79.6119 9.90044   2
  -7  -4  -2 101.745 10.8251   3
   7  -4   2 102.898 12.3918   2
  -7   4  -2 73.0930 9.74691   2
   7   4   2 85.3624 9.65074   3
  -8  -4  -2 84.0304 9.32247   3
   8   4   2 97.7567 10.3488   3
  -8   4  -2 71.2050 9.37852   2
  -9  -4  -2 10.5679 1.43376   3
   9   4   2 10.7695 1.51184   3
  -9   4  -2 10.3463 1.59821   2
 -10  -4  -2 7.24351 1.07519   3
  10   4   2 5.17162 1.04898   3
 -10   4  -2 6.19476 1.14013   2
  11  -4   2 -0.2968 0.58306   2
  11   4   2 -0.2062 0.65967   3
 -11   4  -2 -0.4623 0.59025   2
 -12  -4  -2 24.3660 3.01588   3
  12  -4   2 28.8780 3.80435   2
  12   4   2 27.4063 3.26957   3
  13  -4   2 23.2195 3.19651   2
  14  -4   2 26.0828 3.55750   2
  15  -4   2 14.8581 2.24101   2
  16  -4   2 31.8685 4.29314   2
 -14  -5   2 18.2772 2.34681   3
 -13  -5   2 53.4195 6.31132   3
  13   5  -2 62.1232 6.96998   3
 -12  -5   2 6.66365 1.12528   3
  12   5  -2 9.37533 1.39791   3
 -11  -5   2 88.2888 10.0516   3
  11   5  -2 95.7118 10.6131   3
 -10  -5   2 30.4779 3.59814   3
  10   5  -2 29.0209 3.53250   3
  -9  -5   2 6.49764 1.03190   3
   9   5  -2 5.34923 1.05625   3
  -8  -5   2 0.52560 0.47933   3
   7   5  -2 0.84149 0.69285   3
  -6  -5   2 1.00175 0.56709   3
   6   5  -2 0.65918 0.69122   3
  -6   5   2 0.67171 0.56548   3
  -5  -5   2 1.10787 0.56957   3
   5   5  -2 0.56700 0.64564   3
  -5   5   2 -0.3262 0.54819   3
   4  -5  -2 11.1557 1.44005   3
  -4  -5   2 8.31405 1.26324   3
  -4   5   2 8.53067 1.32639   3
   4   5  -2 9.35829 1.37034   3
  -3  -5   2 33.7755 4.33867   3
   3  -5  -2 43.3608 4.97110   3
  -3   5   2 60.3253 6.26687   3
   3   5  -2 49.6936 5.48427   3
  -2  -5   2 13.3032 1.83376   3
   2  -5  -2 15.0528 1.91035   3
  -2   5   2 17.4732 2.12139   3
   1  -5  -2 45.5865 5.44938   3
   1   5  -2 59.8171 6.52167   3
  -1   5   2 52.5328 5.96994   3
   0  -5   2 -0.3227 0.60417   3
   0  -5  -2 -0.2319 0.42952   3
   0   5   2 -0.4404 0.60399   3
   0   5  -2 -0.2360 0.68680   3
   1  -5   2 4.17998 0.88952   3
  -1  -5  -2 4.63137 0.83324   3
  -1   5  -2 5.39341 0.98568   3
   2  -5   2 1.35929 0.64048   3
  -2  -5  -2 1.99533 0.61917   3
   2   5   2 1.01842 0.61503   3
  -3  -5  -2 1.15632 0.52636   3
   3  -5   2 1.32867 0.61754   3
  -3   5  -2 1.50191 0.63587   3
   3   5   2 0.84591 0.59143   3
  -4  -5  -2 39.0077 4.29189   3
  -4   5  -2 33.1276 3.88754   3
   4   5   2 27.9726 3.51953   3
   5  -5   2 -0.2217 0.49181   3
  -5  -5  -2 0.51262 0.50382   3
  -5   5  -2 0.81503 0.64162   3
   5   5   2 -1.0688 0.55364   3
  -6  -5  -2 59.3159 6.71301   3
   6   5   2 58.7186 6.70433   3
  -7  -5  -2 12.2548 1.65920   3
  -8  -5  -2 2.98027 0.72421   3
   8   5   2 3.14022 0.78726   3
  -9  -5  -2 21.3289 2.56255   3
   9   5   2 18.5603 2.41771   3
 -10  -5  -2 3.53677 0.76558   3
  10   5   2 2.96773 0.77995   3
 -11  -5  -2 -0.0750 0.50407   3
  11   5   2 0.60466 0.62139   3
 -12  -5  -2 6.98737 1.15225   3
 -13  -5  -2 6.55049 1.08637   3
  13   5   2 7.37001 1.31221   3
 -13  -6   2 11.2476 1.64831   3
 -12  -6   2 20.7706 2.67245   3
  12   6  -2 24.2921 2.97648   3
 -11  -6   2 3.16753 0.81510   3
  11   6  -2 3.17505 0.92525   3
 -10  -6   2 19.5596 2.48741   3
  10   6  -2 21.2189 2.67819   3
  -9  -6   2 1.51086 0.64352   3
   9   6  -2 -0.7919 0.74806   3
   8   6  -2 11.0547 1.70832   3
  -7  -6   2 2.99916 0.77349   3
   7   6  -2 4.40722 0.98765   3
  -6  -6   2 31.3057 3.54004   3
   6   6  -2 22.5437 2.95312   3
  -5  -6   2 16.6367 2.20189   3
   5  -6  -2 17.2163 2.21915   3
  -5   6   2 25.9993 2.92918   3
   5   6  -2 17.9206 2.37535   3
  -4  -6   2 41.9660 4.79329   3
  -4   6   2 33.8066 4.23070   3
   4   6  -2 47.2200 5.23233   3
   3  -6  -2 14.4767 1.96980   3
  -3  -6   2 15.2057 2.01101   3
  -3   6   2 14.2133 1.98693   3
   3   6  -2 21.8509 2.62899   3
   2  -6  -2 3.11973 0.80230   3
   2   6  -2 2.12189 0.86357   3
  -2   6   2 0.30855 0.78687   3
  -1  -6   2 17.0616 2.11347   3
   1  -6  -2 15.0064 1.95508   3
  -1   6   2 14.6760 1.99391   3
   1   6  -2 12.5095 1.87891   3
   0  -6  -2 4.98883 0.93858   3
   0  -6   2 4.54252 0.90256   3
   0   6   2 4.57555 1.01840   3
   0   6  -2 4.87469 1.09999   3
   1  -6   2 35.4941 4.20926   3
  -1   6  -2 35.7412 4.26840   3
   1   6   2 37.4054 4.36467   3
   2  -6   2 18.6856 2.36014   3
  -2  -6  -2 16.6839 2.17482   3
  -2   6  -2 20.3241 2.54478   3
  -3  -6  -2 72.1689 7.67319   3
   3   6   2 53.7537 6.37640   3
  -3   6  -2 55.5660 6.54253   3
  -4  -6  -2 39.7241 4.81858   3
   4  -6   2 45.8511 5.27728   3
   4   6   2 51.6718 5.72003   3
  -4   6  -2 45.8769 5.33894   3
  -5  -6  -2 1.86250 0.66649   3
   5   6   2 0.62984 0.75297   3
  -6  -6  -2 15.3256 1.95793   3
   6   6   2 13.2823 1.85456   3
   7   6   2 20.3706 2.58902   3
  -8  -6  -2 3.63290 0.82718   3
   8   6   2 4.81941 1.05292   3
  -9  -6  -2 -0.2834 0.55285   3
   9   6   2 -0.4880 0.64792   3
 -10  -6  -2 0.26366 0.55590   3
  10   6   2 0.36464 0.64347   3
 -11  -6  -2 1.86045 0.61711   3
  11   6   2 0.91243 0.70230   3
 -12  -6  -2 2.01826 0.79502   3
 -11  -7   2 0.89500 0.62311   3
  11   7  -2 0.33960 0.68931   3
 -10  -7   2 0.83581 0.61905   3
  10   7  -2 1.23985 0.84118   3
  -9  -7   2 55.8792 6.40492   3
  -8  -7   2 4.51764 0.92239   3
   8   7  -2 3.33080 0.98457   3
  -7  -7   2 2.24013 0.68137   3
   7   7  -2 0.11954 0.81516   3
  -6  -7   2 7.89385 1.22716   3
   6   7  -2 5.28528 1.16829   3
  -5  -7   2 48.3614 5.51339   3
   5   7  -2 44.1387 5.24106   3
  -4  -7   2 0.54252 0.54749   3
   4  -7  -2 -0.1347 0.58231   3
  -4   7   2 0.24562 0.72393   3
   4   7  -2 0.10713 0.72070   3
   3  -7  -2 2.55002 0.73196   3
  -3   7   2 1.84318 0.80649   3
   3   7  -2 2.47774 0.83268   3
   2  -7  -2 23.2064 3.21436   3
  -2  -7   2 36.2743 4.06557   3
   2   7  -2 32.7648 3.85629   3
  -2   7   2 35.0330 4.09356   3
   1  -7  -2 32.2413 3.74529   3
  -1  -7   2 31.4229 3.68191   3
  -1   7   2 28.6587 3.53054   3
   1   7  -2 27.9523 3.51279   3
   0  -7  -2 16.7412 2.04416   3
   0  -7   2 10.9115 1.58740   3
   0   7   2 13.8114 1.86165   3
   0   7  -2 10.7659 1.73227   3
  -1  -7  -2 -0.1647 0.53392   3
   1  -7   2 0.06694 0.50630   3
  -1   7  -2 -0.5057 0.74679   3
   1   7   2 0.27398 0.65721   3
  -2  -7  -2 0.24054 0.62033   3
  -2   7  -2 0.02243 0.77270   3
   2   7   2 0.15213 0.66055   3
   3  -7   2 18.2368 2.31149   3
  -3  -7  -2 16.6394 2.15148   3
  -3   7  -2 14.1334 2.08346   3
  -4  -7  -2 23.1373 2.88679   3
   4   7   2 24.8641 3.03317   3
  -5  -7  -2 1.23647 0.61287   3
   5   7   2 0.53270 0.67610   3
  -6  -7  -2 14.9733 1.93074   3
   6   7   2 11.4921 1.70226   3
  -7  -7  -2 3.50611 0.79032   3
   7   7   2 3.17340 0.88745   3
  -8  -7  -2 2.97891 0.76931   3
   8   7   2 3.11963 0.92373   3
  -9  -7  -2 23.6736 2.82602   3
   9   7   2 20.1172 2.60917   3
 -10  -7  -2 21.1241 2.67705   3
  10   7   2 20.9262 2.71052   3
   7   8  -2 40.6503 4.88608   3
  -6  -8   2 4.93166 1.00874   3
   6   8  -2 4.56344 1.07493   3
  -5  -8   2 29.9013 3.59939   3
   5   8  -2 30.2692 3.75164   3
   4   8  -2 0.78913 0.74786   3
  -3  -8   2 0.93429 0.68804   3
   3   8  -2 -0.2995 0.80051   3
  -2  -8   2 -0.5607 0.64659   3
   2   8  -2 0.32540 0.75473   3
  -1  -8   2 -0.3471 0.60658   3
   1  -8  -2 -0.5704 0.61055   3
   1   8  -2 0.31666 0.79737   3
   0  -8   2 5.50476 1.05344   3
   0  -8  -2 4.46735 0.91068   3
   0   8   2 3.41946 1.00659   3
  -1  -8  -2 0.20407 0.55717   3
   1   8   2 0.11683 0.71447   3
  -2  -8  -2 14.8301 2.01375   3
   2   8   2 18.0500 2.29819   3
  -3  -8  -2 7.85645 1.26389   3
   3   8   2 8.47678 1.40748   3
  -4  -8  -2 1.85118 0.67299   3
  -5  -8  -2 0.32271 0.55731   3
   5   8   2 0.45728 0.73294   3
 -21   0   3 -0.1589 0.59308   2
  21   0  -3 -0.2785 0.59257   2
 -20   0   3 0.99103 0.71105   2
  20   0  -3 -0.2178 0.68802   2
  19   0  -3 -0.4988 0.59699   2
 -19   0   3 0.54906 0.69329   2
  18   0  -3 0.00000 0.63719   2
  17   0  -3 0.07811 0.56766   2
 -16   0   3 0.07807 0.69012   2
  16   0  -3 0.20099 0.57707   2
 -15   0   3 0.45143 0.55495   2
 -14   0   3 1.49335 0.72393   2
  13   0  -3 0.04653 0.51793   2
 -13   0   3 -0.1930 0.56872   2
  12   0  -3 -0.2860 0.48779   2
 -12   0   3 -0.2633 0.35770   1
 -12   0   3 -0.5335 0.55477   2
  11   0  -3 0.84395 0.41521   1
 -11   0   3 -0.5380 0.35893   1
 -11   0   3 0.03160 0.51265   2
 -11   0   3 1.12191 0.42563   1
  11   0  -3 0.22042 0.47989   2
  11   0  -3 0.59123 0.36667   1
  10   0  -3 -0.5123 0.37206   1
 -10   0   3 -0.3756 0.30038   1
 -10   0   3 -0.2371 0.36086   1
 -10   0   3 -0.6170 0.43930   2
  10   0  -3 0.13732 0.44955   2
  10   0  -3 0.43626 0.37258   1
  -9   0   3 -0.1509 0.31399   1
   9   0  -3 -0.7110 0.32984   1
  -9   0   3 -0.2153 0.40784   2
   9   0  -3 0.65774 0.39649   1
   9   0  -3 0.13655 0.37251   2
  -9   0   3 0.06906 0.29555   1
   8   0  -3 0.12234 0.39049   2
  -8   0   3 -0.3738 0.31104   1
   8   0  -3 0.10008 0.31729   1
  -8   0   3 0.13272 0.39103   2
  -8   0   3 -0.6352 0.29805   1
   8   0  -3 0.06464 0.31617   1
   7   0  -3 -0.1843 0.28942   1
  -7   0   3 0.49572 0.36898   2
  -7   0   3 0.16510 0.12536   3
   7   0  -3 0.07282 0.30056   2
  -7   0   3 1.12996 0.36126   1
   7   0  -3 0.04223 0.32152   1
  -7   0   3 -0.1339 0.30256   1
   6   0  -3 -0.2775 0.30515   1
   6   0  -3 -0.6339 0.31125   2
  -6   0   3 0.44489 0.31312   1
  -6   0   3 -0.3818 0.25017   1
   6   0  -3 0.29198 0.31136   1
  -6   0   3 0.17620 0.33167   2
  -6   0   3 0.02102 0.12773   3
   5   0  -3 0.00000 0.28384   2
  -5   0   3 -0.6024 0.24800   1
  -5   0   3 0.06288 0.29334   2
  -5   0   3 0.00975 0.13431   3
   5   0  -3 -0.0518 0.16796   3
   5   0  -3 0.03625 0.27579   1
  -5   0   3 0.71753 0.31562   1
   5   0  -3 -0.0629 0.26494   1
  -4   0   3 0.60197 0.28801   2
  -4   0   3 0.20611 0.28168   1
   4   0  -3 0.85207 0.33192   2
   4   0  -3 0.15318 0.15592   3
   4   0  -3 0.13098 0.22475   1
  -4   0   3 0.39532 0.23658   1
   4   0  -3 0.42130 0.27646   1
  -4   0   3 -0.0536 0.13834   3
  -3   0   3 0.10863 0.20682   1
   3   0  -3 0.20734 0.25077   2
   3   0  -3 -0.0648 0.23800   1
  -3   0   3 0.66740 0.27870   2
   3   0  -3 0.40833 0.16244   3
  -3   0   3 -0.2661 0.21949   1
   3   0  -3 -0.0185 0.20255   1
   2   0  -3 0.58934 0.28524   1
  -2   0   3 0.18751 0.11800   3
   2   0  -3 -0.5206 0.22261   1
   2   0  -3 0.28803 0.13564   3
  -2   0   3 0.00000 0.31643   2
   2   0  -3 0.13605 0.25080   2
  -2   0   3 0.40295 0.23397   1
  -2   0   3 0.36475 0.25588   1
  -1   0   3 0.05375 0.24644   2
  -1   0   3 -0.0796 0.17997   1
   1   0  -3 0.15366 0.21809   2
  -1   0   3 0.38354 0.21525   1
  -1   0   3 0.18462 0.12262   3
   1   0  -3 0.65577 0.24580   1
   1   0  -3 0.29441 0.23185   1
   1   0  -3 -0.1689 0.11220   3
   0   0  -3 0.50169 0.25500   2
   0   0   3 -0.0192 0.21018   1
   0   0   3 0.93090 0.27042   1
   0   0  -3 -0.1147 0.19317   1
   0   0  -3 0.56082 0.14968   3
   0   0   3 -0.2103 0.22389   2
   0   0   3 0.18047 0.13988   3
   0   0  -3 -0.4466 0.19841   1
   1   0   3 0.15236 0.15632   3
  -1   0  -3 0.23075 0.14869   3
  -1   0  -3 0.05095 0.25040   2
  -1   0  -3 -0.0288 0.21057   1
   1   0   3 0.03463 0.25526   2
   1   0   3 0.16665 0.23333   1
  -1   0  -3 0.57380 0.28217   1
   1   0   3 0.23031 0.23753   1
   2   0   3 0.23924 0.14289   3
  -2   0  -3 0.35265 0.25636   1
   2   0   3 0.28964 0.30059   2
   2   0   3 0.11740 0.26093   1
   2   0   3 0.36179 0.24491   1
  -2   0  -3 0.29670 0.34310   2
  -2   0  -3 -0.2153 0.28888   1
  -3   0  -3 -0.2612 0.27500   1
   3   0   3 -0.6031 0.30471   1
  -3   0  -3 0.27792 0.28900   2
   3   0   3 0.23249 0.29356   2
   3   0   3 -0.1365 0.28556   1
   3   0   3 -0.0485 0.13105   3
  -3   0  -3 -0.1467 0.32546   1
  -3   0  -3 0.39477 0.15330   3
   4   0   3 -0.1630 0.14529   3
   4   0   3 0.39832 0.28413   1
   4   0   3 -0.5307 0.34745   2
  -4   0  -3 -0.1999 0.28977   1
  -4   0  -3 0.07731 0.26656   1
  -4   0  -3 0.75785 0.38764   2
   4   0   3 0.29390 0.30573   1
   5   0   3 0.09805 0.14603   3
   5   0   3 0.40658 0.38683   1
   5   0   3 0.48341 0.41158   2
  -5   0  -3 0.37447 0.16890   3
  -5   0  -3 0.16301 0.41636   2
  -5   0  -3 -0.7142 0.34429   1
  -6   0  -3 0.34341 0.44968   2
   6   0   3 -1.0384 0.35519   1
  -6   0  -3 -0.0496 0.34936   1
   6   0   3 0.84549 0.41121   1
   6   0   3 0.17527 0.37557   2
  -6   0  -3 -0.2112 0.33780   1
  -6   0  -3 0.15874 0.16251   3
  -7   0  -3 0.48088 0.38068   1
  -7   0  -3 0.42422 0.40439   2
   7   0   3 0.81304 0.43792   1
   7   0   3 2.76075 0.57590   2
   7   0   3 2.27285 0.56699   1
  -7   0  -3 -0.0096 0.41358   1
  -8   0  -3 -0.3373 0.37436   1
  -8   0  -3 0.24323 0.43000   2
  -8   0  -3 -0.0560 0.31087   1
   8   0   3 0.29017 0.36226   1
   8   0   3 0.11901 0.34831   1
   8   0   3 0.32885 0.39989   2
  -9   0  -3 0.42868 0.33996   1
  -9   0  -3 0.49777 0.50476   2
  -9   0  -3 0.26309 0.32193   1
   9   0   3 0.16302 0.31032   1
   9   0   3 0.32786 0.42948   2
   9   0   3 -0.2331 0.29010   1
 -10   0  -3 0.02843 0.37853   1
  10   0   3 -0.2648 0.50474   2
 -10   0  -3 1.11670 0.45765   1
 -10   0  -3 -0.5107 0.43882   2
  10   0   3 -0.0902 0.37760   1
 -11   0  -3 0.56502 0.58573   2
  11   0   3 -0.6361 0.51803   2
 -12   0  -3 -0.1969 0.59518   2
  12   0   3 0.51962 0.63045   2
 -13   0  -3 0.28517 0.57515   2
 -14   0  -3 0.85902 0.56020   2
 -15   0  -3 0.30463 0.56877   2
  16   0   3 -0.0774 0.66868   2
  17   0   3 -0.6449 0.57159   2
  18   0   3 0.64001 0.67458   2
 -18   0  -3 -0.3551 0.63405   2
  19   0   3 -0.3319 0.48187   2
 -19   0  -3 0.34168 0.62318   2
  19   0   3 -0.6714 0.54216   2
  21  -1  -3 6.79390 1.33520   2
 -21   1   3 7.72896 1.39726   2
  20  -1  -3 -0.0157 0.57220   2
 -20  -1   3 -0.5231 0.65389   2
 -20   1   3 0.83920 0.73092   2
  20   1  -3 0.47282 0.64417   2
  19  -1  -3 25.6818 3.47804   2
 -19  -1   3 28.0192 3.73504   2
  19   1  -3 26.0756 3.53153   2
 -19   1   3 22.7551 3.25231   2
  18  -1  -3 25.0656 3.30621   2
 -18  -1   3 21.8260 3.01658   2
  18   1  -3 18.3394 2.67824   2
 -18   1   3 19.5707 2.82080   2
 -17  -1   3 32.8839 4.36143   2
  17  -1  -3 41.5357 5.16168   2
  17   1  -3 29.9377 4.07683   2
 -17   1   3 27.3017 3.86326   2
  16  -1  -3 151.762 19.1982   2
 -16  -1   3 158.528 19.8143   2
  16   1  -3 154.357 19.4251   2
 -16   1   3 168.246 20.6792   2
  15  -1  -3 7.16561 1.28384   2
 -15  -1   3 6.88391 1.23871   2
 -15   1   3 8.28315 1.37608   2
  15   1  -3 6.94014 1.24926   2
 -14  -1   3 9.49734 1.51312   2
  14  -1  -3 8.90264 1.45328   2
 -14   1   3 10.3530 1.62252   2
  14   1  -3 8.69396 1.45404   2
 -13  -1   3 582.962 71.6597   2
  13  -1  -3 600.622 73.2433   2
  13   1  -3 540.715 67.8999   2
 -13   1   3 551.584 68.8540   2
  12  -1  -3 98.1252 12.3784   2
 -12  -1   3 114.697 13.8858   2
  12   1  -3 92.3407 11.8575   2
 -12   1   3 98.1429 12.3784   2
 -11  -1   3 129.818 23.4224   1
  11  -1  -3 149.187 26.4352   1
 -11  -1   3 153.441 27.0859   1
  11  -1  -3 145.131 25.7993   1
  11  -1  -3 166.231 19.8123   2
 -11  -1   3 121.821 15.7925   2
 -11   1   3 149.326 18.2484   2
  11   1  -3 136.587 24.4765   1
  11   1  -3 136.644 24.4888   1
 -11   1   3 119.393 21.8370   1
  11   1  -3 126.340 16.1755   2
 -11   1   3 153.462 27.1046   1
 -10  -1   3 40.3500 4.99920   2
  10  -1  -3 41.5696 5.12825   2
 -10  -1   3 35.3888 6.38170   1
  10  -1  -3 39.2467 7.00079   1
 -10  -1   3 28.5551 5.34514   1
  10  -1  -3 35.0274 6.33282   1
  10   1  -3 38.3280 4.79987   2
  10   1  -3 34.6571 6.27567   1
 -10   1   3 32.6793 5.97638   1
 -10   1   3 41.9691 5.19513   2
  10   1  -3 21.8208 4.37216   1
 -10   1   3 35.5374 6.42753   1
   9  -1  -3 87.8589 10.4964   2
   9  -1  -3 65.3565 11.8806   1
  -9  -1   3 89.9233 15.7073   1
  -9  -1   3 72.4754 12.9667   1
   9  -1  -3 67.2747 12.1661   1
  -9  -1   3 74.8489 9.27336   2
   9   1  -3 71.8550 9.00398   2
  -9   1   3 60.2268 8.00533   2
  -9   1   3 67.7534 12.2487   1
  -9   1   3 67.7911 12.2593   1
   9   1  -3 70.7065 12.6882   1
   9   1  -3 79.5196 14.0714   1
  -8  -1   3 56.0114 10.3362   1
   8  -1  -3 61.6481 11.1971   1
  -8  -1   3 72.6853 12.8927   1
  -8  -1   3 98.1638 11.3224   2
   8  -1  -3 69.7850 8.66861   2
   8  -1  -3 66.7526 11.9811   1
  -8  -1   3 61.1691 7.01958   3
   8   1  -3 76.2959 13.4587   1
   8   1  -3 63.3809 8.07421   2
  -8   1   3 68.3468 12.2268   1
   8   1  -3 55.8185 10.3108   1
  -8   1   3 66.7892 8.39090   2
  -8   1   3 79.9383 14.0495   1
  -7  -1   3 296.884 52.9565   1
   7  -1  -3 309.586 37.8675   2
   7  -1  -3 238.620 44.1130   1
  -7  -1   3 316.657 56.0279   1
  -7  -1   3 282.532 31.4885   3
  -7  -1   3 344.377 41.0253   2
   7  -1  -3 383.161 66.5198   1
   7   1  -3 343.801 60.2857   1
   7   1  -3 333.874 58.7175   1
  -7   1   3 246.262 45.2228   1
  -7   1   3 351.596 41.7048   2
  -7   1   3 382.773 66.4697   1
   7   1  -3 285.973 35.7461   2
   7   1  -3 237.142 28.4431   3
  -6  -1   3 1061.01 186.200   1
  -6  -1   3 907.793 99.8781   3
   6  -1  -3 1059.37 185.870   1
   6  -1  -3 890.590 111.078   2
   6  -1  -3 912.571 163.038   1
  -6  -1   3 1025.83 180.642   1
  -6  -1   3 847.798 107.345   2
   6   1  -3 879.720 157.959   1
   6   1  -3 918.436 113.599   2
  -6   1   3 1156.68 201.175   1
   6   1  -3 796.148 92.2491   3
   6   1  -3 937.729 166.872   1
  -6   1   3 1092.23 191.052   1
  -6   1   3 1012.29 122.052   2
   5  -1  -3 730.392 128.977   1
   5  -1  -3 718.070 87.1855   2
   5  -1  -3 593.807 107.923   1
  -5  -1   3 615.582 69.6700   3
  -5   1   3 966.729 166.351   1
  -5   1   3 621.814 78.6401   2
   5   1  -3 671.076 73.5043   3
  -5   1   3 736.580 129.941   1
   5   1  -3 807.838 95.4134   2
   5   1  -3 637.029 114.507   1
   5   1  -3 713.375 126.302   1
  -5   1   3 609.688 69.2241   3
   4  -1  -3 480.991 85.9665   1
   4  -1  -3 466.133 58.3831   2
   4  -1  -3 455.554 82.0588   1
   4  -1  -3 475.600 52.5026   3
   4   1  -3 495.941 53.9681   3
  -4   1   3 435.701 49.7674   3
   4   1  -3 576.764 100.917   1
  -4   1   3 491.066 60.5866   2
   4   1  -3 565.706 99.1699   1
  -4   1   3 556.348 97.7072   1
   4   1  -3 502.128 61.5603   2
  -4   1   3 544.409 95.8324   1
   3  -1  -3 1546.91 191.751   2
   3  -1  -3 1617.59 287.240   1
  -3  -1   3 1482.77 165.564   3
  -3  -1   3 2161.94 373.247   1
   3  -1  -3 1139.65 215.015   1
  -3  -1   3 1546.90 276.320   1
   3   1  -3 1609.33 197.337   2
  -3   1   3 1701.95 181.084   3
  -3   1   3 1606.16 285.677   1
  -3   1   3 1584.68 282.140   1
  -3   1   3 1649.25 200.904   2
   3   1  -3 1603.35 285.006   1
   3   1  -3 1538.09 169.429   3
   3   1  -3 1743.84 307.079   1
   2  -1  -3 549.533 95.5744   1
   2  -1  -3 511.181 89.5299   1
  -2  -1   3 577.639 100.041   1
  -2  -1   3 524.303 91.5969   1
   2  -1  -3 531.908 54.7509   3
   2  -1  -3 357.929 47.1276   2
  -2  -1   3 405.041 45.5815   3
  -2   1   3 663.659 113.799   1
   2   1  -3 341.686 41.3925   3
   2   1  -3 474.499 57.3467   2
  -2   1   3 627.500 108.006   1
  -1  -1   3 52.2399 5.58506   3
  -1  -1   3 51.2466 6.24834   2
   1  -1  -3 45.6023 5.10268   3
   1  -1  -3 33.3618 6.36396   1
   1  -1  -3 44.9409 5.69242   2
   1  -1  -3 48.9854 8.72478   1
  -1  -1   3 49.8344 8.84751   1
  -1  -1   3 50.3598 8.92845   1
  -1   1   3 50.3897 5.44580   3
   1   1  -3 46.5563 5.80799   2
   1   1  -3 51.6371 5.55708   3
   0  -1   3 750.587 98.2842   2
   0  -1   3 1188.35 205.801   1
   0  -1  -3 713.993 85.9843   3
   0  -1   3 1165.05 118.064   3
   0  -1  -3 1009.26 177.562   1
   0  -1   3 1134.97 197.411   1
   0  -1  -3 1038.44 182.183   1
   0  -1  -3 1048.75 124.743   2
   0   1   3 1009.86 106.447   3
   0   1  -3 828.072 93.5347   3
   1  -1   3 69.9069 8.22250   3
  -1  -1  -3 84.4194 9.23241   3
  -1  -1  -3 70.2488 9.19252   2
  -1  -1  -3 100.001 17.4899   1
  -1  -1  -3 77.5703 13.9961   1
   1  -1   3 101.002 11.9586   2
   1  -1   3 115.174 19.8952   1
   1  -1   3 81.2630 14.5620   1
  -1   1  -3 96.7695 16.9851   1
   1   1   3 77.4394 8.74541   3
  -1   1  -3 104.756 18.2449   1
   1   1   3 91.7920 11.0954   2
   2  -1   3 1918.62 239.059   2
  -2  -1  -3 2154.21 380.251   1
  -2  -1  -3 2679.24 268.379   3
   2  -1   3 2458.91 428.116   1
  -2  -1  -3 2115.63 374.125   1
   2  -1   3 1457.39 181.736   3
   2  -1   3 1365.24 260.755   1
  -2   1  -3 1635.54 214.677   2
   2   1   3 2362.77 412.931   1
  -2   1  -3 3202.02 547.145   1
   2   1   3 2513.13 255.706   3
   2   1   3 2337.40 277.010   2
   2   1   3 2366.89 413.400   1
  -2   1  -3 2136.22 227.696   3
  -2   1  -3 2325.32 407.154   1
   3  -1   3 26.1330 3.35918   2
   3  -1   3 23.2840 2.73269   3
   3  -1   3 29.0661 5.18941   1
   3  -1   3 29.6518 5.28620   1
   3   1   3 26.7919 4.82417   1
  -3   1  -3 26.3294 4.76580   1
   3   1   3 32.3732 3.92360   2
  -3   1  -3 31.6655 5.59588   1
  -3   1  -3 26.5646 2.96258   3
   3   1   3 39.1048 6.77079   1
  -3   1  -3 22.5139 3.04117   2
   3   1   3 30.6556 3.30183   3
   4  -1   3 50.5482 8.92605   1
   4  -1   3 38.0339 5.02519   2
   4  -1   3 49.1731 8.71636   1
  -4  -1  -3 47.8975 5.17467   3
  -4   1  -3 44.1855 5.57194   2
   4   1   3 50.9990 8.99860   1
  -4   1  -3 43.0820 7.77216   1
   4   1   3 45.3973 5.66614   2
  -4   1  -3 58.8381 10.2420   1
   4   1   3 39.9015 7.27192   1
   4   1   3 46.9543 5.11007   3
  -4   1  -3 39.5436 4.54872   3
  -5  -1  -3 684.539 130.800   1
  -5  -1  -3 951.828 105.731   3
   5  -1   3 1157.71 202.866   1
   5  -1   3 980.283 121.530   2
  -5  -1  -3 1159.54 203.076   1
   5   1   3 1424.99 245.286   1
   5   1   3 1074.89 189.914   1
  -5   1  -3 1381.19 158.717   2
   5   1   3 934.338 104.537   3
  -5   1  -3 1134.61 199.216   1
  -5   1  -3 809.456 96.1112   3
   5   1   3 1202.03 141.786   2
  -6  -1  -3 567.997 102.548   1
  -6  -1  -3 614.535 67.3498   3
   6  -1   3 657.187 79.9318   2
  -6  -1  -3 515.268 94.5561   1
  -6  -1  -3 614.804 76.1043   2
   6  -1   3 527.400 96.3905   1
   6  -1   3 575.225 103.658   1
   6   1   3 617.455 76.3233   2
  -6   1  -3 624.358 111.232   1
   6   1   3 763.895 133.092   1
   6   1   3 608.241 66.9051   3
  -6   1  -3 671.395 118.551   1
  -6   1  -3 665.313 80.6739   2
   6   1   3 673.033 118.786   1
  -7  -1  -3 24.2149 3.22829   2
  -7  -1  -3 26.1882 2.93388   3
   7  -1   3 22.9049 3.12194   2
  -7  -1  -3 22.5852 4.19727   1
   7  -1   3 28.7034 5.14403   1
  -7  -1  -3 30.8566 5.47627   1
   7  -1   3 34.1165 5.99834   1
  -7   1  -3 30.9409 5.50107   1
   7   1   3 26.2031 2.95695   3
   7   1   3 28.2867 5.07413   1
   7   1   3 28.0743 3.56898   2
   7   1   3 25.3917 4.62349   1
  -7   1  -3 24.5473 4.50369   1
  -8  -1  -3 148.626 26.3683   1
   8  -1   3 142.507 25.4134   1
   8  -1   3 136.997 17.1548   2
  -8  -1  -3 156.620 18.9266   2
   8  -1   3 121.992 22.2733   1
  -8  -1  -3 130.296 23.5270   1
   8   1   3 151.330 18.4325   2
  -8   1  -3 210.133 36.1244   1
   8   1   3 116.299 21.4036   1
  -8   1  -3 125.570 22.8108   1
   8   1   3 142.204 25.3671   1
  -8   1  -3 130.945 16.6334   2
  -9  -1  -3 327.163 38.8284   2
  -9  -1  -3 265.562 29.3912   3
   9  -1   3 222.257 41.0316   1
  -9  -1  -3 317.051 55.6239   1
  -9  -1  -3 268.274 48.0338   1
   9  -1   3 288.499 51.1765   1
   9   1   3 330.309 39.1230   2
  -9   1  -3 305.156 53.7603   1
   9   1   3 260.553 46.8478   1
   9   1   3 262.320 47.1288   1
  -9   1  -3 194.278 36.9062   1
  10  -1   3 56.6044 7.09216   2
 -10  -1  -3 51.3937 9.30785   1
 -10  -1  -3 47.5636 6.27722   2
 -10   1  -3 57.0499 7.14413   2
  10   1   3 54.2574 6.87405   2
 -11  -1  -3 4.76408 0.91768   2
  11  -1   3 4.37705 0.90244   2
  11   1   3 7.23417 1.18885   2
 -11   1  -3 5.04357 0.98050   2
  12  -1   3 4.99736 1.03183   2
 -12  -1  -3 3.85756 0.82856   2
  12   1   3 4.81468 0.99466   2
 -12   1  -3 5.02098 0.96616   2
  13  -1   3 5.93936 1.09793   2
 -13  -1  -3 4.99071 1.05159   2
  13   1   3 8.09081 1.36020   2
 -13   1  -3 6.13221 1.11547   2
  14  -1   3 54.4721 7.27441   2
 -14  -1  -3 60.7375 7.83727   2
  14   1   3 65.0610 8.24035   2
 -14   1  -3 75.8247 9.20986   2
  15  -1   3 106.930 13.0962   2
 -15  -1  -3 104.458 12.8980   2
  15   1   3 79.9745 10.7096   2
 -15   1  -3 100.209 12.5087   2
 -16  -1  -3 19.6006 2.71950   2
  16  -1   3 19.8990 2.72935   2
 -16   1  -3 14.1843 2.21755   2
  16   1   3 18.0561 2.58287   2
 -17  -1  -3 28.7806 3.87407   2
  17  -1   3 26.8071 3.64852   2
 -17   1  -3 25.6155 3.55631   2
  17   1   3 29.7732 3.92787   2
 -18  -1  -3 37.5069 4.98010   2
  18  -1   3 33.1746 4.56417   2
  18   1   3 38.6151 5.02098   2
 -18   1  -3 41.4802 5.29895   2
  18   1   3 35.4080 4.73421   2
  19  -1   3 3.89326 1.01111   2
 -19   1  -3 5.81838 1.16778   2
  20  -2  -3 18.9704 2.58295   2
 -20   2   3 12.1693 1.99093   2
  19  -2  -3 10.1174 1.62296   2
 -19  -2   3 9.56629 1.64279   2
 -19   2   3 9.74604 1.60639   2
  19   2  -3 8.56767 1.51605   2
  18  -2  -3 28.2414 3.63875   2
 -18  -2   3 25.3171 3.39305   2
 -18   2   3 18.6039 2.76672   2
  18   2  -3 19.4783 2.83966   2
  17  -2  -3 92.6420 11.8340   2
 -17   2   3 103.116 12.7567   2
  17   2  -3 92.0229 11.7733   2
 -16  -2   3 36.1520 4.99032   2
  16  -2  -3 44.1770 5.67141   2
 -16   2   3 50.1451 6.22822   2
  15  -2  -3 38.5465 5.11573   2
 -15  -2   3 44.3132 5.65294   2
  14  -2  -3 25.1647 3.47647   2
 -14  -2   3 27.4508 3.67158   2
  14   2  -3 30.4174 3.92466   2
 -13  -2   3 61.4278 7.69952   2
  13  -2  -3 57.3385 7.35290   2
  13   2  -3 55.6078 7.17782   2
  12  -2  -3 186.413 22.5003   2
 -12  -2   3 145.144 18.7989   2
 -12   2   3 221.002 25.7852   2
  12   2  -3 142.791 18.6014   2
 -11  -2   3 34.1874 4.48211   2
 -11  -2   3 31.9621 3.81521   3
 -11  -2   3 38.6931 6.92828   1
 -11  -2   3 40.4725 7.21731   1
  11  -2  -3 37.0734 6.68040   1
 -11   2   3 32.9987 4.40063   2
  11   2  -3 44.9858 5.46763   2
 -10  -2   3 580.943 61.6561   3
 -10  -2   3 505.231 63.2719   2
 -10  -2   3 601.651 105.667   1
  10  -2  -3 369.490 70.3685   1
  10  -2  -3 566.281 100.167   1
 -10  -2   3 696.017 120.616   1
 -10   2   3 524.915 65.0498   2
  10   2  -3 451.302 82.4654   1
  10   2  -3 504.605 56.2096   3
  10   2  -3 584.894 70.3999   2
 -10   2   3 572.230 101.104   1
 -10   2   3 623.505 109.120   1
  10   2  -3 518.424 92.7194   1
  -9  -2   3 1128.76 200.699   1
  -9  -2   3 1199.88 127.644   3
  -9  -2   3 1086.84 134.771   2
   9  -2  -3 1164.51 206.216   1
  -9  -2   3 980.258 177.955   1
   9  -2  -3 1221.12 215.177   1
   9   2  -3 1044.70 131.086   2
  -9   2   3 1538.79 265.315   1
  -9   2   3 1133.07 138.960   2
   9   2  -3 1238.22 217.811   1
   9   2  -3 795.990 150.404   1
   9   2  -3 1086.95 119.541   3
  -9   2   3 1270.41 222.821   1
  -8  -2   3 3.40830 0.72238   1
  -8  -2   3 4.60113 0.73911   3
  -8  -2   3 3.97321 0.80218   1
   8  -2  -3 11.3463 1.99416   1
   8  -2  -3 3.68316 0.78564   1
  -8  -2   3 3.51613 0.62679   2
   8  -2  -3 1.96998 0.60944   2
   8   2  -3 2.74827 0.65417   1
  -8   2   3 2.29301 0.62773   2
  -8   2   3 6.45907 1.22735   1
   8   2  -3 3.96323 0.70586   3
  -8   2   3 3.69523 0.77949   1
   8   2  -3 3.44539 0.62255   2
   8   2  -3 2.68388 0.59476   1
   7  -2  -3 1.53983 0.40700   1
  -7  -2   3 2.60554 0.57631   1
   7  -2  -3 1.67185 0.44042   1
  -7  -2   3 0.86734 0.32089   1
  -7  -2   3 1.09538 0.32941   2
   7  -2  -3 1.82274 0.46685   2
  -7  -2   3 0.77773 0.36518   3
  -7   2   3 2.89740 0.60580   1
  -7   2   3 2.41197 0.49843   2
   7   2  -3 0.95740 0.30997   1
   7   2  -3 1.22706 0.35265   2
   7   2  -3 0.88842 0.45183   3
   7   2  -3 0.79845 0.31394   1
  -7   2   3 1.85750 0.49159   1
   6  -2  -3 256.671 47.2497   1
  -6  -2   3 334.471 59.1375   1
  -6  -2   3 455.914 78.4148   1
   6  -2  -3 299.812 37.5147   2
  -6  -2   3 357.024 42.6692   2
  -6  -2   3 256.673 30.4388   3
   6  -2  -3 378.706 66.1125   1
   6   2  -3 329.406 40.1267   2
   6   2  -3 309.103 34.0173   3
  -6   2   3 299.369 53.7278   1
   6   2  -3 335.648 59.3371   1
  -6   2   3 344.968 60.7933   1
   6   2  -3 305.463 54.6589   1
  -5  -2   3 42.6282 7.55714   1
   5  -2  -3 44.5045 5.42823   2
  -5  -2   3 48.8333 8.52919   1
   5  -2  -3 40.5064 7.24713   1
   5  -2  -3 43.8361 7.76258   1
   5   2  -3 40.4446 4.51787   3
  -5   2   3 35.7232 4.10281   3
  -5   2   3 36.7518 6.66426   1
  -5   2   3 37.1578 4.78817   2
   5   2  -3 46.9768 8.24036   1
  -5   2   3 54.0210 9.37668   1
   5   2  -3 31.4484 4.23176   2
   5   2  -3 41.4501 7.37426   1
  -4  -2   3 17.2671 2.00523   3
  -4  -2   3 14.8944 2.72077   1
  -4  -2   3 15.5407 2.82756   1
   4  -2  -3 16.5762 1.87825   3
   4  -2  -3 17.0996 2.17623   2
   4  -2  -3 15.7666 2.88478   1
   4  -2  -3 17.5537 3.15685   1
   4   2  -3 16.1437 2.06340   2
   4   2  -3 17.1227 3.07186   1
   4   2  -3 18.4057 3.27294   1
  -4   2   3 14.4190 1.94802   2
  -4   2   3 16.7061 1.90438   3
  -4   2   3 17.6842 3.17806   1
  -4   2   3 18.6129 3.31642   1
   4   2  -3 16.6248 1.97534   3
   3  -2  -3 20.7690 2.74884   2
  -3  -2   3 31.4341 5.47398   1
   3  -2  -3 18.4345 3.47482   1
  -3  -2   3 30.1500 3.20543   3
   3  -2  -3 26.3091 2.86826   3
   3  -2  -3 27.3496 4.84231   1
   3   2  -3 26.1889 2.92063   3
   3   2  -3 23.9601 4.29839   1
  -3   2   3 30.1287 3.16044   3
   3   2  -3 22.9833 2.91593   2
  -3   2   3 22.1534 4.03682   1
   3   2  -3 29.0917 5.09629   1
  -3   2   3 22.6743 4.11262   1
  -3   2   3 19.1513 2.60367   2
  -2  -2   3 761.563 131.511   1
   2  -2  -3 515.401 65.0894   2
   2  -2  -3 607.440 107.159   1
  -2  -2   3 547.378 60.2715   3
   2  -2  -3 367.196 70.9290   1
  -2   2   3 495.838 89.9267   1
  -2   2   3 727.907 126.157   1
  -2   2   3 569.258 61.7724   3
   2   2  -3 710.827 123.441   1
   2   2  -3 726.805 125.979   1
   2   2  -3 559.205 61.1120   3
   2   2  -3 682.640 80.2031   2
  -2   2   3 516.460 65.1763   2
  -1  -2   3 529.101 59.6406   3
   1  -2  -3 704.627 122.778   1
   1  -2  -3 640.506 112.696   1
  -1  -2   3 542.625 97.4968   1
  -1  -2   3 634.430 111.723   1
   1  -2  -3 698.454 71.8274   3
   1   2  -3 501.255 57.7588   3
   1   2  -3 622.322 109.841   1
  -1   2   3 786.474 135.820   1
  -1   2   3 553.215 99.1268   1
   1   2  -3 654.462 78.1451   2
  -1   2   3 583.635 71.7010   2
  -1   2   3 538.812 60.3296   3
   1   2  -3 413.746 78.1432   1
   0  -2  -3 76.3418 8.88199   3
   0  -2   3 98.0243 17.2592   1
   0  -2  -3 81.2460 14.6549   1
   0  -2  -3 92.2744 16.3678   1
   0  -2   3 74.1411 13.5797   1
   0  -2   3 87.4086 9.64499   3
   0   2   3 99.9679 17.5581   1
   0   2  -3 71.8651 13.2332   1
   0   2   3 95.5849 16.8673   1
   0   2  -3 91.0466 11.1525   2
   0   2   3 87.6343 10.8586   2
   0   2  -3 91.4323 9.93460   3
   0   2  -3 94.9997 16.7851   1
   0   2   3 97.7444 10.4031   3
   1  -2   3 471.518 81.5626   1
   1  -2   3 276.647 51.3168   1
  -1  -2  -3 295.484 54.1275   1
   1  -2   3 349.506 43.2247   2
  -1  -2  -3 329.209 36.9197   3
  -1  -2  -3 542.467 92.9278   1
  -1   2  -3 285.521 33.9821   3
   1   2   3 357.467 38.9092   3
   1   2   3 416.957 49.3785   2
  -1   2  -3 436.698 76.0356   1
  -1   2  -3 345.816 61.8038   1
   1   2   3 402.202 70.5672   1
   1   2   3 372.280 65.8966   1
  -1   2  -3 379.882 45.9525   2
   2  -2   3 2067.85 244.734   2
  -2  -2  -3 1776.59 316.039   1
   2  -2   3 2112.49 368.555   1
   2  -2   3 1677.48 300.666   1
   2  -2   3 3172.09 538.714   1
   2  -2   3 1971.84 235.813   2
  -2  -2  -3 2020.88 210.635   3
  -2  -2  -3 2027.09 355.161   1
   2  -2   3 2206.07 224.505   3
  -2   2  -3 1852.80 198.333   3
   2   2   3 1743.51 190.546   3
   2   2   3 1730.64 213.974   2
   2   2   3 1726.00 308.180   1
  -2   2  -3 1239.16 172.427   2
  -2   2  -3 1479.82 270.608   1
  -2   2  -3 1498.75 273.416   1
   2   2   3 1359.68 252.510   1
  -3  -2  -3 1026.09 125.819   2
  -3  -2  -3 1212.79 211.557   1
   3  -2   3 764.406 142.649   1
  -3  -2  -3 1267.26 220.184   1
   3  -2   3 1016.80 110.561   3
   3  -2   3 816.164 107.627   2
   3  -2   3 979.875 175.287   1
  -3  -2  -3 1037.13 112.018   3
  -3   2  -3 1223.89 213.353   1
  -3   2  -3 1001.08 109.476   3
   3   2   3 1347.61 233.055   1
   3   2   3 1046.17 185.454   1
   3   2   3 952.940 106.126   3
   3   2   3 1014.27 124.729   2
  -3   2  -3 1097.68 132.318   2
  -3   2  -3 995.981 177.749   1
   4  -2   3 169.156 30.3745   1
  -4  -2  -3 188.066 22.8776   2
   4  -2   3 231.600 40.1674   1
  -4  -2  -3 187.618 33.2143   1
  -4  -2  -3 218.366 22.4301   3
   4  -2   3 144.710 19.0904   2
  -4  -2  -3 204.270 35.8255   1
   4   2   3 196.701 34.6293   1
   4   2   3 131.294 17.9659   2
   4   2   3 162.200 18.3698   3
  -4   2  -3 203.545 35.7258   1
   4   2   3 207.780 36.3779   1
  -4   2  -3 196.378 23.6565   2
  -4   2  -3 271.080 46.5004   1
  -4   2  -3 178.765 19.5056   3
   5  -2   3 80.1641 9.74588   2
  -5  -2  -3 77.9728 13.8056   1
  -5  -2  -3 55.3197 6.83123   3
  -5  -2  -3 71.5178 8.94138   2
   5  -2   3 78.1532 13.8494   1
  -5  -2  -3 89.3908 15.6147   1
   5  -2   3 86.9673 15.2383   1
  -5   2  -3 75.6238 8.21895   3
   5   2   3 73.1578 8.06087   3
  -5   2  -3 69.8911 8.82229   2
   5   2   3 80.8819 9.78540   2
   5   2   3 78.3472 13.8627   1
  -5   2  -3 57.9306 10.7524   1
   5   2   3 64.5307 11.7295   1
  -5   2  -3 70.0287 12.5851   1
   6  -2   3 24.7470 4.37618   1
  -6  -2  -3 21.5119 2.75253   2
   6  -2   3 20.4456 2.66880   2
  -6  -2  -3 16.9633 2.07815   3
  -6  -2  -3 18.3988 3.36891   1
   6  -2   3 22.9639 4.09232   1
   6   2   3 20.7410 2.37558   3
  -6   2  -3 19.4760 2.57681   2
   6   2   3 22.3551 2.83491   2
   6   2   3 17.3145 2.32581   2
  -6   2  -3 14.8311 2.85323   1
  -6   2  -3 15.1585 2.90207   1
   6   2   3 21.7232 3.88196   1
   7  -2   3 7.81548 1.49198   1
  -7  -2  -3 8.73751 1.25234   2
   7  -2   3 6.32731 1.28122   1
  -7  -2  -3 7.54279 1.43499   1
   7  -2   3 7.90326 1.20164   2
  -7  -2  -3 7.01884 0.96782   3
  -7  -2  -3 7.62731 1.44984   1
  -7   2  -3 6.62023 1.31446   1
   7   2   3 6.75024 1.05727   2
   7   2   3 9.34669 1.71644   1
   7   2   3 7.74456 1.47002   1
  -7   2  -3 6.80719 1.11338   2
  -7   2  -3 7.28381 1.42844   1
   7   2   3 8.07469 1.07937   3
   8  -2   3 154.753 27.7736   1
  -8  -2  -3 171.082 30.3035   1
  -8  -2  -3 180.793 31.8331   1
  -8  -2  -3 154.504 17.1981   3
   8  -2   3 143.511 26.0586   1
  -8  -2  -3 174.082 21.1537   2
  -8   2  -3 187.570 22.4292   2
   8   2   3 149.011 18.9159   2
   8   2   3 177.863 31.3608   1
   8   2   3 147.310 16.7054   3
   8   2   3 156.225 27.9886   1
  -8   2  -3 145.192 26.3137   1
  -8   2  -3 148.653 26.8553   1
  -9  -2  -3 168.388 29.7359   1
   9  -2   3 182.439 31.9447   1
  -9  -2  -3 169.006 29.8474   1
  -9  -2  -3 144.128 18.2721   2
   9   2   3 112.434 21.2136   1
  -9   2  -3 167.970 29.6953   1
   9   2   3 160.897 17.3998   3
  -9   2  -3 139.807 17.9096   2
   9   2   3 178.559 21.3804   2
 -10  -2  -3 175.779 21.8726   2
 -10  -2  -3 189.227 20.2600   3
  10   2   3 162.118 20.6511   2
  10   2   3 172.646 19.0672   3
 -10   2  -3 176.568 21.9432   2
  11  -2   3 260.161 31.2318   2
 -11  -2  -3 232.611 28.7090   2
  11   2   3 183.638 24.4306   2
 -11   2  -3 256.939 30.9210   2
 -12  -2  -3 102.355 12.7184   2
  12  -2   3 89.5349 11.5730   2
  12   2   3 101.606 12.6582   2
  13  -2   3 57.0519 6.83684   2
  13   2   3 34.3258 4.76592   2
 -14  -2  -3 31.1321 4.12010   2
  14  -2   3 27.9336 3.78949   2
  15  -2   3 7.73031 1.35063   2
 -15  -2  -3 7.20590 1.30518   2
  16  -2   3 7.29171 1.33800   2
 -16   2  -3 9.59603 1.53939   2
  16   2   3 6.84840 1.31297   2
 -17  -2  -3 6.82968 1.36275   2
  17  -2   3 8.04442 1.40821   2
  17   2   3 6.66492 1.26812   2
 -17   2  -3 6.27306 1.23019   2
  18  -2   3 2.65751 0.78658   2
 -18   2  -3 1.20063 0.75909   2
  19  -3  -3 -0.3463 0.58739   2
 -19   3   3 0.79534 0.73425   2
  18  -3  -3 48.8896 6.29998   2
 -18   3   3 45.7589 6.04991   2
  17  -3  -3 5.83846 1.13418   2
 -17   3   3 4.24143 1.07994   2
  16  -3  -3 5.65017 1.10878   2
 -16   3   3 2.80067 0.90223   2
  15  -3  -3 8.71754 1.46413   2
 -15   3   3 9.47999 1.57596   2
  14  -3  -3 2.24698 0.71918   2
 -14   3   3 2.93651 0.86224   2
  13  -3  -3 11.2622 1.76546   2
 -13  -3   3 12.7362 1.66433   3
 -13   3   3 15.6386 2.19104   2
  13   3  -3 14.2581 2.04349   2
 -12  -3   3 26.6858 3.06210   3
  12  -3  -3 26.9234 3.50681   2
 -12   3   3 23.6877 3.24073   2
  12   3  -3 23.2771 3.15809   2
  12   3  -3 22.6699 2.80544   3
  11  -3  -3 0.64333 0.54062   2
  11   3  -3 -0.5300 0.53128   3
  11   3  -3 0.55202 0.39328   2
 -11   3   3 1.34397 0.55781   2
  10  -3  -3 1.07272 0.46487   2
 -10  -3   3 0.73776 0.48481   3
  10   3  -3 1.20187 0.43848   2
  10   3  -3 1.29733 0.58697   3
 -10   3   3 0.85734 0.48802   2
   9  -3  -3 5.69187 1.18775   1
   9  -3  -3 6.77035 1.31644   1
  -9  -3   3 5.75659 1.12826   1
  -9  -3   3 4.90716 1.02134   1
  -9  -3   3 9.01175 1.19439   3
   9  -3  -3 5.27902 0.98419   2
   9   3  -3 6.63882 1.26877   1
  -9   3   3 7.13105 1.39032   1
   9   3  -3 6.68095 1.02549   2
   9   3  -3 7.23247 1.37418   1
  -9   3   3 8.76349 1.64713   1
  -9   3   3 8.20111 1.25772   2
   9   3  -3 6.62446 1.07493   3
   8  -3  -3 79.7716 14.3763   1
   8  -3  -3 82.3746 14.7869   1
  -8  -3   3 82.0971 9.20663   3
  -8  -3   3 77.4362 14.0009   1
   8  -3  -3 81.7414 10.3044   2
  -8   3   3 105.494 18.4146   1
   8   3  -3 80.7742 14.5156   1
   8   3  -3 80.5676 10.1658   2
   8   3  -3 85.5466 15.2550   1
   8   3  -3 87.2995 9.60819   3
  -8   3   3 68.6963 12.6946   1
  -8   3   3 91.8833 11.2297   2
  -7  -3   3 47.3804 5.13346   3
  -7  -3   3 43.8516 7.77783   1
   7  -3  -3 40.0964 7.22119   1
   7  -3  -3 31.9910 4.38762   2
   7  -3  -3 36.6677 6.68627   1
   7   3  -3 41.5230 7.41050   1
  -7   3   3 41.0292 5.19997   2
   7   3  -3 44.4607 4.92082   3
  -7   3   3 41.9952 7.51155   1
  -7   3   3 39.6140 7.14206   1
   6  -3  -3 231.161 29.3574   2
   6  -3  -3 276.290 48.7407   1
  -6  -3   3 247.927 44.3127   1
   6  -3  -3 300.420 52.5368   1
  -6   3   3 262.957 32.1732   2
   6   3  -3 230.203 41.5926   1
  -6   3   3 264.003 46.8386   1
  -6   3   3 306.017 53.4356   1
   6   3  -3 253.658 45.2000   1
   6   3  -3 230.330 26.1789   3
   5  -3  -3 32.1467 4.07146   2
   5  -3  -3 24.8139 4.65136   1
   5  -3  -3 29.0360 5.29734   1
   5  -3  -3 34.6357 3.78237   3
  -5  -3   3 36.8170 4.02224   3
  -5   3   3 36.9537 3.96660   3
  -5   3   3 27.3991 3.63198   2
  -5   3   3 27.1507 5.00562   1
   5   3  -3 31.1650 5.59982   1
  -5   3   3 31.2488 5.63794   1
   5   3  -3 33.9905 3.84349   3
   5   3  -3 34.6149 6.13299   1
   4  -3  -3 152.052 26.5289   1
  -4  -3   3 129.928 14.1130   3
   4  -3  -3 159.221 27.6835   1
   4  -3  -3 117.543 13.1851   3
  -4   3   3 129.830 15.8930   2
   4   3  -3 128.466 14.0232   3
  -4   3   3 108.865 19.8133   1
  -4   3   3 110.821 12.7336   3
  -4   3   3 107.230 19.5641   1
   4   3  -3 116.019 20.8752   1
   4   3  -3 140.560 24.7022   1
  -3  -3   3 106.439 12.1191   3
   3  -3  -3 108.887 19.5934   1
   3  -3  -3 110.014 12.3223   3
   3   3  -3 120.009 13.0836   3
  -3   3   3 138.076 24.1486   1
  -3   3   3 127.524 22.4850   1
  -3   3   3 114.455 12.6443   3
   2  -3  -3 32.8476 3.52228   3
  -2  -3   3 31.2402 3.44582   3
   2  -3  -3 29.6522 5.26224   1
  -2   3   3 20.7940 2.69960   3
  -2   3   3 37.0240 6.43831   1
   2   3  -3 27.5480 3.18679   3
  -2   3   3 23.7762 4.35193   1
   1  -3  -3 168.986 19.4061   3
  -1  -3   3 217.339 22.8678   3
   1  -3  -3 194.507 34.5898   1
   1   3  -3 168.763 19.4127   3
  -1   3   3 201.144 35.6046   1
  -1   3   3 178.304 32.0737   1
   1   3  -3 203.458 35.9650   1
   1   3  -3 313.557 53.5096   1
   0  -3   3 0.03245 0.41207   3
   0  -3  -3 0.25265 0.35621   3
   0  -3  -3 0.42619 0.18449   1
   0  -3   3 0.12551 0.13675   1
   0   3  -3 -0.1313 0.16087   1
   0   3   3 0.48035 0.16640   1
   0   3   3 0.03573 0.11933   1
   0   3   3 -0.3196 0.49959   3
   0   3  -3 0.07430 0.20338   1
   0   3  -3 0.72008 0.45215   3
  -1  -3  -3 167.536 29.4374   1
  -1  -3  -3 154.618 16.7659   3
   1  -3   3 154.837 16.7897   3
   1  -3   3 169.732 29.7843   1
  -1   3  -3 168.949 17.8227   3
  -1   3  -3 198.975 34.4388   1
  -1   3  -3 158.751 28.0721   1
   1   3   3 109.416 13.7178   3
   2  -3   3 14.3147 2.55614   1
   2  -3   3 11.1974 1.43654   3
  -2  -3  -3 14.3819 1.68692   3
  -2  -3  -3 15.0426 2.66048   1
  -2   3  -3 13.8368 1.77765   2
  -2   3  -3 11.2986 1.47111   3
  -2   3  -3 14.3210 2.56173   1
   2   3   3 9.83631 1.42665   3
  -2   3  -3 12.3975 2.26411   1
  -3  -3  -3 28.4701 3.21450   3
   3  -3   3 27.4177 3.12524   3
   3  -3   3 21.6645 4.05206   1
   3  -3   3 31.1812 5.51341   1
   3  -3   3 38.1263 6.63272   1
   3   3   3 29.4801 5.23090   1
   3   3   3 34.1809 3.67716   3
  -3   3  -3 27.5509 4.94546   1
  -3   3  -3 32.5714 3.51836   3
   3   3   3 25.5105 4.61531   1
  -3   3  -3 18.8023 2.74593   2
  -3   3  -3 32.1961 5.68037   1
   4  -3   3 7.77202 1.07638   3
   4  -3   3 9.76311 1.34251   2
   4  -3   3 9.21673 1.70246   1
   4  -3   3 8.64467 1.61029   1
  -4  -3  -3 9.78646 1.24604   3
   4   3   3 8.10446 1.51135   1
  -4   3  -3 10.1326 1.36908   2
  -4   3  -3 5.74885 1.18561   1
  -4   3  -3 7.10080 1.03899   3
  -4   3  -3 7.33095 1.41087   1
   4   3   3 9.42427 1.26718   3
   4   3   3 8.60573 1.57588   1
   5  -3   3 9.56798 1.81502   1
  -5  -3  -3 8.63164 1.64705   1
  -5  -3  -3 10.0905 1.33884   3
   5  -3   3 13.6836 2.45458   1
   5  -3   3 10.9558 1.51514   2
   5   3   3 8.38081 1.60469   1
   5   3   3 10.6681 1.96565   1
  -5   3  -3 10.8231 1.49681   2
   5   3   3 12.0989 1.56807   3
  -5   3  -3 9.64984 1.82726   1
  -5   3  -3 9.95286 1.30539   3
  -5   3  -3 13.3124 2.40103   1
   6  -3   3 13.1556 2.50792   1
  -6  -3  -3 18.1045 3.24967   1
  -6  -3  -3 19.6103 2.22316   3
   6  -3   3 17.2661 2.27535   2
   6  -3   3 20.0160 3.56225   1
  -6   3  -3 13.6279 2.58638   1
   6   3   3 16.8370 2.20180   2
  -6   3  -3 16.4567 2.21606   2
  -6   3  -3 12.8019 2.46139   1
   6   3   3 17.8595 2.11933   3
   6   3   3 17.6719 3.17662   1
   6   3   3 11.4994 2.24060   1
   7  -3   3 10.9522 2.05206   1
   7  -3   3 10.3444 1.97495   1
  -7  -3  -3 14.1197 2.52770   1
  -7  -3  -3 8.24832 1.63000   1
  -7  -3  -3 10.9258 1.41506   3
   7  -3   3 9.62653 1.48628   2
   7   3   3 11.0953 2.05860   1
  -7   3  -3 11.5380 2.14720   1
  -7   3  -3 10.4879 1.54612   2
   7   3   3 10.2795 1.42980   3
   7   3   3 18.5231 2.26561   2
   7   3   3 10.3450 1.93661   1
  -7   3  -3 12.7543 2.34425   1
  -8  -3  -3 18.2758 3.38807   1
   8   3   3 21.4090 2.79590   2
  -9  -3  -3 14.2656 1.81622   3
   9  -3   3 14.0991 2.05380   2
   9   3   3 16.8551 2.03020   3
   9   3   3 14.8783 2.06135   2
  10  -3   3 14.7683 2.14974   2
 -10   3  -3 15.7452 2.21513   2
  10   3   3 15.7292 1.96544   3
  10   3   3 16.5109 2.30701   2
  11  -3   3 17.8730 2.58999   2
 -11  -3  -3 20.8817 2.49145   3
 -11   3  -3 24.3677 3.19323   2
  11   3   3 20.1427 2.46449   3
  11   3   3 24.0378 3.12331   2
 -12  -3  -3 12.5963 1.96798   2
  12  -3   3 12.8475 1.88797   2
  12   3   3 13.4119 1.92262   2
 -12   3  -3 12.5038 1.87119   2
  13  -3   3 0.45511 0.60168   2
  13   3   3 0.38399 0.51358   2
  14  -3   3 3.10597 0.89122   2
 -14   3  -3 3.81819 0.96744   2
  15  -3   3 4.75303 1.02354   2
 -15   3  -3 3.57368 0.90244   2
  16  -3   3 34.1769 4.54018   2
 -16   3  -3 34.0500 4.53863   2
  17  -3   3 5.50387 1.16818   2
 -17   3  -3 6.69877 1.26359   2
  17  -4  -3 32.7546 4.38048   2
  16  -4  -3 5.39655 1.13433   2
  15  -4  -3 17.3038 2.55684   2
  14  -4  -3 12.3778 1.89685   2
 -13  -4   3 0.27908 0.46159   3
  13  -4  -3 -0.0157 0.50773   2
  13   4  -3 1.45257 0.67951   3
  12  -4  -3 19.6559 2.72188   2
  12   4  -3 18.3203 2.35675   3
 -11  -4   3 0.57595 0.47657   3
  11  -4  -3 1.44591 0.66553   2
  11   4  -3 -0.3406 0.66872   3
 -11   4   3 0.17695 0.58550   2
 -10  -4   3 0.63317 0.46094   3
 -10   4   3 0.43779 0.51121   2
  10   4  -3 1.20586 0.73407   3
  -9  -4   3 153.264 17.1902   3
   9   4  -3 164.633 18.0209   3
  -8  -4   3 73.1111 8.08451   3
   8  -4  -3 72.4981 9.03024   2
   8   4  -3 67.8675 7.73633   3
  -8   4   3 65.3866 8.41762   2
  -7  -4   3 0.21820 0.52164   3
  -7  -4   3 -0.0515 0.22532   1
   7  -4  -3 -0.0787 0.26621   1
  -7   4   3 -0.1572 0.40150   2
   7   4  -3 0.67220 0.66581   3
   6  -4  -3 104.668 19.1863   1
  -6  -4   3 147.048 15.4143   3
   6  -4  -3 116.840 21.0358   1
  -6   4   3 114.432 12.9877   3
  -6   4   3 118.417 21.2798   1
   6   4  -3 133.004 14.3944   3
  -6   4   3 120.618 15.0983   2
  -6   4   3 121.623 21.7783   1
  -5  -4   3 24.1171 2.76692   3
   5  -4  -3 25.8565 4.58021   1
   5  -4  -3 17.0612 2.17354   3
  -5   4   3 22.1191 2.55971   3
   5   4  -3 20.1445 2.52181   3
  -5   4   3 19.5512 3.58299   1
   4  -4  -3 24.8884 2.96108   3
   4  -4  -3 22.2018 4.09883   1
  -4   4   3 31.3399 5.52712   1
  -4   4   3 23.6914 4.33057   1
  -4   4   3 28.7304 3.23942   3
   3  -4  -3 0.31421 0.22875   1
  -3  -4   3 0.26741 0.46965   3
   3  -4  -3 -0.3882 0.37029   3
  -3   4   3 -0.0541 0.18039   1
  -3   4   3 0.39694 0.20283   1
   3   4  -3 0.78084 0.60687   3
  -3   4   3 -0.2191 0.50481   3
  -2  -4   3 253.397 26.4613   3
   2  -4  -3 265.452 46.2378   1
   2  -4  -3 175.675 20.9277   3
  -2   4   3 232.804 41.1139   1
   2   4  -3 190.561 21.9741   3
  -2   4   3 259.234 26.8709   3
  -2   4   3 210.564 37.6648   1
  -1  -4   3 127.483 14.6340   3
   1  -4  -3 146.650 15.9564   3
  -1   4   3 149.858 16.2058   3
   0  -4  -3 0.91225 0.45439   3
   0  -4   3 -0.2371 0.44555   3
   0   4  -3 -0.3275 0.56408   3
  -1  -4  -3 247.731 26.3088   3
   1  -4   3 236.195 25.4936   3
   1  -4   3 210.820 37.9052   1
  -1   4  -3 253.498 44.5479   1
   1   4   3 196.070 22.6842   3
  -1   4  -3 216.713 24.1142   3
  -1   4  -3 222.728 39.7405   1
   2  -4   3 53.5448 5.74584   3
   2  -4   3 38.4305 7.05880   1
  -2   4  -3 54.9340 5.87144   3
  -2   4  -3 50.1608 8.87400   1
  -2   4  -3 31.6580 6.04753   1
   3  -4   3 24.4707 4.32508   1
  -3  -4  -3 23.3878 2.64828   3
   3  -4   3 18.3668 2.30423   3
  -3   4  -3 15.0926 2.88402   1
  -3   4  -3 17.7452 3.29147   1
  -3   4  -3 22.7247 2.63314   3
   3   4   3 20.6465 2.48320   3
   4  -4   3 11.6614 2.17449   1
   4  -4   3 13.2773 1.68338   3
  -4  -4  -3 12.1409 1.60911   3
  -4   4  -3 11.6045 2.16820   1
   4   4   3 12.4264 1.65548   3
  -4   4  -3 15.6948 2.81537   1
  -5  -4  -3 1.71016 0.56840   3
  -5  -4  -3 1.76899 0.41463   1
   5  -4   3 2.40278 0.55286   1
   5  -4   3 1.03379 0.36751   1
   5   4   3 1.00421 0.60250   3
  -5   4  -3 2.56926 0.61585   2
  -5   4  -3 1.88329 0.58928   3
   6  -4   3 5.73106 0.96955   2
  -6  -4  -3 4.28808 0.84659   3
  -6   4  -3 6.59800 1.07330   2
   7  -4   3 2.47021 0.67681   2
  -7  -4  -3 2.50920 0.61216   3
   7   4   3 2.45539 0.72474   3
  -7   4  -3 3.13085 0.71847   2
  -8  -4  -3 1.71950 0.60387   3
   8   4   3 0.97139 0.59087   3
  -8   4  -3 1.42879 0.63850   2
  -9  -4  -3 0.24487 0.47538   3
  -9   4  -3 0.75979 0.59458   2
   9   4   3 0.25956 0.60542   3
 -10  -4  -3 24.0941 2.90140   3
  10   4   3 23.4757 2.92264   3
 -10   4  -3 27.0387 3.60022   2
 -11  -4  -3 21.2281 2.56358   3
  11  -4   3 20.4660 2.91720   2
 -11   4  -3 21.3901 2.95655   2
 -12  -4  -3 7.06875 1.02793   3
  12  -4   3 6.91074 1.22129   2
  12   4   3 5.24778 0.95735   3
  13  -4   3 23.3403 3.24384   2
  14  -4   3 34.8654 4.63190   2
  15  -4   3 0.68087 0.57919   2
  16  -4   3 0.04395 0.51789   2
  16  -4   3 -0.7460 0.51287   2
 -14  -5   3 59.3560 6.89771   3
  14   5  -3 64.6598 7.30092   3
 -13  -5   3 78.9387 8.91550   3
 -12  -5   3 34.6709 4.21899   3
  12   5  -3 41.4578 4.78787   3
 -11  -5   3 9.66444 1.38391   3
  11   5  -3 8.69069 1.40268   3
 -10  -5   3 39.3516 4.55663   3
  10   5  -3 36.9585 4.42122   3
  -9  -5   3 7.84309 1.22300   3
   9   5  -3 6.69432 1.22651   3
  -8  -5   3 11.4894 1.57573   3
  -7  -5   3 96.1700 10.8122   3
   7   5  -3 98.8744 11.0339   3
  -6  -5   3 68.8304 7.80922   3
   6   5  -3 71.0709 8.01487   3
  -5  -5   3 98.4326 11.4327   3
  -5   5   3 112.996 12.4221   3
   5   5  -3 119.422 12.9332   3
  -4  -5   3 6.30107 1.09775   3
   4  -5  -3 7.01713 1.05209   3
  -4   5   3 6.69130 1.07678   3
   4   5  -3 6.77912 1.15985   3
  -3  -5   3 18.0130 2.30012   3
   3  -5  -3 19.2080 2.36925   3
   3   5  -3 20.5336 2.51389   3
  -3   5   3 17.0829 2.21250   3
   2  -5  -3 156.003 17.2364   3
  -2  -5   3 157.462 17.3793   3
  -2   5   3 152.229 16.9757   3
  -1  -5   3 43.5283 5.22671   3
   1  -5  -3 46.3228 5.36528   3
  -1   5   3 53.2698 5.88386   3
   1   5  -3 51.5708 5.80770   3
   0  -5   3 66.4292 7.63131   3
   0   5  -3 68.0057 7.74880   3
   0   5   3 73.1395 8.08131   3
   1  -5   3 3.84172 0.83744   3
  -1  -5  -3 3.02591 0.74171   3
  -1   5  -3 3.80085 0.87917   3
   2  -5   3 69.4440 7.30736   3
  -2  -5  -3 55.4987 6.20800   3
  -2   5  -3 45.0950 5.53500   3
   2   5   3 50.9901 5.90074   3
   3  -5   3 0.42391 0.53979   3
  -3  -5  -3 1.20372 0.56124   3
   3   5   3 0.01105 0.63699   3
  -3   5  -3 0.51823 0.65434   3
  -4  -5  -3 35.7134 4.09970   3
   4   5   3 38.5786 4.33504   3
  -4   5  -3 30.0891 3.74687   3
  -5  -5  -3 228.341 23.8387   3
   5   5   3 169.815 19.6694   3
  -5   5  -3 190.839 21.1537   3
   6   5   3 119.226 13.2858   3
  -7  -5  -3 99.0385 11.0585   3
  -8  -5  -3 44.3795 5.27663   3
   8   5   3 55.8169 6.13056   3
  -9  -5  -3 37.6381 4.22858   3
   9   5   3 30.2404 3.71953   3
 -10  -5  -3 3.47395 0.73701   3
  10   5   3 2.97247 0.81353   3
  11   5   3 3.34432 0.91547   3
 -12  -5  -3 3.24619 0.72767   3
  12   5   3 3.95759 0.85818   3
 -13  -6   3 10.2486 1.53628   3
  13   6  -3 12.0116 1.74796   3
 -12  -6   3 58.5712 6.79809   3
  12   6  -3 64.3852 7.26677   3
 -11  -6   3 12.4002 1.67431   3
  11   6  -3 9.64244 1.56351   3
 -10  -6   3 78.0385 8.86568   3
  10   6  -3 81.0924 9.12321   3
  -9  -6   3 14.0723 1.85815   3
   9   6  -3 14.6103 2.00838   3
   8   6  -3 22.3494 2.84799   3
  -7  -6   3 0.89280 0.63702   3
   7   6  -3 0.47411 0.76094   3
  -6  -6   3 17.8069 2.29769   3
   6   6  -3 20.0485 2.53614   3
   5  -6  -3 34.3586 4.12399   3
  -5  -6   3 50.8784 5.39661   3
  -5   6   3 47.3157 5.12280   3
   5   6  -3 29.6774 3.87975   3
  -4  -6   3 3.27913 0.76113   3
   4   6  -3 2.87351 0.88482   3
  -4   6   3 2.68229 0.82104   3
  -3  -6   3 9.33531 1.37377   3
   3  -6  -3 9.45397 1.35546   3
  -3   6   3 9.26521 1.42349   3
   2  -6  -3 52.1126 5.85952   3
  -2   6   3 57.9174 6.31579   3
   2   6  -3 42.3708 5.24794   3
   1  -6  -3 74.7938 8.59045   3
  -1  -6   3 95.1744 10.0979   3
  -1   6   3 82.0702 9.13221   3
   1   6  -3 70.5292 8.35989   3
   0  -6  -3 9.81927 1.41815   3
   0  -6   3 10.3496 1.48906   3
   0   6  -3 12.2976 1.73236   3
   0   6   3 9.19094 1.45027   3
   1  -6   3 3.51520 0.85684   3
   1   6   3 7.15238 1.16333   3
  -1   6  -3 5.36498 1.04813   3
  -2  -6  -3 27.0948 3.19216   3
   2  -6   3 31.0998 3.54155   3
  -2   6  -3 27.4217 3.30191   3
   2   6   3 20.3081 2.82565   3
  -3  -6  -3 56.1142 6.14475   3
   3   6   3 43.8760 5.30317   3
  -3   6  -3 50.2384 5.79873   3
   4  -6   3 -0.3202 0.51898   3
  -4  -6  -3 0.44845 0.53183   3
   4   6   3 -0.5051 0.61831   3
  -4   6  -3 -0.1349 0.71071   3
  -5  -6  -3 24.5914 2.97231   3
   5   6   3 24.6594 3.01826   3
  -6  -6  -3 13.4246 1.81757   3
   6   6   3 13.5505 1.84265   3
   7   6   3 5.76435 1.10746   3
  -8  -6  -3 9.38104 1.34132   3
   8   6   3 7.88546 1.33824   3
  -9  -6  -3 1.33309 0.67464   3
   9   6   3 1.39183 0.68256   3
 -10  -6  -3 0.14733 0.50330   3
  10   6   3 0.23504 0.58887   3
 -11  -6  -3 11.8682 1.53650   3
  11   6   3 7.91206 1.33343   3
 -11  -7   3 3.00100 0.82261   3
  11   7  -3 3.44077 0.98359   3
 -10  -7   3 33.9113 4.02375   3
  10   7  -3 34.2987 4.12593   3
  -9  -7   3 1.31741 0.60958   3
   9   7  -3 0.73685 0.81988   3
  -8  -7   3 9.16626 1.38248   3
   8   7  -3 8.07122 1.44031   3
  -7  -7   3 6.78850 1.13823   3
   7   7  -3 6.79261 1.22787   3
  -6  -7   3 1.48905 0.61158   3
   6   7  -3 1.60010 0.74645   3
  -5  -7   3 1.17187 0.58578   3
   5   7  -3 0.84063 0.75420   3
  -4  -7   3 3.77032 0.87980   3
   4  -7  -3 2.43335 0.73656   3
  -4   7   3 4.28499 1.02250   3
  -3   7   3 14.3873 1.99273   3
   3   7  -3 15.0106 2.07330   3
   2  -7  -3 0.96168 0.60044   3
  -2  -7   3 0.01075 0.58381   3
  -2   7   3 0.54407 0.70568   3
   2   7  -3 -0.7785 0.77525   3
   1  -7  -3 2.18614 0.71199   3
  -1  -7   3 2.75578 0.78094   3
  -1   7   3 3.19360 0.85094   3
   1   7  -3 1.69492 0.78011   3
   0  -7  -3 2.81226 0.74822   3
   0  -7   3 2.03958 0.73716   3
   0   7   3 0.53202 0.78590   3
   0   7  -3 3.23636 0.99041   3
   1  -7   3 -0.0109 0.63694   3
  -1  -7  -3 0.05443 0.59102   3
   1   7   3 -0.0647 0.69008   3
  -1   7  -3 -0.8156 0.78945   3
   2   7   3 1.01226 0.70254   3
   3  -7   3 6.96672 1.19410   3
  -3  -7  -3 7.70555 1.23869   3
  -3   7  -3 6.26119 1.26891   3
   3   7   3 8.53467 1.35576   3
  -4  -7  -3 1.23466 0.63050   3
   4   7   3 -0.2502 0.63450   3
  -5  -7  -3 1.41989 0.65287   3
   5   7   3 2.24573 0.82882   3
  -6  -7  -3 0.14583 0.54883   3
   6   7   3 0.25431 0.72142   3
  -7  -7  -3 7.12313 1.12607   3
   7   7   3 4.63282 1.02258   3
  -8  -7  -3 1.62419 0.61283   3
  -9  -7  -3 1.68016 0.69102   3
   9   7   3 1.03360 0.77459   3
  -7  -8   3 4.08109 0.93476   3
   7   8  -3 2.49963 0.88136   3
  -6  -8   3 2.36095 0.72709   3
   6   8  -3 1.72132 0.82862   3
  -5  -8   3 -0.2612 0.57573   3
  -4  -8   3 -0.3762 0.49964   3
   4   8  -3 1.40034 0.84228   3
  -3  -8   3 3.36158 0.84777   3
   3   8  -3 3.24866 0.97030   3
  -2  -8   3 1.26425 0.67776   3
   2   8  -3 1.64192 0.87687   3
  -1  -8   3 2.59229 0.77596   3
   1  -8  -3 2.69273 0.71130   3
   1   8  -3 3.04195 0.97707   3
   0  -8  -3 4.20080 0.92851   3
   0  -8   3 6.50061 1.18177   3
   0   8   3 6.68757 1.25194   3
  -1  -8  -3 -0.5193 0.53491   3
   1   8   3 1.91984 0.84467   3
  -2  -8  -3 11.4142 1.61439   3
   2   8   3 12.1751 1.75565   3
   3   8   3 9.39753 1.45812   3
  -4  -8  -3 -1.3213 0.60822   3
  -5  -8  -3 0.91342 0.56532   3
   5   8   3 0.28870 0.72923   3
 -21   0   4 10.8575 1.81608   2
  21   0  -4 14.3284 2.11508   2
  20   0  -4 9.41104 1.57105   2
 -20   0   4 10.6713 1.71758   2
  19   0  -4 0.97966 0.70670   2
 -19   0   4 -0.4215 0.65938   2
  18   0  -4 1.51906 0.66870   2
  17   0  -4 46.9575 6.07539   2
 -16   0   4 17.4983 2.47779   2
 -15   0   4 49.7583 6.42328   2
 -14   0   4 1045.24 129.245   2
 -13   0   4 233.620 28.7759   2
  13   0  -4 217.917 27.3695   2
 -12   0   4 29.0891 3.82487   2
 -12   0   4 28.6948 5.23669   1
  12   0  -4 29.2500 3.82967   2
 -11   0   4 350.721 60.9336   1
  11   0  -4 251.592 45.4435   1
  11   0  -4 435.359 74.4927   1
 -11   0   4 364.051 42.2701   2
 -11   0   4 346.221 60.2110   1
  11   0  -4 205.798 28.0739   2
  10   0  -4 393.927 68.7131   1
  10   0  -4 304.825 38.3284   2
 -10   0   4 362.381 63.7604   1
 -10   0   4 315.543 56.4655   1
 -10   0   4 302.511 38.1274   2
  10   0  -4 333.152 59.2025   1
  -9   0   4 0.38539 0.45127   2
   9   0  -4 -0.1929 0.31109   1
  -9   0   4 -0.5708 0.27942   1
   9   0  -4 0.35720 0.40927   2
   9   0  -4 0.54248 0.32356   1
  -9   0   4 -0.2079 0.30093   1
   8   0  -4 102.048 12.3500   2
   8   0  -4 81.6234 14.8433   1
  -8   0   4 106.400 12.7558   2
  -8   0   4 63.0839 12.0765   1
   8   0  -4 100.887 17.8168   1
  -8   0   4 95.2231 16.9411   1
   7   0  -4 225.742 39.1602   1
  -7   0   4 223.558 38.8107   1
  -7   0   4 184.022 19.7118   3
  -7   0   4 150.100 27.3624   1
  -7   0   4 159.842 20.2565   2
   7   0  -4 184.800 22.4953   2
   7   0  -4 135.649 25.2022   1
  -6   0   4 131.174 22.7577   1
   6   0  -4 112.242 19.7516   1
  -6   0   4 92.5602 11.7281   2
   6   0  -4 105.700 12.8989   2
  -6   0   4 98.0123 17.5343   1
  -6   0   4 94.2408 10.5050   3
   6   0  -4 83.0313 15.2456   1
  -5   0   4 196.847 34.7159   1
  -5   0   4 165.355 29.8191   1
  -5   0   4 178.269 22.0668   2
   5   0  -4 168.122 30.2494   1
   5   0  -4 165.426 20.9424   2
   5   0  -4 184.815 19.9731   3
   5   0  -4 184.714 32.8131   1
  -5   0   4 184.953 19.9810   3
  -4   0   4 3711.44 639.556   1
   4   0  -4 2008.34 271.781   2
  -4   0   4 2901.71 511.383   1
  -4   0   4 2434.97 274.309   3
  -4   0   4 3474.89 402.874   2
   4   0  -4 3437.48 595.945   1
   4   0  -4 4009.62 687.465   1
   3   0  -4 175.932 31.3421   1
  -3   0   4 152.458 27.7167   1
  -3   0   4 169.601 21.1122   2
   3   0  -4 184.502 32.6784   1
  -3   0   4 195.775 34.4365   1
   3   0  -4 190.347 22.9836   2
   3   0  -4 160.084 18.0377   3
  -2   0   4 3130.12 557.154   1
  -2   0   4 3348.95 356.340   3
   2   0  -4 3683.76 643.859   1
  -2   0   4 3709.78 647.995   1
   2   0  -4 2416.96 323.608   2
   2   0  -4 3094.42 338.172   3
  -2   0   4 3650.05 432.431   2
   1   0  -4 8020.50 970.674   2
  -1   0   4 6537.46 751.207   3
  -1   0   4 7542.60 927.378   2
   1   0  -4 8333.41 1465.90   1
  -1   0   4 8516.80 1494.69   1
  -1   0   4 7664.45 1361.67   1
   1   0  -4 9999.99 1728.88   1
   1   0  -4 6733.80 764.679   3
   0   0  -4 37.5625 6.90882   1
   0   0   4 58.5228 6.86738   2
   0   0   4 55.6776 9.72228   1
   0   0   4 45.3231 8.09385   1
   0   0  -4 56.3122 9.82340   1
   0   0  -4 38.8768 4.50286   3
   0   0   4 36.6586 4.35827   3
   0   0  -4 52.6522 6.31050   2
  -1   0  -4 1804.76 195.894   3
  -1   0  -4 1874.94 227.859   2
  -1   0  -4 1887.38 333.723   1
   1   0   4 1717.86 189.756   3
   1   0   4 1602.76 203.770   2
   1   0   4 1693.76 303.999   1
   1   0   4 2014.86 353.776   1
  -1   0  -4 1813.70 322.326   1
  -2   0  -4 525.333 92.0957   1
  -2   0  -4 542.169 64.1052   2
   2   0   4 420.045 53.0634   2
  -2   0  -4 506.054 89.0674   1
   2   0   4 313.847 59.8894   1
   2   0   4 491.467 86.7682   1
   2   0   4 439.936 48.6072   3
  -2   0  -4 500.855 52.9637   3
   3   0   4 12.1750 2.14658   1
   3   0   4 5.50217 1.12241   1
  -3   0  -4 7.62197 0.87446   3
  -3   0  -4 9.93135 1.79570   1
   3   0   4 6.81480 1.00061   2
  -3   0  -4 7.49248 1.08430   2
   3   0   4 6.98354 0.82859   3
  -3   0  -4 6.42936 1.26403   1
   4   0   4 451.983 81.8392   1
  -4   0  -4 501.215 89.3839   1
   4   0   4 536.082 57.2467   3
  -4   0  -4 489.907 87.6564   1
  -4   0  -4 543.479 65.7234   2
   4   0   4 500.890 89.3524   1
   4   0   4 480.105 60.0455   2
  -4   0  -4 476.451 53.0383   3
   5   0   4 850.267 92.6378   3
   5   0   4 811.140 145.439   1
   5   0   4 842.715 150.282   1
  -5   0  -4 883.085 107.699   2
   5   0   4 771.759 97.8377   2
  -5   0  -4 867.220 154.097   1
  -5   0  -4 840.126 91.9189   3
  -5   0  -4 935.864 164.820   1
   6   0   4 196.017 23.3315   2
  -6   0  -4 185.511 22.3543   2
   6   0   4 162.725 29.1396   1
  -6   0  -4 158.157 28.4367   1
   6   0   4 171.311 30.4729   1
  -6   0  -4 156.888 17.5094   3
  -6   0  -4 121.846 22.9533   1
   7   0   4 558.838 76.6496   2
  -7   0  -4 889.780 155.771   1
   7   0   4 1106.38 190.185   1
  -7   0  -4 880.293 104.758   2
   7   0   4 936.860 163.249   1
  -7   0  -4 1108.11 190.472   1
   8   0   4 198.256 36.2210   1
   8   0   4 247.873 43.8688   1
   8   0   4 232.074 28.7372   2
  -8   0  -4 305.803 52.9988   1
  -8   0  -4 219.872 39.5075   1
  -8   0  -4 223.222 27.9392   2
   9   0   4 262.099 46.9085   1
  -9   0  -4 224.937 41.2509   1
   9   0   4 296.475 52.2697   1
  -9   0  -4 251.730 45.3351   1
  -9   0  -4 290.315 35.2636   2
  10   0   4 16.1047 2.33641   2
 -10   0  -4 23.0182 2.95790   2
 -11   0  -4 83.4124 10.6410   2
  11   0   4 90.3162 11.2605   2
 -12   0  -4 286.428 34.4544   2
  12   0   4 227.948 29.2213   2
 -13   0  -4 13.2470 1.94929   2
 -14   0  -4 4.37258 0.94788   2
 -15   0  -4 2.51764 0.85560   2
  16   0   4 21.4534 2.99349   2
  17   0   4 0.33165 0.59260   2
  18   0   4 30.9382 4.15756   2
 -19   0  -4 58.2337 7.54217   2
  21  -1  -4 0.71400 0.62416   2
 -21   1   4 0.30231 0.61030   2
  20  -1  -4 1.62772 0.77491   2
 -20  -1   4 0.92247 0.69806   2
 -20   1   4 1.93963 0.81795   2
  20   1  -4 1.79162 0.78659   2
  19  -1  -4 15.7332 2.19825   2
 -19  -1   4 13.3438 2.04665   2
  19   1  -4 13.6755 2.03445   2
 -19   1   4 10.5354 1.78212   2
 -18  -1   4 18.1144 2.58731   2
  18  -1  -4 19.7486 2.74896   2
  18   1  -4 17.7118 2.54394   2
 -18   1   4 18.3633 2.63942   2
  17  -1  -4 83.8641 10.5340   2
 -17  -1   4 75.2322 9.77110   2
 -17   1   4 89.7194 11.0835   2
  17   1  -4 77.2225 9.93166   2
 -16  -1   4 0.82458 0.63934   2
  16  -1  -4 0.68203 0.54618   2
  16   1  -4 0.10662 0.49473   2
 -16   1   4 0.60450 0.64264   2
 -15  -1   4 2.95520 0.81618   2
  15  -1  -4 3.95266 0.93179   2
 -15   1   4 1.57261 0.78044   2
  15   1  -4 4.00322 0.93345   2
  14  -1  -4 108.257 13.4767   2
 -14  -1   4 100.775 12.8118   2
 -14   1   4 101.895 12.9072   2
  14   1  -4 108.666 13.5230   2
 -13  -1   4 11.1972 1.75737   2
  13  -1  -4 12.9415 1.88316   2
 -13   1   4 15.4128 2.12933   2
  13   1  -4 13.0671 1.87391   2
  12  -1  -4 5.37459 0.97484   2
 -12  -1   4 3.15477 0.75628   1
 -12  -1   4 4.39556 0.84710   2
 -12   1   4 3.82200 0.82251   2
  12   1  -4 3.37222 0.73788   2
 -11  -1   4 64.9539 11.8556   1
  11  -1  -4 59.1649 10.9808   1
 -11  -1   4 81.2885 9.97527   2
 -11  -1   4 92.9375 16.2234   1
  11  -1  -4 75.4445 13.4682   1
  11   1  -4 80.0701 14.2070   1
 -11   1   4 69.5781 12.5624   1
  11   1  -4 67.9116 8.72725   2
 -11   1   4 77.1728 13.7372   1
  11   1  -4 70.5831 12.7111   1
 -10  -1   4 292.449 36.4675   2
 -10  -1   4 318.920 56.4847   1
  10  -1  -4 314.820 38.4751   2
  10  -1  -4 320.995 56.7974   1
 -10  -1   4 253.848 29.6754   3
 -10  -1   4 208.679 39.7857   1
  10  -1  -4 276.132 49.8784   1
 -10   1   4 331.136 58.3805   1
  10   1  -4 350.559 41.7416   2
 -10   1   4 309.476 55.0129   1
 -10   1   4 356.316 42.2890   2
  10   1  -4 311.474 55.3056   1
  10   1  -4 339.008 59.6102   1
  -9  -1   4 43.4214 7.62402   1
  -9  -1   4 36.3034 6.49730   1
   9  -1  -4 31.4100 4.15787   2
  -9  -1   4 33.2954 3.79585   3
  -9  -1   4 37.2584 4.65859   2
   9  -1  -4 24.0121 4.65578   1
   9  -1  -4 37.3908 6.67992   1
   9   1  -4 35.9777 6.45688   1
   9   1  -4 42.7940 7.52775   1
   9   1  -4 34.6768 4.42871   2
  -9   1   4 42.0867 7.42276   1
  -9   1   4 35.7128 6.41413   1
  -9   1   4 35.2121 4.49002   2
   8  -1  -4 257.174 30.9649   2
  -8  -1   4 171.323 32.1897   1
  -8  -1   4 272.877 47.7740   1
  -8  -1   4 213.241 24.0463   3
   8  -1  -4 239.269 42.4907   1
   8  -1  -4 247.938 43.8619   1
  -8  -1   4 326.291 37.4639   2
  -8   1   4 188.271 34.7058   1
  -8   1   4 233.071 41.5295   1
   8   1  -4 258.771 45.5423   1
   8   1  -4 219.699 24.4961   3
  -8   1   4 205.616 26.3650   2
   8   1  -4 239.464 29.3355   2
   8   1  -4 241.562 42.8617   1
  -7  -1   4 997.932 116.157   3
  -7  -1   4 1061.37 191.961   1
  -7  -1   4 1413.46 246.671   1
   7  -1  -4 948.864 174.950   1
   7  -1  -4 1500.27 174.879   2
   7  -1  -4 1570.99 271.758   1
  -7  -1   4 1224.09 149.301   2
   7   1  -4 1102.24 198.194   1
   7   1  -4 1196.81 146.875   2
  -7   1   4 1092.68 196.747   1
  -7   1   4 1282.78 226.173   1
   7   1  -4 997.156 116.074   3
  -7   1   4 1370.82 162.725   2
   7   1  -4 1281.94 226.002   1
  -6  -1   4 7.30933 1.01134   2
  -6  -1   4 4.82987 0.69503   3
  -6  -1   4 4.21464 0.89518   1
   6  -1  -4 6.38427 0.94772   2
   6  -1  -4 6.72916 1.27319   1
   6  -1  -4 6.03674 1.14838   1
  -6  -1   4 5.41970 1.05978   1
  -6   1   4 5.51027 0.86278   2
  -6   1   4 5.30900 0.63239   3
   6   1  -4 5.28226 0.73649   3
   6   1  -4 6.93570 1.28959   1
  -6   1   4 7.99129 1.46555   1
   6   1  -4 5.22364 0.82676   2
   6   1  -4 8.00233 1.47211   1
  -6   1   4 7.27533 1.36146   1
   5  -1  -4 879.353 160.494   1
   5  -1  -4 1302.48 226.352   1
  -5  -1   4 976.917 108.647   3
   5  -1  -4 960.980 120.834   2
   5   1  -4 1174.42 206.057   1
  -5   1   4 1003.81 179.471   1
  -5   1   4 1183.70 140.963   2
  -5   1   4 958.646 107.358   3
  -5   1   4 1092.62 193.230   1
   5   1  -4 869.323 158.973   1
   5   1  -4 1119.33 135.014   2
   4  -1  -4 146.847 15.9785   3
   4  -1  -4 178.029 31.0570   1
   4  -1  -4 109.446 20.4903   1
   4  -1  -4 137.500 17.2849   2
   4   1  -4 136.225 24.5249   1
   4   1  -4 153.316 27.1617   1
  -4   1   4 176.216 20.8235   2
   4   1  -4 157.025 16.7683   3
  -4   1   4 134.258 24.2225   1
  -4   1   4 145.907 15.9121   3
   4   1  -4 134.393 17.0004   2
  -3  -1   4 1642.41 296.303   1
   3  -1  -4 1880.60 332.892   1
   3  -1  -4 2019.97 354.639   1
   3  -1  -4 2028.75 242.244   2
  -3  -1   4 1802.08 320.713   1
  -3  -1   4 1701.70 189.068   3
   3   1  -4 1791.80 220.711   2
   3   1  -4 2240.78 389.692   1
  -3   1   4 1483.49 174.296   3
   3   1  -4 1720.27 308.145   1
  -3   1   4 2276.21 395.217   1
   3   1  -4 1684.25 187.883   3
  -3   1   4 2774.23 474.742   1
  -3   1   4 1683.14 211.121   2
   2  -1  -4 220.502 39.4996   1
   2  -1  -4 253.923 26.7760   3
  -2  -1   4 215.519 24.0528   3
  -2  -1   4 196.819 35.8812   1
   2  -1  -4 294.164 51.0456   1
   2  -1  -4 266.052 31.6286   2
  -2  -1   4 236.966 42.0473   1
   2   1  -4 259.744 31.0336   2
  -2   1   4 170.287 31.9264   1
  -2   1   4 274.016 47.8407   1
  -2   1   4 188.554 22.2122   3
   2   1  -4 234.523 25.3998   3
   1  -1  -4 271.664 48.0020   1
   1  -1  -4 240.870 43.2289   1
  -1  -1   4 254.116 31.3277   2
   1  -1  -4 261.541 28.2365   3
  -1  -1   4 233.284 26.2627   3
  -1  -1   4 249.960 44.6245   1
   1  -1  -4 306.250 36.0908   2
  -1  -1   4 258.440 45.9477   1
  -1   1   4 225.788 25.7394   3
   1   1  -4 243.218 26.9614   3
   0  -1   4 54.0273 9.54339   1
   0  -1   4 53.8821 9.51925   1
   0  -1   4 45.1558 5.12211   3
   0  -1  -4 62.2236 10.8375   1
   0  -1  -4 43.7341 7.95544   1
   0  -1   4 46.6941 5.89423   2
   0  -1  -4 46.9987 5.91524   2
   0  -1  -4 53.6527 5.72907   3
   0   1   4 46.4137 5.21281   3
   0   1  -4 48.4479 5.35975   3
  -1  -1  -4 695.000 120.273   1
   1  -1   4 535.522 95.1739   1
   1  -1   4 565.236 60.1561   3
  -1  -1  -4 423.767 55.9420   2
   1  -1   4 637.871 111.212   1
  -1  -1  -4 561.833 99.2715   1
  -1  -1  -4 536.402 58.0894   3
   1  -1   4 558.552 67.7365   2
  -1   1  -4 745.568 128.372   1
   1   1   4 434.273 51.0808   3
  -1   1  -4 609.146 106.683   1
   1   1   4 518.470 64.1236   2
   2  -1   4 242.542 29.7615   3
   2  -1   4 459.928 79.1650   1
  -2  -1  -4 355.927 62.6579   1
   2  -1   4 315.396 39.1181   2
  -2  -1  -4 341.719 60.4227   1
  -2  -1  -4 320.348 35.0016   3
   2  -1   4 377.231 65.9873   1
   2   1   4 318.271 34.8628   3
   2   1   4 350.758 61.8412   1
  -2   1  -4 415.369 72.0458   1
  -2   1  -4 319.571 39.4943   2
  -2   1  -4 391.087 68.1845   1
   2   1   4 306.040 54.9041   1
   3  -1   4 215.568 25.7105   2
   3  -1   4 186.473 33.2579   1
  -3  -1  -4 193.798 20.9082   3
   3  -1   4 139.095 26.0835   1
   3  -1   4 168.354 19.1061   3
  -3   1  -4 169.501 19.1898   3
   3   1   4 215.430 22.5104   3
   3   1   4 201.634 24.4452   2
   3   1   4 181.367 32.4744   1
  -3   1  -4 132.226 25.0826   1
  -3   1  -4 215.310 25.6864   2
  -3   1  -4 228.948 39.9101   1
   3   1   4 196.155 34.7595   1
   4  -1   4 683.112 125.970   1
  -4  -1  -4 731.701 84.4735   3
   4  -1   4 1083.35 126.256   2
   4  -1   4 819.150 90.4228   3
   4   1   4 840.268 91.9452   3
  -4   1  -4 859.243 152.842   1
   4   1   4 1121.56 194.063   1
   4   1   4 854.359 105.091   2
   4   1   4 1156.12 199.545   1
  -4   1  -4 1174.67 134.907   2
  -4   1  -4 672.534 80.5643   3
   5  -1   4 138.571 24.6590   1
  -5  -1  -4 173.660 30.1858   1
   5  -1   4 116.365 15.1346   2
  -5  -1  -4 146.946 15.6485   3
  -5  -1  -4 119.111 21.6703   1
   5  -1   4 135.127 24.1415   1
  -5   1  -4 150.667 18.1948   2
   5   1   4 105.578 19.6497   1
  -5   1  -4 110.032 13.0652   3
   5   1   4 152.050 26.7560   1
   5   1   4 165.432 17.0445   3
  -5   1  -4 198.442 34.1455   1
   5   1   4 137.468 16.9747   2
  -5   1  -4 141.750 25.1668   1
  -6  -1  -4 94.3564 16.6575   1
  -6  -1  -4 79.4912 8.92278   3
   6  -1   4 99.1717 17.4224   1
   6  -1   4 70.1576 12.9252   1
  -6  -1  -4 93.9128 16.5834   1
  -6  -1  -4 75.6023 9.76541   2
   6  -1   4 87.5181 10.8299   2
   6   1   4 93.4751 11.3677   2
  -6   1  -4 89.3579 15.8702   1
   6   1   4 79.2849 14.3085   1
   6   1   4 85.8055 9.37501   3
   6   1   4 67.7956 12.5833   1
  -6   1  -4 90.1323 11.0720   2
  -7  -1  -4 103.483 12.9457   2
  -7  -1  -4 108.881 19.3587   1
   7  -1   4 94.6082 12.1567   2
   7  -1   4 87.0934 16.0294   1
  -7  -1  -4 96.8078 17.5078   1
  -7  -1  -4 100.685 11.1773   3
   7  -1   4 83.4221 15.4710   1
   7   1   4 107.977 19.2184   1
  -7   1  -4 124.732 21.8482   1
  -7   1  -4 99.8796 17.9862   1
   7   1   4 117.371 14.1880   2
  -7   1  -4 116.380 14.1064   2
   7   1   4 146.042 25.2425   1
   7   1   4 101.463 11.2491   3
  -8  -1  -4 81.3494 14.6153   1
  -8  -1  -4 78.8568 14.2210   1
   8  -1   4 85.0819 15.1906   1
  -8  -1  -4 86.0942 10.6921   2
   8  -1   4 65.4271 12.1992   1
   8  -1   4 65.9770 8.93076   2
   8   1   4 94.1138 16.5936   1
  -8   1  -4 84.3474 15.0814   1
  -8   1  -4 96.3633 16.9563   1
   8   1   4 90.4627 11.0828   2
  -8   1  -4 103.390 12.2740   2
   8   1   4 85.1425 15.1959   1
   9  -1   4 10.1243 1.94154   1
   9  -1   4 10.6061 1.59614   2
  -9  -1  -4 11.8058 1.69021   2
  -9  -1  -4 12.3539 2.28189   1
  -9  -1  -4 10.3874 1.96689   1
  -9  -1  -4 11.1880 1.29319   3
   9  -1   4 8.28314 1.65579   1
   9   1   4 8.94042 1.74989   1
  -9   1  -4 9.02277 1.77918   1
   9   1   4 12.4453 1.76520   2
   9   1   4 14.2887 2.58018   1
  -9   1  -4 11.1325 1.62084   2
  -9   1  -4 8.29993 1.66264   1
  10  -1   4 183.703 22.4388   2
 -10  -1  -4 163.020 20.5826   2
  10   1   4 194.250 23.4019   2
 -10   1  -4 150.830 19.5091   2
  11  -1   4 2.81249 0.77917   2
 -11  -1  -4 1.41107 0.59440   2
  11   1   4 2.59345 0.70367   2
 -11   1  -4 1.93188 0.71128   2
  12  -1   4 114.810 14.6294   2
 -12  -1  -4 110.444 14.2414   2
  12   1   4 119.869 15.0788   2
 -12   1  -4 148.968 17.7455   2
  13  -1   4 75.6684 9.68513   2
 -13  -1  -4 73.0279 9.44072   2
 -13   1  -4 79.0855 9.96151   2
  13   1   4 84.7781 10.4996   2
  14  -1   4 17.6958 2.45242   2
 -14  -1  -4 16.1237 2.37436   2
 -14   1  -4 17.8528 2.48656   2
  14   1   4 14.6148 2.18609   2
 -15  -1  -4 92.0782 11.6501   2
  15  -1   4 97.2486 12.0998   2
  15   1   4 88.0939 11.2718   2
 -15   1  -4 89.0177 11.3641   2
 -16  -1  -4 1.69254 0.81416   2
  16  -1   4 3.36395 0.89324   2
  16   1   4 3.55188 0.85413   2
 -16   1  -4 2.73814 0.79378   2
  16   1   4 3.47127 0.84898   2
 -17  -1  -4 4.74067 1.07839   2
  17  -1   4 5.38960 1.07433   2
 -17   1  -4 5.10060 1.10032   2
  17   1   4 6.31585 1.16522   2
  18  -1   4 0.19051 0.54756   2
  18  -1   4 1.01469 0.57831   2
 -18  -1  -4 0.68014 0.76617   2
 -18   1  -4 -0.0976 0.65540   2
  18   1   4 0.25560 0.69452   2
  19  -1   4 5.34895 1.12898   2
 -19   1  -4 4.76682 1.05659   2
  20  -2  -4 20.4938 2.86442   2
 -20   2   4 18.6743 2.71122   2
 -19  -2   4 25.0286 3.56497   2
  19  -2  -4 25.0517 3.54795   2
 -19   2   4 40.2957 4.97621   2
  19   2  -4 27.1358 3.71452   2
  18  -2  -4 0.88777 0.71870   2
 -18  -2   4 1.16846 0.75735   2
  18   2  -4 0.33716 0.64998   2
 -18   2   4 1.49194 0.74292   2
  17  -2  -4 25.8730 3.54603   2
 -17   2   4 25.6264 3.50366   2
  17   2  -4 26.9651 3.68822   2
  16  -2  -4 42.3162 5.44862   2
 -16  -2   4 36.2300 4.94805   2
 -16   2   4 44.5383 5.67278   2
  15  -2  -4 4.22164 0.96384   2
 -15  -2   4 3.20454 0.89504   2
  14  -2  -4 41.9270 5.40484   2
 -14  -2   4 40.5509 5.28326   2
  14   2  -4 40.0040 5.23918   2
  13  -2  -4 1.41355 0.65730   2
 -13  -2   4 -0.3512 0.48673   2
  13   2  -4 0.61283 0.52532   2
  12  -2  -4 21.2983 2.89981   2
 -12  -2   4 19.1043 2.36991   3
 -12   2   4 24.2832 3.18172   2
 -11  -2   4 42.2603 4.89023   3
 -11  -2   4 40.2481 7.38257   1
  11  -2  -4 41.7178 7.61294   1
 -11  -2   4 49.5818 8.81993   1
 -11  -2   4 55.7536 6.73964   2
  11   2  -4 47.8415 5.98696   2
 -11   2   4 32.2774 6.20389   1
 -11   2   4 51.6048 6.41264   2
  10  -2  -4 20.8202 3.90969   1
 -10  -2   4 26.1946 4.73147   1
  10  -2  -4 26.1477 4.72927   1
 -10  -2   4 26.3339 3.38922   2
 -10  -2   4 24.8719 2.89994   3
 -10  -2   4 32.0706 5.65397   1
  10   2  -4 21.4621 2.94601   2
  10   2  -4 26.5458 3.04715   3
  10   2  -4 22.9533 4.22975   1
 -10   2   4 28.6459 5.11104   1
  10   2  -4 26.5325 4.77459   1
 -10   2   4 26.0550 3.39602   2
 -10   2   4 23.9653 4.39555   1
   9  -2  -4 65.2428 11.6358   1
   9  -2  -4 63.5164 11.3606   1
  -9  -2   4 68.8417 8.42040   2
  -9  -2   4 51.4624 9.51809   1
  -9  -2   4 64.1730 11.4635   1
  -9  -2   4 68.1946 7.38089   3
   9   2  -4 68.0782 7.39379   3
  -9   2   4 60.9011 10.9617   1
  -9   2   4 65.5536 11.6927   1
   9   2  -4 71.1618 8.61886   2
   9   2  -4 42.2555 8.15174   1
   9   2  -4 55.8797 10.1835   1
  -9   2   4 61.0124 7.72417   2
  -8  -2   4 23.1366 4.16249   1
  -8  -2   4 19.6520 2.40215   3
   8  -2  -4 21.3129 3.90341   1
  -8  -2   4 20.3782 2.71091   2
   8  -2  -4 29.9264 3.62408   2
   8  -2  -4 19.8657 3.67485   1
  -8  -2   4 21.8099 3.96646   1
  -8   2   4 20.7133 3.80207   1
  -8   2   4 24.6086 3.12585   2
   8   2  -4 21.4929 3.91716   1
  -8   2   4 23.1671 4.18666   1
   8   2  -4 20.8389 2.51105   3
   8   2  -4 27.3941 4.83734   1
   7  -2  -4 17.7472 2.27236   2
  -7  -2   4 16.2500 2.93683   1
  -7  -2   4 14.5549 2.67280   1
  -7  -2   4 16.0536 1.90905   3
   7  -2  -4 14.1817 2.63873   1
  -7  -2   4 15.7792 2.05936   2
   7  -2  -4 15.1576 2.78435   1
   7   2  -4 16.5390 1.95576   3
  -7   2   4 14.6488 2.70984   1
   7   2  -4 17.1597 3.08581   1
   7   2  -4 16.7250 3.00904   1
  -7   2   4 13.3291 2.51117   1
  -7   2   4 16.8939 2.20358   2
   7   2  -4 13.2380 1.82053   2
   6  -2  -4 0.71856 0.31552   1
   6  -2  -4 1.25229 0.45149   2
  -6  -2   4 1.57807 0.35409   2
  -6  -2   4 2.74745 0.56787   1
  -6  -2   4 0.97330 0.28954   1
  -6  -2   4 2.02068 0.45121   3
   6  -2  -4 1.72537 0.46876   1
  -6   2   4 1.63787 0.26794   3
   6   2  -4 0.81645 0.30000   1
  -6   2   4 1.59894 0.42391   1
   6   2  -4 2.85729 0.58243   1
  -6   2   4 1.83423 0.49688   1
  -6   2   4 2.09016 0.52181   2
   6   2  -4 1.77771 0.38266   2
   5  -2  -4 197.500 22.8991   3
  -5  -2   4 207.477 37.5623   1
   5  -2  -4 236.644 42.0405   1
   5  -2  -4 200.431 25.8385   2
   5  -2  -4 219.806 39.4480   1
  -5  -2   4 302.862 52.4590   1
  -5   2   4 223.986 40.0901   1
  -5   2   4 258.776 31.0452   2
   5   2  -4 242.019 42.8726   1
  -5   2   4 242.374 42.9525   1
   5   2  -4 245.931 26.3497   3
   5   2  -4 234.292 28.7902   2
   5   2  -4 267.244 46.8370   1
   3  -2  -4 446.438 50.3901   3
  -3  -2   4 665.109 114.884   1
  -3  -2   4 440.950 50.0392   3
  -3  -2   4 498.992 88.6562   1
   3  -2  -4 453.896 81.7059   1
   3  -2  -4 560.121 98.2211   1
   3   2  -4 490.249 60.3645   2
   3   2  -4 453.609 50.9308   3
   3   2  -4 501.162 88.9951   1
   3   2  -4 532.066 93.8040   1
  -3   2   4 413.019 75.5046   1
  -3   2   4 635.710 64.2247   3
  -3   2   4 463.690 83.2051   1
  -2  -2   4 54.4630 9.52394   1
  -2  -2   4 42.1220 4.83724   3
  -2  -2   4 44.0451 7.89871   1
   2  -2  -4 44.5852 5.60265   2
   2  -2  -4 45.9437 5.07165   3
   2  -2  -4 45.4780 8.14053   1
   2  -2  -4 43.5938 7.84203   1
   2   2  -4 43.5511 7.82875   1
  -2   2   4 49.8868 6.07138   2
  -2   2   4 41.8060 4.78955   3
   2   2  -4 44.4041 5.55741   2
  -2   2   4 46.9831 8.37098   1
  -2   2   4 45.6475 8.15840   1
   2   2  -4 43.6152 4.94955   3
   2   2  -4 46.1203 8.21921   1
  -1  -2   4 1.38367 0.40489   3
   1  -2  -4 0.82579 0.27609   1
   1  -2  -4 1.45938 0.36122   3
  -1  -2   4 1.23342 0.29274   1
   1  -2  -4 1.34634 0.31376   2
   1  -2  -4 1.10862 0.30981   1
  -1   2   4 1.40220 0.34263   1
  -1   2   4 1.36902 0.37716   3
   1   2  -4 4.29398 0.76905   1
  -1   2   4 1.99134 0.38746   2
   1   2  -4 1.63438 0.30031   2
   1   2  -4 1.24749 0.32477   1
  -1   2   4 1.16511 0.33853   1
   1   2  -4 1.12722 0.42150   3
   0  -2  -4 343.082 38.1910   3
   0  -2  -4 372.917 45.5879   2
   0  -2   4 296.972 35.0775   3
   0  -2   4 363.403 64.7079   1
   0  -2   4 401.260 70.6158   1
   0  -2  -4 353.098 63.1147   1
   0  -2   4 350.465 43.5924   2
   0  -2  -4 361.350 64.3878   1
   0   2  -4 419.029 73.3929   1
   0   2   4 318.795 40.8153   2
   0   2  -4 392.298 47.3528   2
   0   2   4 419.680 43.7156   3
   0   2  -4 348.568 62.4072   1
   0   2   4 399.420 70.3353   1
   0   2   4 428.696 74.9295   1
   1  -2   4 693.768 122.679   1
  -1  -2  -4 580.090 74.0720   2
  -1  -2  -4 745.308 130.743   1
  -1  -2  -4 679.197 73.1061   3
   1  -2   4 612.289 110.059   1
  -1  -2  -4 662.694 117.845   1
   1  -2   4 639.104 79.2211   2
  -1   2  -4 612.357 68.4238   3
  -1   2  -4 745.614 130.785   1
  -1   2  -4 607.634 76.4763   2
  -1   2  -4 557.143 101.676   1
   1   2   4 756.531 89.9017   2
   1   2   4 847.503 146.907   1
   1   2   4 636.649 70.1059   3
   1   2   4 643.435 114.864   1
   2  -2   4 104.420 13.5974   2
   2  -2   4 152.585 15.6584   3
  -2  -2  -4 123.007 21.9392   1
  -2  -2  -4 107.819 13.8709   2
   2  -2   4 123.926 22.0858   1
  -2  -2  -4 103.341 12.1389   3
   2  -2   4 164.338 28.4542   1
  -2  -2  -4 143.239 25.0940   1
   2   2   4 148.187 25.8790   1
  -2   2  -4 117.900 21.1539   1
  -2   2  -4 118.313 13.1648   3
  -2   2  -4 143.908 17.1374   2
   2   2   4 125.829 15.4687   2
   2   2   4 124.046 22.0954   1
   2   2   4 127.477 13.8212   3
  -2   2  -4 108.970 19.7841   1
  -3  -2  -4 6.04384 0.88673   2
   3  -2   4 5.93528 0.78667   3
   3  -2   4 7.96109 1.48815   1
   3  -2   4 5.34245 1.07091   1
  -3  -2  -4 5.85194 1.15206   1
  -3  -2  -4 7.70985 1.41407   1
   3  -2   4 7.34816 1.02113   2
  -3  -2  -4 5.55697 0.79941   3
  -3   2  -4 8.96577 1.22120   2
   3   2   4 5.17413 0.82751   3
   3   2   4 7.18101 1.33758   1
   3   2   4 7.58356 1.04436   2
   3   2   4 7.15614 1.33520   1
  -3   2  -4 6.49241 1.26060   1
  -3   2  -4 7.56013 1.40906   1
  -3   2  -4 5.48886 0.79231   3
  -4  -2  -4 3.99946 0.81017   1
  -4  -2  -4 4.28427 0.64983   3
   4  -2   4 2.50250 0.61559   1
   4  -2   4 3.77784 0.71591   2
  -4  -2  -4 3.48248 0.70986   1
  -4  -2  -4 3.63392 0.63971   2
   4  -2   4 4.21175 0.90734   1
  -4   2  -4 2.15537 0.57547   2
  -4   2  -4 3.98237 0.81334   1
  -4   2  -4 8.34066 1.52506   1
  -4   2  -4 4.24647 0.61198   3
   4   2   4 5.13813 0.98724   1
  -5  -2  -4 11.3257 2.08576   1
  -5  -2  -4 11.5993 1.36782   3
   5  -2   4 8.41878 1.62100   1
  -5  -2  -4 9.36361 1.32391   2
   5  -2   4 9.93667 1.86350   1
  -5  -2  -4 8.35948 1.62093   1
   5  -2   4 8.81374 1.30711   2
  -5   2  -4 11.2226 1.53311   2
   5   2   4 9.52832 1.78710   1
   5   2   4 8.24476 1.61090   1
  -5   2  -4 10.7584 1.97918   1
   5   2   4 10.6619 1.33560   3
  -5   2  -4 10.6440 1.27047   3
  -5   2  -4 9.55838 1.83986   1
  -6  -2  -4 63.8422 11.3721   1
  -6  -2  -4 76.3517 13.3387   1
   6  -2   4 54.6333 9.96674   1
  -6  -2  -4 69.2025 8.42573   2
   6  -2   4 58.2501 10.5083   1
   6  -2   4 46.5605 6.42727   2
   6   2   4 63.4871 11.3177   1
   6   2   4 59.3016 6.66298   3
  -6   2  -4 62.6404 11.1972   1
   6   2   4 60.7376 7.62876   2
   6   2   4 71.7754 12.6130   1
  -6   2  -4 64.2075 7.96131   2
  -6   2  -4 75.7325 13.2595   1
   7  -2   4 12.8168 1.99252   2
  -7  -2  -4 22.1790 3.96862   1
  -7  -2  -4 13.4704 2.61404   1
  -7  -2  -4 17.5095 2.05883   3
  -7  -2  -4 18.1380 2.44426   2
   7  -2   4 17.1491 3.17483   1
   7  -2   4 20.2805 3.65405   1
   7   2   4 19.3198 3.51016   1
  -7   2  -4 25.0580 4.41559   1
   7   2   4 21.4845 2.37550   3
  -7   2  -4 20.6206 2.67050   2
   7   2   4 17.4611 2.35173   2
   7   2   4 19.5506 3.53126   1
  -7   2  -4 20.9039 3.74943   1
  -8  -2  -4 102.513 13.1968   2
  -8  -2  -4 120.739 12.9972   3
   8  -2   4 102.089 18.5486   1
  -8  -2  -4 113.588 20.3040   1
   8  -2   4 105.921 19.1297   1
  -8  -2  -4 131.392 23.0837   1
   8   2   4 109.447 19.6660   1
  -8   2  -4 102.872 18.6604   1
   8   2   4 142.827 16.8547   2
   8   2   4 89.4950 16.6396   1
   8   2   4 126.675 13.4409   3
  -8   2  -4 101.484 18.4470   1
  -9  -2  -4 40.7274 5.17324   2
   9   2   4 44.2916 4.76244   3
  -9   2  -4 31.6128 4.34634   2
   9   2   4 37.7625 4.86207   2
 -10  -2  -4 7.94682 1.03495   3
 -10  -2  -4 7.04927 1.22634   2
  10   2   4 7.72306 1.05923   3
 -10   2  -4 6.90074 1.19179   2
  10   2   4 8.69530 1.31288   2
  10   2   4 7.11411 1.14982   2
 -11  -2  -4 14.0172 2.17097   2
  11  -2   4 16.5723 2.39746   2
 -11   2  -4 19.5439 2.63114   2
  11   2   4 18.7882 2.54116   2
  11   2   4 21.8320 2.83896   2
 -12  -2  -4 6.79186 1.25872   2
  12  -2   4 6.92992 1.20758   2
  12   2   4 6.13024 1.08197   2
  13  -2   4 4.79216 1.02876   2
 -13  -2  -4 8.75084 1.45825   2
  13   2   4 5.37438 1.09379   2
 -14  -2  -4 48.8584 6.41251   2
  14  -2   4 51.7219 6.61525   2
 -15  -2  -4 -0.7819 0.58818   2
  15  -2   4 -0.1591 0.56252   2
  15   2   4 0.39213 0.57766   2
  16  -2   4 1.53710 0.71731   2
  16   2   4 3.08983 0.92055   2
 -16   2  -4 2.96282 0.84126   2
  17  -2   4 23.8878 3.24668   2
 -17  -2  -4 21.6393 3.10113   2
 -17   2  -4 22.2752 3.11335   2
  18  -2   4 3.30421 0.86583   2
 -18   2  -4 3.99533 0.95462   2
  20  -3  -4 1.00134 0.76765   2
  19  -3  -4 5.79696 1.14266   2
 -19   3   4 4.91308 1.05774   2
  18  -3  -4 219.174 27.6907   2
 -18   3   4 241.449 29.7190   2
  17  -3  -4 29.5898 3.94406   2
 -17   3   4 27.8569 3.82675   2
  16  -3  -4 0.23528 0.64766   2
 -16   3   4 0.79057 0.79250   2
  15  -3  -4 29.6859 3.84904   2
 -15   3   4 24.2110 3.41007   2
  14  -3  -4 1.15662 0.57291   2
 -14   3   4 1.15088 0.71442   2
 -13  -3   4 6.76793 1.01390   3
  13  -3  -4 5.90028 1.06709   2
 -13   3   4 5.55867 1.12288   2
  13   3  -4 6.83202 1.12007   2
 -12  -3   4 3.09726 0.68930   3
  12  -3  -4 3.84108 0.83810   2
 -12   3   4 3.43589 0.88726   2
  12   3  -4 3.25436 0.78308   2
 -11  -3   4 177.737 20.6362   3
  11  -3  -4 222.043 26.9886   2
  11   3  -4 201.378 22.2894   3
 -11   3   4 221.992 26.9820   2
  11   3  -4 200.988 25.0519   2
 -10  -3   4 121.035 21.3017   1
 -10  -3   4 114.665 12.4181   3
  10  -3  -4 86.5653 11.5506   2
 -10   3   4 111.855 13.8030   2
  10   3  -4 105.872 13.1926   2
  10   3  -4 109.194 11.9940   3
  -9  -3   4 33.5008 6.27054   1
   9  -3  -4 39.9192 7.27135   1
   9  -3  -4 50.6613 6.17498   2
  -9  -3   4 44.6343 7.97543   1
  -9  -3   4 39.8116 4.66435   3
   9  -3  -4 51.2774 9.02812   1
   9   3  -4 45.3545 8.08277   1
  -9   3   4 40.2988 7.31623   1
  -9   3   4 37.4533 6.88791   1
   9   3  -4 45.6231 5.65423   2
   9   3  -4 34.9613 6.49243   1
  -9   3   4 43.5830 5.55348   2
   9   3  -4 45.2028 5.07626   3
  -8  -3   4 196.506 35.0460   1
   8  -3  -4 229.060 40.1389   1
   8  -3  -4 215.587 38.0466   1
  -8  -3   4 208.637 22.4489   3
   8  -3  -4 173.454 22.2979   2
  -8   3   4 185.845 23.3711   2
   8   3  -4 185.673 23.3103   2
   8   3  -4 168.102 30.6846   1
  -8   3   4 217.847 38.3746   1
   8   3  -4 225.669 23.7161   3
  -8   3   4 178.014 32.2035   1
  -7  -3   4 124.869 22.2889   1
  -7  -3   4 143.639 15.1586   3
   7  -3  -4 144.455 25.3507   1
   7  -3  -4 119.307 21.4390   1
   7  -3  -4 98.6734 13.2502   2
   7   3  -4 127.128 22.6305   1
  -7   3   4 139.119 16.7957   2
  -7   3   4 117.278 21.1273   1
   7   3  -4 128.871 14.1003   3
   6  -3  -4 287.291 35.5800   2
  -6  -3   4 329.512 57.8374   1
   6  -3  -4 336.069 58.8908   1
   6  -3  -4 236.802 43.5599   1
  -6   3   4 310.573 54.8946   1
   6   3  -4 307.150 32.9912   3
  -6   3   4 278.097 49.8604   1
   6   3  -4 266.882 48.1264   1
  -6   3   4 293.616 36.1298   2
   6   3  -4 248.559 45.3221   1
   5  -3  -4 297.888 52.9178   1
  -5  -3   4 292.653 31.9326   3
   5  -3  -4 271.782 48.8855   1
   5  -3  -4 240.062 31.4364   2
   5  -3  -4 332.554 34.7590   3
  -5   3   4 308.490 54.5641   1
  -5   3   4 295.668 52.5641   1
   5   3  -4 304.202 32.7606   3
   5   3  -4 274.405 49.2482   1
  -5   3   4 306.799 32.8845   3
   5   3  -4 269.225 48.4585   1
  -5   3   4 280.099 34.9037   2
   4  -3  -4 180.825 32.4380   1
   4  -3  -4 202.749 35.8432   1
   4  -3  -4 218.059 22.8006   3
  -4  -3   4 198.669 21.4416   3
   4   3  -4 167.071 30.3186   1
  -4   3   4 155.695 28.6208   1
  -4   3   4 182.322 22.7562   2
   4   3  -4 197.630 35.0053   1
   4   3  -4 164.470 19.0511   3
  -4   3   4 210.848 22.2847   3
   3  -3  -4 16.5925 1.96575   3
   3  -3  -4 17.1250 3.09654   1
  -3  -3   4 15.5221 1.94061   3
  -3  -3   4 19.2268 3.39323   1
  -3   3   4 19.1850 2.39521   2
  -3   3   4 16.2935 1.96413   3
  -3   3   4 14.9134 2.76314   1
  -3   3   4 17.7420 3.18846   1
   3   3  -4 16.0834 2.00631   3
  -2  -3   4 77.2816 13.5324   1
  -2  -3   4 51.8584 6.37781   3
   2  -3  -4 77.6742 13.6136   1
   2  -3  -4 57.9440 6.75296   3
  -2   3   4 69.3920 12.3242   1
  -2   3   4 70.5368 7.65828   3
   2   3  -4 79.1780 8.31731   3
  -2   3   4 79.0949 13.8343   1
  -1  -3   4 296.696 37.2427   3
   1  -3  -4 469.956 82.3950   1
   1  -3  -4 497.567 51.2055   3
   1   3  -4 487.225 50.4522   3
  -1   3   4 428.938 75.9901   1
  -1   3   4 503.709 87.7196   1
   0  -3  -4 644.713 69.6327   3
   0  -3  -4 603.188 107.994   1
   0  -3   4 788.150 136.950   1
   0   3   4 628.569 68.5357   3
   0   3  -4 545.377 62.7676   3
   0   3   4 772.094 134.388   1
   0   3  -4 544.651 99.0459   1
   0   3   4 761.792 132.799   1
   0   3  -4 575.224 103.681   1
  -1  -3  -4 733.503 82.6974   3
   1  -3   4 933.052 97.0259   3
  -1  -3  -4 818.313 145.386   1
   1  -3   4 753.934 135.453   1
  -1   3  -4 836.982 148.274   1
   1   3   4 786.903 86.4319   3
  -1   3  -4 711.128 128.920   1
  -1   3  -4 796.805 87.1395   3
  -2  -3  -4 82.6072 8.70838   3
   2  -3   4 95.1057 16.4693   1
  -2  -3  -4 69.7686 12.4831   1
   2  -3   4 91.9732 9.46722   3
  -2   3  -4 63.5220 11.5324   1
  -2   3  -4 66.7047 8.43596   2
   2   3   4 58.5830 7.01147   3
  -2   3  -4 66.8997 7.57438   3
  -2   3  -4 59.7117 10.9578   1
   3  -3   4 612.826 107.541   1
   3  -3   4 552.615 59.8079   3
   3  -3   4 580.646 70.1923   2
   3  -3   4 560.269 99.3164   1
  -3  -3  -4 536.046 58.5881   3
   3   3   4 595.119 104.741   1
  -3   3  -4 398.435 49.3800   3
  -3   3  -4 695.049 80.8935   2
  -3   3  -4 503.824 90.5895   1
   3   3   4 523.985 93.6754   1
   3   3   4 548.112 59.4783   3
  -3   3  -4 511.783 91.8123   1
  -4  -3  -4 317.180 32.6349   3
   4  -3   4 182.515 34.6426   1
   4  -3   4 192.976 36.1894   1
   4  -3   4 220.544 28.6392   2
   4  -3   4 272.489 29.3236   3
  -4   3  -4 282.366 49.8338   1
  -4   3  -4 247.024 27.5303   3
   4   3   4 242.143 43.5543   1
   4   3   4 281.250 29.9689   3
  -4   3  -4 372.888 42.6555   2
   4   3   4 338.460 58.6517   1
   5  -3   4 420.425 50.3465   2
   5  -3   4 378.526 67.3264   1
   5  -3   4 374.234 66.6674   1
  -5  -3  -4 306.841 56.3546   1
  -5  -3  -4 345.752 38.8203   3
   5   3   4 451.486 53.1926   2
   5   3   4 321.776 58.5883   1
  -5   3  -4 291.692 35.2071   3
   5   3   4 404.445 71.3504   1
  -5   3  -4 398.394 70.4095   1
  -5   3  -4 484.055 56.2988   2
  -5   3  -4 352.037 63.2462   1
  -6  -3  -4 0.73427 0.28092   1
   6  -3   4 0.77438 0.43897   2
  -6  -3  -4 0.69432 0.44354   3
   6  -3   4 0.67511 0.37060   1
  -6  -3  -4 1.04603 0.34867   1
   6  -3   4 2.79884 0.63725   1
   6   3   4 0.44444 0.50255   3
  -6   3  -4 0.82279 0.39778   1
  -6   3  -4 0.57330 0.31449   1
  -6   3  -4 0.27737 0.45069   2
   6   3   4 0.39884 0.39401   2
   6   3   4 0.03619 0.27014   1
   6   3   4 0.92757 0.34824   1
  -7  -3  -4 17.4325 3.22952   1
  -7  -3  -4 21.0989 3.80222   1
   7  -3   4 17.1891 3.21002   1
   7   3   4 23.5439 2.97514   2
  -7   3  -4 20.5632 3.74281   1
   7   3   4 14.9652 2.86097   1
  -7   3  -4 19.7306 2.69257   2
   8  -3   4 59.2105 8.07043   2
  -8  -3  -4 81.1387 8.74179   3
   8   3   4 81.6441 9.97687   2
   8   3   4 78.6294 8.56593   3
  -9  -3  -4 49.4468 6.68880   2
   9  -3   4 58.4405 7.48183   2
  -9  -3  -4 66.7450 7.21374   3
  -9   3  -4 51.0904 6.84960   2
   9   3   4 99.1057 11.3181   2
   9   3   4 64.7854 7.07902   3
  10  -3   4 42.7395 5.50975   2
 -10  -3  -4 40.9729 5.36261   2
 -10  -3  -4 43.9724 4.91240   3
  10   3   4 39.0404 4.59116   3
  10   3   4 40.5837 5.30946   2
 -10   3  -4 46.8297 5.88330   2
 -11  -3  -4 26.4868 3.86360   2
 -11  -3  -4 34.5296 3.96790   3
  11  -3   4 39.2817 5.01270   2
 -11   3  -4 33.6544 4.49203   2
  11   3   4 44.2196 4.73635   3
  11   3   4 45.2170 5.55145   2
  12  -3   4 18.4163 2.63158   2
 -12  -3  -4 17.5484 2.56330   2
  12   3   4 17.8306 2.56214   2
 -12   3  -4 25.0452 3.23052   2
  13  -3   4 67.7414 8.71004   2
 -13   3  -4 71.1242 9.02297   2
  14  -3   4 33.3436 4.51729   2
 -14   3  -4 38.5960 4.98487   2
  15  -3   4 12.6017 1.94967   2
 -15   3  -4 13.6787 2.05240   2
  16  -3   4 61.1163 8.19218   2
 -16   3  -4 89.2670 10.7733   2
  17  -3   4 0.53938 0.64769   2
 -17   3  -4 0.00000 0.67311   2
  18  -4  -4 3.07176 0.89351   2
  17  -4  -4 -0.6238 0.61266   2
  16  -4  -4 2.86465 0.88668   2
  15  -4  -4 61.4289 7.90041   2
 -14  -4   4 95.0993 10.6853   3
  14  -4  -4 96.0214 12.1270   2
  13  -4  -4 26.6343 3.66594   2
 -13  -4   4 31.9112 3.69096   3
  13   4  -4 32.2982 3.77334   3
  12  -4  -4 18.6599 2.64480   2
  12   4  -4 20.3241 2.55267   3
  11  -4  -4 33.5960 4.33984   2
 -11  -4   4 33.1273 3.81239   3
  11   4  -4 33.2257 3.86553   3
 -11   4   4 26.9240 3.74914   2
 -10  -4   4 116.095 13.2051   3
  10   4  -4 145.725 15.3840   3
 -10   4   4 115.771 14.7810   2
  -9  -4   4 81.6334 8.85701   3
   9   4  -4 66.0565 7.74159   3
   8  -4  -4 18.1977 2.50043   2
  -8  -4   4 22.7990 2.65256   3
  -8   4   4 18.7703 2.55395   2
   8   4  -4 18.9472 2.41187   3
  -7  -4   4 4.77551 0.90384   1
   7  -4  -4 5.30415 1.08375   1
  -7   4   4 4.23972 0.81185   2
   7   4  -4 5.39480 1.01891   3
  -7   4   4 5.86053 0.84013   3
   6  -4  -4 49.3876 8.91773   1
   6  -4  -4 68.7173 11.9546   1
  -6  -4   4 62.7419 6.67768   3
   6   4  -4 53.7413 6.03419   3
  -6   4   4 56.4487 10.0216   1
  -6   4   4 67.9092 6.99551   3
  -6   4   4 38.7154 7.29163   1
  -6   4   4 39.7595 5.48003   2
   5  -4  -4 147.816 15.8798   3
  -5  -4   4 137.595 15.2117   3
   5   4  -4 130.110 14.6994   3
  -5   4   4 116.281 21.3113   1
  -5   4   4 134.023 24.0172   1
  -5   4   4 145.581 15.7348   3
   4  -4  -4 1.47438 0.39115   1
   4  -4  -4 1.62583 0.47579   3
  -4  -4   4 0.64444 0.46316   3
  -4   4   4 1.32028 0.40492   1
  -4   4   4 1.22347 0.34188   1
  -4   4   4 3.47964 0.67263   3
   4   4  -4 2.02344 0.71232   3
   3  -4  -4 329.936 58.8623   1
   3  -4  -4 334.027 36.4898   3
  -3   4   4 320.284 35.5340   3
  -3   4   4 348.438 61.7474   1
  -3   4   4 321.938 57.6160   1
   2  -4  -4 381.997 67.9890   1
  -2  -4   4 380.173 41.5852   3
   2  -4  -4 427.547 44.9655   3
  -2   4   4 356.120 64.0099   1
  -2   4   4 477.588 48.7436   3
   2   4  -4 358.419 40.0696   3
  -2   4   4 265.109 50.3697   1
   1  -4  -4 88.9575 15.9698   1
  -1  -4   4 75.8934 9.16889   3
  -1   4   4 103.787 11.1002   3
   1   4  -4 111.742 11.7394   3
   0  -4   4 55.1014 6.17296   3
   0  -4  -4 56.0649 6.20489   3
   0   4  -4 49.3199 5.78266   3
   1  -4   4 2.33107 0.47468   1
   1  -4   4 1.18349 0.55211   3
  -1   4  -4 1.65513 0.60708   3
  -1   4  -4 2.27629 0.47705   1
  -1   4  -4 2.79852 0.55410   1
   2  -4   4 178.799 32.8254   1
  -2  -4  -4 222.033 24.1311   3
   2  -4   4 213.586 23.5619   3
   2   4   4 196.218 22.3373   3
  -2   4  -4 250.668 26.2646   3
  -2   4  -4 198.610 35.8202   1
  -2   4  -4 256.869 44.9180   1
   3  -4   4 8.38524 1.56145   1
  -3  -4  -4 7.75725 1.14441   3
   3  -4   4 7.68172 1.13864   3
  -3  -4  -4 6.38129 1.21008   1
  -3   4  -4 9.87068 1.34140   3
  -3   4  -4 7.46640 1.42087   1
   3   4   4 10.2731 1.36155   3
  -4  -4  -4 22.0726 4.05269   1
   4  -4   4 26.3278 4.73050   1
   4  -4   4 25.9512 4.67637   1
  -4  -4  -4 28.8474 3.22703   3
   4  -4   4 27.8689 3.15921   3
  -4   4  -4 23.5813 3.11442   2
   4   4   4 23.8077 2.88705   3
   4   4   4 20.0353 3.72727   1
   4   4   4 29.0180 5.12594   1
  -4   4  -4 22.7991 4.18724   1
  -5  -4  -4 0.35388 0.24692   1
  -5   4  -4 -0.5204 0.49235   3
  -5   4  -4 0.57049 0.44179   2
   5   4   4 0.10557 0.47086   3
  -6  -4  -4 91.2176 9.85935   3
   6  -4   4 81.1347 10.2645   2
  -6   4  -4 78.2785 10.0336   2
  -7  -4  -4 113.836 12.2392   3
   7   4   4 94.8265 10.9057   3
  -8  -4  -4 175.847 18.4743   3
   8   4   4 146.531 16.3797   3
  -8   4  -4 136.573 17.5768   2
  -9  -4  -4 11.9220 1.55122   3
  -9   4  -4 11.9203 1.81471   2
   9   4   4 11.2648 1.55199   3
 -10  -4  -4 72.3157 7.81077   3
  10   4   4 66.8520 7.45166   3
 -10   4  -4 56.7018 7.55656   2
 -11  -4  -4 67.6056 8.31176   3
  11  -4   4 97.2962 11.9349   2
 -11   4  -4 110.833 13.2081   2
  13  -4   4 14.9757 2.16959   2
  13  -4   4 14.2185 2.11031   2
  14  -4   4 5.07766 1.09263   2
  15  -4   4 3.26609 0.89518   2
 -15   4  -4 4.45346 1.08082   2
 -14  -5   4 1.93679 0.72612   3
  14   5  -4 2.11481 0.88487   3
 -13  -5   4 57.7182 6.60583   3
 -12  -5   4 3.20777 0.79243   3
  12   5  -4 2.78083 0.87950   3
 -11  -5   4 27.6355 3.22737   3
  11   5  -4 23.0367 2.95320   3
 -10  -5   4 3.66500 0.81651   3
  10   5  -4 3.46538 0.91167   3
  -9  -5   4 5.82278 1.03159   3
   9   5  -4 3.62267 0.95756   3
  -8  -5   4 0.51060 0.62597   3
  -7  -5   4 0.70234 0.61415   3
   7   5  -4 0.43842 0.70317   3
  -6  -5   4 93.9429 10.1488   3
   6  -5  -4 83.9560 9.34368   3
   6   5  -4 83.5026 9.41408   3
  -6   5   4 75.7078 8.78323   3
   5  -5  -4 12.5070 1.55706   3
  -5  -5   4 11.1497 1.56341   3
   5   5  -4 9.43901 1.51407   3
  -5   5   4 11.1753 1.52446   3
  -4  -5   4 1.45133 0.67943   3
   4  -5  -4 2.13205 0.53832   3
  -4   5   4 1.62391 0.62233   3
   4   5  -4 1.11030 0.68338   3
   3  -5  -4 36.0392 3.80564   3
  -3  -5   4 27.4477 3.21329   3
   3   5  -4 19.2856 2.66737   3
   2  -5  -4 39.9432 4.72974   3
  -2  -5   4 49.4524 5.48136   3
  -2   5   4 43.2886 4.98130   3
  -1  -5   4 7.48884 1.21580   3
   1  -5  -4 8.06371 1.20508   3
  -1   5   4 9.07927 1.30216   3
   1   5  -4 8.12542 1.34215   3
   0  -5   4 7.50394 1.23088   3
   0   5   4 7.76277 1.17478   3
   0   5  -4 7.55223 1.28796   3
   1  -5   4 -0.8083 0.61815   3
  -1  -5  -4 0.08853 0.44838   3
   1   5   4 -0.7020 0.57775   3
  -1   5  -4 0.95968 0.68833   3
   2  -5   4 8.90762 1.39854   3
  -2  -5  -4 13.4424 1.69587   3
   2   5   4 11.2575 1.58111   3
  -2   5  -4 14.3194 1.86733   3
   3  -5   4 8.77690 1.36894   3
  -3  -5  -4 10.0099 1.36561   3
   3   5   4 11.0811 1.51836   3
  -4  -5  -4 23.5686 2.84321   3
   4  -5   4 24.8949 3.00092   3
  -4   5  -4 26.5671 3.16820   3
   4   5   4 22.3321 2.81179   3
  -5  -5  -4 14.0167 1.92377   3
  -5   5  -4 21.0444 2.53257   3
   5   5   4 20.7526 2.46235   3
   6   5   4 7.20445 1.20039   3
  -7  -5  -4 2.41767 0.66211   3
   7   5   4 1.40842 0.66527   3
  -8  -5  -4 -0.1478 0.55637   3
   8   5   4 0.66676 0.72343   3
  -9  -5  -4 1.34087 0.69395   3
   9   5   4 4.32656 0.92658   3
 -10  -5  -4 7.15300 1.12135   3
  10   5   4 7.39615 1.24625   3
  11   5   4 28.7354 3.42009   3
 -12  -5  -4 4.33094 0.80233   3
  12   5   4 2.78790 0.77046   3
  13   6  -4 5.03296 1.17227   3
 -12  -6   4 0.06336 0.58195   3
  12   6  -4 -0.1537 0.79161   3
 -11  -6   4 41.8277 4.83511   3
  11   6  -4 39.8056 4.71811   3
 -10  -6   4 8.58330 1.28670   3
  10   6  -4 7.94410 1.38342   3
  -9  -6   4 0.37374 0.49386   3
  -8  -6   4 11.2991 1.63344   3
   8   6  -4 9.60229 1.56038   3
  -7  -6   4 19.0607 2.42046   3
   7   6  -4 19.3386 2.49456   3
  -6  -6   4 13.7754 1.86774   3
   6   6  -4 14.0903 1.95986   3
   5  -6  -4 0.76617 0.53270   3
  -5  -6   4 0.88896 0.66142   3
  -5   6   4 0.82611 0.64415   3
   5   6  -4 1.14118 0.69818   3
  -4  -6   4 73.8104 8.25322   3
   4  -6  -4 65.6603 7.62976   3
   4   6  -4 62.2687 7.48654   3
  -4   6   4 99.3447 10.2518   3
   3  -6  -4 10.5831 1.55077   3
  -3  -6   4 15.5571 1.99020   3
  -3   6   4 16.5585 2.06399   3
  -2  -6   4 21.2469 2.62760   3
   2  -6  -4 24.5955 2.82365   3
  -2   6   4 21.2642 2.60172   3
   2   6  -4 15.7942 2.28826   3
   1  -6  -4 22.4439 2.64228   3
  -1  -6   4 16.9567 2.30369   3
  -1   6   4 21.2193 2.59953   3
   1   6  -4 18.5761 2.48351   3
   0  -6  -4 0.96041 0.55701   3
   0  -6   4 0.84335 0.64949   3
   0   6  -4 0.49345 0.75804   3
   0   6   4 0.71144 0.60532   3
   1  -6   4 14.4625 1.96045   3
  -1   6  -4 16.6097 2.15435   3
   1   6   4 12.1651 1.74742   3
   2  -6   4 -0.8378 0.55968   3
  -2  -6  -4 -0.1194 0.52767   3
   2   6   4 -0.2467 0.68679   3
  -3  -6  -4 3.11101 0.77585   3
   3  -6   4 3.19009 0.79653   3
  -3   6  -4 3.33688 0.93680   3
   3   6   4 3.12957 0.84558   3
  -4  -6  -4 2.39519 0.69004   3
   4  -6   4 2.53286 0.75007   3
  -4   6  -4 1.40008 0.80907   3
   4   6   4 2.04978 0.75032   3
  -5  -6  -4 6.32542 1.03674   3
   5   6   4 5.36150 1.03524   3
  -6  -6  -4 1.92750 0.66742   3
   6   6   4 1.60968 0.72250   3
  -7  -6  -4 11.8330 1.61609   3
  -8  -6  -4 13.9133 1.78475   3
   8   6   4 11.2362 1.71507   3
  -9  -6  -4 32.4442 3.78109   3
   9   6   4 30.0146 3.61643   3
 -10  -6  -4 3.14821 0.68771   3
  10   6   4 1.57909 0.69489   3
 -11  -6  -4 3.91259 0.78158   3
  11   6   4 3.51682 0.85203   3
 -11  -7   4 16.5496 2.18432   3
  11   7  -4 18.8427 2.43474   3
 -10  -7   4 14.2213 1.95328   3
  10   7  -4 15.1906 2.16249   3
   9   7  -4 -0.4979 0.75555   3
  -8  -7   4 1.18439 0.58848   3
   8   7  -4 1.38866 0.78339   3
  -7  -7   4 15.5315 2.11008   3
   7   7  -4 19.7927 2.48007   3
  -6  -7   4 16.3657 2.19062   3
   6   7  -4 18.5147 2.41007   3
  -5  -7   4 18.9434 2.48727   3
   5   7  -4 23.5190 2.88779   3
   4  -7  -4 2.66639 0.70872   3
  -4  -7   4 2.37419 0.72527   3
  -4   7   4 3.02969 0.92077   3
  -3  -7   4 2.26618 0.82292   3
   3   7  -4 0.68822 0.79691   3
  -3   7   4 2.77235 0.89749   3
  -2  -7   4 6.00621 1.05538   3
   2  -7  -4 5.25190 0.92636   3
  -2   7   4 4.38476 0.94347   3
   2   7  -4 4.71111 1.12891   3
  -1  -7   4 5.43226 1.00368   3
   1  -7  -4 3.68466 0.84261   3
  -1   7   4 5.64140 1.12736   3
   1   7  -4 5.39340 1.12227   3
   0  -7  -4 0.63134 0.54671   3
   0  -7   4 0.45248 0.56874   3
   0   7  -4 0.68115 0.75706   3
   0   7   4 -0.4899 0.61796   3
  -1  -7  -4 31.8431 3.80336   3
   1  -7   4 33.7292 4.03561   3
   1   7   4 33.7366 3.97915   3
   2  -7   4 47.4211 5.78499   3
   2   7   4 60.7991 6.69563   3
  -2   7  -4 55.7609 6.40546   3
  -3  -7  -4 13.7742 1.82533   3
   3   7   4 12.7028 1.76614   3
  -4  -7  -4 17.2635 2.20090   3
   4   7   4 16.3969 2.16932   3
  -5  -7  -4 7.19035 1.13168   3
   5   7   4 6.48612 1.16779   3
  -6  -7  -4 6.68663 1.09075   3
   6   7   4 7.73371 1.29897   3
  -7  -7  -4 0.28256 0.62026   3
   7   7   4 0.95331 0.69633   3
  -8  -7  -4 0.37714 0.55399   3
  -9  -7  -4 2.85766 0.72536   3
   9   7   4 2.29755 0.80774   3
  -7  -8   4 4.44547 0.93737   3
   7   8  -4 3.43920 1.02090   3
  -6  -8   4 2.74944 0.77389   3
   6   8  -4 2.10974 0.92615   3
  -5  -8   4 2.69009 0.76723   3
  -4  -8   4 0.57098 0.54281   3
   4   8  -4 -1.0307 0.68739   3
  -3  -8   4 1.18444 0.64881   3
   3   8  -4 0.56861 0.81090   3
  -2  -8   4 17.1398 2.20845   3
   2   8  -4 16.0350 2.18786   3
   1  -8  -4 -0.5659 0.61735   3
  -1  -8   4 0.21368 0.51950   3
   1   8  -4 -0.2172 0.64234   3
   0  -8  -4 7.61334 1.15979   3
   0   8   4 4.53598 1.01337   3
  -1  -8  -4 2.45629 0.73812   3
   1   8   4 2.32231 0.77050   3
  -2  -8  -4 1.39709 0.59457   3
   2   8   4 1.35925 0.74569   3
   3   8   4 -0.3764 0.67981   3
  -4  -8  -4 1.48212 0.65778   3
   4   8   4 -0.2855 0.78993   3
  21   0  -5 -0.7062 0.52402   2
 -21   0   5 -0.4586 0.68339   2
  20   0  -5 -0.2786 0.54729   2
 -20   0   5 1.04805 0.73750   2
  19   0  -5 0.31424 0.57110   2
 -19   0   5 0.07964 0.68839   2
  18   0  -5 0.33946 0.53083   2
  17   0  -5 0.69992 0.64214   2
 -16   0   5 0.04916 0.61157   2
 -15   0   5 -1.0800 0.56152   2
 -14   0   5 -0.0471 0.63212   2
  13   0  -5 0.15418 0.54511   2
 -13   0   5 -0.0944 0.50998   2
 -12   0   5 -0.1570 0.44700   2
  12   0  -5 0.07714 0.46970   2
 -12   0   5 -0.6626 0.31091   1
 -12   0   5 -0.1625 0.36918   1
 -11   0   5 0.57603 0.39392   1
  11   0  -5 0.31354 0.49279   2
 -11   0   5 -0.0148 0.47840   2
  11   0  -5 0.41720 0.36521   1
  11   0  -5 -0.5105 0.33241   1
 -11   0   5 0.37623 0.34986   1
 -10   0   5 0.22951 0.33956   1
  10   0  -5 -0.4394 0.33597   1
 -10   0   5 0.53033 0.44850   2
  10   0  -5 0.37112 0.43737   2
  10   0  -5 -0.6680 0.35580   1
 -10   0   5 0.63450 0.41381   1
  -9   0   5 0.16587 0.41481   2
  -9   0   5 0.17251 0.34562   1
   9   0  -5 0.74351 0.39118   1
   9   0  -5 -0.4468 0.30017   1
   9   0  -5 0.10518 0.35436   2
  -9   0   5 0.72392 0.37279   1
   8   0  -5 0.24375 0.28150   1
  -8   0   5 -0.2739 0.38853   2
  -8   0   5 0.32970 0.22544   3
   8   0  -5 -0.4045 0.31779   1
  -8   0   5 -0.8063 0.36639   1
   8   0  -5 0.22951 0.37566   2
  -8   0   5 -0.3077 0.28429   1
   7   0  -5 -0.3658 0.31403   1
  -7   0   5 0.01836 0.30569   1
  -7   0   5 0.08771 0.18963   3
   7   0  -5 0.33462 0.32690   1
   7   0  -5 -0.3809 0.38965   2
  -7   0   5 0.84325 0.36384   1
  -7   0   5 0.14522 0.39620   2
  -6   0   5 0.03533 0.31082   1
   6   0  -5 -0.2532 0.32999   1
  -6   0   5 0.91107 0.43140   2
   6   0  -5 -1.1537 0.34023   1
   6   0  -5 0.70494 0.41860   2
  -6   0   5 0.14924 0.29275   1
   6   0  -5 -0.2013 0.17093   3
  -5   0   5 0.07803 0.15808   3
   5   0  -5 0.40340 0.34665   2
  -5   0   5 0.34431 0.33632   1
   5   0  -5 -0.1661 0.31592   1
  -5   0   5 -0.6575 0.27794   1
   5   0  -5 -0.3175 0.27612   1
   5   0  -5 0.04271 0.20074   3
  -5   0   5 0.58781 0.39498   2
   4   0  -5 0.51877 0.26132   1
   4   0  -5 1.33534 0.38494   2
  -4   0   5 0.12067 0.16065   3
   4   0  -5 1.01465 0.37299   1
  -4   0   5 -0.4160 0.31188   2
  -4   0   5 0.54238 0.31455   1
  -4   0   5 1.35871 0.37545   1
  -3   0   5 -0.1196 0.17998   3
  -3   0   5 -0.0375 0.22284   1
   3   0  -5 0.03476 0.29016   2
   3   0  -5 -0.1358 0.15286   3
   3   0  -5 0.43450 0.29792   1
   3   0  -5 -0.0389 0.23123   1
  -3   0   5 -0.7036 0.35374   1
  -3   0   5 0.10629 0.36534   2
   2   0  -5 -0.0171 0.31923   2
   2   0  -5 0.10913 0.15936   3
  -2   0   5 0.03411 0.17294   3
  -2   0   5 -0.4476 0.26847   1
  -2   0   5 -0.0478 0.23632   1
   2   0  -5 0.43730 0.25889   1
  -2   0   5 0.83068 0.37250   2
   2   0  -5 0.53793 0.34759   1
  -1   0   5 -0.0392 0.26075   1
   1   0  -5 -0.4090 0.25327   1
   1   0  -5 -0.1316 0.13803   3
   1   0  -5 0.03410 0.33493   2
   1   0  -5 -0.0967 0.32181   1
  -1   0   5 0.00000 0.16689   3
  -1   0   5 -0.3135 0.28005   1
  -1   0   5 0.24894 0.36672   2
   0   0   5 -0.6527 0.35625   2
   0   0   5 0.25360 0.17259   3
   0   0   5 0.33486 0.25670   1
   0   0  -5 0.01794 0.31731   2
   0   0  -5 0.31564 0.17075   3
   0   0   5 0.62035 0.32194   1
   0   0  -5 -0.2827 0.26902   1
   0   0  -5 0.02922 0.25951   1
  -1   0  -5 -0.1692 0.36552   2
   1   0   5 0.29120 0.26802   1
   1   0   5 -0.0408 0.17845   3
  -1   0  -5 0.76825 0.33377   1
   1   0   5 -0.8221 0.30514   1
   1   0   5 0.32983 0.32392   2
  -1   0  -5 -0.1555 0.13865   3
  -1   0  -5 0.29123 0.25852   1
  -2   0  -5 0.12452 0.26438   1
   2   0   5 0.22256 0.33642   2
   2   0   5 0.90453 0.35491   1
  -2   0  -5 -0.1400 0.18045   3
   2   0   5 0.04833 0.23925   1
  -2   0  -5 0.74708 0.33766   1
  -2   0  -5 -0.1221 0.32555   2
   3   0   5 -0.2200 0.19890   3
  -3   0  -5 -0.0510 0.33397   2
   3   0   5 -0.0382 0.25401   1
   3   0   5 0.10316 0.35459   2
  -3   0  -5 0.14121 0.25070   1
  -3   0  -5 0.06822 0.20041   3
   3   0   5 0.43205 0.34555   1
  -3   0  -5 -0.0191 0.33694   1
  -4   0  -5 -0.0766 0.20013   3
   4   0   5 -0.0325 0.36684   2
   4   0   5 0.79305 0.32722   1
  -4   0  -5 -0.2323 0.36853   2
  -4   0  -5 0.35203 0.39068   1
   4   0   5 -0.1269 0.18526   3
   4   0   5 0.77216 0.39412   1
  -4   0  -5 0.06826 0.29684   1
   5   0   5 0.69641 0.40421   2
   5   0   5 -0.3024 0.27079   1
  -5   0  -5 0.70623 0.36316   1
   5   0   5 -0.2645 0.29658   1
   5   0   5 0.15480 0.19529   3
   5   0   5 -0.0965 0.28474   1
  -5   0  -5 0.31267 0.32450   1
   5   0   5 0.53667 0.36149   2
  -5   0  -5 0.00000 0.49286   2
  -5   0  -5 0.06027 0.20248   3
  -6   0  -5 -0.1342 0.20391   3
   6   0   5 0.23864 0.34045   1
  -6   0  -5 -0.6731 0.35668   1
   6   0   5 0.13299 0.35234   1
   6   0   5 -0.0827 0.48719   2
  -6   0  -5 0.24522 0.33688   1
  -6   0  -5 -0.4917 0.49949   2
  -7   0  -5 0.60715 0.39089   1
   7   0   5 -0.7595 0.35256   1
   7   0   5 -0.3142 0.42221   2
  -7   0  -5 0.01821 0.38112   1
   7   0   5 0.44119 0.42915   1
  -7   0  -5 -0.1686 0.18221   3
  -7   0  -5 -0.1819 0.47084   2
  -8   0  -5 0.28877 0.42622   1
   8   0   5 -0.4991 0.38349   1
  -8   0  -5 0.16140 0.42801   2
   8   0   5 -0.2918 0.54125   2
  -8   0  -5 0.53573 0.33687   1
   8   0   5 0.11597 0.30551   1
  -9   0  -5 -0.1130 0.31420   1
  -9   0  -5 1.16144 0.45441   1
  -9   0  -5 0.44616 0.53255   2
   9   0   5 0.88257 0.41591   1
   9   0   5 -0.3360 0.51898   2
  10   0   5 -0.0638 0.57966   2
 -10   0  -5 0.66934 0.61068   2
 -11   0  -5 0.14397 0.53437   2
  11   0   5 0.32088 0.53593   2
 -12   0  -5 -0.5311 0.63222   2
  12   0   5 0.33651 0.61376   2
 -13   0  -5 -1.5911 0.60589   2
 -14   0  -5 -0.2131 0.54739   2
  15   0   5 -0.8259 0.61188   2
  15   0   5 0.14912 0.57118   2
 -15   0  -5 1.09506 0.65813   2
  16   0   5 -0.8772 0.64248   2
  17   0   5 0.03016 0.62208   2
 -18   0  -5 0.84948 0.67409   2
  18   0   5 1.23015 0.67458   2
  21  -1  -5 2.74529 0.86381   2
 -21   1   5 2.40008 0.88041   2
  20  -1  -5 31.2902 4.17949   2
 -20  -1   5 50.3232 6.01094   2
 -20   1   5 30.3908 4.10036   2
  20   1  -5 24.8007 3.61603   2
  19  -1  -5 11.3148 1.79823   2
 -19  -1   5 13.0948 1.97944   2
  19   1  -5 9.33895 1.61232   2
 -19   1   5 12.1431 1.89929   2
 -18  -1   5 17.7698 2.47501   2
  18  -1  -5 16.4065 2.30470   2
  18   1  -5 14.7779 2.16224   2
 -18   1   5 12.4260 1.97366   2
 -17  -1   5 37.4677 5.26014   2
  17  -1  -5 52.3034 6.55600   2
  17   1  -5 53.4802 6.66624   2
 -17   1   5 49.0124 6.27676   2
 -16  -1   5 8.01042 1.38026   2
  16  -1  -5 8.95403 1.44947   2
  16   1  -5 7.38246 1.29955   2
 -16   1   5 6.28276 1.24757   2
 -15  -1   5 81.5696 10.0875   2
  15  -1  -5 61.7583 8.32840   2
 -15   1   5 86.6355 10.5604   2
  15   1  -5 75.7036 9.56438   2
  14  -1  -5 8.88702 1.47460   2
 -14  -1   5 10.4720 1.62993   2
 -14   1   5 9.50423 1.49001   2
  14   1  -5 10.2047 1.57506   2
  13  -1  -5 52.4237 6.81228   2
 -13   1   5 57.8050 7.31170   2
  13   1  -5 55.4913 7.05672   2
 -12  -1   5 232.560 42.0720   1
 -12  -1   5 281.758 34.0235   2
  12   1  -5 243.368 30.5659   2
 -12   1   5 240.375 30.3142   2
  12   1  -5 284.979 50.1833   1
 -11  -1   5 163.778 29.6847   1
 -11  -1   5 200.152 35.3293   1
  11  -1  -5 202.446 35.6552   1
  11  -1  -5 184.043 32.7927   1
 -11  -1   5 192.047 23.4646   2
  11   1  -5 194.697 34.4592   1
  11   1  -5 222.187 26.2539   2
 -11   1   5 197.159 34.8309   1
 -11   1   5 117.404 22.8218   1
  11   1  -5 170.564 30.7059   1
 -10  -1   5 324.212 37.5919   3
  10  -1  -5 321.515 58.7566   1
  10  -1  -5 330.403 60.1058   1
 -10  -1   5 424.037 50.8735   2
 -10  -1   5 407.014 71.9251   1
  10  -1  -5 361.043 45.1948   2
 -10  -1   5 357.598 64.2515   1
 -10   1   5 475.430 82.6762   1
  10   1  -5 360.455 45.1355   2
 -10   1   5 535.170 61.3737   2
  10   1  -5 367.243 65.7346   1
 -10   1   5 383.188 68.2143   1
  10   1  -5 352.813 63.5170   1
  -9  -1   5 261.505 47.6324   1
   9  -1  -5 333.791 58.8046   1
   9  -1  -5 272.131 49.2673   1
  -9  -1   5 282.552 31.6424   3
  -9  -1   5 285.166 35.8223   2
   9  -1  -5 325.587 39.4579   2
  -9  -1   5 410.189 70.8967   1
   9   1  -5 298.130 53.2451   1
   9   1  -5 349.043 41.5878   2
   9   1  -5 344.858 60.5348   1
  -9   1   5 328.844 39.7482   2
  -9   1   5 222.878 41.8746   1
  -9   1   5 263.867 47.9977   1
  -8  -1   5 6.32979 0.96974   2
   8  -1  -5 5.54558 0.95418   2
   8  -1  -5 5.94412 1.17869   1
  -8  -1   5 7.82746 1.47122   1
   8  -1  -5 7.46351 1.41918   1
  -8  -1   5 6.77096 1.28812   1
  -8  -1   5 6.24272 0.84948   3
   8   1  -5 7.20918 1.05742   2
  -8   1   5 7.02734 1.33658   1
   8   1  -5 6.62042 1.28649   1
  -8   1   5 5.89204 1.18943   1
   8   1  -5 5.52664 0.79241   3
  -8   1   5 7.12158 1.07484   2
   8   1  -5 6.15532 1.21874   1
   7  -1  -5 36.8402 4.69178   2
   7  -1  -5 37.1426 6.67764   1
  -7  -1   5 36.0642 6.50237   1
  -7  -1   5 33.8035 3.90756   3
   7  -1  -5 42.7082 7.55443   1
  -7  -1   5 39.3413 7.01468   1
  -7  -1   5 34.3177 4.45389   2
  -7   1   5 39.5215 4.92577   2
  -7   1   5 38.3084 6.85660   1
   7   1  -5 39.7040 7.07372   1
   7   1  -5 35.4011 4.02707   3
   7   1  -5 36.4385 4.64043   2
  -7   1   5 34.3511 3.87620   3
  -7   1   5 44.9041 7.89910   1
   7   1  -5 37.7733 6.78058   1
   6  -1  -5 250.612 32.4747   2
  -6  -1   5 398.285 68.8115   1
  -6  -1   5 293.583 36.1832   2
   6  -1  -5 313.658 55.4306   1
   6  -1  -5 311.878 55.1619   1
  -6  -1   5 289.428 51.6481   1
  -6  -1   5 274.426 30.6662   3
  -6   1   5 311.617 37.8564   2
   6   1  -5 244.343 44.7651   1
  -6   1   5 269.704 30.2822   3
   6   1  -5 318.356 56.1471   1
   6   1  -5 322.939 38.8468   2
  -6   1   5 307.802 54.5180   1
  -6   1   5 255.057 46.3846   1
   6   1  -5 309.817 33.1781   3
   5  -1  -5 107.729 18.4249   1
  -5  -1   5 66.6654 7.30127   3
   5  -1  -5 76.9974 13.5083   1
   5  -1  -5 50.7821 6.89820   2
   5  -1  -5 51.1055 6.18435   3
  -5   1   5 73.0761 8.86664   2
  -5   1   5 67.7483 12.0689   1
  -5   1   5 73.7466 12.9972   1
   5   1  -5 70.0944 12.4195   1
   5   1  -5 90.8102 15.7006   1
   5   1  -5 77.9479 9.29496   2
  -5   1   5 65.8740 7.19477   3
  -4  -1   5 440.646 47.9424   3
   4  -1  -5 559.096 97.0457   1
   4  -1  -5 383.412 69.6456   1
   4  -1  -5 545.406 63.8364   2
   4   1  -5 418.918 46.4234   3
  -4   1   5 424.939 76.0179   1
   4   1  -5 531.409 62.5288   2
  -4   1   5 413.276 51.7811   2
   4   1  -5 396.775 71.6694   1
   4   1  -5 390.902 70.7834   1
  -4   1   5 319.294 60.0756   1
  -4   1   5 430.469 47.1814   3
  -3  -1   5 278.518 47.8923   1
   3  -1  -5 212.550 25.5590   2
   3  -1  -5 187.981 33.5840   1
   3  -1  -5 199.641 35.4030   1
  -3  -1   5 172.686 19.6071   3
  -3  -1   5 246.247 42.7187   1
   3  -1  -5 175.908 19.7950   3
   3   1  -5 259.313 44.8032   1
  -3   1   5 203.878 24.7534   2
   3   1  -5 239.904 41.7130   1
  -3   1   5 261.722 45.2138   1
   3   1  -5 186.948 23.2188   2
   3   1  -5 160.902 18.8195   3
  -3   1   5 157.742 18.5707   3
  -3   1   5 196.646 34.9316   1
  -2  -1   5 198.261 35.4556   1
  -2  -1   5 210.870 22.7408   3
   2  -1  -5 177.104 32.2229   1
   2  -1  -5 216.486 26.2779   2
  -2  -1   5 229.450 40.3041   1
   2  -1  -5 200.831 35.8423   1
   2  -1  -5 170.688 19.9504   3
  -2  -1   5 226.340 27.1816   2
   2   1  -5 183.684 23.3575   2
  -2   1   5 186.351 33.6170   1
   2   1  -5 227.828 23.9924   3
  -2   1   5 216.227 23.1125   3
  -2   1   5 185.445 33.4939   1
   1  -1  -5 623.334 67.2447   3
   1  -1  -5 604.919 74.5004   2
   1  -1  -5 889.014 152.666   1
  -1  -1   5 571.849 63.5898   3
  -1  -1   5 541.769 98.0445   1
  -1  -1   5 553.979 70.0151   2
   1  -1  -5 621.849 110.381   1
  -1  -1   5 644.423 113.897   1
  -1   1   5 587.473 64.6820   3
   1   1  -5 602.836 65.7821   3
   0  -1  -5 1504.61 263.620   1
   0  -1   5 1185.63 150.214   2
   0  -1   5 1585.67 276.434   1
   0  -1   5 1247.10 138.198   3
   0  -1  -5 1975.90 338.832   1
   0  -1  -5 1306.17 142.303   3
   0  -1   5 1318.46 234.568   1
   0  -1  -5 1119.41 144.472   2
   0   1  -5 1406.75 149.529   3
   0   1   5 1295.58 141.569   3
   1  -1   5 196.373 25.6321   2
  -1  -1  -5 272.004 47.6649   1
   1  -1   5 238.639 25.8913   3
   1  -1   5 255.793 45.1264   1
  -1  -1  -5 240.435 29.4863   2
  -1  -1  -5 225.887 24.9931   3
   1  -1   5 221.326 39.7817   1
  -1  -1  -5 234.617 41.8036   1
  -1   1  -5 262.145 46.1025   1
   1   1   5 249.886 26.7145   3
  -1   1  -5 232.026 41.4253   1
   1   1   5 262.299 31.4769   2
  -1   1  -5 209.776 23.8936   3
  -2  -1  -5 289.993 50.6260   1
   2  -1   5 303.838 52.8367   1
   2  -1   5 208.820 26.9566   2
  -2  -1  -5 204.453 23.8051   3
   2  -1   5 265.050 28.0484   3
   2  -1   5 264.938 46.6917   1
  -2  -1  -5 255.537 45.2422   1
   2   1   5 261.817 46.2113   1
   2   1   5 279.853 49.0377   1
  -2   1  -5 233.756 41.8437   1
   2   1   5 256.654 27.4520   3
   2   1   5 274.033 32.7837   2
  -2   1  -5 248.801 44.1902   1
  -2   1  -5 219.033 27.8245   2
  -2   1  -5 214.713 24.4920   3
   3  -1   5 930.299 101.603   3
   3  -1   5 923.610 164.808   1
   3  -1   5 1014.40 178.988   1
  -3  -1  -5 969.386 104.391   3
   3  -1   5 823.796 105.491   2
   3   1   5 1174.26 137.200   2
  -3   1  -5 910.821 100.246   3
  -3   1  -5 1224.97 212.165   1
   3   1   5 944.264 167.967   1
  -3   1  -5 824.620 149.649   1
   3   1   5 1100.48 192.404   1
  -3   1  -5 793.429 102.867   2
   4  -1   5 115.225 12.8869   3
   4  -1   5 126.679 13.6852   3
   4  -1   5 128.470 22.8057   1
  -4  -1  -5 129.541 13.8951   3
   4   1   5 76.3288 14.9761   1
  -4   1  -5 158.856 18.5636   2
   4   1   5 123.203 13.4523   3
  -4   1  -5 120.269 21.5290   1
   4   1   5 112.198 14.2893   2
  -4   1  -5 137.112 14.4522   3
  -4   1  -5 137.264 24.1720   1
   4   1   5 118.532 21.2511   1
  -5  -1  -5 67.0350 7.37403   3
  -5  -1  -5 67.1192 12.0297   1
   5  -1   5 73.7663 9.02818   2
   5  -1   5 60.7565 11.0447   1
  -5  -1  -5 63.5151 11.4628   1
   5  -1   5 61.8307 11.2163   1
  -5   1  -5 67.1414 8.42725   2
   5   1   5 63.9109 11.5319   1
   5   1   5 61.7478 11.1920   1
  -5   1  -5 74.7582 13.2207   1
  -5   1  -5 63.0425 7.08723   3
   5   1   5 70.3721 7.62106   3
  -5   1  -5 63.6929 11.4887   1
   5   1   5 66.0716 8.30736   2
  -6  -1  -5 0.18337 0.33193   1
  -6  -1  -5 0.83677 0.51457   2
   6  -1   5 0.31779 0.32965   1
   6  -1   5 1.27826 0.48346   1
  -6  -1  -5 0.98803 0.42994   1
  -6  -1  -5 0.36932 0.21116   3
   6  -1   5 1.06366 0.49066   2
   6   1   5 0.39487 0.27311   3
   6   1   5 -0.2331 0.32957   1
   6   1   5 0.90466 0.41780   1
  -6   1  -5 1.05839 0.48824   2
   6   1   5 0.35033 0.45461   2
  -6   1  -5 0.17942 0.35167   1
  -6   1  -5 0.71725 0.39481   1
   7  -1   5 42.0150 7.56427   1
   7  -1   5 39.7229 7.20729   1
  -7  -1  -5 42.2731 4.65530   3
  -7  -1  -5 46.2339 8.22016   1
  -7  -1  -5 29.0987 5.61678   1
   7  -1   5 57.2435 6.80974   2
  -7  -1  -5 39.9031 5.16667   2
   7   1   5 38.3314 4.39015   3
  -7   1  -5 52.3212 9.18682   1
  -7   1  -5 48.7633 6.01242   2
   7   1   5 40.0354 7.25157   1
   7   1   5 32.7757 6.16060   1
   7   1   5 39.6810 5.12991   2
   7   1   5 50.4800 6.15415   2
  -7   1  -5 33.9981 6.35070   1
  -8  -1  -5 304.659 53.4098   1
   8  -1   5 239.174 43.2270   1
  -8  -1  -5 263.426 46.9851   1
  -8  -1  -5 260.054 32.2731   2
   8  -1   5 349.150 60.4682   1
  -8  -1  -5 284.743 30.2709   3
  -8   1  -5 303.600 53.2496   1
   8   1   5 237.770 43.0191   1
   8   1   5 249.004 44.7219   1
   8   1   5 257.784 28.3321   3
   8   1   5 242.700 30.7197   2
  -8   1  -5 214.352 39.4810   1
  -9  -1  -5 91.7139 16.0292   1
   9  -1   5 74.1099 9.31324   2
  -9  -1  -5 66.6906 8.65425   2
  -9  -1  -5 71.4932 7.93575   3
   9   1   5 72.9905 9.18769   2
  -9   1  -5 68.7007 8.82391   2
   9   1   5 81.7157 14.4727   1
 -10  -1  -5 144.735 18.9810   2
  10  -1   5 188.749 22.8785   2
  10   1   5 158.122 20.1136   2
 -10   1  -5 207.680 24.6385   2
 -11  -1  -5 281.002 34.5904   2
  11  -1   5 325.535 38.6804   2
  11   1   5 229.894 30.0936   2
 -11   1  -5 276.118 34.1665   2
  12  -1   5 37.7200 4.97313   2
 -12  -1  -5 41.4539 5.30579   2
  12   1   5 37.9854 4.97963   2
 -12   1  -5 37.4649 4.93430   2
 -13  -1  -5 16.3128 2.33852   2
  13  -1   5 15.9125 2.27010   2
  13   1   5 14.5936 2.11437   2
  13   1   5 12.5008 1.94705   2
 -13   1  -5 15.7182 2.25076   2
 -14  -1  -5 5.45705 1.14854   2
  14  -1   5 1.94716 0.84773   2
  14   1   5 4.69981 1.00016   2
 -14   1  -5 4.85721 1.06791   2
  15  -1   5 2.11859 0.81427   2
 -15  -1  -5 3.06143 0.99960   2
 -15   1  -5 4.02390 0.97674   2
  15   1   5 5.13437 1.05819   2
  16  -1   5 14.9502 2.22715   2
 -16  -1  -5 22.0361 2.96770   2
  16  -1   5 16.5304 2.37749   2
 -16   1  -5 16.8607 2.45606   2
  16   1   5 15.3555 2.31602   2
 -17  -1  -5 8.60752 1.52190   2
  17  -1   5 8.46918 1.41406   2
  17   1   5 7.50535 1.35725   2
 -17   1  -5 7.86324 1.39297   2
 -18  -1  -5 34.2421 4.72122   2
  18  -1   5 37.6095 4.99919   2
 -18   1  -5 45.2073 5.72205   2
  21  -2  -5 9.60365 1.59164   2
 -21   2   5 10.2691 1.68404   2
  20  -2  -5 8.79457 1.55835   2
 -20   2   5 9.55608 1.61124   2
 -19  -2   5 85.6981 11.4943   2
  19  -2  -5 111.172 13.7260   2
  19   2  -5 118.062 14.3485   2
 -19   2   5 103.116 13.0033   2
  18  -2  -5 54.0897 6.87071   2
 -18  -2   5 65.8589 8.05142   2
  18   2  -5 49.4205 6.44243   2
 -18   2   5 42.5886 5.85243   2
  17  -2  -5 6.16244 1.18603   2
 -17   2   5 6.97367 1.27259   2
  17   2  -5 5.08230 1.11106   2
  16  -2  -5 38.5953 5.02291   2
 -16  -2   5 43.2389 5.48241   2
 -16   2   5 33.3537 4.57861   2
 -15  -2   5 154.640 19.6688   2
  15  -2  -5 174.530 21.4369   2
  14  -2  -5 150.236 18.1134   2
 -14  -2   5 105.236 14.1007   2
  14   2  -5 151.113 18.1812   2
  13  -2  -5 18.0420 2.60377   2
 -13  -2   5 20.3748 2.77446   2
  13   2  -5 23.0412 3.00627   2
 -12  -2   5 -0.2461 0.34450   3
  12  -2  -5 -0.1702 0.50160   2
 -12   2   5 0.43880 0.47711   2
 -11  -2   5 5.00652 0.79058   3
 -11  -2   5 4.76135 0.99348   1
 -11  -2   5 3.54140 0.75536   2
 -11  -2   5 5.16422 1.05974   1
  11  -2  -5 5.13093 1.04742   1
 -11   2   5 4.07434 0.92009   1
 -11   2   5 5.11917 0.94768   2
  11   2  -5 5.96384 0.92757   2
 -10  -2   5 7.79133 1.19390   2
 -10  -2   5 8.75715 1.17585   3
 -10  -2   5 10.5340 1.94258   1
  10  -2  -5 7.71393 1.50408   1
  10  -2  -5 9.37216 1.76381   1
 -10  -2   5 8.90144 1.69265   1
 -10   2   5 8.39192 1.63161   1
  10   2  -5 8.93765 1.19873   3
  10   2  -5 7.71374 1.17880   2
  10   2  -5 7.90323 1.53139   1
 -10   2   5 10.4354 1.46649   2
 -10   2   5 8.88839 1.68641   1
  10   2  -5 7.39500 1.45338   1
  -9  -2   5 75.0521 13.4797   1
  -9  -2   5 81.7576 14.5133   1
  -9  -2   5 73.6560 9.32905   2
   9  -2  -5 78.4096 14.0051   1
   9  -2  -5 55.5014 10.5391   1
  -9  -2   5 74.7607 8.38610   3
   9   2  -5 70.5011 12.7787   1
   9   2  -5 78.3272 8.65598   3
   9   2  -5 81.0675 9.97598   2
  -9   2   5 85.8870 15.1733   1
  -9   2   5 117.649 20.2455   1
   9   2  -5 83.4845 14.7896   1
   8  -2  -5 94.9678 11.9493   2
  -8  -2   5 115.603 20.2666   1
  -8  -2   5 100.175 10.9876   3
   8  -2  -5 76.1797 14.2186   1
  -8  -2   5 108.079 13.1069   2
   8  -2  -5 109.597 19.3262   1
   8   2  -5 78.7654 14.5821   1
  -8   2   5 106.321 18.8254   1
  -8   2   5 121.085 14.3729   2
  -8   2   5 77.0665 14.3434   1
   8   2  -5 86.7049 10.0584   3
   8   2  -5 112.526 13.5086   2
   7  -2  -5 225.320 39.6439   1
  -7  -2   5 207.777 22.5085   3
  -7  -2   5 219.883 26.5393   2
  -7  -2   5 210.031 37.2559   1
   7  -2  -5 247.718 43.1899   1
   7  -2  -5 169.210 22.0878   2
  -7  -2   5 144.229 27.2581   1
   7   2  -5 214.011 26.0164   2
   7   2  -5 261.344 45.3132   1
   7   2  -5 197.900 21.8113   3
   7   2  -5 181.111 32.7679   1
  -7   2   5 227.358 39.9566   1
  -7   2   5 190.711 23.9494   2
  -7   2   5 221.135 38.9952   1
   6  -2  -5 1445.62 180.895   2
  -6  -2   5 1516.61 165.833   3
  -6  -2   5 1479.78 264.787   1
   6  -2  -5 1833.02 319.891   1
  -6  -2   5 1647.15 198.939   2
  -6  -2   5 1480.40 264.823   1
   6  -2  -5 2991.24 506.248   1
   6   2  -5 1177.19 218.978   1
   6   2  -5 1425.87 256.432   1
   6   2  -5 1447.24 181.089   2
  -6   2   5 1640.64 174.619   3
  -6   2   5 2013.36 348.606   1
  -6   2   5 1374.35 174.719   2
   5  -2  -5 460.455 82.9561   1
   5  -2  -5 512.607 55.3009   3
   5  -2  -5 712.641 122.617   1
  -5  -2   5 382.714 71.1921   1
  -5  -2   5 486.658 53.5910   3
  -5  -2   5 492.493 60.8528   2
  -5  -2   5 603.445 105.225   1
   5  -2  -5 506.158 62.1126   2
   5   2  -5 508.484 55.0987   3
  -5   2   5 428.225 55.2832   2
   5   2  -5 486.165 86.8853   1
   5   2  -5 476.237 85.3382   1
  -5   2   5 427.848 77.9845   1
   5   2  -5 545.309 65.6406   2
  -5   2   5 515.720 91.4756   1
  -5   2   5 539.348 57.2566   3
  -4  -2   5 28.0554 4.97578   1
   4  -2  -5 22.6143 2.96994   2
   4  -2  -5 18.5171 2.36348   3
   4  -2  -5 44.8137 7.67463   1
  -4  -2   5 24.4064 4.40526   1
  -4  -2   5 25.4454 2.90418   3
   4  -2  -5 35.1433 6.10495   1
  -4   2   5 23.8448 4.32835   1
   4   2  -5 25.5903 4.58085   1
   4   2  -5 24.0059 2.82702   3
  -4   2   5 24.1356 2.73065   3
   4   2  -5 31.1293 5.46270   1
  -4   2   5 30.8065 3.73388   2
   4   2  -5 25.4040 3.21272   2
  -4   2   5 29.2732 5.17880   1
   3  -2  -5 1355.75 166.597   2
  -3  -2   5 1337.48 146.106   3
   3  -2  -5 1004.15 187.980   1
   3  -2  -5 1429.49 152.631   3
   3  -2  -5 1453.26 256.453   1
  -3  -2   5 1335.81 238.125   1
  -3  -2   5 1342.18 239.130   1
   3   2  -5 1511.49 265.562   1
  -3   2   5 1221.80 220.704   1
  -3   2   5 1317.27 235.324   1
   3   2  -5 1382.09 168.928   2
  -3   2   5 1449.20 175.025   2
  -3   2   5 1319.17 144.770   3
   3   2  -5 1540.69 270.117   1
   3   2  -5 1203.58 136.787   3
   2  -2  -5 884.623 156.604   1
  -2  -2   5 1050.35 107.171   3
  -2  -2   5 757.081 136.954   1
  -2  -2   5 855.888 104.978   2
   2  -2  -5 907.964 96.5326   3
  -2  -2   5 836.819 149.171   1
   2  -2  -5 770.273 138.967   1
   2   2  -5 805.461 144.342   1
   2   2  -5 722.040 93.2110   2
  -2   2   5 1101.57 190.798   1
   2   2  -5 778.785 87.4386   3
   2   2  -5 805.214 144.322   1
  -2   2   5 804.361 144.194   1
   1  -2  -5 60.6037 7.52286   2
  -1  -2   5 71.1685 12.4619   1
  -1  -2   5 57.3732 7.22126   2
  -1  -2   5 79.4527 13.7835   1
   1  -2  -5 63.9629 6.90584   3
  -1  -2   5 63.5727 6.91136   3
   1  -2  -5 62.2610 11.0767   1
   1  -2  -5 62.5540 11.1119   1
  -1   2   5 60.3648 10.7758   1
   1   2  -5 56.5707 6.42144   3
  -1   2   5 62.7436 6.83041   3
   1   2  -5 49.9879 9.18450   1
  -1   2   5 46.9191 6.33644   2
   1   2  -5 61.0232 7.55357   2
  -1   2   5 65.5175 11.5868   1
   1   2  -5 63.0607 11.1980   1
   0  -2  -5 102.998 11.6167   3
   0  -2   5 130.009 22.7787   1
   0  -2   5 90.2993 10.7666   3
   0  -2   5 116.126 14.2072   2
   0  -2  -5 121.869 21.4892   1
   0  -2  -5 117.872 14.3451   2
   0  -2   5 112.781 20.0728   1
   0  -2  -5 111.615 19.8999   1
   0   2   5 110.381 13.6665   2
   0   2   5 110.371 19.7082   1
   0   2   5 106.808 19.1548   1
   0   2  -5 144.584 25.0798   1
   0   2  -5 115.291 14.1467   2
   0   2  -5 113.087 20.1259   1
   0   2   5 102.569 11.5924   3
  -1  -2  -5 3.49035 0.72768   1
  -1  -2  -5 2.91588 0.51741   2
  -1  -2  -5 3.14701 0.64747   1
   1  -2   5 3.80479 0.60048   3
  -1  -2  -5 3.85219 0.60845   3
   1  -2   5 4.92165 0.96404   1
   1  -2   5 2.78289 0.60890   1
   1  -2   5 3.60551 0.60264   2
   1   2   5 4.11726 0.79511   1
   1   2   5 5.26070 0.98046   1
  -1   2  -5 3.61167 0.61847   2
  -1   2  -5 3.58499 0.59242   3
  -1   2  -5 5.85029 1.08366   1
   1   2   5 3.66640 0.61180   2
   1   2   5 3.94726 0.67608   3
  -1   2  -5 4.09352 0.81413   1
   2  -2   5 247.955 27.7804   3
  -2  -2  -5 344.898 40.1042   2
  -2  -2  -5 248.246 27.8009   3
   2  -2   5 233.175 42.3684   1
   2  -2   5 268.457 47.7864   1
   2  -2   5 317.304 37.5317   2
  -2  -2  -5 292.666 51.5379   1
  -2  -2  -5 249.770 44.8931   1
   2   2   5 212.011 25.3743   3
   2   2   5 405.086 69.4289   1
  -2   2  -5 264.799 47.2207   1
   2   2   5 227.984 41.5825   1
   2   2   5 309.622 36.8015   2
  -2   2  -5 316.293 55.2576   1
  -2   2  -5 255.618 28.3204   3
  -2   2  -5 236.386 30.2106   2
   3  -2   5 1298.60 152.663   2
  -3  -2  -5 1019.90 127.276   2
  -3  -2  -5 993.753 178.865   1
  -3  -2  -5 1519.88 261.576   1
   3  -2   5 1014.31 182.010   1
   3  -2   5 930.944 107.000   3
  -3  -2  -5 945.449 107.938   3
   3  -2   5 1313.33 228.707   1
  -3   2  -5 1302.90 226.975   1
   3   2   5 1059.11 188.920   1
  -3   2  -5 1541.97 175.891   2
   3   2   5 1106.63 196.226   1
   3   2   5 968.026 122.746   2
   3   2   5 961.515 109.061   3
  -3   2  -5 948.607 108.177   3
  -3   2  -5 1240.29 217.143   1
   4  -2   5 203.130 22.2903   3
  -4  -2  -5 217.082 38.4345   1
   4  -2   5 186.247 23.7073   2
  -4  -2  -5 139.442 26.7027   1
   4  -2   5 216.790 38.4130   1
  -4  -2  -5 214.513 26.2097   2
   4  -2   5 261.392 45.4355   1
  -4  -2  -5 193.267 21.6012   3
   4   2   5 239.383 41.9331   1
  -4   2  -5 207.835 25.6238   2
   4   2   5 202.257 25.1122   2
  -4   2  -5 246.248 43.0294   1
  -4   2  -5 204.217 22.3746   3
   4   2   5 236.727 41.5250   1
  -4   2  -5 213.942 37.9619   1
  -5  -2  -5 48.9692 5.46371   3
  -5  -2  -5 53.2533 9.46382   1
   5  -2   5 52.5955 6.53885   2
  -5  -2  -5 54.0613 6.66266   2
  -5  -2  -5 50.1936 8.98820   1
   5  -2   5 33.6191 6.50663   1
   5  -2   5 69.7086 12.0793   1
  -5   2  -5 50.2826 9.00404   1
  -5   2  -5 39.9891 7.44290   1
   5   2   5 52.4078 6.50322   2
   5   2   5 50.6701 5.60410   3
   5   2   5 39.0506 7.29006   1
   5   2   5 55.6930 9.84356   1
  -5   2  -5 51.7440 6.46912   2
  -6  -2  -5 270.935 32.0392   3
   6  -2   5 426.837 49.7591   2
   6  -2   5 351.767 62.2336   1
   6  -2   5 285.900 52.1103   1
  -6  -2  -5 288.876 37.1842   2
  -6  -2  -5 352.666 62.3631   1
  -6  -2  -5 276.042 50.5926   1
  -6   2  -5 330.004 40.8177   2
   6   2   5 409.834 48.1358   2
   6   2   5 297.614 53.8723   1
   6   2   5 301.517 54.4678   1
   6   2   5 364.989 38.6113   3
  -6   2  -5 489.122 84.0404   1
  -6   2  -5 333.144 59.3408   1
   7  -2   5 687.036 117.874   1
   7  -2   5 325.807 45.2757   2
  -7  -2  -5 427.341 76.8830   1
   7  -2   5 478.450 84.7958   1
  -7  -2  -5 577.218 67.4813   2
  -7  -2  -5 315.040 60.1010   1
  -7  -2  -5 481.367 51.6106   3
   7   2   5 480.640 58.5531   2
   7   2   5 487.624 86.2126   1
  -7   2  -5 436.200 78.2456   1
   7   2   5 527.154 92.4199   1
  -7   2  -5 389.296 71.0891   1
   7   2   5 534.821 55.5732   3
  -7   2  -5 632.837 72.7775   2
  -8  -2  -5 15.8058 2.29702   2
  -8  -2  -5 16.2296 3.05042   1
  -8  -2  -5 21.0717 3.78836   1
  -8  -2  -5 17.7158 2.08707   3
   8  -2   5 16.1641 3.04128   1
   8   2   5 23.4369 2.55641   3
   8   2   5 18.1823 3.33757   1
   8   2   5 19.5194 2.58610   2
  -8   2  -5 18.5221 3.41396   1
  -8   2  -5 17.6867 2.46849   2
  -9  -2  -5 6.98145 1.20333   2
  -9  -2  -5 5.49793 0.79185   3
   9   2   5 7.01594 1.14664   2
  -9   2  -5 6.52786 1.18132   2
   9   2   5 7.35366 0.98309   3
 -10  -2  -5 68.0596 8.38905   2
 -10  -2  -5 54.3444 6.25653   3
  10   2   5 61.7942 6.79958   3
 -10   2  -5 64.0452 8.01705   2
  10   2   5 53.5159 7.05279   2
  11  -2   5 1.37231 0.64196   2
 -11  -2  -5 3.00931 0.84626   2
  11   2   5 2.42043 0.68460   2
 -11   2  -5 2.11569 0.68589   2
 -12  -2  -5 0.40617 0.64825   2
  12  -2   5 -0.3691 0.53584   2
  12   2   5 0.60364 0.68407   2
 -13  -2  -5 4.51018 1.07659   2
  13  -2   5 8.66314 1.38324   2
  13   2   5 6.86026 1.24333   2
 -14  -2  -5 155.107 19.2081   2
  14  -2   5 140.810 17.8855   2
  15  -2   5 58.4030 7.85729   2
  15   2   5 88.8447 10.6607   2
  16  -2   5 18.1298 2.56288   2
 -16  -2  -5 18.9717 2.72329   2
  16   2   5 17.3495 2.54169   2
 -16   2  -5 17.0858 2.52117   2
  17  -2   5 28.6299 3.81298   2
 -17   2  -5 25.2465 3.53027   2
  18  -2   5 18.8291 2.63013   2
 -18   2  -5 15.1273 2.33144   2
  20  -3  -5 2.12690 0.79782   2
 -20   3   5 3.28198 0.92771   2
  19  -3  -5 1.88296 0.84300   2
 -19   3   5 0.33233 0.71779   2
  18  -3  -5 48.5949 6.21806   2
 -18   3   5 42.7230 5.68679   2
  17  -3  -5 2.47454 0.74986   2
 -17   3   5 3.25935 0.91265   2
  16  -3  -5 3.03602 0.83836   2
 -16   3   5 4.05981 0.99438   2
  15  -3  -5 3.06555 0.77636   2
 -15   3   5 3.27779 0.91311   2
  14  -3  -5 7.30112 1.30368   2
 -14   3   5 11.5628 1.73918   2
 -13  -3   5 1.09159 0.50398   3
  13  -3  -5 1.52904 0.66254   2
 -13   3   5 1.00254 0.64263   2
  13   3  -5 -0.4595 0.57839   3
  13   3  -5 0.58405 0.45548   2
  12  -3  -5 80.5141 9.90590   2
 -12  -3   5 63.7979 7.51833   3
 -12   3   5 75.1981 9.40965   2
  12   3  -5 71.4993 9.05997   2
  11  -3  -5 167.855 19.4638   2
 -11  -3   5 92.9857 11.4467   3
  11   3  -5 118.857 14.8332   2
 -11   3   5 126.080 15.5389   2
  11   3  -5 122.689 13.4942   3
 -10  -3   5 4.86369 1.01464   1
  10   3  -5 5.22989 0.87659   2
 -10   3   5 9.06655 1.35500   2
   9  -3  -5 68.5356 7.90978   2
  -9  -3   5 40.7366 7.38592   1
   9  -3  -5 35.0444 6.53662   1
   9  -3  -5 38.4089 7.04664   1
  -9  -3   5 44.8861 8.02968   1
  -9  -3   5 45.4549 5.09916   3
  -9   3   5 36.0982 6.69793   1
   9   3  -5 46.4188 5.19694   3
   9   3  -5 44.9206 5.62430   2
  -9   3   5 42.3193 5.43481   2
  -9   3   5 32.0949 6.10258   1
   9   3  -5 50.3055 8.87789   1
  -8  -3   5 6.92263 1.34138   1
   8  -3  -5 7.72028 1.48286   1
   8  -3  -5 6.72170 1.32600   1
   8  -3  -5 9.03427 1.28004   2
  -8  -3   5 10.7809 1.34050   3
  -8   3   5 8.85344 1.66151   1
   8   3  -5 6.60015 1.28047   1
  -8   3   5 6.04323 1.02536   2
   8   3  -5 7.57963 1.08291   2
  -8   3   5 9.54638 1.75510   1
   8   3  -5 7.37605 1.15090   3
   8   3  -5 8.43760 1.56860   1
   7  -3  -5 39.8655 7.15323   1
  -7  -3   5 51.7394 5.41828   3
   7  -3  -5 35.8843 6.54661   1
  -7  -3   5 34.3228 6.28372   1
   7  -3  -5 48.0782 5.79156   2
  -7   3   5 39.0666 7.02568   1
   7   3  -5 34.7460 6.34239   1
  -7   3   5 36.4034 4.72031   2
  -7   3   5 34.7310 6.37177   1
   7   3  -5 40.9896 7.30417   1
  -7   3   5 34.6902 4.01596   3
   6  -3  -5 0.56148 0.30915   1
  -6  -3   5 -0.0730 0.25843   1
   6  -3  -5 0.12802 0.36184   2
   6  -3  -5 -0.1266 0.33577   1
  -6   3   5 0.66729 0.39354   2
  -6   3   5 0.58487 0.30851   3
   6   3  -5 -0.2900 0.51889   3
   6   3  -5 0.58853 0.24391   1
  -6   3   5 0.60625 0.31883   1
   6   3  -5 0.16548 0.18433   1
  -6   3   5 -0.1803 0.29449   1
   5  -3  -5 15.9652 1.97947   3
   5  -3  -5 16.8926 3.13729   1
   5  -3  -5 17.1187 2.30779   2
  -5  -3   5 24.0903 2.68316   3
   5   3  -5 21.9479 3.89862   1
  -5   3   5 19.0735 2.48413   2
   5   3  -5 17.2389 3.16633   1
   5   3  -5 24.2071 2.70557   3
  -5   3   5 20.3407 3.67684   1
  -5   3   5 20.9131 2.34965   3
   4  -3  -5 18.2540 3.25979   1
  -4  -3   5 18.1846 2.11140   3
   4  -3  -5 17.5947 1.99149   3
   4  -3  -5 13.2964 2.50147   1
   4   3  -5 12.9784 1.75378   3
   4   3  -5 15.5777 2.81443   1
  -4   3   5 16.5597 2.13427   2
  -4   3   5 16.3277 2.96403   1
  -4   3   5 18.3770 2.07304   3
  -4   3   5 13.0282 2.45340   1
   4   3  -5 13.8229 2.54267   1
  -3  -3   5 125.878 13.5547   3
  -3  -3   5 110.734 19.8962   1
   3  -3  -5 135.422 23.7612   1
   3  -3  -5 125.721 13.4947   3
   3   3  -5 104.081 12.0250   3
  -3   3   5 125.516 15.2670   2
  -3   3   5 106.975 12.1764   3
  -3   3   5 102.599 18.6684   1
  -3   3   5 119.299 21.2374   1
  -2  -3   5 0.50026 0.38818   3
  -2  -3   5 0.27520 0.17154   1
   2  -3  -5 -0.1365 0.22253   1
  -2   3   5 0.20755 0.18886   1
  -2   3   5 -0.3424 0.24430   1
   2   3  -5 -0.3307 0.48733   3
  -2   3   5 -0.4465 0.45232   3
  -2   3   5 0.09985 0.22884   2
   1  -3  -5 20.0597 3.59835   1
  -1  -3   5 22.4039 3.96407   1
  -1  -3   5 22.1095 2.49917   3
   1  -3  -5 18.6180 2.20027   3
  -1   3   5 15.2590 2.86183   1
  -1   3   5 17.4597 3.19389   1
   0  -3  -5 121.897 21.5719   1
   0  -3  -5 135.074 14.1124   3
   0   3   5 103.716 11.8698   3
   0   3  -5 102.380 11.7905   3
   0   3  -5 127.560 22.4633   1
   1  -3   5 76.3794 9.23769   3
  -1  -3  -5 114.348 19.9910   1
   1  -3   5 156.635 26.7662   1
  -1  -3  -5 95.9738 10.5630   3
  -1   3  -5 97.3036 17.3270   1
  -1   3  -5 116.916 12.1602   3
  -1   3  -5 106.320 18.7445   1
   1   3   5 112.472 11.7947   3
  -1   3  -5 76.4780 10.1987   2
   2  -3   5 30.4701 5.33844   1
   2  -3   5 21.0687 3.87578   1
  -2  -3  -5 20.3946 3.75288   1
   2  -3   5 27.3608 3.04288   3
  -2  -3  -5 26.6254 2.95162   3
   2   3   5 17.9121 2.50438   2
   2   3   5 23.9726 2.78295   3
  -2   3  -5 22.9991 4.17193   1
  -2   3  -5 25.7215 4.58895   1
   2   3   5 25.2954 4.51806   1
   2   3   5 22.4055 4.06563   1
  -2   3  -5 24.6732 2.86883   3
  -2   3  -5 24.4604 3.10598   2
  -3  -3  -5 32.0553 3.77627   3
   3  -3   5 36.5516 4.59753   2
   3  -3   5 43.5415 4.64408   3
   3  -3   5 35.7255 6.42151   1
   3  -3   5 37.8151 6.74238   1
  -3   3  -5 42.7650 7.52093   1
  -3   3  -5 35.1040 6.32395   1
   3   3   5 33.9233 6.12481   1
   3   3   5 26.6156 3.71320   2
   3   3   5 33.7960 6.10336   1
   3   3   5 33.0675 3.85895   3
  -3   3  -5 49.2988 5.11261   3
  -3   3  -5 35.8475 4.52609   2
   4  -3   5 228.226 27.5614   2
   4  -3   5 227.535 24.1757   3
  -4  -3  -5 165.443 30.5829   1
   4  -3   5 189.061 34.1609   1
   4  -3   5 200.507 35.9246   1
   4   3   5 194.806 21.8441   3
   4   3   5 211.355 37.5838   1
   4   3   5 195.811 35.1649   1
   4   3   5 242.574 28.8430   2
  -4   3  -5 197.098 35.3904   1
  -4   3  -5 202.784 22.4254   3
  -4   3  -5 189.523 24.0770   2
   5  -3   5 6.89622 1.10647   2
   5  -3   5 6.81858 1.33746   1
  -5  -3  -5 8.50832 1.11888   3
   5  -3   5 8.26860 1.57338   1
  -5  -3  -5 5.92144 1.17168   1
  -5  -3  -5 9.31034 1.73511   1
  -5   3  -5 9.30760 1.19871   3
  -5   3  -5 6.21820 1.24958   1
   5   3   5 11.2249 2.03917   1
  -5   3  -5 4.93098 0.96469   2
   5   3   5 7.00186 1.06370   2
  -5   3  -5 8.58683 1.62523   1
   5   3   5 7.92545 1.48777   1
  -6  -3  -5 48.8941 8.86700   1
   6  -3   5 51.8774 9.33784   1
  -6  -3  -5 42.4768 7.89220   1
  -6   3  -5 56.7536 7.05244   2
   6   3   5 51.2621 6.52813   2
   6   3   5 59.8749 10.5801   1
   6   3   5 54.3477 9.70258   1
  -6   3  -5 46.7795 8.56391   1
  -6   3  -5 62.1063 10.9481   1
  -7  -3  -5 0.38024 0.42167   3
   7   3   5 -0.4293 0.42165   2
   7   3   5 0.25570 0.50562   3
   8  -3   5 9.67607 1.44864   2
  -8  -3  -5 8.69825 1.34595   2
   8   3   5 9.54618 1.41476   2
   8   3   5 7.77594 1.14048   3
  -9  -3  -5 48.7127 5.26399   3
   9  -3   5 52.6325 6.43888   2
   9   3   5 42.3882 4.82808   3
  -9   3  -5 34.2287 4.79715   2
 -10  -3  -5 59.0397 6.63219   3
  10  -3   5 66.3664 8.23400   2
 -10  -3  -5 66.3865 8.22667   2
  10   3   5 60.3121 7.67965   2
 -10   3  -5 50.3196 6.81113   2
 -11  -3  -5 25.4595 3.30777   2
 -11  -3  -5 19.5357 2.36861   3
  11  -3   5 17.5994 2.56812   2
  11   3   5 19.4407 2.71421   2
  11   3   5 22.8503 2.63999   3
 -11   3  -5 18.0525 2.61852   2
 -12  -3  -5 1.05944 0.71927   2
  12  -3   5 1.70501 0.70614   2
 -12   3  -5 1.10872 0.72086   2
  12   3   5 1.68191 0.68256   2
  13  -3   5 1.67102 0.69815   2
 -13   3  -5 2.33576 0.77531   2
  14  -3   5 1.57834 0.71041   2
  14  -3   5 1.10227 0.63701   2
 -14   3  -5 2.10543 0.74414   2
  15  -3   5 3.53013 0.89095   2
 -15   3  -5 1.97414 0.77865   2
  16  -3   5 5.44426 1.11685   2
 -16   3  -5 5.03484 1.12787   2
  17  -3   5 2.76073 0.81833   2
  18  -4  -5 1.13348 0.62955   2
  17  -4  -5 2.32079 0.85080   2
  16  -4  -5 47.4100 6.17391   2
  15  -4  -5 17.1245 2.45632   2
 -14  -4   5 17.7974 2.26770   3
  14  -4  -5 17.6444 2.52203   2
  14   4  -5 20.0654 2.50184   3
  13  -4  -5 31.4475 4.14858   2
 -13  -4   5 31.1099 3.67954   3
  13   4  -5 30.0011 3.66119   3
  12  -4  -5 7.74580 1.27609   2
 -12  -4   5 5.97336 1.04793   3
  12   4  -5 8.61458 1.32881   3
 -11  -4   5 1.93722 0.58105   3
  11  -4  -5 2.42609 0.72294   2
  11   4  -5 2.27408 0.71367   3
 -11   4   5 0.63410 0.60143   2
 -10  -4   5 7.33255 1.17376   3
  10   4  -5 6.68154 1.15050   3
 -10   4   5 6.95549 1.19748   2
  -9  -4   5 103.863 11.9733   3
   9   4  -5 126.877 13.6407   3
  -8  -4   5 11.7103 1.61897   3
   8  -4  -5 10.9988 1.63267   2
   8   4  -5 15.5981 1.97343   3
  -8   4   5 13.3076 1.86568   2
  -7  -4   5 9.77002 1.91547   1
   7  -4  -5 23.0908 4.06789   1
  -7  -4   5 14.8278 2.68229   1
  -7   4   5 17.1257 2.25421   2
  -7   4   5 16.0174 1.86858   3
   7   4  -5 16.5591 2.10197   3
  -6  -4   5 88.7369 9.63677   3
   6  -4  -5 74.5434 13.5023   1
   6  -4  -5 78.3275 8.79560   3
  -6  -4   5 87.1285 15.4134   1
  -6   4   5 84.3257 15.0294   1
  -6   4   5 85.8030 9.34122   3
   6   4  -5 72.6212 8.50045   3
   5  -4  -5 14.1430 1.72961   3
   5  -4  -5 16.4024 2.96583   1
  -5  -4   5 15.6259 1.92315   3
  -5   4   5 15.1323 2.78110   1
  -5   4   5 13.1855 1.68942   3
   5   4  -5 14.5675 1.90217   3
  -5   4   5 12.0824 2.28133   1
   4  -4  -5 5.67554 1.09748   1
   4  -4  -5 6.46967 0.90981   3
  -4  -4   5 5.30321 0.90234   3
  -4   4   5 5.14614 0.99939   1
  -4   4   5 4.58646 0.93094   1
  -4   4   5 7.60537 1.03047   3
   4   4  -5 4.61982 0.91036   3
   3  -4  -5 15.3334 2.76197   1
   3  -4  -5 15.3861 1.83379   3
  -3   4   5 11.5449 2.16832   1
  -3   4   5 17.1497 3.05094   1
  -3   4   5 13.2042 1.70378   3
   2  -4  -5 48.1967 8.81109   1
  -2  -4   5 64.0109 6.89852   3
   2  -4  -5 54.0552 6.11213   3
   2   4  -5 53.3832 6.14635   3
  -2   4   5 48.7219 8.88560   1
  -2   4   5 49.5510 9.00650   1
  -2   4   5 62.3986 6.74256   3
  -1  -4   5 1.45421 0.31355   1
   1  -4  -5 1.38847 0.34410   1
  -1   4   5 2.12366 0.64030   3
  -1   4   5 0.56725 0.22495   1
   1   4  -5 0.36402 0.60908   3
  -1   4   5 0.59957 0.23182   1
   0  -4   5 0.72957 0.25762   1
   0  -4  -5 0.82648 0.23009   1
   0  -4   5 2.02096 0.57970   3
   0   4   5 0.92299 0.24263   1
   0   4  -5 0.32531 0.60299   3
   0   4   5 0.75721 0.22313   1
   0   4  -5 0.12393 0.20675   1
   0   4  -5 0.74340 0.26415   1
   1  -4   5 11.5534 2.11236   1
  -1  -4  -5 9.24046 1.74304   1
  -1  -4  -5 12.3038 1.56085   3
   1  -4   5 12.0014 1.55222   3
  -1   4  -5 13.9457 1.76984   3
  -1   4  -5 9.79173 1.84263   1
   1   4   5 12.0517 2.16748   1
  -1   4  -5 10.2256 1.91542   1
   1   4   5 8.75987 1.67628   1
   1   4   5 16.3916 1.89438   3
   2  -4   5 2.69488 0.67000   3
  -2  -4  -5 2.60641 0.54405   1
   2  -4   5 3.28944 0.67559   1
  -2  -4  -5 2.50281 0.57869   3
   2   4   5 3.16524 0.69041   3
   2   4   5 3.00882 0.59006   1
   2   4   5 1.80274 0.43441   1
  -2   4  -5 3.34211 0.79579   3
  -2   4  -5 3.56759 0.71546   1
  -2   4  -5 2.18454 0.52982   1
  -3  -4  -5 99.1392 10.6071   3
   3  -4   5 89.1389 15.9322   1
   3  -4   5 86.6694 15.5574   1
   3  -4   5 88.7152 9.89384   3
  -3   4  -5 72.5338 13.3940   1
   3   4   5 88.8111 15.8647   1
  -3   4  -5 116.168 20.1954   1
   3   4   5 86.6764 9.72627   3
   3   4   5 81.8088 14.7830   1
  -3   4  -5 85.3061 9.66226   3
  -4  -4  -5 110.594 12.0949   3
   4  -4   5 104.599 18.7499   1
  -4  -4  -5 73.5864 14.0815   1
   4  -4   5 99.2151 11.3277   3
  -4   4  -5 110.999 12.1687   3
  -4   4  -5 127.561 15.2167   2
   4   4   5 117.425 12.6008   3
  -5   4  -5 1.87367 0.65213   3
   5   4   5 1.19153 0.55017   3
  -5   4  -5 2.56472 0.58898   2
  -6  -4  -5 159.239 16.6177   3
   6  -4   5 131.138 16.4183   2
  -6   4  -5 122.790 15.6920   2
   6   4   5 124.646 14.1382   3
   7  -4   5 94.2457 12.8645   2
  -7  -4  -5 161.862 16.4711   3
   7   4   5 158.079 16.2090   3
  -7   4  -5 118.864 15.0039   2
  -8  -4  -5 -0.4838 0.36759   3
  -8   4  -5 0.27334 0.57045   2
   8   4   5 -0.1358 0.49928   3
  -9  -4  -5 0.39762 0.39514   3
   9   4   5 -0.2200 0.47854   3
  -9   4  -5 0.56293 0.55314   2
 -10   4  -5 0.52348 0.66499   2
  10   4   5 0.95290 0.61500   3
 -11  -4  -5 11.3166 1.49481   3
 -11   4  -5 12.7606 1.94776   2
  12  -4   5 16.9082 2.51736   2
 -12  -4  -5 20.0376 2.38263   3
  12   4   5 20.8885 2.55165   3
 -12   4  -5 20.2405 2.86462   2
  13  -4   5 4.69465 1.04944   2
 -13   4  -5 4.44756 1.08412   2
  14  -4   5 6.96754 1.28764   2
 -14   4  -5 8.28078 1.48535   2
 -14  -5   5 3.30779 0.85313   3
  14   5  -5 4.17155 0.95437   3
 -13  -5   5 5.77031 1.03181   3
  13   5  -5 5.88062 1.18909   3
 -12  -5   5 34.4768 4.02148   3
  12   5  -5 31.6270 3.87569   3
 -11  -5   5 29.5745 3.42900   3
  11   5  -5 24.0050 3.07115   3
 -10  -5   5 86.3876 9.70781   3
  10   5  -5 85.8546 9.70930   3
  -9  -5   5 48.8646 5.53720   3
   9   5  -5 43.8332 5.19772   3
   8   5  -5 25.8551 3.17959   3
  -7  -5   5 33.4946 3.94456   3
   7   5  -5 32.9090 3.94741   3
  -6  -5   5 30.0554 3.59381   3
   6  -5  -5 29.5283 3.46427   3
  -6   5   5 31.4336 3.63047   3
   6   5  -5 31.8845 3.78568   3
  -5  -5   5 9.60497 1.43347   3
   5  -5  -5 12.1068 1.51749   3
   5   5  -5 9.71509 1.51364   3
  -4  -5   5 72.6149 8.21520   3
   4  -5  -5 74.1555 8.25362   3
   4   5  -5 77.7247 8.60529   3
  -4   5   5 68.0622 7.83727   3
   3  -5  -5 143.970 15.6911   3
  -3  -5   5 111.920 13.5432   3
   3   5  -5 156.929 16.7104   3
  -3   5   5 154.953 16.5024   3
  -2  -5   5 101.406 11.2951   3
   2  -5  -5 93.6989 10.6436   3
   2   5  -5 98.9466 11.0901   3
  -2   5   5 102.056 11.2567   3
  -1  -5   5 122.709 14.1804   3
   1  -5  -5 173.728 17.8350   3
   1   5  -5 128.685 14.5973   3
  -1   5   5 133.218 14.8579   3
   0  -5   5 178.768 20.4540   3
   0   5  -5 174.868 20.2009   3
   0   5   5 279.627 27.8811   3
  -1  -5  -5 46.7635 5.88212   3
   1  -5   5 66.8202 7.34502   3
  -1   5  -5 62.2191 7.02360   3
   1   5   5 86.4623 8.79757   3
  -2  -5  -5 9.61994 1.31772   3
   2  -5   5 10.9996 1.53749   3
  -2   5  -5 9.84854 1.46890   3
   2   5   5 8.32364 1.30040   3
  -3  -5  -5 34.1822 3.88369   3
   3  -5   5 31.0477 3.74437   3
   3   5   5 31.5713 3.72933   3
   4  -5   5 2.25253 0.73388   3
  -4  -5  -5 2.08407 0.61979   3
  -4   5  -5 1.01063 0.69242   3
   4   5   5 1.79760 0.73337   3
  -5  -5  -5 7.59180 1.10147   3
   5   5   5 3.97875 0.92906   3
   6   5   5 11.8761 1.63564   3
  -7  -5  -5 15.1048 1.95373   3
   7   5   5 15.5920 2.05125   3
  -8  -5  -5 -0.4895 0.42971   3
   8   5   5 0.73525 0.57882   3
  -9  -5  -5 17.2045 2.09484   3
   9   5   5 14.9851 1.97632   3
 -10  -5  -5 37.1096 4.37035   3
  10   5   5 41.7014 4.74851   3
 -11  -5  -5 30.4236 3.56231   3
 -12  -5  -5 30.7640 3.68367   3
  12   5   5 35.9514 4.11739   3
  13   6  -5 7.28854 1.39120   3
 -12  -6   5 6.81067 1.14735   3
  12   6  -5 7.09381 1.28584   3
 -11  -6   5 0.39798 0.53551   3
  11   6  -5 0.52866 0.63894   3
 -10  -6   5 3.54702 0.80661   3
  10   6  -5 5.17584 1.10591   3
  -9  -6   5 2.22244 0.73654   3
  -8  -6   5 8.04531 1.44088   3
   8   6  -5 10.5576 1.64526   3
  -7  -6   5 98.9224 10.9018   3
   7   6  -5 89.0681 10.2323   3
  -6  -6   5 4.20758 0.93491   3
   6  -6  -5 5.92042 0.98331   3
  -6   6   5 6.17667 1.02738   3
   6   6  -5 5.68645 1.17641   3
  -5  -6   5 -0.0215 0.62019   3
   5  -6  -5 0.23492 0.54517   3
  -5   6   5 0.45565 0.59196   3
   5   6  -5 3.00757 0.91157   3
   4  -6  -5 18.6680 2.30032   3
  -4  -6   5 15.7993 2.19085   3
   4   6  -5 22.0895 2.70710   3
   3  -6  -5 8.92555 1.25927   3
  -3  -6   5 6.85445 1.28452   3
   3   6  -5 8.31402 1.43195   3
  -3   6   5 11.4718 1.54636   3
  -2  -6   5 5.49845 1.06817   3
   2  -6  -5 6.04185 0.95244   3
  -2   6   5 4.84566 0.94335   3
   2   6  -5 3.75602 1.03281   3
  -1  -6   5 7.48827 1.26279   3
   1  -6  -5 6.24235 1.04186   3
   1   6  -5 10.0182 1.51776   3
  -1   6   5 6.32838 1.19487   3
   0  -6  -5 16.1062 1.94006   3
   0  -6   5 10.1714 1.66310   3
   0   6  -5 14.9375 2.01939   3
   0   6   5 12.8201 1.80789   3
  -1  -6  -5 0.28828 0.50247   3
   1  -6   5 1.29226 0.69253   3
   1   6   5 0.46744 0.72280   3
  -1   6  -5 -0.6353 0.77265   3
   2  -6   5 12.1878 1.69483   3
  -2  -6  -5 9.31947 1.34631   3
   2   6   5 9.40726 1.45666   3
  -3  -6  -5 4.06886 0.84891   3
   3  -6   5 6.00728 1.10325   3
   3   6   5 5.00487 0.97685   3
  -3   6  -5 4.53609 1.09681   3
  -4  -6  -5 3.08741 0.78144   3
  -4   6  -5 3.67267 0.96750   3
   4   6   5 5.06355 0.96195   3
  -5  -6  -5 30.6456 3.66839   3
   5   6   5 31.7819 3.81629   3
  -6  -6  -5 67.1718 7.32230   3
   6   6   5 54.3527 6.42422   3
  -7  -6  -5 10.1631 1.41588   3
  -8  -6  -5 19.6170 2.43006   3
   8   6   5 19.8458 2.50156   3
  -9  -6  -5 6.11935 1.04594   3
   9   6   5 7.28215 1.21662   3
 -10  -6  -5 17.0307 2.02680   3
  10   6   5 12.1580 1.72509   3
  11   6   5 1.05921 0.69016   3
 -11  -7   5 -0.0849 0.60233   3
  11   7  -5 1.02391 0.86490   3
 -10  -7   5 1.06297 0.56670   3
  10   7  -5 1.02313 0.76382   3
   9   7  -5 4.85171 1.10062   3
  -8  -7   5 3.66270 0.90355   3
   8   7  -5 4.36936 1.07529   3
  -7  -7   5 -0.3447 0.58487   3
   7   7  -5 0.17502 0.77123   3
  -6  -7   5 0.51525 0.66666   3
   6   7  -5 0.11781 0.71204   3
  -5  -7   5 21.5708 2.72065   3
   5   7  -5 21.2344 2.73672   3
  -4  -7   5 0.07535 0.58467   3
   4  -7  -5 0.03264 0.59983   3
  -4   7   5 0.18904 0.66706   3
   4   7  -5 1.04691 0.81429   3
   3  -7  -5 6.04416 1.09390   3
  -3  -7   5 6.90615 1.20983   3
   3   7  -5 7.45772 1.31801   3
   2  -7  -5 -0.1315 0.56849   3
  -2  -7   5 -0.3331 0.60282   3
  -2   7   5 -0.9982 0.69080   3
   2   7  -5 -0.4125 0.76538   3
  -1  -7   5 1.22859 0.70472   3
   1  -7  -5 2.40396 0.66639   3
   1   7  -5 1.52552 0.86901   3
  -1   7   5 1.09157 0.72963   3
   0  -7  -5 -0.3327 0.48702   3
   0  -7   5 0.64264 0.65785   3
   0   7   5 -0.3428 0.60042   3
   0   7  -5 0.34257 0.74330   3
   1  -7   5 1.09612 0.75485   3
  -1  -7  -5 1.90818 0.66105   3
   1   7   5 0.58195 0.62760   3
   2  -7   5 3.32546 0.93543   3
  -2  -7  -5 3.06801 0.75490   3
   2   7   5 2.36670 0.86895   3
  -2   7  -5 2.72280 0.93391   3
  -3  -7  -5 2.16242 0.71372   3
   3   7   5 -1.0837 0.69456   3
  -4  -7  -5 0.47630 0.50620   3
   4   7   5 -0.2903 0.62745   3
  -5  -7  -5 -0.6307 0.53668   3
   5   7   5 -0.9885 0.56246   3
  -6  -7  -5 1.20005 0.61172   3
   6   7   5 2.42498 0.73682   3
   7   7   5 3.54392 0.88232   3
  -8  -7  -5 18.8303 2.32184   3
   8   7   5 17.4318 2.30444   3
   9   7   5 1.64492 0.84385   3
  -6  -8   5 6.68243 1.08663   3
   6   8  -5 4.63055 1.05068   3
  -5  -8   5 3.76367 0.91745   3
   5   8  -5 3.79229 0.98097   3
  -4  -8   5 5.67560 1.01247   3
   4   8  -5 5.70725 1.14384   3
  -3  -8   5 7.74440 1.26051   3
   3   8  -5 7.98958 1.41359   3
  -2  -8   5 0.69339 0.59694   3
   2   8  -5 -0.0765 0.66431   3
  -1  -8   5 -0.1936 0.54901   3
   1  -8  -5 0.13480 0.56300   3
   0  -8  -5 -0.0414 0.59585   3
   0   8   5 0.51639 0.68015   3
  -1  -8  -5 1.65831 0.67516   3
   1   8   5 1.36844 0.75172   3
  -2  -8  -5 8.43522 1.26614   3
   2   8   5 7.78395 1.29713   3
   3   8   5 4.46644 1.05215   3
  21   0  -6 37.0670 4.87580   2
 -21   0   6 36.2792 4.83267   2
 -20   0   6 10.1357 1.67109   2
  20   0  -6 9.00191 1.52730   2
 -19   0   6 117.019 14.8941   2
  19   0  -6 125.225 15.5911   2
  18   0  -6 59.1674 7.59509   2
  17   0  -6 3.57149 0.90346   2
 -16   0   6 109.265 13.7482   2
 -15   0   6 16.3678 2.33359   2
 -14   0   6 4.15025 0.91431   2
 -13   0   6 2.03259 0.69283   2
  13   0  -6 3.59677 0.81888   2
 -12   0   6 92.8515 11.6404   2
  12   0  -6 101.297 12.4050   2
 -12   0   6 81.7040 14.9072   1
 -12   0   6 86.4623 15.6473   1
 -11   0   6 183.125 33.6408   1
 -11   0   6 322.819 55.5315   1
  11   0  -6 273.486 47.6457   1
  11   0  -6 243.802 29.4156   2
 -11   0   6 177.830 23.5957   2
  11   0  -6 338.732 58.0743   1
 -10   0   6 981.987 172.666   1
  10   0  -6 1344.38 230.306   1
 -10   0   6 830.357 103.954   2
 -10   0   6 910.124 161.387   1
  10   0  -6 979.699 117.433   2
  10   0  -6 621.749 117.743   1
  -9   0   6 11.8359 2.23120   1
   9   0  -6 13.5671 2.50104   1
  -9   0   6 14.0322 2.56573   1
   9   0  -6 12.5564 2.35349   1
   9   0  -6 13.2611 1.83603   2
  -9   0   6 13.0766 1.81765   2
  -8   0   6 1152.67 133.766   2
  -8   0   6 923.072 163.587   1
  -8   0   6 786.727 89.6200   3
   8   0  -6 920.699 163.128   1
   8   0  -6 923.665 163.670   1
  -8   0   6 708.554 130.759   1
   8   0  -6 855.705 106.397   2
  -7   0   6 3598.69 626.928   1
   7   0  -6 2384.94 439.305   1
   7   0  -6 2914.13 360.120   2
  -7   0   6 3048.59 328.548   3
   7   0  -6 3087.77 331.337   3
  -7   0   6 3102.32 549.140   1
  -7   0   6 2639.41 336.012   2
   7   0  -6 3407.11 596.989   1
   6   0  -6 5.97435 1.20819   1
  -6   0   6 6.25007 1.25798   1
   6   0  -6 13.2635 2.34724   1
   6   0  -6 9.85124 1.11081   3
   6   0  -6 9.06978 1.27976   2
  -6   0   6 10.1948 1.35449   2
  -6   0   6 8.31236 1.55902   1
  -6   0   6 7.82940 0.95008   3
  -5   0   6 61.7523 10.8472   1
   5   0  -6 63.9827 6.62398   3
  -5   0   6 43.5136 5.77718   2
   5   0  -6 58.1866 10.2809   1
  -5   0   6 49.0000 5.52428   3
   5   0  -6 50.6854 6.41596   2
  -5   0   6 49.4968 8.93528   1
   5   0  -6 59.4287 10.4813   1
  -4   0   6 69.4433 8.51906   2
  -4   0   6 66.3838 11.8482   1
   4   0  -6 65.5080 11.7177   1
   4   0  -6 60.2920 7.70036   2
  -4   0   6 65.4454 11.6953   1
   4   0  -6 62.4017 11.2274   1
  -3   0   6 572.385 99.2273   1
   3   0  -6 532.272 92.8675   1
   3   0  -6 455.648 80.8602   1
  -3   0   6 455.602 55.6991   2
  -3   0   6 475.888 50.6069   3
   3   0  -6 379.588 49.0076   2
   3   0  -6 490.183 51.6457   3
  -3   0   6 318.396 60.0827   1
  -2   0   6 2679.63 334.977   2
   2   0  -6 2473.92 449.302   1
  -2   0   6 3646.98 632.318   1
   2   0  -6 2656.06 477.276   1
  -2   0   6 3144.64 552.917   1
   2   0  -6 2774.41 304.281   3
   2   0  -6 2795.71 345.277   2
  -2   0   6 2856.20 310.070   3
  -1   0   6 1580.70 213.164   2
  -1   0   6 2316.40 243.642   3
  -1   0   6 2058.68 367.082   1
   1   0  -6 3158.89 541.301   1
  -1   0   6 2059.83 367.189   1
   1   0  -6 2262.39 398.851   1
   1   0  -6 2247.04 271.098   2
   1   0  -6 2175.18 233.367   3
   0   0   6 1201.27 130.366   3
   0   0  -6 1355.57 161.536   2
   0   0  -6 1209.13 214.850   1
   0   0   6 1688.60 290.644   1
   0   0   6 1097.62 197.648   1
   0   0  -6 1426.65 248.870   1
   0   0  -6 972.632 114.719   3
   0   0   6 1132.29 141.375   2
   1   0   6 2017.45 358.500   1
  -1   0  -6 2170.55 260.982   2
   1   0   6 1673.83 194.635   3
  -1   0  -6 2321.86 406.086   1
  -1   0  -6 1625.80 191.478   3
  -1   0  -6 2492.74 432.984   1
   1   0   6 2224.91 266.014   2
   1   0   6 2574.76 446.021   1
  -2   0  -6 1356.30 243.124   1
   2   0   6 1617.03 192.688   2
   2   0   6 1438.52 255.813   1
  -2   0  -6 1435.19 155.726   3
  -2   0  -6 1448.69 257.348   1
   2   0   6 1589.76 279.389   1
  -2   0  -6 1197.72 155.434   2
  -3   0  -6 373.780 41.1164   3
   3   0   6 462.450 80.6899   1
  -3   0  -6 335.065 60.8918   1
  -3   0  -6 362.824 45.4494   2
   3   0   6 280.563 52.7669   1
   3   0   6 400.758 43.0156   3
   3   0   6 459.629 54.2588   2
  -3   0  -6 413.900 73.0403   1
  -4   0  -6 25.8315 4.70670   1
  -4   0  -6 30.5917 3.82834   2
  -4   0  -6 29.8708 3.22729   3
   4   0   6 26.9286 4.87900   1
   4   0   6 23.3429 3.18946   2
   4   0   6 25.2327 4.62251   1
   4   0   6 26.1336 2.95773   3
  -4   0  -6 32.5074 5.75795   1
   5   0   6 298.248 35.9156   2
  -5   0  -6 297.778 31.4401   3
  -5   0  -6 222.739 29.2534   2
  -5   0  -6 318.937 55.7906   1
   5   0   6 280.382 49.7529   1
   5   0   6 210.245 39.0304   1
  -5   0  -6 314.927 55.1606   1
   5   0   6 274.135 29.7383   3
  -6   0  -6 510.206 92.4861   1
   6   0   6 643.830 67.6076   3
   6   0   6 781.535 134.989   1
   6   0   6 644.160 113.204   1
  -6   0  -6 555.482 61.2371   3
   6   0   6 512.999 65.4029   2
  -6   0  -6 538.681 96.8250   1
  -6   0  -6 551.096 68.7471   2
   7   0   6 20.9295 3.83781   1
  -7   0  -6 22.2682 2.93451   2
  -7   0  -6 21.1579 3.86389   1
   7   0   6 20.6900 2.78133   2
  -7   0  -6 20.0519 2.29558   3
  -7   0  -6 18.5668 3.46713   1
   8   0   6 53.3678 10.0224   1
   8   0   6 84.5282 10.1496   2
  -8   0  -6 79.7515 9.72071   2
   8   0   6 74.0642 9.16529   2
  -8   0  -6 61.6044 11.2536   1
   8   0   6 54.3272 10.1661   1
  -8   0  -6 68.8300 12.3735   1
   8   0   6 68.5547 12.3273   1
   9   0   6 40.3865 5.17928   2
  -9   0  -6 40.6369 5.21762   2
   9   0   6 35.8724 4.74668   2
  10   0   6 489.176 59.4525   2
  10   0   6 462.357 56.9923   2
 -10   0  -6 419.278 53.2140   2
  11   0   6 53.0640 6.55075   2
  11   0   6 45.2524 5.82597   2
 -11   0  -6 39.9790 5.39174   2
 -12   0  -6 159.693 19.9060   2
  12   0   6 155.663 19.5132   2
 -13   0  -6 143.231 17.9672   2
 -14   0  -6 85.2445 10.8402   2
  15   0   6 216.974 25.4994   2
 -15   0  -6 143.091 18.8281   2
  16   0   6 1.39265 0.74202   2
  17   0   6 41.1040 5.39165   2
 -17   0  -6 41.0709 5.42100   2
  18   0   6 23.4209 3.17315   2
 -18   0  -6 18.0518 2.67786   2
  21  -1  -6 -1.0456 0.59122   2
 -21  -1   6 0.58767 0.60834   2
 -21   1   6 -0.4259 0.58867   2
  20  -1  -6 2.36367 0.91149   2
 -20  -1   6 1.49349 0.82699   2
 -20   1   6 0.73581 0.79452   2
  20   1  -6 3.15191 0.90119   2
 -19  -1   6 5.68050 1.17890   2
  19  -1  -6 7.69616 1.27996   2
  19   1  -6 6.23643 1.22998   2
 -19   1   6 5.59304 1.17745   2
 -18  -1   6 13.2142 2.02541   2
  18  -1  -6 12.7791 1.95416   2
 -18   1   6 13.4341 2.01918   2
  18   1  -6 14.0778 2.06702   2
  17  -1  -6 1.97684 0.76002   2
 -17  -1   6 1.34866 0.74276   2
 -17   1   6 1.11996 0.80064   2
  17   1  -6 2.41948 0.73268   2
  16  -1  -6 119.819 14.7785   2
 -16  -1   6 104.930 13.4537   2
 -16   1   6 111.289 14.0321   2
  16   1  -6 113.192 14.1883   2
  15  -1  -6 200.636 24.7572   2
 -15  -1   6 195.081 24.2452   2
  15   1  -6 182.228 23.1169   2
 -15   1   6 194.958 24.2450   2
  14  -1  -6 7.25993 1.25834   2
 -14  -1   6 6.98865 1.24322   2
 -14   1   6 7.71318 1.31015   2
  14   1  -6 8.00649 1.30730   2
  13  -1  -6 176.478 21.2672   2
 -13  -1   6 143.451 18.2650   2
  13   1  -6 148.902 18.7549   2
 -13   1   6 152.033 19.0444   2
  12  -1  -6 1.04519 0.55071   2
 -12  -1   6 0.67462 0.56567   2
 -12  -1   6 1.57252 0.56912   1
  12  -1  -6 1.05865 0.44423   1
  12   1  -6 1.49555 0.49243   1
 -12   1   6 1.21595 0.51650   2
  12   1  -6 2.08204 0.58583   2
 -11  -1   6 30.1677 5.39919   1
 -11  -1   6 32.5876 5.76788   1
  11  -1  -6 35.6043 6.26802   1
 -11  -1   6 28.5184 3.67090   2
 -11  -1   6 22.2365 2.74175   3
  11  -1  -6 34.8405 6.13860   1
  11   1  -6 22.7182 3.15091   2
  11   1  -6 24.8108 4.56346   1
 -11   1   6 42.9909 7.46142   1
 -11   1   6 25.4102 4.66371   1
  11   1  -6 28.3054 5.10061   1
 -10  -1   6 71.5401 8.58089   2
  10  -1  -6 62.2426 11.0881   1
 -10  -1   6 54.9913 9.95786   1
 -10  -1   6 58.9941 10.5828   1
  10  -1  -6 59.6589 7.49616   2
  10  -1  -6 60.7217 10.8444   1
  10   1  -6 71.1016 12.4751   1
 -10   1   6 53.6863 6.96052   2
  10   1  -6 56.4836 10.1918   1
 -10   1   6 51.9497 9.50554   1
  10   1  -6 55.1239 7.06700   2
 -10   1   6 50.4800 9.27351   1
  -9  -1   6 63.7664 11.4051   1
  -9  -1   6 60.7247 6.81161   3
   9  -1  -6 72.7830 8.81402   2
  -9  -1   6 63.7143 11.3945   1
   9  -1  -6 62.2957 11.1814   1
  -9  -1   6 69.5217 8.49072   2
   9  -1  -6 51.0056 9.45509   1
  -9   1   6 52.3959 9.66889   1
   9   1  -6 50.4117 9.36549   1
  -9   1   6 62.0628 7.82299   2
  -9   1   6 61.0638 10.9877   1
   9   1  -6 63.1314 6.99315   3
   9   1  -6 66.0937 8.18366   2
   9   1  -6 63.9575 11.4364   1
  -8  -1   6 17.9781 2.35567   2
  -8  -1   6 14.0925 1.77260   3
  -8  -1   6 18.4013 3.32341   1
   8  -1  -6 15.3948 2.85726   1
   8  -1  -6 12.3532 2.41666   1
  -8  -1   6 19.1318 3.43911   1
   8  -1  -6 19.8277 2.53931   2
  -8   1   6 20.0616 3.59091   1
   8   1  -6 19.5924 3.52564   1
  -8   1   6 18.7732 2.43079   2
  -8   1   6 21.3143 3.78779   1
   8   1  -6 24.9962 4.37654   1
   8   1  -6 16.7866 2.24826   2
   8   1  -6 13.9743 1.77534   3
  -7  -1   6 329.690 40.1735   2
  -7  -1   6 305.624 54.6599   1
  -7  -1   6 284.181 32.2081   3
   7  -1  -6 302.464 54.1863   1
   7  -1  -6 350.915 42.1191   2
   7  -1  -6 313.710 55.9134   1
  -7  -1   6 346.122 60.9542   1
  -7   1   6 387.591 45.5314   2
   7   1  -6 294.825 37.0449   2
  -7   1   6 270.073 31.1891   3
   7   1  -6 295.911 53.1749   1
  -7   1   6 310.969 55.4930   1
   7   1  -6 289.383 52.1668   1
   7   1  -6 291.479 32.7108   3
  -7   1   6 389.214 67.7528   1
   6  -1  -6 64.5260 11.3970   1
   6  -1  -6 57.3133 6.29460   3
  -6  -1   6 62.4292 7.64679   2
  -6  -1   6 55.9247 6.25780   3
   6  -1  -6 61.5846 10.9425   1
   6  -1  -6 60.2229 7.45942   2
  -6  -1   6 69.3195 12.1493   1
  -6  -1   6 62.0179 11.0051   1
   6   1  -6 50.8108 9.27751   1
  -6   1   6 49.1211 5.73448   3
  -6   1   6 53.1038 6.82422   2
  -6   1   6 52.6523 9.55498   1
   6   1  -6 62.2745 7.62824   2
   6   1  -6 56.8620 10.1979   1
  -6   1   6 66.7649 11.7539   1
   6   1  -6 53.8855 6.12567   3
   5  -1  -6 72.6603 7.88973   3
  -5  -1   6 72.3074 7.91743   3
   5  -1  -6 77.5488 9.43451   2
   5  -1  -6 72.8226 12.9783   1
   5  -1  -6 72.0574 12.8611   1
  -5   1   6 61.7450 11.2779   1
   5   1  -6 78.4653 13.8582   1
   5   1  -6 72.9149 12.9937   1
  -5   1   6 76.3858 9.34189   2
   5   1  -6 52.9367 7.29847   2
  -5   1   6 78.0855 8.29036   3
  -5   1   6 82.7051 14.5270   1
  -4  -1   6 781.268 84.0958   3
   4  -1  -6 915.208 159.547   1
   4  -1  -6 837.340 147.265   1
   4  -1  -6 698.677 78.2525   3
   4  -1  -6 723.200 90.0930   2
  -4   1   6 630.064 73.6182   3
   4   1  -6 637.732 116.494   1
  -4   1   6 767.641 136.405   1
  -4   1   6 902.849 106.479   2
   4   1  -6 753.133 92.8133   2
  -4   1   6 910.849 158.854   1
   4   1  -6 733.105 131.056   1
   4   1  -6 743.763 81.4367   3
   3  -1  -6 0.92963 0.36916   2
   3  -1  -6 0.98325 0.24682   3
   3  -1  -6 2.00227 0.46749   1
  -3  -1   6 0.97017 0.37088   1
  -3  -1   6 1.07328 0.34814   1
  -3  -1   6 1.46155 0.31374   3
   3  -1  -6 0.62595 0.28967   1
   3   1  -6 2.18138 0.40301   3
  -3   1   6 0.74610 0.44232   2
  -3   1   6 1.06351 0.34803   1
   3   1  -6 2.00239 0.49281   2
   3   1  -6 0.89172 0.33794   1
   3   1  -6 2.18299 0.49127   1
  -3   1   6 0.64541 0.38337   1
   2  -1  -6 1468.01 270.739   1
  -2  -1   6 2093.46 367.040   1
  -2  -1   6 1912.85 338.656   1
   2  -1  -6 1719.34 191.557   3
   2  -1  -6 2046.36 359.551   1
   2  -1  -6 1950.35 236.138   2
  -2  -1   6 1838.38 225.991   2
  -2  -1   6 1786.33 196.265   3
   2   1  -6 1743.07 193.260   3
  -2   1   6 2457.59 283.435   2
   2   1  -6 1762.02 219.201   2
  -2   1   6 1731.60 192.411   3
  -2   1   6 1477.87 272.145   1
  -2   1   6 1773.33 317.156   1
   1  -1  -6 135.832 15.1413   3
  -1  -1   6 103.355 19.5387   1
  -1  -1   6 163.571 17.1456   3
   1  -1  -6 151.089 26.7649   1
  -1  -1   6 151.677 18.4877   2
  -1  -1   6 140.180 25.0854   1
   1  -1  -6 144.082 17.7943   2
   1  -1  -6 183.961 31.9706   1
   1   1  -6 140.804 15.5075   3
  -1   1   6 137.024 15.2241   3
   0  -1   6 1130.13 141.065   2
   0  -1   6 1208.00 214.648   1
   0  -1  -6 941.260 174.009   1
   0  -1  -6 1220.98 131.709   3
   0  -1  -6 1624.66 280.364   1
   0  -1   6 992.797 181.751   1
   0  -1  -6 1421.48 167.588   2
   0  -1   6 1215.60 131.353   3
   0   1   6 1093.88 122.796   3
   0   1  -6 1175.10 128.473   3
   1  -1   6 1.37506 0.44101   2
   1  -1   6 0.67174 0.33612   1
  -1  -1  -6 0.27695 0.37648   2
  -1  -1  -6 1.20763 0.28396   3
  -1  -1  -6 -0.0185 0.25938   1
   1  -1   6 1.15896 0.37311   1
  -1   1  -6 0.95381 0.37817   1
  -1   1  -6 0.22889 0.31142   1
  -1   1  -6 0.32243 0.38575   2
  -1   1  -6 1.08055 0.27386   3
   1   1   6 0.82625 0.28631   3
   2  -1   6 155.679 16.7217   3
  -2  -1  -6 159.245 19.3633   2
   2  -1   6 151.516 26.9541   1
   2  -1   6 150.813 18.5771   2
   2  -1   6 162.199 28.6247   1
   2   1   6 143.366 25.6884   1
   2   1   6 157.577 19.1872   2
   2   1   6 166.776 29.3271   1
   2   1   6 145.737 16.0164   3
  -2   1  -6 126.418 23.0972   1
  -2   1  -6 113.941 15.3826   2
  -2   1  -6 161.056 17.1181   3
   3  -1   6 200.104 22.3965   3
   3  -1   6 192.359 34.8419   1
   3  -1   6 233.960 28.2658   2
   3  -1   6 210.615 37.6216   1
  -3  -1  -6 190.466 21.7295   3
  -3   1  -6 229.879 27.8904   2
  -3   1  -6 252.068 44.1025   1
   3   1   6 268.773 46.7612   1
   3   1   6 218.723 26.8850   2
  -3   1  -6 203.639 22.6448   3
  -3   1  -6 206.084 36.9413   1
   3   1   6 188.474 34.2463   1
  -4  -1  -6 546.243 58.7695   3
   4  -1   6 471.107 60.0222   2
  -4  -1  -6 812.507 139.153   1
   4  -1   6 648.247 112.871   1
   4  -1   6 499.709 89.6658   1
   4  -1   6 577.255 61.0281   3
  -4   1  -6 498.574 55.4235   3
   4   1   6 550.417 97.5132   1
  -4   1  -6 530.305 94.3791   1
  -4   1  -6 684.303 79.4962   2
   4   1   6 539.122 66.0375   2
   4   1   6 322.897 63.4601   1
   4   1   6 558.169 59.6601   3
  -4   1  -6 442.730 80.9903   1
  -5  -1  -6 124.920 13.8237   3
  -5  -1  -6 119.156 21.5263   1
   5  -1   6 163.515 28.4516   1
  -5  -1  -6 118.740 21.4601   1
   5  -1   6 147.868 17.7413   2
   5  -1   6 157.222 27.4639   1
   5   1   6 121.467 13.5864   3
   5   1   6 114.217 20.7595   1
  -5   1  -6 121.682 21.9078   1
  -5   1  -6 151.814 26.6055   1
   5   1   6 124.146 22.2792   1
  -5   1  -6 98.4977 13.4013   2
   5   1   6 183.979 21.1652   2
  -5   1  -6 128.609 14.0877   3
  -6  -1  -6 376.205 66.0635   1
  -6  -1  -6 296.258 53.6865   1
   6  -1   6 289.097 37.2434   2
  -6  -1  -6 354.349 43.0310   2
   6  -1   6 363.581 64.1035   1
   6  -1   6 329.409 58.8003   1
  -6  -1  -6 330.187 36.0878   3
  -6   1  -6 277.704 50.8873   1
   6   1   6 302.005 54.5726   1
   6   1   6 333.657 36.3386   3
   6   1   6 246.865 46.2884   1
  -6   1  -6 374.307 65.7896   1
  -6   1  -6 408.426 48.0523   2
  -6   1  -6 340.981 36.8618   3
   6   1   6 349.512 42.5859   2
   7  -1   6 235.152 28.1837   2
  -7  -1  -6 168.304 30.9979   1
   7  -1   6 215.591 38.2329   1
  -7  -1  -6 173.309 22.6537   2
  -7  -1  -6 177.808 32.4100   1
  -7  -1  -6 202.409 22.2181   3
   7  -1   6 227.952 27.4884   2
   7  -1   6 196.194 35.2415   1
   7  -1   6 210.468 37.4441   1
  -7   1  -6 223.512 27.0984   2
   7   1   6 200.280 35.8417   1
  -7   1  -6 194.499 34.9643   1
  -7   1  -6 213.025 37.8338   1
   7   1   6 225.948 39.8490   1
   7   1   6 192.877 24.3388   2
   7   1   6 209.533 22.7350   3
  -8  -1  -6 0.63195 0.39386   1
   8  -1   6 2.25414 0.57144   1
  -8  -1  -6 1.02650 0.33713   3
   8  -1   6 0.77630 0.57904   2
  -8  -1  -6 1.30045 0.54702   1
   8  -1   6 0.67220 0.40856   1
  -8   1  -6 1.77870 0.54147   1
   8   1   6 0.93642 0.45864   1
  -8   1  -6 0.04009 0.43340   1
  -8   1  -6 1.30664 0.61975   2
   9  -1   6 105.387 13.3670   2
  -9  -1  -6 100.183 11.4101   3
   9   1   6 117.240 14.4130   2
  -9   1  -6 117.511 14.4672   2
 -10  -1  -6 0.99856 0.57693   2
  10  -1   6 0.31548 0.51352   2
 -10   1  -6 1.10458 0.65925   2
  10   1   6 0.76250 0.52188   2
 -11  -1  -6 32.7042 4.15017   2
  11  -1   6 22.3025 3.21039   2
  11   1   6 25.1063 3.43020   2
 -11   1  -6 32.4907 4.14131   2
 -12  -1  -6 36.6376 4.58076   2
  12  -1   6 23.1020 3.31492   2
 -12   1  -6 27.9586 3.76169   2
  12   1   6 29.6189 3.89909   2
  13  -1   6 54.1043 7.04038   2
 -13  -1  -6 61.9017 7.80956   2
  13  -1   6 57.1169 7.33240   2
  13   1   6 54.1492 7.06073   2
 -13   1  -6 60.2331 7.63819   2
 -14  -1  -6 0.69118 0.73085   2
  14  -1   6 0.55475 0.63592   2
  14   1   6 1.45158 0.74546   2
 -14   1  -6 1.06550 0.72685   2
  15  -1   6 14.8122 2.14153   2
 -15  -1  -6 13.1925 2.02871   2
 -15   1  -6 12.0352 1.91935   2
  15   1   6 11.0726 1.81482   2
 -16  -1  -6 24.9073 3.32563   2
  16  -1   6 17.2542 2.58401   2
  16   1   6 19.8210 2.81652   2
 -16   1  -6 22.9007 3.13655   2
 -17  -1  -6 2.56052 0.89033   2
  17  -1   6 3.77399 0.97107   2
  17   1   6 4.31605 1.09356   2
 -17   1  -6 4.35202 1.05401   2
  18  -1   6 20.4361 2.86187   2
 -18   1  -6 19.4084 2.79746   2
  21  -2  -6 0.38912 0.76551   2
 -21   2   6 0.92560 0.75352   2
  20  -2  -6 19.9848 2.86067   2
 -20   2   6 19.9509 2.83143   2
 -19  -2   6 0.32134 0.63116   2
  19  -2  -6 0.39533 0.59014   2
  19   2  -6 -0.4617 0.52898   2
 -19   2   6 -0.4507 0.64816   2
  18  -2  -6 15.8415 2.34647   2
  18   2  -6 16.7310 2.51268   2
 -18   2   6 19.7047 2.69795   2
  17  -2  -6 13.2675 1.96204   2
 -17   2   6 10.5720 1.75659   2
  17   2  -6 11.9749 1.84641   2
  16  -2  -6 6.53598 1.14137   2
 -16  -2   6 6.10821 1.22292   2
 -16   2   6 4.38432 1.02787   2
  15  -2  -6 32.4077 4.20306   2
 -15  -2   6 24.1699 3.46545   2
  15   2  -6 35.0492 4.49632   2
 -14  -2   6 64.6820 8.20738   2
  14  -2  -6 61.7247 7.94601   2
  14   2  -6 63.9274 8.11873   2
  13  -2  -6 10.3615 1.54740   2
 -13  -2   6 6.05047 1.14881   2
  13   2  -6 9.68669 1.44260   2
  12  -2  -6 23.3621 3.05309   2
 -12  -2   6 20.3450 2.43505   3
 -12   2   6 17.5170 2.50658   2
 -11  -2   6 182.672 34.0006   1
  11  -2  -6 257.366 45.4336   1
 -11  -2   6 262.807 46.2623   1
 -11  -2   6 201.463 26.1950   2
  11   2  -6 337.305 38.6898   2
 -11   2   6 342.672 58.9703   1
 -11   2   6 213.166 27.2043   2
  11   2  -6 238.906 26.0938   3
  10  -2  -6 9.67985 1.86524   1
 -10  -2   6 14.6371 2.62188   1
 -10  -2   6 10.1782 1.48690   2
 -10  -2   6 13.4918 1.60369   3
 -10  -2   6 11.2083 2.07996   1
  10  -2  -6 12.5032 2.29885   1
 -10   2   6 11.8634 1.67192   2
  10   2  -6 9.92064 1.89555   1
 -10   2   6 12.9855 2.36477   1
  10   2  -6 9.66944 1.42050   2
  10   2  -6 8.91962 1.29336   3
 -10   2   6 11.0606 2.07926   1
  10   2  -6 9.60542 1.85493   1
  -9  -2   6 0.56794 0.34078   3
   9  -2  -6 0.94127 0.39874   1
  -9  -2   6 1.38240 0.42809   1
  -9  -2   6 0.34235 0.38195   2
   9  -2  -6 0.33369 0.34518   1
  -9  -2   6 0.80451 0.32438   1
  -9   2   6 0.67025 0.46530   2
  -9   2   6 -0.1841 0.36875   1
   9   2  -6 0.41259 0.42575   3
  -9   2   6 0.50220 0.35820   1
   9   2  -6 0.51948 0.27520   1
   9   2  -6 0.71647 0.33872   1
   9   2  -6 0.74096 0.38028   2
  -8  -2   6 36.2590 6.57431   1
   8  -2  -6 29.8707 4.17574   2
   8  -2  -6 37.3832 6.75486   1
  -8  -2   6 36.9831 6.68874   1
  -8  -2   6 41.4315 5.13869   2
   8  -2  -6 44.5886 7.90396   1
  -8  -2   6 44.8731 4.82382   3
  -8   2   6 51.0404 6.08837   2
   8   2  -6 34.0083 4.46027   2
   8   2  -6 37.3759 6.75252   1
  -8   2   6 38.3614 6.91998   1
  -8   2   6 34.6222 6.33281   1
   8   2  -6 38.3534 4.35039   3
   8   2  -6 40.0629 7.15902   1
  -7  -2   6 0.53094 0.39494   3
   7  -2  -6 2.77950 0.62026   1
   7  -2  -6 1.41229 0.45721   1
  -7  -2   6 0.79589 0.35256   2
  -7  -2   6 1.26562 0.35852   1
  -7  -2   6 0.86425 0.34672   1
   7  -2  -6 1.99079 0.49104   2
   7   2  -6 1.48472 0.41584   1
   7   2  -6 1.15893 0.50371   3
  -7   2   6 1.17189 0.40735   1
   7   2  -6 0.94275 0.34508   1
  -7   2   6 1.59930 0.49790   2
  -7   2   6 1.25382 0.38768   1
   7   2  -6 1.01711 0.35203   2
   6  -2  -6 26.1163 4.77643   1
  -6  -2   6 27.4915 3.18404   3
   6  -2  -6 29.2275 3.70803   2
  -6  -2   6 35.0930 6.16392   1
  -6  -2   6 30.3193 3.78907   2
  -6  -2   6 29.6323 5.31058   1
   6  -2  -6 31.1504 3.34302   3
   6  -2  -6 33.2473 5.89280   1
  -6   2   6 32.9402 5.85801   1
  -6   2   6 34.2759 6.03891   1
  -6   2   6 26.1962 2.98885   3
   6   2  -6 27.9905 5.04781   1
   6   2  -6 27.6828 3.54886   2
  -6   2   6 21.2502 3.02703   2
   6   2  -6 31.5827 5.60992   1
  -5  -2   6 133.947 15.2964   3
   5  -2  -6 123.394 22.6751   1
   5  -2  -6 180.510 18.5797   3
  -5  -2   6 142.595 25.5726   1
  -5  -2   6 144.692 18.0327   2
   5  -2  -6 152.592 27.1376   1
   5  -2  -6 166.474 20.0344   2
  -5  -2   6 198.647 34.3954   1
  -5   2   6 164.978 17.4295   3
   5   2  -6 159.979 19.4164   2
   5   2  -6 130.560 23.7329   1
  -5   2   6 177.470 31.0350   1
  -5   2   6 155.370 19.0363   2
   5   2  -6 110.211 13.7474   3
   5   2  -6 161.660 28.5587   1
  -4  -2   6 356.880 44.1463   2
  -4  -2   6 406.713 71.4568   1
   4  -2  -6 340.211 61.1499   1
  -4  -2   6 458.199 46.6319   3
   4  -2  -6 372.903 40.2321   3
  -4  -2   6 293.953 54.0994   1
   4  -2  -6 341.602 61.3565   1
  -4   2   6 381.217 67.4640   1
  -4   2   6 335.812 42.3070   2
   4   2  -6 364.552 44.8338   2
   4   2  -6 261.997 49.3780   1
  -4   2   6 386.965 41.2464   3
   4   2  -6 352.626 38.8619   3
  -4   2   6 381.956 67.5822   1
   4   2  -6 373.315 66.2567   1
  -3  -2   6 6.32457 0.94630   3
  -3  -2   6 8.00234 1.49051   1
   3  -2  -6 9.23164 1.70800   1
   3  -2  -6 11.5530 2.05341   1
  -3  -2   6 7.34367 1.38886   1
  -3  -2   6 8.34203 1.13139   2
  -3   2   6 9.02931 1.66015   1
   3   2  -6 7.90187 1.45903   1
  -3   2   6 8.35972 1.00037   3
   3   2  -6 6.83837 1.31193   1
  -3   2   6 6.37344 1.24985   1
   3   2  -6 8.89209 1.15581   3
  -3   2   6 8.17809 1.15375   2
  -2  -2   6 14.7333 1.81052   3
   2  -2  -6 17.9713 3.22474   1
   2  -2  -6 12.3161 1.59954   3
  -2  -2   6 17.2073 3.09893   1
   2  -2  -6 11.8995 2.30437   1
  -2  -2   6 20.0758 3.54813   1
   2  -2  -6 17.1081 2.19826   2
  -2  -2   6 17.3536 2.20071   2
  -2   2   6 21.0857 3.71336   1
  -2   2   6 17.5279 3.14196   1
  -2   2   6 14.5330 1.96896   2
   2   2  -6 17.6154 2.23836   2
   2   2  -6 21.5254 2.34340   3
   2   2  -6 18.2499 3.24994   1
   2   2  -6 18.5772 3.32572   1
   1  -2  -6 7.17863 1.35484   1
   1  -2  -6 13.2415 2.29793   1
  -1  -2   6 7.17092 0.93999   3
  -1  -2   6 6.88997 1.29691   1
  -1  -2   6 5.93537 0.89979   2
  -1  -2   6 7.28425 1.35378   1
   1  -2  -6 7.78575 0.94960   3
   1  -2  -6 5.17196 0.84814   2
   1   2  -6 6.77930 1.28040   1
   1   2  -6 8.01708 1.03978   3
  -1   2   6 7.50864 1.39887   1
  -1   2   6 7.68134 1.42752   1
   1   2  -6 6.45347 0.93851   2
  -1   2   6 8.14924 1.00205   3
  -1   2   6 6.82544 1.00041   2
   1   2  -6 6.23268 1.18928   1
   0  -2   6 53.0824 5.82043   3
   0  -2  -6 42.6833 5.64262   2
   0  -2  -6 45.7020 8.31594   1
   0  -2  -6 46.2176 8.39648   1
   0  -2   6 70.1704 8.19903   2
   0  -2   6 57.3585 10.1189   1
   0  -2   6 59.9158 10.5242   1
   0  -2  -6 59.4992 6.26764   3
   0   2   6 44.0189 5.17208   3
   0   2  -6 55.9396 9.90074   1
   0   2  -6 51.1244 6.39844   2
   0   2  -6 67.2782 11.7011   1
   0   2   6 44.6155 5.80949   2
   0   2   6 51.0546 9.13988   1
   0   2  -6 65.5853 11.4211   1
   0   2   6 40.1157 7.47006   1
   1  -2   6 12.8279 2.33557   1
  -1  -2  -6 11.6707 2.16771   1
   1  -2   6 11.8826 1.44136   3
  -1  -2  -6 13.1793 1.51349   3
   1  -2   6 12.0864 2.22713   1
  -1  -2  -6 11.4037 1.55547   2
   1  -2   6 12.9023 1.70874   2
  -1  -2  -6 12.5077 2.27678   1
   1   2   6 11.7555 1.43836   3
   1   2   6 12.3227 2.24912   1
   1   2   6 10.7214 2.00344   1
   1   2   6 12.8448 1.69759   2
  -1   2  -6 12.0033 1.62574   2
  -1   2  -6 15.2615 1.74309   3
  -1   2  -6 13.7081 2.47983   1
  -1   2  -6 7.58893 1.55678   1
  -2  -2  -6 1081.74 193.078   1
   2  -2   6 1130.16 200.564   1
  -2  -2  -6 1402.08 163.394   2
  -2  -2  -6 1079.16 118.448   3
   2  -2   6 949.395 122.328   2
   2  -2   6 869.386 104.286   3
  -2  -2  -6 1250.61 219.477   1
   2   2   6 902.191 165.711   1
  -2   2  -6 1134.66 122.421   3
   2   2   6 1032.00 115.193   3
   2   2   6 992.146 179.443   1
   2   2   6 1223.93 146.775   2
  -2   2  -6 1301.78 227.495   1
  -2   2  -6 1546.77 177.156   2
   3  -2   6 20.9747 2.78901   2
  -3  -2  -6 23.7401 3.03474   2
  -3  -2  -6 25.5937 4.55085   1
   3  -2   6 24.2301 4.34229   1
   3  -2   6 19.3310 2.34110   3
   3  -2   6 25.6179 4.55985   1
  -3  -2  -6 21.8509 3.96215   1
   3   2   6 19.0620 2.33667   3
   3   2   6 23.3545 4.20326   1
  -3   2  -6 24.7927 3.12775   2
  -3   2  -6 22.7195 2.60611   3
   3   2   6 26.3070 4.66453   1
   3   2   6 19.7708 2.69289   2
  -3   2  -6 23.1962 4.18155   1
   4  -2   6 1.44119 0.36080   3
  -4  -2  -6 1.65804 0.38921   3
   4  -2   6 1.25355 0.41546   1
  -4  -2  -6 1.84942 0.54183   1
  -4  -2  -6 1.53455 0.47164   2
   4  -2   6 0.92720 0.50409   2
  -4  -2  -6 1.37295 0.41429   1
   4  -2   6 1.65679 0.51376   1
  -4   2  -6 2.45474 0.57599   3
  -4   2  -6 0.83725 0.49420   2
  -4   2  -6 1.59976 0.49336   1
   4   2   6 1.58310 0.43623   1
   4   2   6 0.71341 0.46935   2
   4   2   6 0.61957 0.36571   1
  -4   2  -6 1.44684 0.41995   1
  -5  -2  -6 243.077 44.1133   1
  -5  -2  -6 315.355 55.3128   1
  -5  -2  -6 317.239 37.8220   2
   5  -2   6 384.695 66.3398   1
   5  -2   6 247.338 31.5258   2
   5  -2   6 220.621 40.7181   1
  -5  -2  -6 335.220 34.4292   3
  -5   2  -6 286.674 50.8343   1
   5   2   6 199.428 37.5805   1
  -5   2  -6 329.324 57.5223   1
   5   2   6 317.851 37.8867   2
  -5   2  -6 214.736 28.7617   2
   5   2   6 275.637 49.1225   1
   5   2   6 310.778 32.6161   3
  -6  -2  -6 131.888 14.6462   3
   6  -2   6 144.091 17.6734   2
  -6  -2  -6 104.669 19.5460   1
  -6  -2  -6 181.620 21.1567   2
   6  -2   6 149.716 26.4393   1
   6  -2   6 127.400 22.9996   1
  -6  -2  -6 85.8715 16.8235   1
   6   2   6 160.682 28.1636   1
   6   2   6 132.954 16.6616   2
  -6   2  -6 156.064 27.4320   1
   6   2   6 137.237 24.4960   1
  -6   2  -6 151.713 18.3716   2
   6   2   6 145.544 15.6483   3
  -6   2  -6 127.641 23.0287   1
   7  -2   6 2.58389 0.66133   1
   7  -2   6 2.13104 0.56685   1
  -7  -2  -6 3.30538 0.73450   1
  -7  -2  -6 3.31769 0.69603   2
  -7  -2  -6 1.74908 0.43813   3
  -7  -2  -6 2.35835 0.60431   1
   7   2   6 2.25504 0.64141   2
  -7   2  -6 2.51806 0.69546   1
  -7   2  -6 3.36734 0.74338   1
   7   2   6 1.55478 0.50035   1
   7   2   6 2.01487 0.51879   3
  -8  -2  -6 8.50517 1.10061   3
  -8  -2  -6 12.2348 1.73258   2
   8   2   6 7.75150 1.06577   3
   8   2   6 11.4316 1.63913   2
  -8   2  -6 8.27931 1.39688   2
  -9  -2  -6 60.2021 6.35849   3
  -9  -2  -6 60.8356 7.43457   2
   9   2   6 38.9022 5.48565   2
  -9   2  -6 54.4839 6.86388   2
 -10  -2  -6 3.29454 0.58055   3
 -10  -2  -6 4.56172 0.93264   2
 -10   2  -6 3.54076 0.86048   2
  10   2   6 4.34306 0.92650   2
  11  -2   6 23.7955 3.20522   2
 -11  -2  -6 22.7899 3.10338   2
  11  -2   6 20.4167 2.87635   2
  11   2   6 22.0814 3.03372   2
 -11   2  -6 22.1891 3.08121   2
  12  -2   6 3.26731 0.77615   2
 -12  -2  -6 2.68609 0.81573   2
  12  -2   6 1.30457 0.62915   2
  12   2   6 2.39428 0.79234   2
 -13  -2  -6 6.14030 1.13655   2
  13  -2   6 3.93351 0.92235   2
  13   2   6 6.95718 1.27088   2
  14  -2   6 4.48430 0.99166   2
 -14  -2  -6 7.74509 1.35255   2
  15  -2   6 6.13165 1.20332   2
  15   2   6 7.19706 1.31024   2
  16  -2   6 -0.1528 0.57116   2
 -16  -2  -6 1.14537 0.62235   2
  16   2   6 0.49925 0.61361   2
  17  -2   6 0.07802 0.55208   2
 -17   2  -6 0.72400 0.71134   2
  20  -3  -6 13.7096 2.15893   2
 -20   3   6 17.3089 2.45750   2
  19  -3  -6 1.32793 0.77184   2
 -19   3   6 0.50221 0.63873   2
  18  -3  -6 11.8783 1.83239   2
 -18   3   6 11.0599 1.82491   2
  17  -3  -6 52.4649 6.69350   2
 -17   3   6 47.9260 6.31505   2
  16  -3  -6 21.6537 3.05973   2
 -16   3   6 25.7613 3.46008   2
  15  -3  -6 67.7657 8.68068   2
 -15   3   6 71.6724 9.07748   2
  14  -3  -6 166.715 20.6569   2
 -14   3   6 156.702 19.7711   2
  13  -3  -6 -0.6098 0.53586   2
 -13  -3   6 0.35789 0.44411   3
  13   3  -6 -0.3476 0.41561   2
 -13   3   6 0.75380 0.65983   2
  13   3  -6 -0.2545 0.58292   3
  12  -3  -6 243.608 29.8306   2
 -12  -3   6 217.116 24.4548   3
  12   3  -6 205.862 26.4495   2
 -12   3   6 293.915 34.4945   2
  12   3  -6 217.696 24.5283   3
 -11  -3   6 121.289 13.2432   3
  11  -3  -6 106.950 13.6863   2
  11   3  -6 116.849 14.5096   2
 -11   3   6 125.368 15.3360   2
  11   3  -6 105.874 12.1499   3
  10  -3  -6 1.28282 0.53580   2
  10   3  -6 1.26373 0.42259   2
 -10   3   6 1.48173 0.57403   2
   9  -3  -6 54.5098 7.16316   2
  -9  -3   6 65.2383 11.6241   1
   9  -3  -6 68.1383 12.0805   1
   9  -3  -6 62.4459 11.2053   1
  -9  -3   6 74.3853 7.89367   3
  -9  -3   6 55.5506 10.1137   1
   9   3  -6 66.1290 7.30346   3
   9   3  -6 57.2811 7.35813   2
   9   3  -6 56.2117 10.2189   1
  -9   3   6 74.0097 8.92759   2
  -9   3   6 50.9165 9.43134   1
   9   3  -6 60.7394 10.9163   1
  -9   3   6 61.9425 11.1208   1
  -8  -3   6 108.493 18.9977   1
   8  -3  -6 120.313 20.8981   1
   8  -3  -6 103.618 18.2440   1
  -8  -3   6 102.348 10.9331   3
   8  -3  -6 97.0313 11.8988   2
   8   3  -6 89.8336 11.2020   2
  -8   3   6 63.5132 9.00492   2
  -8   3   6 75.2732 13.8626   1
   8   3  -6 106.840 11.2795   3
   8   3  -6 94.3733 16.7702   1
  -8   3   6 113.736 19.8406   1
   7  -3  -6 56.3767 9.84875   1
   7  -3  -6 41.7949 7.55563   1
  -7  -3   6 40.9286 7.41064   1
  -7  -3   6 44.2484 4.99128   3
   7  -3  -6 44.0923 5.56321   2
   7   3  -6 49.5026 8.73041   1
   7   3  -6 40.2963 7.30238   1
  -7   3   6 37.4390 6.87802   1
  -7   3   6 44.2884 4.87130   3
  -7   3   6 39.4032 5.14177   2
  -7   3   6 42.0304 7.60724   1
  -6  -3   6 145.703 16.7461   3
   6  -3  -6 155.602 19.5483   2
   6  -3  -6 167.452 18.1671   3
  -6  -3   6 193.782 33.8984   1
   6  -3  -6 199.506 34.8146   1
   6   3  -6 162.344 28.9699   1
   6   3  -6 168.559 18.3509   3
  -6   3   6 140.092 16.2661   3
  -6   3   6 149.033 26.9486   1
  -6   3   6 190.351 33.3590   1
  -6   3   6 180.081 21.7494   2
   6   3  -6 164.292 29.2685   1
  -5  -3   6 348.707 37.6155   3
   5  -3  -6 357.595 38.1733   3
   5  -3  -6 307.752 55.5072   1
   5  -3  -6 390.769 68.4217   1
   5  -3  -6 309.559 39.0697   2
  -5   3   6 362.292 38.5285   3
  -5   3   6 388.442 68.0471   1
  -5   3   6 263.512 35.1407   2
   5   3  -6 361.617 38.5615   3
  -5   3   6 353.871 62.6257   1
   5   3  -6 313.856 56.4198   1
   5   3  -6 345.433 61.3042   1
   4  -3  -6 371.523 38.5547   3
   4  -3  -6 320.946 57.0953   1
   4  -3  -6 242.840 32.7100   2
   4  -3  -6 434.497 74.9931   1
  -4  -3   6 285.579 32.4682   3
  -4   3   6 405.388 47.2678   2
   4   3  -6 318.427 56.6946   1
  -4   3   6 327.641 58.1232   1
  -4   3   6 316.386 34.5502   3
  -4   3   6 299.615 53.7956   1
   4   3  -6 314.932 34.5140   3
   4   3  -6 306.262 54.8009   1
  -3  -3   6 295.151 56.8129   1
   3  -3  -6 497.790 52.3950   3
   3  -3  -6 366.102 67.2421   1
   3  -3  -6 474.980 83.9444   1
  -3  -3   6 435.343 47.9441   3
  -3   3   6 491.339 86.4964   1
   3   3  -6 426.832 47.3620   3
   3   3  -6 529.357 92.4718   1
  -3   3   6 419.573 46.7969   3
  -3   3   6 499.932 87.8667   1
   3   3  -6 562.774 97.7636   1
  -3   3   6 510.321 60.8133   2
  -2  -3   6 64.4185 11.4322   1
   2  -3  -6 56.1553 10.1617   1
  -2  -3   6 60.9098 6.80328   3
  -2   3   6 46.0411 8.63389   1
  -2   3   6 83.8419 8.49265   3
   2   3  -6 59.9271 7.48997   2
  -2   3   6 59.3347 7.45201   2
   2   3  -6 59.2548 6.69529   3
  -2   3   6 56.0195 10.1355   1
  -1  -3   6 469.376 50.2260   3
  -1  -3   6 379.852 69.2111   1
   1  -3  -6 423.832 46.9421   3
   1  -3  -6 455.168 80.7732   1
  -1   3   6 446.906 79.4935   1
  -1   3   6 403.245 72.7727   1
  -1   3   6 455.788 49.2257   3
   0  -3  -6 0.52059 0.41455   3
   0  -3  -6 1.97804 0.46294   1
   0  -3   6 1.54977 0.52743   3
   0  -3   6 1.36553 0.35434   1
   0   3  -6 1.46983 0.38527   1
   0   3   6 1.30142 0.53066   3
   0   3  -6 1.46137 0.56263   3
   1  -3   6 13.5548 2.48591   1
   1  -3   6 15.5472 1.84416   3
   1  -3   6 12.3211 2.28316   1
  -1  -3  -6 13.2995 1.64263   3
  -1  -3  -6 13.5199 2.47198   1
  -1   3  -6 15.5386 2.79311   1
  -1   3  -6 14.4013 1.89406   2
   1   3   6 12.9034 1.72958   2
  -1   3  -6 14.0850 1.75073   3
   1   3   6 11.9697 1.58369   3
  -1   3  -6 12.2093 2.27155   1
   2  -3   6 -0.2952 0.29017   1
   2  -3   6 0.51564 0.33761   2
  -2  -3  -6 0.60322 0.40457   3
   2  -3   6 0.20128 0.41210   3
   2  -3   6 -0.2880 0.23742   1
  -2   3  -6 -0.1413 0.24194   1
  -2   3  -6 0.10403 0.35757   2
  -2   3  -6 0.06701 0.28224   1
  -2   3  -6 0.24684 0.46676   3
   2   3   6 0.42638 0.50967   3
   2   3   6 0.53108 0.31570   1
   2   3   6 -0.4042 0.23439   1
   2   3   6 0.49961 0.31543   2
   3  -3   6 106.227 13.1131   2
  -3  -3  -6 100.109 11.1533   3
   3  -3   6 101.487 18.1822   1
   3  -3   6 76.1831 14.3500   1
   3  -3   6 121.241 12.7301   3
  -3   3  -6 99.5319 17.8805   1
  -3   3  -6 109.646 19.4522   1
   3   3   6 93.0904 16.8772   1
   3   3   6 88.1456 10.3515   3
   3   3   6 106.469 18.9373   1
   3   3   6 105.817 13.0617   2
  -3   3  -6 115.482 13.9593   2
  -3   3  -6 108.969 11.8338   3
  -4  -3  -6 74.0671 13.0844   1
   4  -3   6 65.0099 8.18209   2
   4  -3   6 50.0582 9.38374   1
   4  -3   6 72.7514 12.8644   1
   4  -3   6 65.7699 7.31874   3
  -4  -3  -6 57.9323 10.5551   1
   4   3   6 65.0225 7.25276   3
  -4   3  -6 66.7123 7.39626   3
  -4   3  -6 64.0673 11.5102   1
  -4   3  -6 72.4532 12.8166   1
  -4   3  -6 53.8767 7.19071   2
   4   3   6 77.0873 9.27846   2
   4   3   6 80.3495 14.0438   1
  -5  -3  -6 414.873 72.5727   1
  -5  -3  -6 391.733 68.9294   1
   5  -3   6 395.074 69.4757   1
   5  -3   6 379.610 45.9733   2
   5  -3   6 363.950 64.6035   1
   5   3   6 278.154 51.4886   1
  -5   3  -6 338.975 60.7241   1
  -5   3  -6 383.494 46.3317   2
  -5   3  -6 368.330 65.2920   1
  -5   3  -6 278.392 33.4795   3
   5   3   6 307.355 55.9052   1
   5   3   6 406.523 48.4339   2
   6  -3   6 216.100 27.1614   2
  -6  -3  -6 229.854 25.0647   3
  -6  -3  -6 291.218 50.6058   1
  -6  -3  -6 193.783 35.4199   1
   6  -3   6 254.130 44.7464   1
   6   3   6 246.112 29.8374   2
   6   3   6 251.133 26.6192   3
  -6   3  -6 190.133 24.9229   2
  -7  -3  -6 23.7160 3.07456   2
  -7  -3  -6 23.4315 2.64862   3
   7  -3   6 24.7329 3.17059   2
   7   3   6 22.2948 2.58837   3
   7   3   6 16.0389 2.40675   2
  -8  -3  -6 267.631 29.6035   3
  -8  -3  -6 240.775 31.0924   2
   8  -3   6 258.632 32.6252   2
   8   3   6 306.456 32.4254   3
   8   3   6 324.260 38.5849   2
  -8   3  -6 268.446 33.5350   2
  -9  -3  -6 25.5907 3.38793   2
  -9  -3  -6 25.4881 2.92034   3
   9  -3   6 22.8504 3.12176   2
   9   3   6 25.6105 2.98072   3
  -9   3  -6 22.3451 3.13816   2
 -10  -3  -6 55.9228 6.33170   3
  10  -3   6 65.1703 8.03804   2
 -10  -3  -6 67.1340 8.24216   2
 -10   3  -6 60.6749 7.66662   2
  10   3   6 46.6004 6.40860   2
  11  -3   6 158.907 19.7369   2
 -11  -3  -6 154.290 17.0522   3
 -11  -3  -6 146.950 18.7150   2
  11   3   6 157.897 19.6790   2
  11   3   6 141.952 16.2176   3
 -11   3  -6 179.469 21.6444   2
  12  -3   6 1.27255 0.66806   2
 -12   3  -6 1.19663 0.79912   2
  12   3   6 1.46101 0.69957   2
  13  -3   6 30.2553 4.08029   2
 -13   3  -6 33.1113 4.37627   2
  14  -3   6 2.67957 0.84940   2
 -14   3  -6 3.32181 0.93113   2
  15  -3   6 5.12169 1.07706   2
 -15   3  -6 5.09469 1.14648   2
  16  -3   6 17.1169 2.47603   2
 -16   3  -6 15.8356 2.37873   2
  18  -4  -6 34.2715 4.56522   2
  17  -4  -6 3.73007 0.94751   2
  16  -4  -6 2.52791 0.79873   2
  15  -4  -6 63.8050 8.17412   2
 -14  -4   6 -0.1578 0.51145   3
  14  -4  -6 -0.3704 0.53776   2
  14   4  -6 0.51069 0.72656   3
  13  -4  -6 18.3815 2.52857   2
 -13  -4   6 15.3377 2.04864   3
 -12  -4   6 9.68849 1.38757   3
  12  -4  -6 8.35714 1.41946   2
  12   4  -6 8.81206 1.43631   3
 -11  -4   6 127.503 14.2546   3
  11  -4  -6 163.486 19.3806   2
 -11   4   6 108.496 14.3956   2
  11   4  -6 136.506 14.9356   3
 -10  -4   6 21.2324 2.61563   3
  10   4  -6 26.7782 3.08462   3
 -10   4   6 18.3820 2.65122   2
  -9  -4   6 71.9443 7.83086   3
   9   4  -6 58.1541 6.86596   3
   8  -4  -6 58.0630 7.23548   2
  -8   4   6 51.0264 6.58620   2
  -7  -4   6 94.2963 16.7481   1
  -7   4   6 85.3084 10.8337   2
  -7   4   6 82.7686 9.43219   3
   7   4  -6 103.413 11.0529   3
   6  -4  -6 185.213 19.6537   3
  -6  -4   6 168.797 18.5799   3
   6  -4  -6 163.723 29.3367   1
  -6  -4   6 173.308 30.7730   1
   6  -4  -6 131.958 24.4972   1
  -6   4   6 135.685 25.0623   1
   6   4  -6 192.662 20.3237   3
   5  -4  -6 1.90363 0.48757   1
   5  -4  -6 1.63627 0.40727   1
   5  -4  -6 1.42324 0.39815   3
  -5  -4   6 1.75050 0.61847   3
  -5   4   6 1.69131 0.43751   2
  -5   4   6 1.49535 0.40413   1
  -5   4   6 2.34013 0.56215   3
  -5   4   6 2.42348 0.57179   1
   5   4  -6 1.63310 0.67924   3
   4  -4  -6 33.6334 6.29042   1
   4  -4  -6 33.3765 4.17301   3
  -4  -4   6 51.3734 5.53613   3
   4   4  -6 50.2093 5.47052   3
  -4   4   6 43.4768 7.79440   1
  -4   4   6 41.9469 7.54614   1
  -4   4   6 53.3396 5.61753   3
   3  -4  -6 -0.4956 0.42849   3
   3  -4  -6 0.39440 0.25328   1
  -3  -4   6 0.11639 0.42019   3
  -3   4   6 -0.0466 0.27485   1
   3   4  -6 0.05964 0.59617   3
  -3   4   6 0.14522 0.49795   3
  -3   4   6 0.07204 0.23989   1
   2  -4  -6 24.9052 4.58778   1
  -2  -4   6 33.1505 5.84847   1
   2  -4  -6 24.5566 3.02432   3
  -2   4   6 31.1671 5.54355   1
  -2   4   6 31.7335 5.63580   1
  -2   4   6 32.3068 3.60486   3
   1  -4  -6 41.8469 7.41985   1
  -1  -4   6 32.7797 6.00971   1
   1   4  -6 36.5221 4.34402   3
   1   4  -6 39.4247 7.03587   1
  -1   4   6 39.0907 6.98768   1
   1   4  -6 58.9519 10.1508   1
  -1   4   6 34.1504 6.23117   1
   0  -4  -6 144.633 14.7359   3
   0  -4   6 114.062 12.5107   3
   0  -4  -6 101.644 18.3544   1
   0  -4   6 101.818 18.3880   1
   0   4  -6 110.486 19.7254   1
   0   4  -6 90.7141 16.7115   1
   0   4  -6 129.140 13.6202   3
   0   4   6 81.7127 15.3591   1
   0   4   6 108.195 12.0621   3
   0   4   6 108.348 19.3859   1
  -1  -4  -6 31.6125 5.63944   1
  -1  -4  -6 25.1230 3.11146   3
   1  -4   6 29.2735 5.28010   1
   1  -4   6 37.0444 4.03994   3
   1   4   6 24.6533 4.56665   1
   1   4   6 35.4470 3.88309   3
  -1   4  -6 26.8586 3.27548   3
   1   4   6 35.7188 6.28264   1
  -1   4  -6 34.6231 6.13299   1
  -1   4  -6 25.1875 4.65890   1
   2  -4   6 450.831 80.4691   1
  -2  -4  -6 369.059 67.9930   1
   2  -4   6 413.377 46.8908   3
   2  -4   6 574.806 99.8960   1
  -2  -4  -6 463.203 50.3378   3
  -2   4  -6 496.243 87.5124   1
  -2   4  -6 507.648 53.5862   3
  -2   4  -6 295.217 57.1973   1
   2   4   6 641.040 63.7149   3
   2   4   6 468.465 83.1838   1
   2   4   6 510.799 89.7866   1
   3  -4   6 82.0259 15.0918   1
  -3  -4  -6 87.3063 10.1152   3
   3  -4   6 124.926 12.8994   3
  -3  -4  -6 84.2553 15.4044   1
  -3  -4  -6 79.8585 14.7447   1
  -3   4  -6 115.791 12.2131   3
  -3   4  -6 101.592 12.5777   2
   3   4   6 102.059 11.1758   3
  -4  -4  -6 17.6462 2.22242   3
  -4   4  -6 18.2845 2.50062   2
   4   4   6 22.5028 2.59720   3
  -4   4  -6 21.3422 2.55715   3
   5  -4   6 75.5185 9.72503   2
  -5   4  -6 77.0839 8.83325   3
  -5   4  -6 92.6619 11.2726   2
   5   4   6 83.7484 9.26645   3
   6  -4   6 0.75341 0.51538   2
  -6  -4  -6 0.46173 0.41568   3
  -6   4  -6 0.47274 0.48045   2
   6   4   6 -0.3008 0.50502   3
  -7  -4  -6 62.3666 6.84516   3
   7  -4   6 56.2132 7.24730   2
  -7   4  -6 62.8732 7.83908   2
   7   4   6 53.0580 6.21156   3
  -8  -4  -6 0.53191 0.46545   3
   8   4   6 0.65318 0.58545   3
  -8   4  -6 1.31676 0.64081   2
  -9  -4  -6 59.7227 7.03564   3
  -9   4  -6 71.9253 9.03417   2
   9   4   6 75.4562 8.17357   3
  10   4   6 20.6451 2.49451   3
 -10   4  -6 18.2686 2.66547   2
 -11  -4  -6 41.5551 4.77402   3
 -11   4  -6 50.7949 6.34896   2
  11   4   6 38.3277 4.61889   3
 -12   4  -6 1.57912 0.75019   2
 -13   4  -6 10.5780 1.75519   2
 -14   4  -6 80.1134 10.2255   2
 -14  -5   6 5.07396 0.98348   3
  14   5  -6 5.86688 1.18607   3
  13   5  -6 0.96495 0.79358   3
 -12  -5   6 0.58012 0.62110   3
  12   5  -6 -0.2243 0.70137   3
 -11  -5   6 1.65552 0.66437   3
  11   5  -6 2.13429 0.75116   3
 -10  -5   6 14.8972 1.94683   3
  10   5  -6 12.0565 1.79121   3
  -9  -5   6 13.2545 1.79432   3
   9   5  -6 11.6721 1.73462   3
   8   5  -6 60.7213 6.96160   3
  -7  -5   6 12.5017 1.76300   3
  -7   5   6 16.2232 1.91571   3
   7   5  -6 14.2471 1.96297   3
   6  -5  -6 10.3895 1.30257   3
  -6  -5   6 7.92253 1.27192   3
  -6   5   6 8.92030 1.25963   3
   6   5  -6 8.39776 1.34051   3
  -5  -5   6 5.77227 1.02816   3
   5  -5  -6 6.66183 0.97308   3
   5   5  -6 5.56068 1.10128   3
  -4  -5   6 8.94532 1.30114   3
   4  -5  -6 8.17446 1.17172   3
  -4   5   6 9.67724 1.34427   3
   4   5  -6 9.42402 1.40908   3
  -3  -5   6 2.86330 0.69699   3
   3  -5  -6 3.30263 0.71869   3
  -3   5   6 4.18568 0.84768   3
   3   5  -6 2.41797 0.74885   3
   2  -5  -6 19.2328 2.22707   3
   2   5  -6 12.5654 1.85907   3
  -2   5   6 16.5202 2.05114   3
  -1  -5   6 112.686 12.6668   3
   1  -5  -6 166.520 16.6392   3
  -1   5   6 118.284 13.0207   3
   1   5  -6 94.7153 11.4539   3
   0  -5  -6 -0.6581 0.46220   3
   0  -5   6 -0.0762 0.52904   3
   0   5  -6 0.27337 0.71573   3
  -1  -5  -6 28.3182 3.45480   3
   1  -5   6 28.9906 3.56576   3
   1   5   6 33.6371 3.85553   3
  -1   5  -6 40.2383 4.44424   3
   2  -5   6 38.5501 4.32011   3
  -2  -5  -6 38.1228 4.22713   3
  -2   5  -6 27.4942 3.58521   3
   2   5   6 33.1832 3.90174   3
   3  -5   6 1.66647 0.65512   3
  -3  -5  -6 2.00572 0.61836   3
   3   5   6 2.77516 0.76285   3
  -3   5  -6 2.60972 0.87973   3
   4  -5   6 0.55083 0.51816   3
  -4  -5  -6 0.63932 0.50982   3
  -4   5  -6 0.43258 0.64155   3
   4   5   6 -0.4440 0.52689   3
  -5  -5  -6 17.4678 2.17605   3
   5   5   6 17.8384 2.24923   3
  -6  -5  -6 1.08738 0.60536   3
  -7  -5  -6 0.09971 0.52544   3
   7   5   6 0.45916 0.68649   3
  -8  -5  -6 5.29096 0.92539   3
   8   5   6 5.66595 1.02644   3
  -9  -5  -6 7.47184 1.12317   3
   9   5   6 10.6534 1.41277   3
 -10  -5  -6 10.9541 1.45007   3
  10   5   6 10.4225 1.51833   3
 -11  -5  -6 3.94996 0.79374   3
 -13  -6   6 2.20485 0.68607   3
  13   6  -6 3.89909 0.99317   3
 -12  -6   6 7.90501 1.27292   3
  12   6  -6 5.72274 1.21974   3
 -11  -6   6 3.47332 0.88767   3
  11   6  -6 5.63283 1.12579   3
 -10  -6   6 24.9820 3.07885   3
  10   6  -6 26.0332 3.20621   3
  -9  -6   6 -0.2581 0.59270   3
   9   6  -6 0.25843 0.80283   3
  -8  -6   6 16.3072 2.13161   3
   8   6  -6 14.4988 2.07062   3
  -7  -6   6 28.8189 3.54335   3
   7   6  -6 31.1508 3.73017   3
  -6  -6   6 0.36618 0.62887   3
   6  -6  -6 0.12575 0.43378   3
   6   6  -6 0.72692 0.68481   3
  -6   6   6 0.49859 0.48203   3
  -5  -6   6 16.1880 2.06117   3
   5  -6  -6 12.4051 1.65444   3
  -5   6   6 13.5240 1.78779   3
   5   6  -6 11.7213 1.79942   3
   4  -6  -6 0.69814 0.50708   3
  -4  -6   6 4.06927 0.89434   3
   4   6  -6 2.01365 0.87891   3
   3  -6  -6 7.38747 1.09074   3
  -3   6   6 4.17882 0.97161   3
   3   6  -6 7.00865 1.26387   3
  -2  -6   6 16.9327 2.21010   3
   2  -6  -6 18.6837 2.22877   3
   2   6  -6 13.7639 2.07013   3
  -2   6   6 16.0654 2.07903   3
  -1  -6   6 38.7776 4.53820   3
   1  -6  -6 33.7274 4.08959   3
   1   6  -6 37.3941 4.49402   3
  -1   6   6 43.3548 4.82668   3
   0  -6   6 1.56555 0.73227   3
   0  -6  -6 0.20516 0.56133   3
   0   6   6 0.45355 0.67344   3
   0   6  -6 0.40240 0.76773   3
   1  -6   6 79.1036 8.58147   3
  -1  -6  -6 57.8041 6.96884   3
  -1   6  -6 74.6098 8.28663   3
  -2  -6  -6 33.9743 4.12196   3
   2  -6   6 48.3397 5.30456   3
   2   6   6 35.4566 4.25793   3
  -2   6  -6 40.6287 4.76054   3
   3  -6   6 16.1956 2.24400   3
  -3  -6  -6 17.6865 2.18770   3
  -3   6  -6 17.8623 2.36969   3
   3   6   6 17.2884 2.21924   3
  -4  -6  -6 14.8306 2.01189   3
   4   6   6 17.6340 2.21924   3
  -5  -6  -6 0.34961 0.53351   3
   5   6   6 0.06313 0.58856   3
   6   6   6 0.87178 0.62496   3
  -7  -6  -6 5.16951 0.89262   3
  -8  -6  -6 0.20537 0.49136   3
   8   6   6 -0.3000 0.58824   3
  -9  -6  -6 4.91888 0.91017   3
   9   6   6 6.43350 1.07373   3
 -10  -6  -6 11.6707 1.57892   3
  10   6   6 13.5342 1.79701   3
 -11  -7   6 12.2632 1.66190   3
  11   7  -6 11.2008 1.70056   3
 -10  -7   6 20.5234 2.56709   3
  -9  -7   6 0.70671 0.55580   3
   9   7  -6 -0.7062 0.76613   3
  -8  -7   6 5.30661 1.04135   3
   8   7  -6 5.31363 1.17829   3
  -7  -7   6 11.4143 1.66168   3
   7   7  -6 12.1809 1.76941   3
  -6  -7   6 0.60541 0.58026   3
   6   7  -6 1.02403 0.82274   3
  -5  -7   6 33.4290 4.00516   3
  -5   7   6 35.8146 4.11335   3
   5   7  -6 30.9076 3.85391   3
   4  -7  -6 37.1217 4.55276   3
  -4   7   6 43.7236 5.03570   3
   4   7  -6 53.5844 5.85490   3
   3  -7  -6 0.05232 0.44120   3
  -3  -7   6 0.07590 0.51860   3
   3   7  -6 0.95801 0.76766   3
   2  -7  -6 12.8483 1.71782   3
  -2  -7   6 11.8163 1.71330   3
   2   7  -6 13.7090 1.93380   3
  -2   7   6 13.1795 1.77639   3
   1  -7  -6 17.7831 2.16898   3
  -1  -7   6 21.8895 2.58392   3
  -1   7   6 11.9094 1.77619   3
   1   7  -6 17.4209 2.29836   3
   0  -7   6 3.10576 0.83115   3
   0  -7  -6 2.46176 0.71925   3
   0   7   6 2.07333 0.79333   3
   0   7  -6 5.50863 1.12333   3
  -1  -7  -6 6.70706 1.12030   3
  -1   7  -6 7.36837 1.32955   3
   1   7   6 8.25711 1.27567   3
   2  -7   6 0.71204 0.65071   3
  -2  -7  -6 0.30049 0.52112   3
  -2   7  -6 -0.0114 0.74649   3
  -3  -7  -6 20.4323 2.36143   3
   3   7   6 13.4149 1.91080   3
  -4  -7  -6 5.04300 0.93145   3
   4   7   6 6.56246 1.07995   3
  -5  -7  -6 4.55314 0.88481   3
   5   7   6 6.73785 1.15392   3
  -6  -7  -6 5.55735 0.95015   3
   6   7   6 5.56451 1.14191   3
   7   7   6 17.2275 2.21433   3
  -8  -7  -6 2.69960 0.67806   3
   8   7   6 3.33801 0.82965   3
  -6  -8   6 0.77883 0.53443   3
   6   8  -6 1.63853 0.82189   3
   5   8  -6 6.56812 1.25425   3
  -4  -8   6 -0.0311 0.57189   3
   4   8  -6 0.04321 0.74416   3
  -3  -8   6 0.31640 0.60689   3
   3   8  -6 -0.1973 0.79938   3
  -2  -8   6 4.41999 0.94271   3
   0  -8  -6 0.94223 0.56984   3
  -1  -8  -6 4.21798 0.88193   3
   1   8   6 3.97124 0.99636   3
  -2  -8  -6 2.09899 0.65597   3
   2   8   6 2.44523 0.92030   3
  21   0  -7 0.98582 0.71878   2
 -21   0   7 -0.2250 0.74238   2
 -20   0   7 0.06487 0.58970   2
  20   0  -7 0.60809 0.56702   2
  19   0  -7 -0.0646 0.50779   2
 -19   0   7 0.82694 0.76352   2
  18   0  -7 0.25504 0.65770   2
  17   0  -7 -0.0153 0.61752   2
 -17   0   7 -0.0640 0.83250   2
 -16   0   7 -0.4500 0.61553   2
 -15   0   7 -0.3610 0.60124   2
 -14   0   7 -0.1086 0.47226   2
  13   0  -7 0.12369 0.54664   2
 -13   0   7 -0.3751 0.48623   2
  12   0  -7 0.83335 0.51159   2
 -12   0   7 -0.0085 0.28181   1
 -12   0   7 -0.5426 0.53298   2
 -12   0   7 0.39760 0.40347   1
 -11   0   7 -0.2741 0.46369   2
  11   0  -7 0.66814 0.50366   2
 -11   0   7 0.04428 0.39600   1
 -11   0   7 0.32326 0.34802   1
  11   0  -7 -0.5652 0.36428   1
  11   0  -7 0.83434 0.40531   1
 -10   0   7 0.48498 0.39507   1
  10   0  -7 0.24128 0.34949   1
  10   0  -7 0.66396 0.45571   2
  10   0  -7 0.14236 0.31424   1
 -10   0   7 -0.0464 0.47117   2
 -10   0   7 1.05487 0.38032   1
   9   0  -7 -0.0365 0.31269   1
   9   0  -7 0.18982 0.32669   1
   9   0  -7 -0.0160 0.37683   2
  -9   0   7 -0.2268 0.41362   2
  -9   0   7 -0.0436 0.34832   1
  -9   0   7 -0.4652 0.29199   1
  -8   0   7 0.30562 0.24775   3
  -8   0   7 0.25967 0.35287   1
   8   0  -7 -0.0537 0.31493   1
  -8   0   7 0.09284 0.31795   1
   8   0  -7 -0.0096 0.32742   1
   8   0  -7 -0.0803 0.42576   2
  -8   0   7 0.08276 0.40642   2
   7   0  -7 0.00000 0.25755   3
  -7   0   7 0.08298 0.42399   2
  -7   0   7 0.12783 0.22832   3
   7   0  -7 0.79248 0.44495   2
   7   0  -7 1.02742 0.40366   1
  -7   0   7 0.35931 0.34202   1
  -7   0   7 -0.1866 0.30206   1
   7   0  -7 0.16529 0.27109   1
  -6   0   7 0.97375 0.35690   1
   6   0  -7 0.21850 0.30311   1
   6   0  -7 0.33060 0.30550   1
  -6   0   7 0.12100 0.37352   2
  -6   0   7 0.24085 0.20155   3
   6   0  -7 -0.2603 0.35154   2
  -6   0   7 -0.7629 0.36284   1
   6   0  -7 -0.4105 0.27033   3
  -5   0   7 0.88644 0.36711   1
  -5   0   7 0.68337 0.32103   1
  -5   0   7 0.13025 0.18955   3
   5   0  -7 0.34496 0.35548   2
   5   0  -7 0.95686 0.34418   1
   5   0  -7 -0.3918 0.29347   1
  -5   0   7 -0.0171 0.33580   2
   5   0  -7 0.38307 0.22167   3
   4   0  -7 0.00000 0.32745   2
  -4   0   7 0.28586 0.38601   2
   4   0  -7 -0.0699 0.18883   3
  -4   0   7 0.20843 0.36674   1
   4   0  -7 -0.3138 0.26954   1
  -4   0   7 -0.6774 0.30852   1
   4   0  -7 -0.3039 0.28905   1
   3   0  -7 0.17742 0.20130   3
   3   0  -7 -0.0182 0.44650   2
   3   0  -7 0.58430 0.30566   1
  -3   0   7 0.01816 0.37445   2
  -3   0   7 0.40087 0.22335   3
  -3   0   7 -0.3822 0.30614   1
  -3   0   7 -0.3477 0.31236   1
   3   0  -7 -0.6276 0.35229   1
   2   0  -7 0.11781 0.34710   2
   2   0  -7 -1.1570 0.38316   1
  -2   0   7 0.44341 0.27178   1
   2   0  -7 -0.2188 0.20175   3
  -2   0   7 0.15771 0.37859   2
  -2   0   7 -0.1202 0.30770   1
   2   0  -7 -0.1791 0.29333   1
  -2   0   7 -0.0509 0.21299   3
  -1   0   7 1.09018 0.38167   1
  -1   0   7 0.45514 0.22115   3
  -1   0   7 2.08629 0.50000   2
  -1   0   7 0.30350 0.32764   1
   1   0  -7 1.42356 0.41584   1
   1   0  -7 0.15880 0.28518   1
   1   0  -7 0.48431 0.35831   2
   1   0  -7 0.16925 0.17779   3
   0   0   7 0.10027 0.26027   1
   0   0  -7 -0.0230 0.19304   3
   0   0   7 0.90749 0.40204   2
   0   0  -7 -0.3118 0.30566   1
   0   0   7 0.25867 0.22949   3
   0   0  -7 -0.1250 0.35084   2
   0   0   7 -0.0093 0.23817   1
   0   0  -7 0.88445 0.30859   1
   1   0   7 -0.4289 0.40480   2
   1   0   7 0.49594 0.25105   3
  -1   0  -7 0.13864 0.35788   2
   1   0   7 0.54476 0.30202   1
  -1   0  -7 0.07264 0.26833   1
   1   0   7 0.92031 0.36297   1
  -1   0  -7 0.16362 0.29350   1
   2   0   7 -0.0889 0.30058   1
  -2   0  -7 0.35232 0.32603   1
   2   0   7 -0.3879 0.28110   1
   2   0   7 0.06989 0.44612   2
  -2   0  -7 -0.4068 0.39951   2
  -2   0  -7 0.10616 0.21840   3
  -2   0  -7 0.17993 0.29723   1
   3   0   7 0.04233 0.19211   3
   3   0   7 0.28885 0.34800   1
  -3   0  -7 -0.1608 0.27889   1
   3   0   7 0.33493 0.44407   2
   3   0   7 -0.6146 0.35624   1
  -3   0  -7 0.25956 0.32350   1
  -3   0  -7 0.21970 0.19126   3
  -3   0  -7 -0.0163 0.41568   2
   4   0   7 -0.6950 0.29478   1
   4   0   7 0.17846 0.20660   3
   4   0   7 0.82413 0.38740   1
  -4   0  -7 -0.1314 0.17310   3
  -4   0  -7 0.39546 0.38530   1
   4   0   7 -0.1027 0.50448   2
  -4   0  -7 0.09895 0.48589   2
  -4   0  -7 -0.4257 0.32389   1
  -5   0  -7 -0.1832 0.28752   1
  -5   0  -7 -0.6462 0.31663   1
   5   0   7 -0.0169 0.23229   3
  -5   0  -7 0.69775 0.44621   2
   5   0   7 -0.2703 0.29259   1
   5   0   7 -0.1225 0.33153   1
  -5   0  -7 -0.2833 0.22282   3
   5   0   7 -0.2558 0.43546   2
  -6   0  -7 0.64369 0.48274   2
  -6   0  -7 0.46796 0.38314   1
  -6   0  -7 -0.0166 0.22929   3
   6   0   7 -0.1589 0.21760   3
   6   0   7 1.49012 0.48467   1
   6   0   7 0.00000 0.41097   1
   6   0   7 0.15094 0.47795   2
  -6   0  -7 0.99020 0.43007   1
  -7   0  -7 -0.0097 0.39496   1
  -7   0  -7 1.29864 0.45883   1
   7   0   7 0.68227 0.47284   1
  -7   0  -7 -0.2233 0.27159   3
   7   0   7 -0.5594 0.41485   1
   8   0   7 0.01001 0.45681   1
   8   0   7 -0.6876 0.51822   2
  -8   0  -7 -0.7342 0.58372   2
  -8   0  -7 -0.4958 0.37368   1
  -9   0  -7 -0.5362 0.49258   2
   9   0   7 -0.2044 0.44781   2
  10   0   7 -0.0624 0.53654   2
 -10   0  -7 0.24077 0.52361   2
 -11   0  -7 0.61505 0.57137   2
  11   0   7 0.40325 0.48847   2
 -12   0  -7 0.13594 0.56742   2
  12   0   7 0.07729 0.51623   2
 -13   0  -7 1.44474 0.75703   2
 -14   0  -7 -1.1270 0.71036   2
  15   0   7 -0.4244 0.54028   2
  16   0   7 0.27306 0.56817   2
  17   0   7 0.48611 0.71613   2
 -17   0  -7 -0.2738 0.68711   2
  21  -1  -7 6.05323 1.29961   2
 -21  -1   7 7.07965 1.34598   2
  21   1  -7 6.66522 1.31328   2
 -21   1   7 7.18410 1.36923   2
 -20  -1   7 50.5371 6.26265   2
  20  -1  -7 36.7902 4.96337   2
 -20   1   7 49.7592 6.19361   2
  20   1  -7 33.1758 4.67456   2
 -19  -1   7 28.4070 3.84964   2
  19  -1  -7 31.7410 4.12266   2
  19   1  -7 24.0338 3.42872   2
 -19   1   7 29.8095 3.96364   2
  18  -1  -7 8.96575 1.45767   2
 -18   1   7 8.03747 1.43877   2
  18   1  -7 8.08477 1.42116   2
 -17  -1   7 91.8505 11.7306   2
  17  -1  -7 87.9377 11.3645   2
  17   1  -7 90.8924 11.6323   2
 -17   1   7 118.520 14.1803   2
  16  -1  -7 85.2416 10.3654   2
 -16  -1   7 57.1657 7.84626   2
  16   1  -7 78.0812 9.69298   2
 -16   1   7 77.6288 9.66329   2
  15  -1  -7 10.9252 1.68394   2
 -15  -1   7 10.4498 1.61934   2
 -15   1   7 10.1310 1.64103   2
  15   1  -7 11.0588 1.69703   2
 -14  -1   7 70.5999 8.95654   2
  14  -1  -7 68.3301 8.78619   2
  14   1  -7 70.2653 8.94892   2
 -14   1   7 76.0464 9.46719   2
 -13  -1   7 23.0833 2.98576   2
  13  -1  -7 23.2720 3.03627   2
  13   1  -7 14.8640 2.26114   2
 -13   1   7 22.9983 2.98311   2
 -12  -1   7 36.1598 4.73977   2
  12  -1  -7 34.5390 4.60959   2
 -12  -1   7 43.8892 7.79461   1
  12   1  -7 37.1886 4.83309   2
 -12   1   7 45.2273 5.56841   2
  11  -1  -7 5.04447 0.96697   2
 -11  -1   7 3.79345 0.62799   3
  11  -1  -7 6.98467 1.33794   1
 -11  -1   7 3.35367 0.75831   1
 -11  -1   7 4.45855 0.92601   1
 -11  -1   7 3.79275 0.77905   2
  11  -1  -7 5.52465 1.10748   1
  11   1  -7 4.98727 1.00164   1
 -11   1   7 5.08248 1.05123   1
 -11   1   7 4.56504 0.94273   2
  11   1  -7 4.47992 0.82592   2
 -11   1   7 5.16674 1.05161   1
  11   1  -7 2.48569 0.63549   1
  10  -1  -7 0.25273 0.43455   2
 -10  -1   7 0.69355 0.44441   2
 -10  -1   7 0.31490 0.29979   1
  10  -1  -7 -0.1165 0.30708   1
 -10  -1   7 0.89068 0.37766   1
  10  -1  -7 1.42389 0.42341   1
  10   1  -7 -0.4821 0.35152   2
  10   1  -7 0.20093 0.31300   1
 -10   1   7 0.13745 0.43516   2
  10   1  -7 0.30105 0.33711   1
 -10   1   7 -1.1220 0.35039   1
 -10   1   7 0.69714 0.35727   1
   9  -1  -7 242.760 29.6422   2
  -9  -1   7 208.641 26.6052   2
   9  -1  -7 242.209 42.9347   1
   9  -1  -7 255.916 45.0789   1
  -9  -1   7 185.030 34.1960   1
  -9  -1   7 185.377 34.2406   1
  -9  -1   7 217.721 24.3247   3
   9   1  -7 219.575 39.4419   1
   9   1  -7 221.579 27.7259   2
  -9   1   7 275.630 32.6709   2
  -9   1   7 275.187 48.1227   1
  -9   1   7 248.227 43.8793   1
   9   1  -7 241.439 42.8006   1
   9   1  -7 237.922 25.7693   3
   8  -1  -7 379.636 70.0438   1
  -8  -1   7 514.750 54.6070   3
  -8  -1   7 469.112 83.6705   1
  -8  -1   7 521.573 91.8511   1
   8  -1  -7 499.065 60.6900   2
   8  -1  -7 504.756 89.1992   1
  -8  -1   7 413.256 53.0751   2
   8   1  -7 457.660 50.5273   3
  -8   1   7 484.900 59.4026   2
   8   1  -7 508.319 89.7708   1
  -8   1   7 414.686 75.3335   1
   8   1  -7 516.814 62.2881   2
  -8   1   7 428.295 77.4021   1
   7  -1  -7 253.444 32.7760   2
   7  -1  -7 257.293 46.7810   1
  -7  -1   7 317.405 38.4209   2
  -7  -1   7 226.391 42.1351   1
  -7  -1   7 293.574 32.0989   3
   7  -1  -7 289.386 51.7232   1
  -7  -1   7 291.767 52.0918   1
  -7   1   7 314.549 38.1813   2
   7   1  -7 325.944 39.2163   2
  -7   1   7 344.059 60.2495   1
  -7   1   7 312.832 55.3689   1
   7   1  -7 322.400 56.8462   1
  -7   1   7 282.459 31.2587   3
   7   1  -7 333.944 58.6452   1
   7   1  -7 283.669 31.4137   3
  -6  -1   7 203.255 21.7714   3
   6  -1  -7 185.397 33.2125   1
  -6  -1   7 265.079 45.7669   1
   6  -1  -7 215.268 37.8472   1
   6  -1  -7 201.519 21.5878   3
  -6  -1   7 195.056 34.6860   1
   6   1  -7 204.635 24.8449   2
  -6   1   7 165.233 30.1062   1
  -6   1   7 207.865 22.0495   3
   6   1  -7 150.050 27.8260   1
  -6   1   7 214.078 25.7265   2
   6   1  -7 173.080 19.6423   3
   6   1  -7 140.554 26.4306   1
  -6   1   7 164.536 30.0209   1
   5  -1  -7 861.507 109.236   2
   5  -1  -7 1023.05 108.752   3
   5  -1  -7 986.159 174.815   1
   5  -1  -7 1092.74 191.516   1
   5   1  -7 989.326 120.521   2
   5   1  -7 748.004 138.470   1
   5   1  -7 878.910 98.5721   3
  -5   1   7 1283.93 147.963   2
  -5   1   7 860.826 97.3007   3
   5   1  -7 916.728 164.073   1
  -5   1   7 801.187 146.457   1
  -5   1   7 1233.29 213.693   1
   4  -1  -7 615.487 110.120   1
  -4  -1   7 642.181 69.8060   3
   4  -1  -7 631.265 77.9397   2
   4  -1  -7 693.547 122.261   1
  -4   1   7 431.175 82.5269   1
  -4   1   7 701.213 74.0067   3
   4   1  -7 660.548 80.5784   2
   4   1  -7 652.767 70.5576   3
  -4   1   7 678.748 82.2190   2
  -4   1   7 786.035 136.815   1
   4   1  -7 495.936 92.0089   1
   4   1  -7 685.557 121.000   1
  -3  -1   7 212.031 36.8796   1
   3  -1  -7 194.460 34.1117   1
   3  -1  -7 193.175 33.9047   1
  -3  -1   7 137.361 16.2654   3
   3  -1  -7 138.735 16.3287   3
  -3  -1   7 229.989 39.7333   1
   3  -1  -7 154.851 19.5999   2
   3   1  -7 176.264 31.2377   1
  -3   1   7 166.486 20.6450   2
   3   1  -7 171.049 30.4502   1
   3   1  -7 179.635 21.8174   2
  -3   1   7 178.364 31.5785   1
  -3   1   7 191.522 33.6343   1
   3   1  -7 181.512 19.3472   3
   2  -1  -7 54.5234 5.99376   3
   2  -1  -7 48.4207 8.82009   1
  -2  -1   7 53.5123 9.60596   1
   2  -1  -7 55.6962 6.92293   2
  -2  -1   7 51.9755 6.58904   2
   2  -1  -7 67.7828 11.8472   1
  -2  -1   7 47.6230 5.53020   3
  -2  -1   7 57.9712 10.2915   1
  -2   1   7 54.2102 5.96998   3
  -2   1   7 70.1419 12.2182   1
  -2   1   7 45.5795 6.06756   2
  -2   1   7 67.1035 11.7390   1
   2   1  -7 63.0315 6.64092   3
  -1  -1   7 548.783 59.3701   3
  -1  -1   7 489.656 62.0002   2
   1  -1  -7 690.780 69.8731   3
   1  -1  -7 562.637 99.6444   1
   1  -1  -7 341.705 66.4697   1
  -1  -1   7 722.867 124.920   1
  -1  -1   7 645.965 112.721   1
  -1   1   7 486.102 54.9843   3
   1   1  -7 624.115 64.8820   3
   0  -1  -7 565.102 70.8663   2
   0  -1  -7 712.310 124.452   1
   0  -1   7 440.697 82.7999   1
   0  -1  -7 763.426 132.539   1
   0  -1   7 566.353 70.9688   2
   0  -1   7 722.410 126.043   1
   0  -1   7 498.037 58.4355   3
   0  -1  -7 662.043 69.8925   3
   0   1   7 695.582 72.3517   3
   0   1  -7 655.122 69.3985   3
  -1  -1  -7 983.063 176.865   1
  -1  -1  -7 874.137 114.331   2
   1  -1   7 804.649 108.568   2
  -1  -1  -7 1293.90 225.356   1
  -1  -1  -7 1100.07 118.297   3
   1  -1   7 1126.54 199.059   1
   1  -1   7 1124.96 198.867   1
  -1   1  -7 996.100 110.967   3
  -1   1  -7 1270.59 221.734   1
   1   1   7 1193.47 125.086   3
   1   1   7 1401.43 242.445   1
  -1   1  -7 1532.28 263.438   1
  -1   1  -7 1189.14 142.197   2
   1   1   7 1229.16 215.200   1
  -2  -1  -7 14.8560 1.91905   2
   2  -1   7 10.0993 1.43672   2
   2  -1   7 8.03837 1.59291   1
   2  -1   7 9.66775 1.82012   1
   2  -1   7 10.0972 1.19899   3
   2   1   7 12.2564 1.66485   2
  -2   1  -7 10.2951 1.91836   1
   2   1   7 6.85808 1.39867   1
   2   1   7 8.64040 1.66927   1
  -2   1  -7 10.4298 1.23186   3
   2   1   7 10.1154 1.21575   3
  -2   1  -7 9.23564 1.75724   1
  -2   1  -7 10.4685 1.47967   2
   3  -1   7 290.764 52.5628   1
   3  -1   7 331.910 35.7979   3
   3  -1   7 330.392 58.6786   1
  -3  -1  -7 300.358 33.5623   3
   3  -1   7 323.417 39.8389   2
  -3   1  -7 312.137 55.8442   1
   3   1   7 305.660 38.2661   2
  -3   1  -7 341.323 36.4779   3
   3   1   7 276.844 50.4494   1
  -3   1  -7 365.720 64.1929   1
  -3   1  -7 307.516 38.4392   2
   3   1   7 360.379 63.3455   1
   4  -1   7 413.883 43.9157   3
  -4  -1  -7 463.605 80.8500   1
  -4  -1  -7 413.676 43.9080   3
  -4  -1  -7 375.239 67.0082   1
   4  -1   7 411.530 72.6575   1
   4  -1   7 280.686 52.7288   1
   4  -1   7 373.345 46.3389   2
   4   1   7 403.555 43.1869   3
  -4   1  -7 368.125 40.6616   3
   4   1   7 405.504 71.7035   1
  -4   1  -7 399.531 48.6880   2
  -4   1  -7 458.812 80.0922   1
  -4   1  -7 314.962 57.8133   1
   4   1   7 390.171 47.8451   2
   4   1   7 273.498 51.6643   1
  -5  -1  -7 71.5575 12.9246   1
   5  -1   7 76.0164 8.35808   3
   5  -1   7 76.8090 9.60870   2
  -5  -1  -7 82.2021 14.5734   1
   5  -1   7 105.965 18.3369   1
   5  -1   7 75.9711 13.6092   1
  -5  -1  -7 74.9361 8.27302   3
   5   1   7 67.8711 8.80216   2
  -5   1  -7 76.0986 8.36780   3
   5   1   7 87.5777 15.4170   1
  -5   1  -7 73.7538 13.2636   1
   5   1   7 65.8944 12.0583   1
  -5   1  -7 89.8236 15.7680   1
  -5   1  -7 74.6068 9.40907   2
   5   1   7 69.4683 7.90215   3
  -6  -1  -7 291.323 52.2454   1
   6  -1   7 229.789 42.9544   1
  -6  -1  -7 288.002 51.7619   1
   6  -1   7 311.152 55.3291   1
   6  -1   7 335.505 40.4493   2
  -6  -1  -7 347.605 41.5540   2
  -6  -1  -7 278.377 31.3931   3
   6   1   7 296.942 36.9607   2
   6   1   7 362.152 37.4450   3
  -6   1  -7 312.229 38.3425   2
  -6   1  -7 306.824 33.3939   3
   6   1   7 306.500 54.6012   1
   6   1   7 382.137 66.4653   1
  -6   1  -7 430.779 74.2409   1
  -6   1  -7 195.075 37.9193   1
  -7  -1  -7 130.113 22.9022   1
  -7  -1  -7 124.262 13.2440   3
  -7  -1  -7 103.825 13.3202   2
  -7  -1  -7 133.862 23.5046   1
   7  -1   7 156.372 27.0584   1
   7  -1   7 115.549 14.3702   2
   7  -1   7 89.1139 16.6045   1
  -7   1  -7 107.025 13.6176   2
  -7   1  -7 105.395 19.0678   1
  -7   1  -7 134.925 23.6616   1
   7   1   7 131.863 13.8052   3
   7   1   7 100.116 18.2446   1
   7   1   7 98.0065 12.8354   2
   7   1   7 124.803 22.0632   1
  -8  -1  -7 17.2542 1.89287   3
  -8  -1  -7 16.1264 2.19215   2
   8  -1   7 12.8919 1.88973   2
   8   1   7 11.6336 1.82160   2
  -8   1  -7 13.1998 1.95098   2
  -9  -1  -7 4.43388 0.88666   2
   9  -1   7 3.83435 0.82548   2
  -9  -1  -7 4.20716 0.63405   3
   9   1   7 5.99331 1.07965   2
  -9   1  -7 2.55584 0.75786   2
 -10  -1  -7 9.75785 1.53779   2
  10  -1   7 8.55900 1.38535   2
  10   1   7 9.15835 1.47608   2
 -10   1  -7 9.21362 1.48671   2
  11  -1   7 19.1719 2.61518   2
 -11  -1  -7 17.9552 2.55349   2
  11   1   7 19.8238 2.69546   2
 -11   1  -7 15.5685 2.32587   2
 -12  -1  -7 13.3692 1.94834   2
  12  -1   7 11.3901 1.69663   2
  12   1   7 7.75118 1.42512   2
 -12   1  -7 10.5875 1.66415   2
 -13  -1  -7 48.4431 6.44914   2
  13  -1   7 58.5963 7.32468   2
  13   1   7 50.2092 6.58693   2
 -13   1  -7 55.6103 7.08889   2
 -14  -1  -7 92.8122 12.1567   2
  14  -1   7 122.293 14.7948   2
  15  -1   7 9.39357 1.54288   2
 -15  -1  -7 9.20521 1.52327   2
  15   1   7 7.62288 1.41837   2
 -15   1  -7 7.60278 1.42464   2
  16  -1   7 0.34695 0.66597   2
 -16  -1  -7 -0.3804 0.62766   2
  16   1   7 0.83309 0.67923   2
 -16   1  -7 -0.9409 0.65318   2
  17  -1   7 39.8370 5.58094   2
 -17  -1  -7 50.4894 6.50200   2
  17   1   7 54.2686 6.93632   2
 -17   1  -7 56.5170 7.04602   2
  21  -2  -7 3.25437 0.98808   2
 -21   2   7 3.24259 0.98320   2
  20  -2  -7 43.0167 5.65772   2
 -20   2   7 44.3594 5.78625   2
  19  -2  -7 15.6579 2.25606   2
 -19  -2   7 12.8583 2.05741   2
  19   2  -7 14.9624 2.21499   2
 -19   2   7 15.4063 2.25369   2
  18  -2  -7 8.44871 1.46916   2
  18   2  -7 8.43775 1.45097   2
 -18   2   7 10.3717 1.67706   2
  17  -2  -7 1.55744 0.75355   2
 -17   2   7 1.06633 0.74985   2
  17   2  -7 1.01715 0.69121   2
 -16  -2   7 42.0547 5.62383   2
  16  -2  -7 49.7619 6.30143   2
  15  -2  -7 48.7852 6.17178   2
 -15  -2   7 47.2335 6.01618   2
  15   2  -7 39.2990 5.31185   2
 -14  -2   7 34.7847 4.65875   2
  14  -2  -7 44.3844 5.56136   2
  14   2  -7 37.0214 4.85502   2
 -13  -2   7 166.615 20.6229   2
  13  -2  -7 159.267 19.9801   2
  13   2  -7 159.898 20.0174   2
  12  -2  -7 334.106 42.0110   2
 -12  -2   7 357.366 39.0189   3
  12   2  -7 313.648 35.9677   3
 -12   2   7 428.777 50.6318   2
  11  -2  -7 285.501 51.0999   1
 -11  -2   7 265.605 48.0379   1
 -11  -2   7 337.766 40.3111   2
 -11  -2   7 338.527 59.3654   1
 -11   2   7 296.708 36.5839   2
  11   2  -7 241.866 28.5970   3
  11   2  -7 312.954 38.0277   2
 -11   2   7 285.994 51.1773   1
 -10  -2   7 111.264 19.3578   1
 -10  -2   7 73.2706 13.4183   1
 -10  -2   7 86.3533 10.7650   2
 -10  -2   7 106.647 11.0717   3
  10  -2  -7 73.7560 13.4993   1
  10  -2  -7 71.8752 13.2208   1
  10   2  -7 86.5101 10.7693   2
 -10   2   7 100.219 17.6071   1
 -10   2   7 68.8830 9.25408   2
  10   2  -7 97.6134 17.1911   1
  10   2  -7 85.1890 9.47589   3
  10   2  -7 108.290 18.8850   1
 -10   2   7 82.8016 14.8860   1
   9  -2  -7 62.6162 11.0235   1
  -9  -2   7 46.4280 6.06253   2
  -9  -2   7 48.5381 5.59297   3
   9  -2  -7 50.2868 9.07742   1
  -9  -2   7 46.8920 8.53971   1
  -9  -2   7 44.8425 8.23986   1
   9   2  -7 46.1909 5.44273   3
  -9   2   7 57.9406 7.12393   2
  -9   2   7 56.8464 10.0969   1
   9   2  -7 53.1481 6.64560   2
   9   2  -7 55.5034 9.87262   1
  -9   2   7 71.2482 12.3729   1
   9   2  -7 54.8057 9.76889   1
  -8  -2   7 175.648 30.9924   1
   8  -2  -7 163.564 29.1115   1
   8  -2  -7 166.933 20.4941   2
  -8  -2   7 141.711 16.3314   3
  -8  -2   7 145.747 26.3671   1
  -8  -2   7 167.079 20.4840   2
   8  -2  -7 177.898 31.3496   1
  -8   2   7 190.274 19.7091   3
   8   2  -7 156.369 19.5247   2
  -8   2   7 165.963 29.4844   1
   8   2  -7 163.344 17.8490   3
   8   2  -7 118.313 22.2532   1
  -8   2   7 141.769 25.7738   1
   8   2  -7 145.040 26.2730   1
  -8   2   7 172.822 21.0231   2
  -7  -2   7 1.70917 0.50803   3
  -7  -2   7 1.43988 0.43028   2
   7  -2  -7 0.23456 0.37811   1
  -7  -2   7 1.18516 0.40761   1
   7  -2  -7 1.79167 0.56864   2
  -7  -2   7 1.26931 0.39300   1
   7  -2  -7 3.02558 0.69962   1
  -7   2   7 1.65328 0.48985   1
  -7   2   7 1.30020 0.55590   1
   7   2  -7 1.06433 0.35969   1
  -7   2   7 2.44660 0.63611   2
  -7   2   7 1.70348 0.28689   3
   7   2  -7 1.53401 0.41918   1
   7   2  -7 2.33806 0.53122   2
   7   2  -7 2.14169 0.58636   3
   6  -2  -7 293.024 37.1262   2
  -6  -2   7 399.773 69.5638   1
  -6  -2   7 282.909 36.2348   2
   6  -2  -7 339.993 36.3466   3
  -6  -2   7 334.198 59.2492   1
   6  -2  -7 374.574 65.5934   1
  -6  -2   7 330.881 35.7800   3
   6   2  -7 325.469 57.8855   1
   6   2  -7 284.566 36.3867   2
  -6   2   7 329.213 35.5724   3
  -6   2   7 321.192 39.6342   2
  -6   2   7 310.835 55.6256   1
  -6   2   7 281.402 51.1317   1
   6   2  -7 401.070 69.7610   1
   6   2  -7 324.091 35.2962   3
   5  -2  -7 8.83286 1.01526   3
  -5  -2   7 11.6342 2.06647   1
  -5  -2   7 6.75271 1.00631   2
   5  -2  -7 5.90659 0.98633   2
   5  -2  -7 10.2047 1.86452   1
   5  -2  -7 8.04570 1.52495   1
  -5  -2   7 9.07924 1.65668   1
  -5  -2   7 9.41148 1.21213   3
   5   2  -7 10.2819 1.85481   1
  -5   2   7 11.0581 2.00371   1
  -5   2   7 8.81925 1.01733   3
   5   2  -7 9.19838 1.20467   3
  -5   2   7 8.47423 1.57760   1
  -5   2   7 5.63168 0.99000   2
   5   2  -7 9.93700 1.79743   1
   5   2  -7 7.47256 1.07732   2
  -4  -2   7 51.7603 6.01414   3
   4  -2  -7 58.8885 6.44160   3
   4  -2  -7 54.0881 6.90609   2
  -4  -2   7 58.3527 7.27261   2
  -4  -2   7 57.6361 10.3179   1
  -4  -2   7 43.5394 8.17855   1
   4  -2  -7 76.4477 13.2860   1
   4  -2  -7 66.7281 11.7520   1
   4   2  -7 66.5359 11.7101   1
  -4   2   7 68.0968 11.9678   1
   4   2  -7 56.5715 10.1523   1
  -4   2   7 67.6903 8.15110   2
  -4   2   7 53.8036 9.73883   1
   4   2  -7 49.4972 5.87285   3
   4   2  -7 65.0429 7.88389   2
  -4   2   7 56.6721 6.29438   3
  -3  -2   7 969.712 110.889   3
  -3  -2   7 1059.30 189.582   1
   3  -2  -7 1067.33 190.902   1
  -3  -2   7 1212.88 145.734   2
   3  -2  -7 1171.44 206.959   1
   3  -2  -7 1230.33 147.310   2
  -3   2   7 1249.23 130.660   3
   3   2  -7 1054.89 116.753   3
   3   2  -7 1153.26 204.131   1
   3   2  -7 1295.03 226.426   1
  -3   2   7 763.806 107.018   2
  -3   2   7 1520.10 262.136   1
   3   2  -7 1294.93 153.261   2
  -3   2   7 1351.73 235.397   1
   2  -2  -7 497.906 61.4363   2
  -2  -2   7 514.060 91.2410   1
   2  -2  -7 663.798 114.851   1
  -2  -2   7 610.423 71.7563   2
  -2  -2   7 476.022 85.3728   1
  -2  -2   7 371.145 45.9089   3
   2  -2  -7 411.651 48.4638   3
   2  -2  -7 592.432 103.541   1
  -2   2   7 583.012 102.035   1
   2   2  -7 583.414 69.2309   2
  -2   2   7 562.296 67.2944   2
  -2   2   7 454.985 51.3613   3
  -2   2   7 566.201 99.4207   1
   2   2  -7 550.072 96.8636   1
   2   2  -7 477.056 52.9492   3
   2   2  -7 570.915 100.149   1
   1  -2  -7 112.688 14.0274   2
  -1  -2   7 117.985 14.5130   2
   1  -2  -7 93.0819 11.0797   3
   1  -2  -7 148.787 25.8579   1
  -1  -2   7 116.704 20.7822   1
  -1  -2   7 100.125 11.5870   3
  -1  -2   7 107.950 19.4343   1
   1  -2  -7 108.971 19.5753   1
   1   2  -7 139.368 24.3391   1
   1   2  -7 122.482 14.9232   2
  -1   2   7 105.389 19.0277   1
  -1   2   7 180.262 20.4588   2
   1   2  -7 99.6921 11.5642   3
  -1   2   7 122.494 13.1351   3
   1   2  -7 110.436 19.7996   1
  -1   2   7 117.602 20.9212   1
   0  -2  -7 299.648 53.8368   1
   0  -2  -7 346.515 61.1196   1
   0  -2   7 309.896 38.5207   2
   0  -2   7 254.424 46.9927   1
   0  -2  -7 281.144 32.1522   3
   0  -2   7 298.416 33.3698   3
   0  -2   7 335.044 59.3138   1
   0  -2  -7 372.292 44.2038   2
   0   2  -7 274.098 35.4096   2
   0   2   7 303.264 54.3958   1
   0   2   7 326.064 57.9202   1
   0   2  -7 367.777 38.3563   3
   0   2  -7 292.062 52.6751   1
   0   2  -7 432.636 74.7452   1
   0   2   7 362.475 43.3094   2
  -1  -2  -7 314.398 35.3578   3
  -1  -2  -7 372.893 65.7468   1
  -1  -2  -7 284.917 52.2056   1
   1  -2   7 400.790 47.5504   2
  -1  -2  -7 324.804 40.6468   2
   1  -2   7 353.865 38.1563   3
   1  -2   7 366.497 64.7393   1
   1  -2   7 392.141 68.7512   1
   1   2   7 371.844 65.5685   1
   1   2   7 332.268 36.6183   3
   1   2   7 341.066 42.0952   2
  -1   2  -7 374.863 66.0459   1
   1   2   7 342.964 61.0806   1
  -1   2  -7 411.478 42.4062   3
  -1   2  -7 252.074 34.4724   2
  -1   2  -7 445.101 77.1368   1
  -2  -2  -7 427.548 46.1592   3
   2  -2   7 473.363 83.0544   1
  -2  -2  -7 333.815 44.1437   2
   2  -2   7 399.172 49.7776   2
  -2  -2  -7 545.675 94.4928   1
   2  -2   7 371.472 67.2571   1
  -2  -2  -7 491.224 85.8636   1
   2   2   7 438.606 77.5960   1
  -2   2  -7 447.714 79.0163   1
   2   2   7 368.274 42.0322   3
   2   2   7 381.549 68.7890   1
  -2   2  -7 441.903 47.2353   3
  -2   2  -7 441.301 78.0475   1
   2   2   7 445.364 53.9296   2
  -2   2  -7 424.149 52.0216   2
   3  -2   7 180.007 19.0111   3
   3  -2   7 191.234 33.4370   1
   3  -2   7 153.966 27.6313   1
  -3  -2  -7 133.656 24.5280   1
  -3  -2  -7 152.627 19.1777   2
  -3  -2  -7 173.259 30.6167   1
   3  -2   7 149.435 18.9018   2
   3   2   7 133.005 17.4780   2
  -3   2  -7 170.920 20.8354   2
   3   2   7 159.931 28.5449   1
  -3   2  -7 178.767 18.9038   3
   3   2   7 165.070 17.9038   3
  -3   2  -7 186.187 32.6504   1
   3   2   7 171.853 30.3894   1
  -3   2  -7 133.176 24.4573   1
  -4  -2  -7 2.91657 0.66770   2
   4  -2   7 2.48479 0.61602   1
  -4  -2  -7 3.11003 0.73475   1
   4  -2   7 3.33022 0.58891   3
   4  -2   7 2.93725 0.70562   2
  -4  -2  -7 3.16664 0.55398   3
  -4  -2  -7 3.80357 0.81594   1
   4  -2   7 1.98828 0.57491   1
  -4   2  -7 4.38806 0.90022   1
   4   2   7 3.10654 0.69326   1
  -4   2  -7 2.01870 0.58238   2
   4   2   7 2.23215 0.58784   2
   4   2   7 3.05365 0.69254   1
  -4   2  -7 2.72512 0.57456   3
   4   2   7 3.88857 0.64575   3
  -4   2  -7 4.43754 0.91120   1
   5  -2   7 14.2130 2.06954   2
  -5  -2  -7 15.5320 2.88769   1
   5  -2   7 21.0631 3.75251   1
  -5  -2  -7 18.5152 2.06404   3
   5  -2   7 15.9556 2.97036   1
  -5  -2  -7 20.1525 2.57210   2
  -5  -2  -7 11.1060 2.21895   1
   5   2   7 16.4776 2.25050   2
  -5   2  -7 17.7920 3.23792   1
   5   2   7 16.4166 1.94227   3
  -5   2  -7 15.4502 2.14019   2
  -5   2  -7 18.7285 3.39422   1
   5   2   7 17.4716 3.18516   1
   5   2   7 17.0742 3.12167   1
  -6  -2  -7 105.130 13.4388   2
   6  -2   7 121.989 14.9571   2
  -6  -2  -7 99.0277 18.0872   1
  -6  -2  -7 121.157 13.0327   3
   6  -2   7 81.0297 15.4161   1
   6  -2   7 123.054 21.8017   1
  -6  -2  -7 94.1051 17.3411   1
  -6   2  -7 121.844 13.1256   3
   6   2   7 105.155 11.9207   3
   6   2   7 130.550 22.9650   1
  -6   2  -7 104.996 18.9947   1
  -6   2  -7 128.017 15.5090   2
   6   2   7 101.066 18.4020   1
   6   2   7 133.622 16.0245   2
  -6   2  -7 153.889 26.6749   1
  -7  -2  -7 91.4382 16.7615   1
   7  -2   7 109.288 13.5681   2
  -7  -2  -7 106.645 11.7250   3
  -7   2  -7 107.250 13.4044   2
   7   2   7 97.4171 12.5141   2
   7   2   7 118.362 12.5856   3
  -8  -2  -7 43.2201 5.76698   2
   8   2   7 48.7700 6.25294   2
  -8   2  -7 55.8810 6.91187   2
  -9  -2  -7 318.727 40.0940   2
  -9  -2  -7 334.491 36.6564   3
  -9   2  -7 337.674 41.7982   2
   9   2   7 345.540 42.4874   2
 -10  -2  -7 447.068 54.3761   2
 -10  -2  -7 430.434 46.5971   3
  10   2   7 398.449 50.0085   2
 -10   2  -7 392.283 49.4734   2
  11  -2   7 29.6991 3.89923   2
 -11  -2  -7 26.1348 3.60197   2
 -11   2  -7 28.7576 3.84619   2
  11   2   7 26.9461 3.66835   2
  12  -2   7 9.76634 1.55675   2
 -12  -2  -7 9.27850 1.56557   2
  12   2   7 8.34265 1.47902   2
  13  -2   7 40.9528 5.50222   2
 -13  -2  -7 51.2203 6.46658   2
  14  -2   7 30.2476 4.02110   2
 -14  -2  -7 27.5748 3.81236   2
  15  -2   7 12.6014 1.95798   2
  15   2   7 14.0247 2.08170   2
  16  -2   7 4.02725 1.00412   2
  17  -2   7 7.83220 1.38935   2
 -17   2  -7 6.99110 1.27121   2
  20  -3  -7 9.97600 1.66221   2
 -20   3   7 10.9448 1.76510   2
  19  -3  -7 13.5515 2.12167   2
 -19   3   7 16.9744 2.44349   2
  18  -3  -7 1.32750 0.64352   2
 -18   3   7 1.79747 0.80692   2
  17  -3  -7 3.90125 0.98807   2
 -17   3   7 5.01728 1.11760   2
  16  -3  -7 2.64644 0.80995   2
 -16   3   7 4.53524 1.02236   2
  15  -3  -7 7.16837 1.24574   2
  14  -3  -7 2.73964 0.79469   2
  14   3  -7 3.24884 0.78171   2
 -14   3   7 2.85640 0.86492   2
 -13  -3   7 8.68258 1.27397   3
  13  -3  -7 9.43986 1.49369   2
  13   3  -7 8.49977 1.35588   2
  13   3  -7 9.97698 1.45112   3
 -13   3   7 9.78151 1.54035   2
  12  -3  -7 -0.3863 0.53155   2
  12   3  -7 0.63074 0.61722   3
  12   3  -7 0.42068 0.47257   2
 -12   3   7 0.74135 0.57673   2
  11  -3  -7 7.86129 1.35663   2
 -11  -3   7 9.71060 1.42646   3
  11   3  -7 13.5072 1.70550   3
 -11   3   7 14.7237 1.96231   2
  11   3  -7 11.3605 1.60371   2
 -10  -3   7 0.86276 0.52300   3
  10  -3  -7 0.26947 0.41272   2
 -10   3   7 0.33150 0.48924   2
  10   3  -7 -0.0208 0.55622   3
  10   3  -7 0.66041 0.36152   2
  -9  -3   7 13.5946 2.48723   1
   9  -3  -7 13.1649 2.43264   1
  -9  -3   7 11.1498 2.08599   1
   9  -3  -7 14.7396 1.99298   2
   9  -3  -7 10.5806 2.06342   1
   9   3  -7 10.2087 1.96117   1
  -9   3   7 11.5882 2.19824   1
   9   3  -7 11.2411 2.11526   1
   9   3  -7 13.7455 1.80779   2
   8  -3  -7 4.20374 0.92373   1
   8  -3  -7 5.50784 0.90640   2
  -8  -3   7 6.32134 0.97757   3
   8  -3  -7 4.43709 0.93662   1
  -8  -3   7 4.32583 0.88919   1
   8   3  -7 3.85009 0.79932   3
   8   3  -7 4.42734 0.89801   1
  -8   3   7 3.83991 0.54739   3
  -8   3   7 4.00118 0.84391   1
  -8   3   7 2.48200 0.64938   2
  -8   3   7 4.67305 1.00535   1
   8   3  -7 4.60001 0.91712   1
   8   3  -7 2.63936 0.58214   2
  -7  -3   7 37.9837 4.19473   3
   7  -3  -7 35.0933 3.82504   3
   7  -3  -7 35.7307 6.37798   1
  -7  -3   7 27.3478 5.08316   1
   7  -3  -7 27.6583 5.14606   1
   7  -3  -7 28.7206 3.85038   2
  -7   3   7 30.6642 4.01709   2
   7   3  -7 37.0068 4.56152   2
  -7   3   7 31.9077 5.78204   1
   7   3  -7 38.4744 6.79705   1
  -7   3   7 34.4359 6.19136   1
   6  -3  -7 204.657 34.9229   1
  -6  -3   7 117.959 21.1473   1
   6  -3  -7 140.961 24.7486   1
   6  -3  -7 120.728 15.0294   2
   6  -3  -7 125.354 13.6001   3
  -6  -3   7 123.162 13.5565   3
   6   3  -7 119.803 13.3370   3
   6   3  -7 127.947 22.6959   1
   6   3  -7 123.066 21.9333   1
  -6   3   7 108.676 13.9850   2
  -6   3   7 147.836 25.8300   1
  -6   3   7 93.6891 17.4948   1
  -6   3   7 116.148 12.9574   3
   5  -3  -7 92.4098 12.1011   2
   5  -3  -7 125.716 13.1865   3
  -5  -3   7 124.668 13.2086   3
   5  -3  -7 107.249 19.2152   1
   5  -3  -7 112.337 19.9971   1
  -5   3   7 96.9319 12.4899   2
  -5   3   7 105.209 11.7034   3
  -5   3   7 83.7058 15.6354   1
   5   3  -7 113.761 20.2151   1
   5   3  -7 131.263 13.7118   3
   5   3  -7 128.347 22.4848   1
  -5   3   7 112.117 19.9783   1
  -4  -3   7 33.2787 3.68607   3
   4  -3  -7 32.6646 3.54639   3
   4  -3  -7 27.6183 3.59373   2
   4  -3  -7 27.0183 4.92410   1
   4  -3  -7 24.3935 4.53235   1
   4   3  -7 29.0783 3.38747   3
  -4   3   7 23.7238 4.45791   1
  -4   3   7 31.1064 3.42808   3
  -4   3   7 28.7688 3.69334   2
   4   3  -7 32.7876 5.81588   1
   4   3  -7 36.9269 6.46665   1
  -4   3   7 22.5403 4.24694   1
   3  -3  -7 15.8327 1.78512   3
   3  -3  -7 14.3224 2.60199   1
   3  -3  -7 13.5557 2.49207   1
  -3  -3   7 13.8916 2.52625   1
  -3  -3   7 15.8722 1.89251   3
  -3   3   7 15.1215 2.73919   1
  -3   3   7 13.5077 1.65126   3
  -3   3   7 16.0731 2.04209   2
   3   3  -7 11.3530 2.14645   1
  -3   3   7 10.4829 2.02732   1
   3   3  -7 9.34136 1.84235   1
   3   3  -7 13.6923 1.81123   2
   3   3  -7 17.3502 2.03746   3
  -2  -3   7 122.950 12.9143   3
   2  -3  -7 87.1359 16.0241   1
   2  -3  -7 113.440 12.1533   3
   2  -3  -7 95.1279 17.2268   1
  -2  -3   7 117.282 20.6612   1
   2   3  -7 93.1117 10.7838   3
   2   3  -7 137.759 16.0686   2
  -2   3   7 101.911 12.7674   2
  -2   3   7 80.3285 9.87515   3
  -2   3   7 126.186 22.0649   1
  -2   3   7 145.046 25.0648   1
   1  -3  -7 -0.0192 0.27452   1
  -1  -3   7 -0.9403 0.36899   3
   1  -3  -7 -0.0395 0.34401   3
  -1   3   7 -0.1757 0.45094   3
   0  -3  -7 109.391 19.4116   1
   0  -3  -7 110.127 11.8919   3
   0  -3   7 106.900 11.7033   3
   0  -3   7 94.2920 17.0888   1
   0  -3   7 96.0173 17.3560   1
   0   3   7 94.7982 10.8230   3
   0   3  -7 112.920 12.1583   3
   0   3  -7 98.9608 12.4869   2
   1  -3   7 35.1800 6.32530   1
   1  -3   7 41.7199 4.50594   3
   1  -3   7 31.2653 5.72997   1
   1  -3   7 45.8728 5.46864   2
  -1  -3  -7 30.8759 5.66535   1
  -1  -3  -7 27.0910 3.41383   3
  -1   3  -7 30.0256 4.02226   2
  -1   3  -7 37.3780 4.18618   3
   1   3   7 37.2508 4.13734   3
   1   3   7 37.8826 6.74172   1
   1   3   7 38.5277 6.85001   1
  -1   3  -7 42.8333 7.53738   1
  -1   3  -7 34.1115 6.17316   1
   2  -3   7 55.1542 7.12658   2
  -2  -3  -7 56.9096 6.45902   3
   2  -3   7 55.9712 10.1406   1
   2  -3   7 51.3379 6.13282   3
   2  -3   7 63.4806 11.3052   1
   2   3   7 68.2627 7.29549   3
   2   3   7 67.4948 11.9214   1
  -2   3  -7 50.3112 9.28185   1
  -2   3  -7 57.0773 10.3079   1
  -2   3  -7 69.9158 8.45010   2
   2   3   7 62.0548 7.71372   2
   2   3   7 54.1215 9.85660   1
  -2   3  -7 71.1744 7.55302   3
   3  -3   7 29.6082 3.68939   3
   3  -3   7 41.6811 5.15256   2
  -3  -3  -7 38.3387 6.85742   1
  -3  -3  -7 40.3225 7.17919   1
  -3  -3  -7 41.5516 4.49064   3
   3  -3   7 43.1185 7.62412   1
   3  -3   7 29.0324 5.46247   1
  -3   3  -7 37.4271 4.24541   3
  -3   3  -7 40.9319 5.08530   2
   3   3   7 38.5007 4.28247   3
  -3   3  -7 39.2771 7.02773   1
   3   3   7 36.3141 4.63619   2
   3   3   7 44.8070 7.87639   1
   3   3   7 51.7347 8.98160   1
  -3   3  -7 23.0528 4.57188   1
   4  -3   7 -0.3581 0.31375   1
   4  -3   7 0.21611 0.37532   3
   4  -3   7 -0.0586 0.38091   1
   4  -3   7 0.26389 0.43737   2
  -4  -3  -7 0.36694 0.33984   1
  -4  -3  -7 -0.0572 0.21775   1
  -4   3  -7 0.79664 0.38343   1
  -4   3  -7 0.22181 0.41895   2
  -4   3  -7 -0.1497 0.31148   1
   4   3   7 -0.1689 0.25000   1
   4   3   7 1.09870 0.39518   1
   4   3   7 -0.3102 0.41214   2
  -5  -3  -7 22.8974 4.13839   1
  -5  -3  -7 30.5523 5.34258   1
   5  -3   7 17.3591 2.52665   2
  -5  -3  -7 22.6055 2.60245   3
   5  -3   7 21.0467 3.89306   1
   5  -3   7 20.6698 3.81458   1
  -5   3  -7 35.2866 6.14932   1
  -5   3  -7 21.1704 2.86099   2
   5   3   7 17.7622 3.35090   1
   5   3   7 22.9469 2.64776   3
  -5   3  -7 24.4118 2.80124   3
   5   3   7 21.4222 2.85459   2
  -6  -3  -7 23.8184 2.99087   2
   6  -3   7 17.5547 2.40021   2
  -6  -3  -7 19.5387 2.21146   3
  -6   3  -7 14.4944 2.12650   2
   6   3   7 12.5493 1.92980   2
   6   3   7 23.7268 2.57711   3
  -7  -3  -7 8.50058 1.08986   3
   7  -3   7 9.47683 1.42620   2
  -7  -3  -7 7.16209 1.22542   2
   7   3   7 9.38233 1.22800   3
   7   3   7 5.46037 1.01493   2
   8  -3   7 6.14230 1.11295   2
  -8  -3  -7 6.46888 1.12801   2
  -8   3  -7 5.92440 1.12935   2
   8   3   7 9.04828 1.16465   3
   8   3   7 4.80486 1.00186   2
  -9  -3  -7 10.6792 1.70454   2
   9  -3   7 11.0242 1.74525   2
   9   3   7 13.1853 1.93382   2
  -9   3  -7 18.1072 2.42766   2
   9   3   7 12.5935 1.60456   3
 -10  -3  -7 19.5392 2.68313   2
 -10  -3  -7 15.7638 1.94610   3
  10  -3   7 18.0515 2.50816   2
  10   3   7 19.1269 2.64550   2
 -10   3  -7 15.1973 2.30306   2
  10   3   7 15.2341 1.94738   3
 -11  -3  -7 73.2312 9.07874   2
  11  -3   7 64.1179 8.20913   2
 -11  -3  -7 59.2782 6.85135   3
  11   3   7 68.1719 7.53203   3
 -11   3  -7 61.6474 8.02587   2
  11   3   7 64.7361 8.27964   2
  12  -3   7 15.6298 2.25370   2
 -12   3  -7 10.8595 1.86348   2
  12   3   7 16.9464 2.40317   2
  13  -3   7 20.8160 2.93420   2
 -13   3  -7 21.0373 2.94369   2
  14  -3   7 0.98981 0.69065   2
 -14   3  -7 0.03243 0.68545   2
  15  -3   7 6.01488 1.22403   2
 -15   3  -7 6.07860 1.22216   2
  16  -3   7 6.33019 1.26758   2
  18  -4  -7 -0.1113 0.65579   2
  17  -4  -7 0.64683 0.62118   2
  16  -4  -7 12.7711 1.93213   2
  15  -4  -7 9.67859 1.60809   2
  14  -4  -7 2.34625 0.73920   2
 -14  -4   7 3.10796 0.76674   3
  14   4  -7 1.53848 0.83374   3
 -13  -4   7 14.7519 1.96045   3
  13  -4  -7 14.4670 2.13387   2
  12  -4  -7 38.3192 4.89615   2
 -12  -4   7 31.5714 3.85134   3
  12   4  -7 33.5197 4.06621   3
  11  -4  -7 0.27989 0.58115   2
 -11  -4   7 0.49636 0.62166   3
  11   4  -7 1.49877 0.76411   3
 -11   4   7 0.28381 0.57379   2
 -10  -4   7 2.75002 0.76798   3
 -10   4   7 0.96336 0.59502   2
  10   4  -7 1.98381 0.70424   3
  -9  -4   7 66.2278 7.47106   3
   9   4  -7 65.1161 7.41587   3
   8  -4  -7 45.1976 5.52312   2
  -8  -4   7 44.1088 4.84011   3
  -8   4   7 29.5611 4.09627   2
   7  -4  -7 4.42677 0.82024   2
   7  -4  -7 4.87490 0.72772   3
  -7  -4   7 5.21896 0.96302   3
   7   4  -7 5.21677 1.01137   3
  -7   4   7 3.80141 0.64393   3
  -7   4   7 4.34261 0.84012   2
  -6  -4   7 -0.3299 0.50146   3
  -6  -4   7 1.82617 0.41285   1
   6  -4  -7 0.14654 0.28959   1
   6  -4  -7 0.60212 0.36764   3
  -6   4   7 0.28487 0.39910   2
   6   4  -7 1.14980 0.66763   3
   5  -4  -7 6.52008 0.90157   3
  -5  -4   7 8.28100 1.49876   1
  -5  -4   7 5.85565 1.04555   3
   5  -4  -7 6.71598 1.28594   1
   5  -4  -7 6.94018 1.34824   1
  -5   4   7 7.42057 1.01150   3
   5   4  -7 5.72465 1.11233   1
   5   4  -7 7.49666 1.37326   1
   5   4  -7 9.11985 1.29500   3
  -5   4   7 10.3569 1.89031   1
  -5   4   7 7.03930 1.05531   2
   4  -4  -7 57.8906 10.0984   1
  -4  -4   7 41.1584 4.80872   3
   4  -4  -7 51.2927 5.45519   3
  -4  -4   7 41.6711 7.49981   1
   4   4  -7 52.2946 9.16590   1
   4   4  -7 43.0133 4.96022   3
  -4   4   7 44.6515 4.98152   3
  -4   4   7 35.6032 6.60369   1
   4   4  -7 41.6947 7.50369   1
  -4   4   7 33.7252 6.35338   1
  -3  -4   7 235.004 41.0351   1
   3  -4  -7 192.255 21.2170   3
   3  -4  -7 191.834 34.3181   1
  -3  -4   7 232.379 24.2176   3
   3   4  -7 124.641 24.2664   1
  -3   4   7 236.165 41.2522   1
   3   4  -7 198.076 21.7091   3
  -3   4   7 192.101 34.3661   1
  -3   4   7 198.942 21.7095   3
   3   4  -7 213.466 37.6547   1
  -2  -4   7 56.8396 10.0589   1
  -2  -4   7 62.1942 6.66382   3
   2  -4  -7 45.6193 8.34520   1
  -2   4   7 50.8712 9.14696   1
  -2   4   7 44.3050 8.14011   1
   2   4  -7 48.1469 8.72138   1
   2   4  -7 52.8890 9.44907   1
   1  -4  -7 35.1895 4.03109   3
  -1  -4   7 29.1957 5.42123   1
   1  -4  -7 37.6698 6.73487   1
  -1  -4   7 37.3525 4.28478   3
   1   4  -7 41.8979 7.40301   1
   1   4  -7 37.6331 4.31242   3
  -1   4   7 33.4910 6.07474   1
   1   4  -7 30.3974 5.59803   1
  -1   4   7 44.6796 7.82799   1
   0  -4   7 165.370 30.1568   1
   0  -4  -7 203.536 21.8534   3
   0  -4  -7 194.734 34.6510   1
   0   4   7 208.715 36.8415   1
   0   4   7 203.519 21.8704   3
   0   4  -7 163.283 29.8274   1
   0   4   7 168.334 30.5780   1
   0   4  -7 194.533 34.6282   1
  -1  -4  -7 5.09279 0.80420   3
   1  -4   7 5.15247 1.00027   1
  -1  -4  -7 3.83848 0.77399   1
   1  -4   7 3.48699 0.72599   1
   1   4   7 4.40344 0.82255   3
  -1   4  -7 4.41756 0.90979   1
   1   4   7 2.36880 0.56833   1
  -2  -4  -7 13.7606 2.50732   1
   2  -4   7 10.6920 1.53767   3
  -2  -4  -7 14.5145 1.72996   3
  -2  -4  -7 12.0691 2.25403   1
   2  -4   7 10.7726 2.05673   1
   2   4   7 14.1074 1.73694   3
  -2   4  -7 12.9145 1.74967   3
  -3  -4  -7 12.1833 1.51181   3
   3  -4   7 11.8616 1.55002   3
  -3   4  -7 9.15383 1.41061   2
  -3   4  -7 13.1929 1.72770   3
   3   4   7 9.41762 1.36879   3
  -4  -4  -7 30.1993 3.58701   3
  -4   4  -7 34.7156 4.01847   3
  -4   4  -7 34.5815 4.43428   2
   4   4   7 32.7928 3.80251   3
  -5  -4  -7 25.6982 3.22673   3
   5  -4   7 34.3362 4.42931   2
   5   4   7 34.1547 3.89716   3
  -5   4  -7 34.5933 3.94561   3
  -5   4  -7 32.2351 4.19540   2
  -6  -4  -7 0.56647 0.42045   3
   6  -4   7 0.21089 0.47819   2
  -6   4  -7 -0.1173 0.47755   2
   6   4   7 0.39385 0.50180   3
  -7  -4  -7 34.9223 4.11568   3
   7  -4   7 40.2591 5.16867   2
   7   4   7 42.3527 4.67674   3
  -7   4  -7 35.3940 4.72000   2
  -8  -4  -7 0.67791 0.40127   3
   8   4   7 1.27863 0.63948   3
  -8   4  -7 1.78906 0.64580   2
  -9  -4  -7 0.45144 0.47562   3
  -9   4  -7 0.59236 0.64358   2
   9   4   7 0.14187 0.62145   3
 -10  -4  -7 125.158 13.1311   3
 -10   4  -7 92.2320 12.0920   2
  10   4   7 103.665 11.5576   3
 -11  -4  -7 0.64942 0.45655   3
  11   4   7 0.76940 0.61152   3
 -11   4  -7 1.18990 0.65492   2
 -12   4  -7 4.03788 0.97459   2
 -13   4  -7 56.1785 7.24681   2
 -14  -5   7 15.5989 2.10795   3
  14   5  -7 17.4597 2.32628   3
  13   5  -7 4.87411 1.07680   3
 -12  -5   7 4.63339 0.98448   3
  12   5  -7 5.39278 1.11409   3
 -11  -5   7 6.40544 1.18572   3
  11   5  -7 5.85069 1.14678   3
 -10  -5   7 23.0268 2.85502   3
  10   5  -7 22.2389 2.84993   3
  -9  -5   7 98.7439 11.0794   3
   8   5  -7 94.4384 10.6389   3
  -7  -5   7 48.7759 5.41516   3
  -7   5   7 36.6609 4.41473   3
   7   5  -7 47.8178 5.39237   3
  -6  -5   7 63.6186 7.20621   3
  -6   5   7 71.4707 7.69473   3
   6   5  -7 56.8966 6.77527   3
   5  -5  -7 89.3001 9.11299   3
  -5  -5   7 74.6511 8.09216   3
  -5   5   7 50.2646 6.32150   3
   5   5  -7 68.6381 7.68876   3
  -4  -5   7 0.60557 0.59960   3
   4  -5  -7 1.19867 0.49662   3
   4   5  -7 2.26869 0.76967   3
  -4   5   7 1.33826 0.57387   3
  -3  -5   7 0.08616 0.56908   3
   3  -5  -7 1.35844 0.52696   3
  -3   5   7 0.55486 0.50457   3
   2  -5  -7 19.4245 2.31880   3
  -2   5   7 17.6596 2.23127   3
   2   5  -7 18.0125 2.36802   3
   1  -5  -7 18.9722 2.24018   3
  -1  -5   7 16.6209 2.17050   3
  -1   5   7 18.4805 2.21869   3
   1   5  -7 13.9732 2.02539   3
   0  -5   7 5.14873 0.98720   3
   0  -5  -7 4.75241 0.84112   3
   0   5  -7 4.50454 1.06878   3
   1  -5   7 71.5486 7.78865   3
  -1  -5  -7 63.1500 7.07618   3
   1   5   7 56.6446 6.64715   3
  -1   5  -7 61.5330 7.09190   3
   2  -5   7 19.7007 2.33115   3
  -2  -5  -7 13.5640 1.76051   3
   2   5   7 12.4290 1.71328   3
  -2   5  -7 14.4408 2.01781   3
  -3  -5  -7 40.8525 4.65535   3
   3   5   7 38.2435 4.50983   3
  -3   5  -7 42.8032 4.93891   3
  -4  -5  -7 105.113 11.3072   3
   4  -5   7 102.606 11.2191   3
  -4   5  -7 81.4735 9.77121   3
   4   5   7 96.7105 10.7299   3
  -5  -5  -7 45.1639 5.02850   3
   5   5   7 38.9509 4.61574   3
  -6  -5  -7 184.446 20.3541   3
  -7  -5  -7 79.3718 9.19871   3
   7   5   7 100.257 10.7142   3
  -8  -5  -7 11.7888 1.56542   3
   8   5   7 12.4825 1.65315   3
  -9  -5  -7 0.00959 0.47414   3
   9   5   7 0.18589 0.65531   3
 -10  -5  -7 -0.0573 0.45640   3
  10   5   7 -0.1793 0.64236   3
 -11  -5  -7 9.02800 1.26966   3
  11   5   7 8.04216 1.25899   3
 -13  -6   7 -0.3819 0.57603   3
  13   6  -7 0.64673 0.83502   3
 -12  -6   7 2.85791 0.74983   3
  12   6  -7 3.58982 0.95982   3
 -11  -6   7 18.9018 2.44647   3
  11   6  -7 20.0188 2.53681   3
 -10  -6   7 10.3503 1.52738   3
  10   6  -7 10.6413 1.62427   3
   9   6  -7 0.94624 0.69373   3
  -8  -6   7 11.1035 1.66727   3
   8   6  -7 12.0294 1.75675   3
  -7  -6   7 29.4923 3.56086   3
   7   6  -7 28.2268 3.49533   3
  -6  -6   7 0.64170 0.65205   3
   6  -6  -7 0.19855 0.48541   3
  -6   6   7 1.15162 0.48926   3
   6   6  -7 1.69510 0.83438   3
  -5  -6   7 10.8668 1.63415   3
   5   6  -7 14.3154 1.96178   3
  -5   6   7 12.3566 1.63994   3
   4  -6  -7 0.51020 0.45568   3
  -4  -6   7 -0.1929 0.59073   3
   4   6  -7 -0.5715 0.82341   3
  -4   6   7 -0.0528 0.58999   3
   3  -6  -7 13.2279 1.73847   3
  -3   6   7 14.0970 1.86235   3
   3   6  -7 16.3273 2.17001   3
   2  -6  -7 204.531 21.9641   3
  -2  -6   7 185.030 20.6703   3
   2   6  -7 202.026 21.9222   3
  -2   6   7 170.232 19.5707   3
   1  -6  -7 14.9927 1.87593   3
  -1  -6   7 12.5945 1.81432   3
  -1   6   7 13.5228 1.83993   3
   1   6  -7 16.0212 2.19174   3
   0  -6  -7 -0.5085 0.51303   3
   0  -6   7 0.04473 0.54378   3
   0   6  -7 0.69733 0.79470   3
   0   6   7 0.34439 0.63668   3
  -1  -6  -7 49.6773 5.49767   3
   1  -6   7 45.2568 5.30603   3
  -1   6  -7 41.6962 5.08075   3
  -2  -6  -7 12.9723 1.76687   3
   2   6   7 15.6127 2.03830   3
  -2   6  -7 21.0621 2.56903   3
   3  -6   7 0.11257 0.72071   3
  -3  -6  -7 0.75664 0.53144   3
  -3   6  -7 -0.2013 0.75220   3
   3   6   7 -0.6572 0.60865   3
  -4  -6  -7 3.84985 0.79050   3
   4   6   7 4.25400 0.85961   3
  -5  -6  -7 21.7146 2.58227   3
   5   6   7 19.4366 2.46142   3
   6   6   7 -0.1253 0.64823   3
  -7  -6  -7 2.93996 0.65576   3
   7   6   7 2.58360 0.72832   3
  -8  -6  -7 0.41536 0.50303   3
   8   6   7 1.06747 0.64280   3
  -9  -6  -7 10.8970 1.45857   3
   9   6   7 9.65756 1.46184   3
 -10  -6  -7 13.9391 1.82302   3
  10   6   7 15.7456 2.04996   3
 -11  -7   7 0.07226 0.52708   3
  11   7  -7 0.04270 0.75269   3
 -10  -7   7 0.63787 0.63220   3
  -9  -7   7 0.44984 0.59925   3
   9   7  -7 0.08367 0.76306   3
  -8  -7   7 0.10690 0.67594   3
   8   7  -7 0.45005 0.72117   3
  -7  -7   7 1.07811 0.60723   3
   7   7  -7 0.14950 0.72834   3
  -6  -7   7 -0.5651 0.59621   3
   6   7  -7 -0.1392 0.71150   3
  -5  -7   7 1.67127 0.73508   3
   5  -7  -7 1.56571 0.60137   3
  -5   7   7 1.50869 0.57116   3
   5   7  -7 0.57346 0.83987   3
   4  -7  -7 16.2548 2.11944   3
   4   7  -7 20.4561 2.57822   3
  -4   7   7 18.8180 2.33379   3
   3  -7  -7 2.46240 0.65009   3
  -3  -7   7 3.81248 0.86008   3
   3   7  -7 2.47474 0.85282   3
   2  -7  -7 3.42034 0.73138   3
  -2  -7   7 1.98501 0.78689   3
  -2   7   7 3.48126 0.76390   3
   2   7  -7 2.21014 0.88947   3
   1  -7  -7 2.36454 0.68681   3
  -1  -7   7 2.79604 0.85062   3
  -1   7   7 2.88729 0.78609   3
   1   7  -7 3.05214 0.95270   3
   0  -7   7 9.26745 1.53818   3
   0  -7  -7 15.1054 1.82203   3
   0   7  -7 9.99849 1.64099   3
   0   7   7 12.0326 1.62705   3
  -1  -7  -7 0.86972 0.55907   3
   1   7   7 0.26715 0.58458   3
  -1   7  -7 1.06402 0.78435   3
  -2  -7  -7 -0.1305 0.50448   3
   2  -7   7 -0.8121 0.58503   3
  -2   7  -7 0.08891 0.78355   3
  -3  -7  -7 17.1768 2.04215   3
   3   7   7 12.0287 1.72207   3
  -4  -7  -7 0.18718 0.48699   3
   4   7   7 -0.4595 0.64973   3
  -5  -7  -7 2.49490 0.69461   3
   5   7   7 2.69196 0.78634   3
  -6  -7  -7 0.46219 0.53598   3
   6   7   7 0.49862 0.62933   3
  -7  -7  -7 2.55310 0.68527   3
  -6  -8   7 3.23022 0.75610   3
   5   8  -7 1.91154 0.85887   3
  -4  -8   7 0.37464 0.51793   3
   4   8  -7 -0.7361 0.81027   3
  -3  -8   7 5.61354 1.07976   3
 -21   0   8 2.07623 0.88513   2
  21   0  -8 1.80877 0.81302   2
 -20   0   8 -0.1329 0.70156   2
  20   0  -8 -0.4220 0.58983   2
  19   0  -8 4.28949 1.01736   2
  18   0  -8 83.0602 10.5246   2
 -17   0   8 139.880 17.2778   2
  17   0  -8 123.496 15.7706   2
 -16   0   8 177.715 22.2001   2
 -15   0   8 171.826 21.4562   2
 -14   0   8 231.910 28.8378   2
  13   0  -8 122.129 15.1527   2
 -13   0   8 114.697 14.5071   2
 -12   0   8 24.6157 4.50227   1
  12   0  -8 25.0267 3.31151   2
 -12   0   8 24.4751 3.26595   2
  11   0  -8 23.7706 4.36755   1
  11   0  -8 21.2289 3.97864   1
 -11   0   8 23.8224 4.37090   1
 -11   0   8 26.5974 4.80350   1
 -11   0   8 24.5619 3.26568   2
  11   0  -8 29.1781 3.70666   2
  10   0  -8 24.8986 4.66736   1
  10   0  -8 33.9445 4.27085   2
  10   0  -8 26.2363 4.85322   1
 -10   0   8 31.6768 3.50978   3
 -10   0   8 31.9257 5.74406   1
 -10   0   8 30.8592 5.56869   1
 -10   0   8 28.7288 3.79303   2
   9   0  -8 5.10222 1.01426   1
  -9   0   8 5.40414 1.07262   1
  -9   0   8 5.40660 1.07968   1
  -9   0   8 4.35452 0.63713   3
   9   0  -8 4.06306 0.86140   2
  -9   0   8 5.56556 0.92099   2
   9   0  -8 3.47862 0.81789   1
  -8   0   8 268.349 28.9172   3
  -8   0   8 292.634 51.4054   1
   8   0  -8 204.522 37.8650   1
  -8   0   8 259.821 32.0585   2
   8   0  -8 234.442 42.3943   1
   8   0  -8 260.020 32.0757   2
   8   0  -8 274.907 29.4023   3
  -8   0   8 235.738 42.5789   1
  -7   0   8 379.428 69.7379   1
   7   0  -8 487.252 52.2525   3
  -7   0   8 483.031 58.9103   2
   7   0  -8 510.284 89.8665   1
  -7   0   8 463.531 82.5943   1
   7   0  -8 438.098 78.6694   1
  -7   0   8 442.053 49.0025   3
   6   0  -8 42.6033 4.68768   3
  -6   0   8 38.1962 4.37231   3
  -6   0   8 38.1792 4.97298   2
  -6   0   8 46.7636 8.29193   1
   6   0  -8 59.4953 10.3071   1
   6   0  -8 39.2598 5.06941   2
  -6   0   8 48.2101 8.50818   1
   6   0  -8 43.0348 7.70677   1
  -5   0   8 934.133 118.243   2
   5   0  -8 1103.82 194.813   1
  -5   0   8 942.318 169.891   1
   5   0  -8 1072.54 130.559   2
  -5   0   8 970.876 174.259   1
  -5   0   8 1026.99 111.799   3
   5   0  -8 1152.00 202.443   1
  -4   0   8 31.5428 5.89055   1
   4   0  -8 42.1255 4.55395   3
  -4   0   8 43.3006 5.33296   2
  -4   0   8 30.4129 5.70576   1
   4   0  -8 56.9150 9.85306   1
   4   0  -8 46.7766 8.23336   1
   4   0  -8 37.0293 4.77597   2
   3   0  -8 1716.81 309.917   1
  -3   0   8 1977.36 350.054   1
  -3   0   8 2038.09 245.798   2
  -3   0   8 2081.57 366.186   1
   3   0  -8 1726.38 217.956   2
  -3   0   8 1960.70 210.647   3
   3   0  -8 1609.40 293.477   1
  -2   0   8 2429.36 271.595   3
  -2   0   8 2046.25 272.570   2
   2   0  -8 2683.19 289.420   3
   2   0  -8 3676.89 420.675   2
   2   0  -8 2877.88 506.489   1
   2   0  -8 2461.65 441.885   1
  -2   0   8 2677.80 475.277   1
  -2   0   8 3441.15 595.623   1
  -1   0   8 114.677 14.5556   2
  -1   0   8 114.093 12.8708   3
   1   0  -8 145.702 15.1387   3
  -1   0   8 123.572 22.0672   1
   1   0  -8 126.288 22.4877   1
   1   0  -8 116.852 21.0415   1
  -1   0   8 131.996 23.3760   1
   1   0  -8 120.744 15.0802   2
   0   0   8 269.539 49.3694   1
   0   0  -8 289.904 36.9125   2
   0   0  -8 333.035 59.1062   1
   0   0  -8 319.645 34.9592   3
   0   0   8 328.947 35.6211   3
   0   0   8 347.471 42.0499   2
   0   0   8 382.462 66.8538   1
  -1   0  -8 39.4980 7.05137   1
   1   0   8 41.2160 7.32116   1
  -1   0  -8 35.4118 6.41511   1
   1   0   8 43.2718 4.58077   3
   1   0   8 33.2466 4.38000   2
   1   0   8 39.1237 6.98468   1
  -1   0  -8 33.7768 4.42008   2
  -2   0  -8 383.220 68.3615   1
  -2   0  -8 392.131 42.5403   3
   2   0   8 377.213 67.4437   1
   2   0   8 460.639 80.4705   1
  -2   0  -8 335.079 60.9821   1
   2   0   8 440.911 46.1051   3
  -2   0  -8 338.558 43.4670   2
  -3   0  -8 3.54131 0.76596   1
   3   0   8 4.42089 0.59142   3
  -3   0  -8 3.51971 0.76844   1
  -3   0  -8 3.83737 0.53628   3
   3   0   8 3.82765 0.83683   1
  -3   0  -8 3.07605 0.70520   2
   3   0   8 4.02575 0.76511   2
   3   0   8 4.60774 0.94121   1
  -4   0  -8 213.094 23.1231   3
  -4   0  -8 154.868 29.0754   1
  -4   0  -8 190.064 34.3825   1
   4   0   8 232.856 28.0475   2
   4   0   8 251.879 43.9976   1
   4   0   8 166.917 30.8993   1
   4   0   8 245.851 25.5249   3
   5   0   8 1898.84 251.830   2
  -5   0  -8 2361.26 291.726   2
   5   0   8 2296.52 411.126   1
   5   0   8 2420.93 430.415   1
  -5   0  -8 2504.56 443.303   1
  -5   0  -8 2562.46 272.712   3
  -5   0  -8 2721.31 477.374   1
   5   0   8 2857.48 294.459   3
   6   0   8 191.543 33.6775   1
  -6   0  -8 193.503 23.1792   2
   6   0   8 171.425 30.5153   1
  -6   0  -8 185.713 32.7511   1
   6   0   8 154.446 19.6583   2
  -6   0  -8 153.734 17.3540   3
   6   0   8 153.782 17.3620   3
  -6   0  -8 167.095 29.8516   1
   7   0   8 0.88935 0.45268   1
  -7   0  -8 0.86023 0.43858   1
  -7   0  -8 0.80519 0.27936   3
   7   0   8 0.97186 0.56076   2
  -7   0  -8 -0.2446 0.28680   1
   7   0   8 2.30848 0.59197   1
  -7   0  -8 0.27296 0.47454   2
   8   0   8 360.776 46.1186   2
  -8   0  -8 459.679 48.1171   3
  -8   0  -8 397.957 49.3774   2
  -9   0  -8 68.6777 8.90704   2
   9   0   8 81.1088 10.0359   2
  10   0   8 32.5462 4.23392   2
 -10   0  -8 29.3074 3.95486   2
 -11   0  -8 2.87628 0.79539   2
  11   0   8 3.20192 0.80678   2
  12   0   8 9.71610 1.61580   2
 -12   0  -8 11.6327 1.78994   2
 -14   0  -8 16.8191 2.44646   2
  15   0   8 11.4821 1.79838   2
  16   0   8 70.2416 8.98617   2
  17   0   8 56.9972 7.42438   2
 -17   0  -8 61.4101 7.81293   2
  22  -1  -8 4.17057 1.13821   2
 -22   1   8 3.96988 1.07182   2
 -21  -1   8 28.5557 3.89681   2
  21  -1  -8 28.6719 3.86696   2
  21   1  -8 33.9166 4.38000   2
 -21   1   8 25.8669 3.64774   2
 -20  -1   8 0.34359 0.72504   2
  20  -1  -8 0.31071 0.58063   2
 -20   1   8 2.54396 0.90560   2
  20   1  -8 0.94215 0.61915   2
  19  -1  -8 15.7324 2.42899   2
 -19  -1   8 24.0860 3.25164   2
  19   1  -8 19.7007 2.78596   2
 -19   1   8 20.8271 2.91888   2
  18  -1  -8 8.93551 1.52015   2
 -18  -1   8 9.70895 1.58837   2
  18   1  -8 8.58681 1.47317   2
 -18   1   8 11.9082 1.82585   2
 -17  -1   8 0.40944 0.54820   2
  17  -1  -8 2.24061 0.78612   2
 -17   1   8 2.49555 0.83209   2
  17   1  -8 1.29566 0.66546   2
 -16  -1   8 8.58263 1.38925   2
  16  -1  -8 5.48793 1.15991   2
  16   1  -8 6.52022 1.21602   2
 -16   1   8 8.55172 1.43095   2
  15  -1  -8 7.74084 1.35518   2
 -15  -1   8 7.87682 1.33740   2
 -15   1   8 7.48972 1.29318   2
  15   1  -8 7.64116 1.32119   2
  14  -1  -8 3.89436 0.85970   2
 -14  -1   8 3.88263 0.79973   2
  14   1  -8 3.18035 0.79290   2
 -14   1   8 2.84850 0.71249   2
  13  -1  -8 65.9700 8.25409   2
 -13  -1   8 53.8078 7.14963   2
  13   1  -8 57.8913 7.52249   2
 -13   1   8 82.9131 9.83127   2
 -12  -1   8 11.1034 1.66075   2
 -12  -1   8 8.32374 1.68229   1
  12  -1  -8 10.9999 1.64950   2
  12   1  -8 12.2864 1.73544   2
 -12   1   8 12.0135 1.74278   2
 -11  -1   8 51.9638 9.43356   1
  11  -1  -8 70.5189 12.3392   1
 -11  -1   8 49.8130 6.53479   2
  11  -1  -8 47.7187 8.79726   1
 -11  -1   8 51.2412 9.33251   1
  11  -1  -8 58.7774 7.36239   2
 -11  -1   8 50.7261 5.88637   3
  11   1  -8 61.3251 7.56940   2
  11   1  -8 62.6926 11.1053   1
 -11   1   8 61.6124 10.9359   1
 -11   1   8 60.4745 7.49776   2
  11   1  -8 57.8522 10.3346   1
 -11   1   8 49.7149 9.09530   1
 -10  -1   8 250.031 45.3735   1
 -10  -1   8 255.295 28.9614   3
  10  -1  -8 262.537 47.2856   1
  10  -1  -8 295.519 36.0939   2
 -10  -1   8 341.643 59.6300   1
  10  -1  -8 270.129 48.4461   1
 -10  -1   8 307.171 37.1352   2
 -10   1   8 289.454 35.5408   2
  10   1  -8 276.988 30.4800   3
  10   1  -8 213.846 39.9278   1
  10   1  -8 281.527 34.8172   2
  10   1  -8 295.177 52.3239   1
 -10   1   8 306.484 54.0996   1
 -10   1   8 298.409 52.8242   1
   9  -1  -8 190.218 34.4440   1
  -9  -1   8 158.403 19.5488   3
   9  -1  -8 200.188 35.9632   1
   9  -1  -8 200.439 25.1888   2
  -9  -1   8 249.207 43.6104   1
  -9  -1   8 193.416 24.5688   2
  -9  -1   8 210.212 37.5123   1
  -9   1   8 216.667 38.5251   1
   9   1  -8 211.901 37.7797   1
   9   1  -8 234.920 28.2831   2
   9   1  -8 222.125 39.3709   1
  -9   1   8 212.775 37.9051   1
  -9   1   8 251.680 26.0039   3
  -9   1   8 268.959 31.4808   2
  -8  -1   8 275.078 48.9242   1
   8  -1  -8 329.896 57.5242   1
   8  -1  -8 295.905 52.1875   1
   8  -1  -8 310.689 37.0962   2
  -8  -1   8 296.201 31.4044   3
  -8  -1   8 295.122 35.6367   2
  -8  -1   8 189.017 35.9343   1
   8   1  -8 315.213 55.2109   1
  -8   1   8 296.731 52.3110   1
  -8   1   8 289.361 51.1575   1
   8   1  -8 239.125 43.4009   1
  -8   1   8 235.682 27.0797   3
   8   1  -8 240.087 27.4518   3
  -8   1   8 265.351 32.9605   2
   8   1  -8 267.191 33.1105   2
   7  -1  -8 0.31304 0.17605   3
   7  -1  -8 -0.3736 0.55064   2
  -7  -1   8 -0.1976 0.32842   3
   7  -1  -8 0.32100 0.28042   1
  -7  -1   8 0.85241 0.34790   1
   7  -1  -8 0.13933 0.38030   1
  -7   1   8 0.14670 0.21055   3
   7   1  -8 -0.2928 0.33859   1
   7   1  -8 -0.1154 0.32791   3
   7   1  -8 2.45753 0.60724   1
   7   1  -8 0.16452 0.42046   2
  -7   1   8 0.06639 0.31619   1
  -7   1   8 0.90807 0.37936   1
  -7   1   8 0.59645 0.43198   2
  -6  -1   8 694.529 123.459   1
   6  -1  -8 810.484 141.630   1
   6  -1  -8 686.562 84.4854   2
   6  -1  -8 637.316 71.2507   3
   6  -1  -8 984.753 169.312   1
  -6  -1   8 665.619 118.985   1
  -6  -1   8 631.389 70.8676   3
   6   1  -8 702.948 85.9839   2
  -6   1   8 699.490 85.6142   2
   6   1  -8 579.042 67.3401   3
  -6   1   8 755.563 132.996   1
   6   1  -8 805.896 140.887   1
   6   1  -8 677.484 120.815   1
  -6   1   8 662.316 72.9902   3
  -6   1   8 662.841 118.572   1
   5  -1  -8 2.98348 0.63795   2
   5  -1  -8 3.02195 0.69131   1
   5  -1  -8 2.03006 0.34654   3
   5  -1  -8 2.06756 0.56926   1
  -5   1   8 2.74588 0.70546   1
   5   1  -8 1.55976 0.49340   2
   5   1  -8 2.12188 0.53178   1
  -5   1   8 2.99858 0.67618   1
   5   1  -8 2.72686 0.63231   1
  -5   1   8 1.99659 0.53963   2
  -5   1   8 1.89942 0.35607   3
   5   1  -8 2.60901 0.51930   3
   4  -1  -8 1351.25 239.948   1
   4  -1  -8 1284.50 159.352   2
  -4  -1   8 1418.36 150.827   3
   4   1  -8 1361.47 241.566   1
  -4   1   8 1164.78 132.994   3
   4   1  -8 1382.37 168.105   2
   4   1  -8 1596.50 278.400   1
  -4   1   8 1688.06 292.935   1
  -4   1   8 1203.75 152.235   2
   4   1  -8 1224.48 137.097   3
  -3  -1   8 43.1693 5.45606   2
   3  -1  -8 45.6494 8.13987   1
  -3  -1   8 41.3140 4.67573   3
  -3  -1   8 64.7686 11.1830   1
   3  -1  -8 45.1120 8.06864   1
   3  -1  -8 46.1670 5.00084   3
   3  -1  -8 42.2645 5.38051   2
   3   1  -8 43.8061 7.85789   1
   3   1  -8 42.8405 7.72020   1
  -3   1   8 38.7176 5.07366   2
  -3   1   8 38.0182 4.42967   3
   3   1  -8 45.1358 4.96049   3
  -3   1   8 44.3632 7.94610   1
  -3   1   8 46.3384 8.26058   1
   3   1  -8 45.2800 5.64471   2
   2  -1  -8 240.822 26.0907   3
   2  -1  -8 294.799 34.5554   2
  -2  -1   8 281.817 49.2240   1
  -2  -1   8 232.751 28.8484   2
   2  -1  -8 231.114 41.3092   1
  -2  -1   8 205.046 23.6236   3
   2  -1  -8 239.614 42.6387   1
  -2  -1   8 235.307 41.9556   1
  -2   1   8 224.288 24.9305   3
  -2   1   8 235.633 29.1283   2
   2   1  -8 212.141 24.1159   3
  -1  -1   8 184.951 23.4437   2
  -1  -1   8 156.224 18.9426   3
   1  -1  -8 196.966 35.2380   1
  -1  -1   8 191.514 34.3824   1
   1  -1  -8 226.414 23.8000   3
   1  -1  -8 207.618 25.4630   2
   1  -1  -8 233.509 40.9242   1
  -1  -1   8 225.400 39.6580   1
  -1   1   8 222.460 23.5110   3
   1   1  -8 217.123 23.1413   3
   0  -1  -8 73.6015 9.20062   2
   0  -1   8 67.6781 7.68670   3
   0  -1  -8 70.3256 7.85967   3
   0  -1   8 66.9502 12.1427   1
   0  -1   8 94.6907 11.1639   2
   0  -1  -8 89.1556 15.6159   1
   0  -1  -8 73.5428 13.1600   1
   0  -1   8 65.0112 7.51392   3
   0  -1   8 78.4116 13.9125   1
   0   1   8 72.3058 8.00585   3
  -1  -1  -8 390.684 42.3296   3
  -1  -1  -8 365.701 65.5965   1
  -1  -1  -8 397.205 48.5331   2
   1  -1   8 378.250 46.8274   2
   1  -1   8 359.462 64.6327   1
   1  -1   8 350.489 63.2412   1
  -1  -1  -8 347.039 62.7179   1
  -1   1  -8 325.463 42.2310   2
   1   1   8 419.432 44.4104   3
   1   1   8 437.487 76.7499   1
  -1   1  -8 419.341 73.9373   1
   1   1   8 354.836 63.9164   1
  -1   1  -8 409.414 43.6777   3
   2  -1   8 118.956 12.9031   3
   2  -1   8 109.909 19.7673   1
  -2  -1  -8 107.910 13.6779   2
   2  -1   8 105.456 13.4701   2
   2  -1   8 139.383 24.3765   1
  -2   1  -8 127.753 15.4687   2
  -2   1  -8 100.378 11.6077   3
   2   1   8 123.880 13.2522   3
   2   1   8 121.980 21.6327   1
   2   1   8 117.031 14.4963   2
   2   1   8 105.828 19.1353   1
  -2   1  -8 115.421 20.6152   1
   3  -1   8 14.7139 2.67945   1
   3  -1   8 12.9287 1.80131   2
  -3  -1  -8 12.3386 1.45437   3
   3  -1   8 10.7494 2.05846   1
   3  -1   8 12.8980 1.50593   3
   3   1   8 12.4494 2.31842   1
   3   1   8 12.7254 1.50224   3
  -3   1  -8 11.5602 2.19390   1
   3   1   8 14.0071 1.90371   2
  -3   1  -8 11.6278 1.42413   3
   3   1   8 12.3885 2.31732   1
  -3   1  -8 11.5290 1.66282   2
  -3   1  -8 12.3670 2.30114   1
   4  -1   8 28.2782 5.04194   1
  -4  -1  -8 31.6484 5.57691   1
   4  -1   8 24.8229 2.80156   3
   4  -1   8 27.4129 4.90980   1
   4  -1   8 28.4321 3.58853   2
  -4  -1  -8 19.5737 3.70741   1
  -4  -1  -8 26.1703 2.88978   3
  -4   1  -8 24.6503 2.79540   3
  -4   1  -8 32.3109 5.69365   1
  -4   1  -8 23.9318 4.37897   1
   4   1   8 23.4310 2.70736   3
   4   1   8 14.7158 2.99679   1
   4   1   8 31.2504 5.52529   1
  -4   1  -8 21.4234 2.96977   2
   4   1   8 30.6687 3.79281   2
  -5  -1  -8 19.9219 2.25554   3
  -5  -1  -8 20.8079 3.77408   1
  -5  -1  -8 16.0369 3.04606   1
   5  -1   8 20.7630 2.74884   2
   5  -1   8 22.8882 4.10418   1
   5  -1   8 17.9635 3.34153   1
   5  -1   8 18.4944 2.15530   3
   5   1   8 19.0979 2.20362   3
  -5   1  -8 20.9283 3.79748   1
   5   1   8 19.2156 2.60164   2
  -5   1  -8 23.2546 2.95891   2
  -5   1  -8 15.6628 1.96809   3
   5   1   8 17.5961 3.27102   1
   5   1   8 16.7044 3.13883   1
  -5   1  -8 23.9028 4.27010   1
  -6  -1  -8 31.7771 4.15105   2
  -6  -1  -8 29.7694 5.44739   1
  -6  -1  -8 33.3207 3.68683   3
   6  -1   8 31.5736 5.72995   1
  -6  -1  -8 25.4261 4.79358   1
   6  -1   8 32.2898 5.85179   1
   6   1   8 37.7333 4.68324   2
  -6   1  -8 36.1128 3.90585   3
  -6   1  -8 22.8647 4.40571   1
   6   1   8 33.6242 6.05586   1
  -6   1  -8 36.2763 6.46476   1
   6   1   8 26.0182 4.88355   1
   6   1   8 35.3625 3.84195   3
  -7  -1  -8 109.357 20.5532   1
   7  -1   8 139.892 25.1517   1
  -7  -1  -8 147.849 18.3653   2
   7  -1   8 183.905 21.7052   2
  -7  -1  -8 161.728 17.1574   3
   7   1   8 155.869 16.7293   3
   7   1   8 117.642 21.7832   1
   7   1   8 134.139 17.1361   2
  -7   1  -8 123.745 22.7016   1
  -7   1  -8 163.912 19.8138   2
  -8  -1  -8 181.060 19.3471   3
  -8  -1  -8 198.875 23.7302   2
   8  -1   8 168.749 20.9738   2
  -8   1  -8 129.913 17.6308   2
   8   1   8 171.852 21.2616   2
   8   1   8 178.887 19.2267   3
  -9  -1  -8 65.5849 8.36193   2
  -9  -1  -8 67.3000 7.45562   3
   9  -1   8 61.7157 8.02460   2
   9   1   8 65.6276 8.38561   2
  -9   1  -8 74.4282 9.18434   2
  10  -1   8 0.56227 0.52099   2
 -10  -1  -8 0.67729 0.61905   2
  10   1   8 -0.5850 0.57485   2
 -10   1  -8 0.48706 0.54464   2
  11  -1   8 75.6855 9.68350   2
 -11  -1  -8 70.9923 9.27004   2
  11   1   8 77.8230 9.88430   2
 -11   1  -8 91.9428 11.1885   2
 -12  -1  -8 38.4793 4.90061   2
  12  -1   8 35.4661 4.60838   2
 -12   1  -8 27.2833 3.89932   2
  12   1   8 35.4391 4.62928   2
  13  -1   8 138.959 16.7007   2
 -13  -1  -8 106.551 13.7736   2
 -13   1  -8 109.120 14.0152   2
  13   1   8 118.545 14.8529   2
 -14  -1  -8 6.83502 1.27765   2
  14  -1   8 7.68366 1.38054   2
 -14   1  -8 8.29838 1.42293   2
  14   1   8 6.02808 1.24246   2
  15  -1   8 0.26255 0.59630   2
 -15  -1  -8 -0.1367 0.68643   2
  15   1   8 0.38119 0.67076   2
 -15   1  -8 -0.1227 0.61759   2
 -16  -1  -8 4.46154 1.01926   2
  16  -1   8 5.47995 1.12372   2
  16   1   8 5.37461 1.09800   2
 -16   1  -8 5.25838 1.10527   2
  17  -1   8 11.1346 1.80456   2
 -17   1  -8 9.94543 1.64210   2
  21  -2  -8 3.59389 0.89478   2
 -21   2   8 3.22626 0.93448   2
  20  -2  -8 1.19749 0.73262   2
 -20  -2   8 0.63692 0.71864   2
 -20   2   8 0.40134 0.70780   2
 -19  -2   8 1.02850 0.68109   2
  19  -2  -8 1.03665 0.69726   2
  19   2  -8 0.03090 0.51907   2
 -19   2   8 3.15017 0.93976   2
  18  -2  -8 1.45716 0.63128   2
  18   2  -8 -0.0320 0.56545   2
 -18   2   8 -0.2924 0.62254   2
 -17  -2   8 11.3186 1.80992   2
  17   2  -8 10.1002 1.62169   2
  16  -2  -8 4.80529 1.02119   2
 -16   2   8 5.82666 1.20969   2
  15  -2  -8 1.87895 0.67833   2
 -15  -2   8 2.03048 0.76391   2
  15   2  -8 1.85447 0.67932   2
  14  -2  -8 21.7164 2.94968   2
 -14  -2   8 18.6324 2.66159   2
  14   2  -8 23.9637 3.14105   2
  13  -2  -8 13.6391 1.93330   2
 -13  -2   8 11.4657 1.70478   2
 -13  -2   8 12.7322 1.64917   3
  13   2  -8 9.88683 1.57558   2
 -12  -2   8 7.40369 1.20590   2
  12  -2  -8 7.33103 1.19050   2
 -12  -2   8 7.68165 1.16289   3
 -12   2   8 6.60701 1.13408   2
  12   2  -8 7.10711 1.06957   3
  12   2  -8 5.24194 1.02444   2
  11  -2  -8 1.16886 0.49252   1
 -11  -2   8 1.48415 0.52011   2
 -11  -2   8 1.28683 0.51771   3
 -11  -2   8 1.18304 0.42561   1
  11   2  -8 0.87494 0.50452   3
  11   2  -8 1.32259 0.49772   2
 -11   2   8 0.30805 0.48917   2
 -10  -2   8 130.872 14.0801   3
  10  -2  -8 123.597 22.0261   1
 -10  -2   8 118.391 21.2013   1
  10  -2  -8 129.470 22.9725   1
 -10  -2   8 130.922 23.1735   1
 -10  -2   8 134.883 16.3046   2
  10   2  -8 121.413 21.6867   1
  10   2  -8 119.143 21.3194   1
  10   2  -8 120.120 13.2950   3
  10   2  -8 105.191 13.6543   2
 -10   2   8 111.538 20.1687   1
 -10   2   8 98.7215 18.2208   1
  -9  -2   8 37.2605 6.71676   1
  -9  -2   8 40.9679 5.11147   2
   9  -2  -8 37.7800 6.81239   1
   9  -2  -8 49.0143 8.57808   1
  -9  -2   8 47.5424 5.02992   3
  -9  -2   8 32.5568 6.00361   1
  -9   2   8 32.4028 4.37047   2
  -9   2   8 43.0540 7.63166   1
   9   2  -8 40.6521 7.24675   1
   9   2  -8 34.5899 4.53666   2
   9   2  -8 38.9456 4.41262   3
   9   2  -8 39.1056 7.01268   1
  -9   2   8 27.4270 5.26265   1
  -8  -2   8 46.8749 5.81785   2
   8  -2  -8 43.4246 7.82635   1
   8  -2  -8 40.9935 7.43969   1
  -8  -2   8 44.2804 4.97647   3
  -8  -2   8 37.7542 6.94442   1
   8  -2  -8 50.9472 6.22694   2
  -8   2   8 50.0608 6.14559   2
   8   2  -8 50.1724 8.85720   1
  -8   2   8 42.9407 4.76204   3
   8   2  -8 42.4346 5.41970   2
  -8   2   8 30.7224 5.91762   1
   8   2  -8 48.8860 5.32335   3
   8   2  -8 38.7228 7.08509   1
  -8   2   8 33.5051 6.30866   1
  -7  -2   8 6.71561 0.98467   3
   7  -2  -8 6.85750 0.81550   3
   7  -2  -8 7.87314 1.19061   2
   7  -2  -8 6.93931 1.33585   1
   7  -2  -8 6.84846 1.33235   1
  -7  -2   8 8.70887 1.59809   1
  -7  -2   8 6.83224 1.02555   2
  -7  -2   8 9.34383 1.71427   1
   7   2  -8 6.33251 1.00278   2
   7   2  -8 5.78431 1.14273   1
  -7   2   8 6.57072 0.81650   3
  -7   2   8 6.81125 1.32614   1
  -7   2   8 6.08716 1.01643   2
   7   2  -8 5.65210 1.13310   1
  -7   2   8 9.21245 1.71228   1
   7   2  -8 4.87036 0.88087   3
   6  -2  -8 318.981 41.4247   2
  -6  -2   8 370.417 45.8777   2
   6  -2  -8 320.352 58.4989   1
   6  -2  -8 311.502 36.5778   3
  -6  -2   8 363.056 65.0122   1
   6  -2  -8 359.556 64.4715   1
  -6   2   8 371.620 66.3290   1
   6   2  -8 416.947 50.1074   2
   6   2  -8 413.783 43.8274   3
   6   2  -8 401.156 70.8971   1
  -6   2   8 379.745 67.5899   1
  -6   2   8 562.044 63.8666   2
  -6   2   8 382.714 41.4868   3
  -5  -2   8 35.1145 3.91432   3
   5  -2  -8 37.6801 4.64808   2
  -5  -2   8 36.8919 4.55094   2
  -5  -2   8 30.7093 5.59089   1
  -5  -2   8 32.5375 5.86409   1
   5  -2  -8 32.8687 5.92795   1
   5  -2  -8 27.9077 3.31605   3
   5  -2  -8 33.5247 6.03533   1
   5   2  -8 39.9205 7.02631   1
   5   2  -8 41.9513 7.34868   1
  -5   2   8 37.8930 4.65893   2
   5   2  -8 33.4679 3.82034   3
   5   2  -8 28.3630 3.78650   2
  -5   2   8 37.1029 6.59569   1
  -5   2   8 26.3771 3.22069   3
  -5   2   8 35.8403 6.38590   1
   4  -2  -8 49.2040 9.03368   1
  -4  -2   8 56.4158 10.1202   1
   4  -2  -8 64.0080 7.77704   2
  -4  -2   8 53.8605 6.85419   2
   4  -2  -8 61.5977 10.9345   1
  -4  -2   8 66.8240 7.06992   3
   4  -2  -8 62.2534 6.65607   3
  -4  -2   8 54.0498 9.75133   1
   4   2  -8 44.8239 5.53205   3
   4   2  -8 64.7511 7.84637   2
   4   2  -8 56.5021 10.1328   1
   4   2  -8 60.0998 10.6823   1
  -4   2   8 52.1082 9.49409   1
  -4   2   8 45.0984 8.40411   1
  -4   2   8 56.6730 7.12687   2
  -4   2   8 58.9982 6.42104   3
  -3  -2   8 7.82275 1.46001   1
  -3  -2   8 7.67482 1.05230   3
  -3  -2   8 7.51312 1.09594   2
   3  -2  -8 9.28405 1.08409   3
   3  -2  -8 10.2776 1.89999   1
  -3  -2   8 5.31961 1.07579   1
   3  -2  -8 6.56010 1.28100   1
   3  -2  -8 5.69640 0.95241   2
  -3   2   8 10.0938 1.13682   3
  -3   2   8 6.36589 1.25675   1
   3   2  -8 7.80097 1.47790   1
   3   2  -8 6.32073 0.98217   2
  -3   2   8 10.2311 1.37446   2
   3   2  -8 8.18325 1.51787   1
   3   2  -8 7.93656 1.08795   3
  -3   2   8 6.34144 1.27106   1
   2  -2  -8 2.35763 0.39706   3
   2  -2  -8 1.64462 0.48724   2
  -2  -2   8 2.82960 0.61063   1
  -2  -2   8 2.04505 0.51865   1
  -2  -2   8 1.78538 0.43681   3
   2  -2  -8 2.89429 0.67363   1
  -2  -2   8 1.64861 0.46648   2
   2  -2  -8 0.68681 0.35412   1
  -2   2   8 1.47065 0.50033   2
   2   2  -8 1.87080 0.54411   2
   2   2  -8 2.53267 0.62665   1
   2   2  -8 1.49456 0.47929   3
  -2   2   8 3.24069 0.68890   1
  -2   2   8 0.96091 0.37927   1
  -2   2   8 2.05521 0.42969   3
  -1  -2   8 7.87528 1.01136   3
   1  -2  -8 6.57779 1.01270   2
  -1  -2   8 8.88124 1.61709   1
   1  -2  -8 5.53756 1.16006   1
   1  -2  -8 6.80373 0.88841   3
  -1  -2   8 7.08106 1.06367   2
  -1  -2   8 7.08257 1.36932   1
   1  -2  -8 6.90485 1.33224   1
   1   2  -8 7.52630 1.42317   1
   1   2  -8 7.15571 1.35069   1
   1   2  -8 6.95915 1.05369   2
  -1   2   8 6.49541 1.01556   2
  -1   2   8 8.00432 1.00275   3
  -1   2   8 7.93739 1.47214   1
  -1   2   8 7.21123 1.38448   1
   1   2  -8 6.65945 0.94639   3
   0  -2   8 78.4463 14.0484   1
   0  -2  -8 82.8401 10.2176   2
   0  -2   8 84.9597 15.0663   1
   0  -2   8 93.4379 11.1927   2
   0  -2  -8 73.6330 13.3100   1
   0  -2  -8 59.7260 7.39611   3
   0  -2  -8 86.7774 15.3456   1
   0   2  -8 84.5181 9.13842   3
   0   2   8 79.5508 14.2186   1
   0   2   8 87.7351 15.4933   1
   0   2  -8 133.117 22.7414   1
   0   2  -8 78.4952 9.83382   2
   0   2   8 66.7616 7.86336   3
   0   2  -8 78.0695 13.9881   1
   0   2   8 87.2619 10.6182   2
   1  -2   8 0.44000 0.27745   1
  -1  -2  -8 0.40230 0.32724   3
  -1  -2  -8 0.18251 0.32100   1
   1  -2   8 1.73757 0.49567   2
  -1  -2  -8 0.67560 0.38516   2
   1  -2   8 -0.0520 0.32460   3
   1  -2   8 1.29314 0.41093   1
  -1  -2  -8 0.99069 0.34876   1
  -1   2  -8 2.74410 0.61166   1
  -1   2  -8 0.22999 0.28140   1
   1   2   8 0.20240 0.36250   2
   1   2   8 -0.3943 0.29782   1
  -1   2  -8 1.55750 0.47149   2
   1   2   8 -0.5277 0.29490   1
  -1   2  -8 1.01776 0.40203   3
   1   2   8 0.31603 0.39938   3
  -2  -2  -8 28.7392 3.35551   3
   2  -2   8 36.6698 3.95206   3
   2  -2   8 41.8858 5.02625   2
   2  -2   8 31.5201 5.70412   1
  -2  -2  -8 39.8922 7.01857   1
  -2  -2  -8 24.4803 4.62236   1
  -2  -2  -8 35.5540 4.44437   2
   2  -2   8 25.5015 4.78952   1
   2   2   8 30.0990 3.47314   3
   2   2   8 26.9257 3.64918   2
  -2   2  -8 38.7600 6.83614   1
  -2   2  -8 31.3813 4.05562   2
  -2   2  -8 34.2530 6.13018   1
   2   2   8 30.7966 5.57578   1
  -2   2  -8 31.2690 3.57752   3
   2   2   8 33.2073 5.95450   1
  -3  -2  -8 0.83169 0.40093   1
  -3  -2  -8 1.57219 0.45407   1
   3  -2   8 0.01927 0.33120   1
  -3  -2  -8 0.71207 0.47848   2
   3  -2   8 0.20940 0.33362   3
   3  -2   8 0.20648 0.35827   1
   3  -2   8 0.99614 0.52370   2
  -3   2  -8 -0.1714 0.30023   1
   3   2   8 0.14150 0.43525   2
  -3   2  -8 0.54105 0.36136   3
  -3   2  -8 0.95635 0.49609   2
   3   2   8 0.00000 0.32020   1
   3   2   8 0.86933 0.40991   1
  -3   2  -8 0.92083 0.39917   1
   3   2   8 0.66929 0.37448   3
   4  -2   8 0.62847 0.44126   2
  -4  -2  -8 0.60796 0.36889   1
  -4  -2  -8 0.50165 0.28242   3
  -4  -2  -8 0.50738 0.35601   1
   4  -2   8 0.40494 0.37003   1
  -4  -2  -8 0.85472 0.51624   2
   4  -2   8 0.99701 0.37501   3
  -4   2  -8 0.32165 0.33648   1
   4   2   8 1.34612 0.45075   1
  -4   2  -8 1.22311 0.44669   1
  -4   2  -8 1.33638 0.43752   3
   4   2   8 0.67933 0.34072   3
   4   2   8 0.45670 0.43466   2
  -4   2  -8 1.03864 0.47075   2
   4   2   8 1.63325 0.48393   1
  -5  -2  -8 31.1762 5.82384   1
   5  -2   8 38.3450 4.31360   3
   5  -2   8 42.5730 7.57648   1
  -5  -2  -8 51.8202 6.17581   2
  -5  -2  -8 33.9100 3.96130   3
  -5  -2  -8 36.7760 6.68290   1
   5  -2   8 39.7807 5.07492   2
   5  -2   8 45.1644 7.99551   1
   5   2   8 34.3099 6.29589   1
  -5   2  -8 41.0505 5.15554   2
  -5   2  -8 35.1333 6.41773   1
   5   2   8 32.0974 3.85754   3
   5   2   8 41.0329 5.15416   2
  -5   2  -8 35.4696 4.11538   3
   5   2   8 39.4773 7.08537   1
  -5   2  -8 37.9525 6.86299   1
   6  -2   8 7.88559 1.31096   2
  -6  -2  -8 7.01092 1.40458   1
  -6  -2  -8 7.39230 1.45428   1
   6  -2   8 5.48826 1.21275   1
  -6  -2  -8 8.28626 1.04458   3
  -6  -2  -8 8.49531 1.32159   2
   6   2   8 7.49174 1.24728   2
   6   2   8 7.31409 1.44826   1
   6   2   8 7.59087 1.02152   3
  -6   2  -8 9.71987 1.43579   2
  -6   2  -8 8.94351 1.14070   3
  -6   2  -8 8.22776 1.60818   1
  -7  -2  -8 20.6529 2.84462   2
   7   2   8 19.8716 2.77480   2
  -7   2  -8 24.3202 3.15833   2
  -8  -2  -8 78.6856 9.88805   2
   8   2   8 80.9545 8.79970   3
  -8   2  -8 73.0694 9.37703   2
   8   2   8 72.6405 9.35094   2
  -9  -2  -8 80.3044 8.59312   3
  -9  -2  -8 75.5212 9.44146   2
  -9   2  -8 52.9174 7.49169   2
   9   2   8 83.8111 8.87266   3
   9   2   8 85.6442 10.3889   2
 -10  -2  -8 70.3247 8.90597   2
 -10  -2  -8 63.5455 7.27790   3
 -10   2  -8 69.6042 8.82742   2
  10   2   8 70.3321 8.87852   2
  11  -2   8 58.2134 7.50955   2
 -11  -2  -8 58.8900 7.56598   2
 -11   2  -8 58.2681 7.50140   2
  11   2   8 59.5867 7.60603   2
 -12  -2  -8 2.14479 0.87202   2
  12  -2   8 1.59408 0.76332   2
  12   2   8 0.33207 0.64180   2
 -12   2  -8 1.50181 0.80563   2
 -13  -2  -8 62.8277 8.13650   2
  13  -2   8 67.0038 8.49869   2
  14  -2   8 4.64124 1.10467   2
  14   2   8 6.53277 1.24095   2
  15  -2   8 8.96175 1.60972   2
 -15  -2  -8 13.3096 2.00426   2
  15   2   8 13.5845 2.01178   2
  16  -2   8 7.23371 1.34447   2
  20  -3  -8 19.3178 2.82964   2
 -20   3   8 23.1987 3.19720   2
  19  -3  -8 28.1767 3.72408   2
 -19   3   8 22.9576 3.28258   2
  18  -3  -8 35.8026 4.76177   2
 -18   3   8 36.3509 4.84076   2
  17  -3  -8 2.81147 0.82453   2
 -17   3   8 3.76609 0.97906   2
  16  -3  -8 -0.0651 0.59141   2
 -16   3   8 -0.0961 0.64502   2
  15  -3  -8 16.7696 2.41409   2
 -15   3   8 19.2166 2.69591   2
 -14  -3   8 32.6801 3.90996   3
  14  -3  -8 38.7579 4.92513   2
 -14   3   8 31.8662 4.29330   2
  14   3  -8 34.1822 4.49183   2
  13  -3  -8 90.8570 11.5106   2
 -13  -3   8 93.7389 10.4541   3
  13   3  -8 89.7317 10.1945   3
 -13   3   8 103.131 12.6291   2
  13   3  -8 86.7554 11.1202   2
  12  -3  -8 95.4577 11.5406   2
  12   3  -8 89.3079 10.9312   2
  12   3  -8 108.411 11.1624   3
 -12   3   8 59.4684 8.35295   2
  11  -3  -8 34.5200 4.33430   2
 -11  -3   8 31.3054 3.62366   3
  11   3  -8 25.7303 3.23744   3
  11   3  -8 30.1744 3.90395   2
 -11   3   8 27.8221 3.72389   2
  10  -3  -8 216.646 26.2975   2
 -10  -3   8 184.688 20.8693   3
  10   3  -8 207.596 25.4062   2
  10   3  -8 182.660 20.7399   3
   9  -3  -8 358.461 44.3952   2
   9  -3  -8 438.964 76.5724   1
  -9  -3   8 375.680 66.6258   1
  -9  -3   8 357.517 39.2877   3
  -9  -3   8 413.965 72.6300   1
   9   3  -8 390.303 68.9055   1
  -9   3   8 300.899 39.3676   2
   9   3  -8 343.068 42.9884   2
   9   3  -8 394.315 41.9412   3
  -8  -3   8 30.3082 5.70150   1
   8  -3  -8 39.9648 7.18769   1
  -8  -3   8 47.3017 8.33094   1
   8  -3  -8 38.5214 4.96529   2
   8  -3  -8 34.6169 6.37360   1
  -8   3   8 36.2976 4.76142   2
  -8   3   8 42.9654 7.65321   1
   8   3  -8 39.7416 5.02985   2
   8   3  -8 41.1541 7.35917   1
   8   3  -8 43.0044 7.63633   1
  -8   3   8 39.0164 7.05188   1
  -8   3   8 43.3993 4.66584   3
   7  -3  -8 70.9344 13.0776   1
   7  -3  -8 93.2820 9.94293   3
   7  -3  -8 78.3298 10.0514   2
   7  -3  -8 59.2043 11.3408   1
  -7  -3   8 104.578 18.2670   1
   7   3  -8 94.4319 10.1828   3
   7   3  -8 94.6945 11.4840   2
   7   3  -8 88.9059 15.8076   1
  -7   3   8 89.6543 15.9421   1
  -7   3   8 78.4677 10.0612   2
  -7   3   8 90.4230 16.0621   1
   7   3  -8 103.613 18.1170   1
  -6  -3   8 339.341 37.1862   3
   6  -3  -8 348.887 37.7541   3
   6  -3  -8 396.965 69.5216   1
   6  -3  -8 325.823 40.7382   2
   6  -3  -8 343.418 61.1423   1
  -6  -3   8 328.414 58.8132   1
  -6   3   8 397.416 47.2415   2
   6   3  -8 297.546 54.0919   1
  -6   3   8 354.888 38.1890   3
  -6   3   8 304.454 55.1635   1
   6   3  -8 306.055 34.8752   3
   6   3  -8 329.414 41.0353   2
   6   3  -8 401.424 70.2147   1
  -6   3   8 292.451 53.3287   1
   5  -3  -8 4.13582 0.84819   1
  -5  -3   8 2.71804 0.61127   1
   5  -3  -8 4.20248 0.84439   1
   5  -3  -8 3.19692 0.51467   3
  -5  -3   8 3.34467 0.67299   3
   5  -3  -8 3.90025 0.77177   2
   5   3  -8 3.70881 0.73697   3
   5   3  -8 3.21431 0.66640   1
   5   3  -8 3.11126 0.58951   2
  -5   3   8 2.89540 0.68523   2
  -5   3   8 3.76307 0.57362   3
   5   3  -8 2.18912 0.59758   1
  -5   3   8 2.97314 0.66590   1
  -5   3   8 3.08007 0.69778   1
   4  -3  -8 55.4690 7.06475   2
   4  -3  -8 66.6525 11.7539   1
   4  -3  -8 76.4709 13.3117   1
   4  -3  -8 58.0065 6.43447   3
  -4  -3   8 45.3719 5.67177   3
  -4   3   8 57.7153 10.3631   1
   4   3  -8 64.7086 11.4328   1
   4   3  -8 52.9383 6.82514   2
   4   3  -8 74.1186 7.74314   3
  -4   3   8 57.9708 6.44936   3
  -4   3   8 66.3781 11.7083   1
   4   3  -8 79.4421 13.7717   1
  -4   3   8 55.9424 7.12368   2
   3  -3  -8 28.1242 5.11734   1
   3  -3  -8 30.4147 3.39626   3
   3  -3  -8 24.2417 3.30554   2
   3  -3  -8 37.1769 6.52664   1
  -3  -3   8 33.4523 3.70293   3
   3   3  -8 31.9916 5.70265   1
   3   3  -8 30.0138 3.81358   2
  -3   3   8 25.3036 3.05583   3
   3   3  -8 26.9391 4.92127   1
  -3   3   8 30.4454 5.48491   1
  -3   3   8 30.9836 3.90939   2
   3   3  -8 30.9224 3.54573   3
  -3   3   8 32.5175 5.79191   1
   2  -3  -8 2.32793 0.52439   2
   2  -3  -8 2.40911 0.55947   1
  -2  -3   8 2.11706 0.58385   3
   2  -3  -8 2.32280 0.53275   1
   2  -3  -8 1.33516 0.43655   3
  -2  -3   8 2.55550 0.56904   1
   2   3  -8 1.06460 0.42904   1
  -2   3   8 2.93510 0.58402   2
   2   3  -8 2.27140 0.63979   3
  -2   3   8 1.81194 0.50554   1
   2   3  -8 1.81189 0.49858   1
  -1  -3   8 191.342 36.0614   1
   1  -3  -8 291.328 51.3347   1
   1  -3  -8 223.407 40.8459   1
   1  -3  -8 263.134 28.7684   3
  -1  -3   8 263.506 46.9862   1
  -1  -3   8 298.889 31.4347   3
   1   3  -8 224.935 26.2072   3
  -1   3   8 289.832 30.7068   3
  -1   3   8 331.128 38.7783   2
   0  -3   8 306.528 29.8936   3
   0  -3   8 211.513 25.6099   2
   0  -3  -8 212.349 37.4595   1
   0  -3   8 139.261 26.3442   1
   0  -3   8 197.021 35.0855   1
   0  -3  -8 171.985 31.2295   1
   0  -3  -8 214.896 22.7601   3
   0   3  -8 170.974 19.7311   3
   0   3   8 174.627 19.9093   3
   0   3  -8 195.171 24.1394   2
   1  -3   8 351.992 38.4745   3
  -1  -3  -8 368.389 39.5926   3
   1  -3   8 302.668 55.1606   1
   1  -3   8 347.347 62.0053   1
   1  -3   8 446.335 52.1669   2
  -1   3  -8 345.691 42.8678   2
   1   3   8 394.052 69.2856   1
   1   3   8 304.693 55.4946   1
  -1   3  -8 327.939 36.8015   3
   1   3   8 317.446 36.0241   3
   2  -3   8 401.785 43.7501   3
   2  -3   8 391.432 48.5304   2
  -2  -3  -8 420.473 51.1162   2
   2  -3   8 406.747 72.2629   1
   2  -3   8 402.835 71.6668   1
  -2   3  -8 494.173 57.9437   2
  -2   3  -8 317.708 38.0190   3
   2   3   8 374.764 47.0415   2
   2   3   8 537.912 92.9732   1
  -2   3  -8 369.155 66.4979   1
   2   3   8 375.668 67.4679   1
   3  -3   8 66.2266 11.9098   1
   3  -3   8 71.1417 7.80058   3
  -3  -3  -8 67.3924 12.0880   1
  -3  -3  -8 58.1954 10.6682   1
   3  -3   8 65.6906 11.8294   1
   3  -3   8 66.2289 8.38061   2
  -3  -3  -8 88.0078 9.00484   3
  -3   3  -8 55.9612 7.48077   2
   3   3   8 79.4792 9.59527   2
   3   3   8 77.4549 8.22528   3
   3   3   8 59.8407 10.9214   1
   3   3   8 65.7535 11.8242   1
  -3   3  -8 52.9625 9.89832   1
  -3   3  -8 52.1932 9.78664   1
  -3   3  -8 77.6129 8.29822   3
  -4  -3  -8 28.9945 5.29872   1
  -4  -3  -8 29.1608 3.36060   3
   4  -3   8 33.5811 6.00807   1
   4  -3   8 33.0937 4.18488   2
   4  -3   8 29.9960 5.45084   1
   4  -3   8 35.2708 3.86705   3
  -4  -3  -8 36.2679 6.41568   1
   4   3   8 28.9844 3.80956   2
  -4   3  -8 26.9240 4.98164   1
  -4   3  -8 24.1599 3.41578   2
   4   3   8 32.1992 5.77572   1
   4   3   8 31.9267 3.61369   3
  -5  -3  -8 22.0729 2.56977   3
   5   3   8 24.7611 2.80846   3
   5   3   8 22.7989 3.04798   2
  -5   3  -8 19.8878 2.51755   3
   6  -3   8 3.18739 0.77312   2
  -6  -3  -8 3.73727 0.67500   3
  -6  -3  -8 2.91478 0.72491   2
   6   3   8 3.07649 0.66757   3
   6   3   8 4.11380 0.84379   2
  -7  -3  -8 1.73191 0.41618   3
  -7  -3  -8 1.31373 0.67013   2
   7  -3   8 2.62187 0.73608   2
   7   3   8 1.91697 0.61452   2
   7   3   8 0.99776 0.45242   3
  -7   3  -8 1.31812 0.62508   2
  -8  -3  -8 48.0859 6.15005   2
   8  -3   8 47.4120 6.05824   2
  -8  -3  -8 42.3962 4.91839   3
  -8   3  -8 46.7921 6.01628   2
   8   3   8 49.0965 5.41293   3
   8   3   8 43.1540 5.67482   2
   9  -3   8 412.204 48.2901   2
  -9  -3  -8 276.020 36.0001   2
   9   3   8 338.022 36.4870   3
   9   3   8 276.855 36.0372   2
  -9   3  -8 379.860 45.2520   2
 -10  -3  -8 3.21456 0.91899   2
 -10  -3  -8 3.13213 0.62483   3
  10  -3   8 3.00819 0.88738   2
  10   3   8 3.88781 0.95904   2
 -10   3  -8 4.28139 0.97597   2
  10   3   8 2.95616 0.65710   3
  11  -3   8 7.49993 1.34664   2
 -11  -3  -8 8.54588 1.47149   2
 -11   3  -8 6.54689 1.26493   2
  11   3   8 8.75511 1.45256   2
  12  -3   8 164.581 21.3454   2
 -12   3  -8 220.211 26.3445   2
  13  -3   8 17.5170 2.43383   2
 -13   3  -8 12.3397 1.95238   2
  14  -3   8 3.73840 0.97288   2
 -14   3  -8 4.28938 1.03344   2
  15  -3   8 15.5410 2.32591   2
 -15   3  -8 15.9773 2.30450   2
  18  -4  -8 0.98617 0.59706   2
  17  -4  -8 24.9967 3.42609   2
  16  -4  -8 33.1192 4.41647   2
  15  -4  -8 40.6912 5.33765   2
  14  -4  -8 15.3664 2.23140   2
 -14  -4   8 13.9587 1.92202   3
  14   4  -8 14.5654 2.01213   3
 -13  -4   8 30.8105 3.44386   3
  13  -4  -8 18.3111 2.73416   2
  13   4  -8 23.8729 2.98753   3
 -12  -4   8 78.8661 9.02439   3
  12  -4  -8 84.0314 10.5449   2
  12   4  -8 80.8278 9.17662   3
 -11  -4   8 0.24282 0.55463   3
 -11   4   8 -0.3361 0.55520   2
  11   4  -8 1.15034 0.73557   3
 -10  -4   8 4.78411 0.87295   3
 -10   4   8 4.56439 0.88052   2
  10   4  -8 3.63221 0.83576   3
  -9  -4   8 1.23928 0.63295   3
  -9   4   8 1.05840 0.51729   2
   9   4  -8 1.10325 0.69092   3
   8  -4  -8 21.9460 2.86735   2
  -8  -4   8 16.0392 2.17095   3
  -8   4   8 20.0741 2.28888   3
  -7  -4   8 130.497 14.3327   3
   7  -4  -8 131.206 16.2018   2
   7   4  -8 120.790 13.6570   3
  -7   4   8 120.689 15.2514   2
  -7   4   8 127.733 14.0139   3
   6  -4  -8 227.787 24.2995   3
  -6  -4   8 251.923 44.0342   1
  -6  -4   8 235.239 24.9589   3
  -6   4   8 210.690 23.0855   3
  -6   4   8 191.832 24.4197   2
   6   4  -8 181.607 21.1670   3
  -5  -4   8 0.52217 0.20686   1
  -5  -4   8 0.02794 0.20510   1
  -5  -4   8 -0.7030 0.51924   3
   5  -4  -8 0.30438 0.38717   3
   5  -4  -8 0.40885 0.31022   1
  -5   4   8 0.92890 0.41272   3
   5   4  -8 1.05285 0.60991   3
  -5   4   8 0.86128 0.40734   2
   4  -4  -8 165.730 29.1643   1
  -4  -4   8 145.762 26.0407   1
  -4  -4   8 149.182 16.3989   3
   4  -4  -8 94.7032 18.4217   1
   4   4  -8 186.706 19.1939   3
  -4   4   8 197.107 34.1398   1
   4   4  -8 141.643 25.4031   1
   3  -4  -8 302.796 33.3477   3
   3  -4  -8 348.148 61.1913   1
  -3  -4   8 288.791 32.4584   3
  -3  -4   8 311.815 55.5140   1
   3   4  -8 331.605 58.5948   1
   3   4  -8 288.805 32.4786   3
  -3   4   8 328.205 35.1736   3
   3   4  -8 280.044 50.6186   1
  -3   4   8 322.773 57.2178   1
   2  -4  -8 54.8752 5.75586   3
  -2  -4   8 28.1814 5.52619   1
  -2  -4   8 54.8407 5.85331   3
   2  -4  -8 44.2755 7.94755   1
  -2   4   8 43.1610 7.76766   1
  -2   4   8 47.4062 5.20607   3
   2   4  -8 35.1329 6.54419   1
  -2   4   8 44.6822 8.00832   1
   2   4  -8 47.9008 8.50248   1
   1  -4  -8 15.0653 2.82740   1
  -1  -4   8 18.6452 2.27789   3
   1  -4  -8 18.1843 2.14184   3
   1   4  -8 16.3989 2.16347   3
  -1   4   8 25.1288 4.40911   1
   0  -4  -8 0.47076 0.27048   1
   0  -4   8 0.92228 0.34104   1
   0  -4   8 0.92689 0.49711   3
   0  -4  -8 1.35852 0.49225   3
   0  -4  -8 0.64068 0.28914   1
   0   4   8 0.24400 0.53184   3
   0   4  -8 0.70189 0.65847   3
   1  -4   8 1.00448 0.54164   3
  -1  -4  -8 0.95361 0.33121   1
  -1  -4  -8 0.14767 0.41721   3
   1   4   8 0.46460 0.51959   3
  -1   4  -8 0.40969 0.61703   3
   2  -4   8 -0.1919 0.53577   3
  -2  -4  -8 0.19453 0.42565   3
  -2   4  -8 0.17171 0.40471   2
   2   4   8 -0.0572 0.45620   3
  -2   4  -8 -0.4133 0.58825   3
   3  -4   8 3.96615 0.82595   3
  -3  -4  -8 3.45814 0.67299   3
  -3   4  -8 4.71409 0.85907   2
   3   4   8 2.74773 0.70333   3
  -4  -4  -8 61.4882 6.99227   3
   4  -4   8 71.1629 8.78198   2
  -4   4  -8 64.6843 8.20191   2
   4   4   8 61.6302 7.02463   3
   5  -4   8 139.482 17.5145   2
  -5  -4  -8 162.848 17.1858   3
  -5   4  -8 129.702 16.6802   2
   6  -4   8 102.584 12.8031   2
  -6  -4  -8 120.822 12.5962   3
   6   4   8 130.443 13.3600   3
  -6   4  -8 75.7966 10.4925   2
  -7  -4  -8 0.37571 0.42158   3
   7  -4   8 -0.4820 0.45756   2
   7   4   8 -0.2266 0.65039   3
  -7   4  -8 -0.3196 0.51781   2
  -8  -4  -8 7.42570 1.11319   3
   8  -4   8 9.99928 1.61120   2
   8   4   8 7.90933 1.21310   3
  -8   4  -8 6.76488 1.26547   2
  -9  -4  -8 161.934 17.7592   3
   9   4   8 158.929 17.5758   3
  -9   4  -8 156.755 19.7270   2
 -10  -4  -8 14.5381 1.77802   3
 -10   4  -8 12.9811 2.00700   2
 -11  -4  -8 1.67201 0.47382   3
  11   4   8 0.54597 0.54909   3
 -11   4  -8 1.66748 0.73115   2
 -12   4  -8 8.15129 1.44803   2
 -13   4  -8 5.64299 1.16777   2
 -15  -5   8 0.01123 0.61870   3
 -14  -5   8 1.28677 0.70611   3
  14   5  -8 1.26556 0.78459   3
 -13  -5   8 8.90764 1.39854   3
  13   5  -8 5.33337 1.24176   3
 -12  -5   8 5.65058 1.13191   3
  12   5  -8 4.87538 1.09410   3
 -11  -5   8 14.8686 1.98454   3
  11   5  -8 13.6353 1.96895   3
 -10  -5   8 3.87319 0.93314   3
  10   5  -8 3.76546 1.00012   3
  -9  -5   8 0.47853 0.61775   3
  -8  -5   8 4.29781 0.88283   3
   8   5  -8 4.63063 1.03638   3
  -7  -5   8 14.9260 2.08655   3
   7  -5  -8 19.6645 2.30671   3
  -7   5   8 21.5255 2.47062   3
   7   5  -8 21.3823 2.61435   3
  -6  -5   8 7.48628 1.16483   3
   6   5  -8 5.17809 1.09834   3
  -6   5   8 5.88287 0.89156   3
  -5  -5   8 3.96666 0.86623   3
   5  -5  -8 4.00157 0.70702   3
   5   5  -8 4.51565 0.93838   3
  -5   5   8 2.85063 0.69442   3
  -4  -5   8 11.9347 1.62744   3
   4  -5  -8 9.76746 1.30926   3
  -4   5   8 11.0212 1.45102   3
   4   5  -8 10.9385 1.62092   3
   3  -5  -8 50.3598 5.69449   3
  -3  -5   8 45.2211 5.44880   3
  -3   5   8 59.2106 6.36465   3
   2  -5  -8 13.3830 1.75245   3
  -2  -5   8 15.3195 2.01653   3
   2   5  -8 16.9044 2.15760   3
  -2   5   8 17.3043 2.09167   3
  -1  -5   8 14.2022 1.89003   3
   1   5  -8 16.7598 2.16781   3
  -1   5   8 12.6411 1.69629   3
   0  -5   8 18.0060 2.42590   3
   0  -5  -8 22.7256 2.63976   3
   0   5  -8 24.9449 2.96308   3
   1  -5   8 0.63031 0.61729   3
  -1  -5  -8 0.90713 0.45036   3
   1   5   8 0.69907 0.51003   3
  -1   5  -8 -0.8884 0.64625   3
  -2  -5  -8 3.73857 0.76018   3
   2  -5   8 4.81399 0.95411   3
  -2   5  -8 5.04127 1.09862   3
   2   5   8 4.45840 0.87229   3
  -3  -5  -8 18.5387 2.22969   3
  -3   5  -8 16.0737 2.27621   3
   3   5   8 19.7342 2.34932   3
   4  -5   8 31.6602 3.73776   3
  -4  -5  -8 24.9139 3.11945   3
  -4   5  -8 36.5664 4.16837   3
   4   5   8 31.1023 3.58264   3
   5   5   8 9.48226 1.35699   3
  -6  -5  -8 102.086 11.3619   3
  -7  -5  -8 22.9462 2.79814   3
   7   5   8 26.8800 3.14017   3
  -8  -5  -8 1.76234 0.55629   3
   8   5   8 1.37942 0.68490   3
  -9  -5  -8 8.15189 1.16192   3
   9   5   8 6.14883 1.10670   3
  10   5   8 3.29871 0.80039   3
  11   5   8 -0.0707 0.59426   3
 -13  -6   8 12.1139 1.69906   3
  13   6  -8 11.9679 1.82695   3
 -12  -6   8 0.69892 0.65574   3
  12   6  -8 0.24685 0.77480   3
 -11  -6   8 3.87124 0.91214   3
  11   6  -8 3.44190 0.98536   3
 -10  -6   8 0.27692 0.65597   3
  10   6  -8 -1.0326 0.73643   3
   9   6  -8 0.79258 0.81753   3
  -8  -6   8 10.7856 1.62039   3
   8   6  -8 12.2252 1.79280   3
  -7  -6   8 34.6222 3.89197   3
   7   6  -8 20.5583 2.91121   3
   6  -6  -8 12.6005 1.64524   3
  -6  -6   8 12.2372 1.75932   3
   6   6  -8 16.4391 2.12941   3
  -6   6   8 11.9184 1.58722   3
  -5  -6   8 54.0422 6.10374   3
   5   6  -8 47.4444 5.65965   3
  -5   6   8 50.5018 5.75812   3
  -4  -6   8 1.86873 0.76795   3
   4  -6  -8 3.95718 0.71213   3
  -4   6   8 3.57679 0.78590   3
   3  -6  -8 14.5356 1.82692   3
  -3  -6   8 15.3881 2.05429   3
  -3   6   8 13.5545 1.81439   3
   3   6  -8 15.7994 2.14781   3
   2  -6  -8 30.7851 3.44015   3
  -2  -6   8 24.4190 3.12232   3
   2   6  -8 25.5631 3.25346   3
  -2   6   8 26.6586 3.17175   3
   1  -6  -8 8.86704 1.15998   3
  -1  -6   8 4.11895 0.92989   3
  -1   6   8 6.16429 1.06534   3
   1   6  -8 5.73775 1.17357   3
   0  -6   8 0.07669 0.54157   3
   0   6  -8 -0.2298 0.71947   3
   0   6   8 -0.4742 0.58869   3
   1  -6   8 0.28900 0.65764   3
  -1  -6  -8 -0.0603 0.47220   3
  -1   6  -8 0.54126 0.79132   3
  -2  -6  -8 16.8551 2.19542   3
   2  -6   8 21.1000 2.66508   3
   2   6   8 17.6253 2.27488   3
  -2   6  -8 21.2386 2.67770   3
   3  -6   8 1.50072 0.79187   3
  -3  -6  -8 1.01036 0.52879   3
   3   6   8 1.20586 0.61334   3
  -3   6  -8 0.21157 0.78784   3
  -4  -6  -8 0.03837 0.41990   3
   4   6   8 0.46003 0.64678   3
  -5  -6  -8 74.0549 8.07339   3
   5   6   8 63.5021 7.35279   3
   6   6   8 0.93275 0.64650   3
  -7  -6  -8 0.34065 0.43740   3
   7   6   8 0.07424 0.60184   3
  -8  -6  -8 28.7086 3.38024   3
   8   6   8 29.2248 3.47090   3
  -9  -6  -8 1.20879 0.49291   3
   9   6   8 0.28909 0.61464   3
 -11  -7   8 10.8189 1.59291   3
  11   7  -8 12.2438 1.78187   3
 -10  -7   8 7.07581 1.14923   3
  -9  -7   8 0.53542 0.63350   3
   9   7  -8 -0.9306 0.74555   3
  -8  -7   8 6.67737 1.15144   3
   8   7  -8 6.04988 1.22296   3
  -7  -7   8 2.30502 0.78897   3
   7   7  -8 2.26954 0.88963   3
  -6  -7   8 5.65877 1.06686   3
   6   7  -8 4.35556 1.10370   3
  -5  -7   8 8.90014 1.46533   3
   5  -7  -8 9.29479 1.34359   3
  -5   7   8 7.77873 1.20128   3
  -4  -7   8 0.99435 0.77210   3
  -4   7   8 2.33656 0.69988   3
   4   7  -8 2.17993 0.80673   3
  -3  -7   8 2.83395 0.80897   3
   3  -7  -8 1.65420 0.61425   3
  -3   7   8 2.40610 0.64844   3
   3   7  -8 1.46908 0.82518   3
   2  -7  -8 0.34316 0.45413   3
  -2  -7   8 -0.4034 0.66344   3
   2   7  -8 1.68470 0.85173   3
  -2   7   8 0.99184 0.60960   3
  -1  -7   8 1.21967 0.76058   3
   1  -7  -8 1.36246 0.53744   3
  -1   7   8 0.52888 0.57377   3
   1   7  -8 1.95242 0.88813   3
   0  -7   8 11.2757 1.79226   3
   0  -7  -8 15.7850 1.90060   3
   0   7   8 14.3187 1.81931   3
   1  -7   8 50.9477 5.84954   3
   1   7   8 46.8545 5.37942   3
  -1   7  -8 44.3658 5.37101   3
  -2  -7  -8 31.4771 3.66677   3
  -3  -7  -8 1.15957 0.52803   3
   3   7   8 2.92528 0.77068   3
  -4  -7  -8 0.76669 0.44944   3
   4   7   8 0.60994 0.60093   3
  -5  -7  -8 2.13217 0.62082   3
   5   7   8 2.42202 0.74866   3
  -6  -7  -8 7.37357 1.13437   3
   6   7   8 9.33453 1.35658   3
  -7  -7  -8 1.72078 0.58279   3
 -22   0   9 -0.8097 0.71571   2
  21   0  -9 0.22752 0.55861   2
 -21   0   9 -0.6502 0.68762   2
 -20   0   9 0.40168 0.73966   2
  20   0  -9 -0.7975 0.52746   2
  19   0  -9 -0.6351 0.59332   2
  18   0  -9 -0.3898 0.66998   2
 -17   0   9 -0.1426 0.59194   2
  17   0  -9 1.03898 0.68066   2
 -16   0   9 -0.5060 0.57453   2
 -15   0   9 -0.3008 0.47260   2
  14   0  -9 0.27217 0.51976   2
 -14   0   9 -0.0904 0.45853   2
 -13   0   9 -1.0174 0.52985   2
  13   0  -9 -0.3536 0.45295   2
 -12   0   9 0.07451 0.41637   1
 -12   0   9 0.06148 0.51325   2
  12   0  -9 0.09517 0.48293   2
 -11   0   9 0.97517 0.40453   1
 -11   0   9 3.33409 0.74514   1
  11   0  -9 -0.4922 0.39815   1
  10   0  -9 0.51370 0.52028   2
 -10   0   9 0.66916 0.37129   1
  10   0  -9 0.28552 0.36211   1
 -10   0   9 0.45450 0.52904   2
 -10   0   9 0.35380 0.34250   3
 -10   0   9 -0.4885 0.33560   1
  10   0  -9 -0.4135 0.29718   1
  -9   0   9 -0.4442 0.30563   1
  -9   0   9 0.42440 0.39467   1
  -9   0   9 0.49459 0.28422   3
  -9   0   9 0.12904 0.41186   2
   9   0  -9 -0.4953 0.34490   1
   9   0  -9 0.16304 0.43231   2
   9   0  -9 0.14014 0.31988   1
   8   0  -9 0.00000 0.27905   3
   8   0  -9 0.03418 0.48667   2
  -8   0   9 0.06536 0.22510   3
   8   0  -9 0.04738 0.29739   1
   8   0  -9 -0.3913 0.33673   1
  -8   0   9 -0.7325 0.30867   1
  -8   0   9 -1.0355 0.39756   1
  -8   0   9 -0.2036 0.39996   2
  -7   0   9 0.98631 0.48749   2
   7   0  -9 9.13269 1.64138   1
   6   0  -9 0.00943 0.30487   1
   6   0  -9 0.49177 0.43466   2
  -6   0   9 0.37667 0.36992   2
   6   0  -9 -0.4872 0.31191   1
  -6   0   9 -0.0274 0.22214   3
   6   0  -9 0.00859 0.24372   3
  -6   0   9 0.62239 0.40696   1
  -6   0   9 -0.5907 0.29473   1
   5   0  -9 0.70356 0.35912   1
   5   0  -9 1.41929 0.44484   1
   5   0  -9 -0.0518 0.42514   2
  -5   0   9 0.75306 0.32223   1
  -5   0   9 0.59965 0.39779   1
  -5   0   9 -0.1085 0.46280   2
  -5   0   9 0.37892 0.22592   3
  -4   0   9 -0.4345 0.28925   1
   4   0  -9 -0.3369 0.31097   1
   4   0  -9 -0.3626 0.35608   2
   4   0  -9 0.47313 0.34686   1
  -4   0   9 -0.5424 0.33295   2
  -4   0   9 1.02963 0.38801   1
   4   0  -9 0.12115 0.25772   3
  -4   0   9 -0.1621 0.29044   3
   3   0  -9 1.72772 0.44902   1
  -3   0   9 -0.2832 0.32317   1
  -3   0   9 -0.1619 0.37101   2
   3   0  -9 -0.5834 0.43812   2
   3   0  -9 -0.7850 0.38785   1
  -3   0   9 0.24102 0.28288   3
  -3   0   9 -0.5671 0.31995   1
  -2   0   9 -0.4073 0.27399   1
  -2   0   9 -0.1416 0.39982   2
   2   0  -9 0.02990 0.30332   1
   2   0  -9 0.22658 0.24878   3
  -2   0   9 0.05535 0.35974   1
   2   0  -9 0.88475 0.38416   1
   2   0  -9 -0.1041 0.35770   2
  -2   0   9 0.05968 0.26945   3
  -1   0   9 -0.0749 0.23597   3
   1   0  -9 -0.3783 0.26510   1
   1   0  -9 0.00000 0.22238   3
  -1   0   9 0.82813 0.34286   1
  -1   0   9 0.18111 0.40910   2
  -1   0   9 -0.0682 0.29656   1
   1   0  -9 0.34652 0.37436   2
   1   0  -9 -0.0389 0.31415   1
   0   0  -9 0.22374 0.32395   1
   0   0   9 0.22193 0.31216   1
   0   0   9 -0.0721 0.46035   2
   0   0  -9 0.03651 0.46627   2
   0   0  -9 0.03097 0.22605   3
   0   0  -9 0.38747 0.35109   1
   0   0   9 0.12044 0.33497   1
   0   0   9 0.10958 0.24609   3
   1   0   9 -0.0843 0.26720   1
   1   0   9 -0.6976 0.45678   2
  -1   0  -9 -0.1774 0.33754   1
   1   0   9 0.30672 0.25533   3
  -1   0  -9 0.97749 0.39050   1
  -1   0  -9 0.99391 0.47951   2
   1   0   9 -0.4064 0.33265   1
   2   0   9 -0.7672 0.34658   1
   2   0   9 -0.2038 0.45033   2
   2   0   9 1.41626 0.46081   1
  -2   0  -9 -0.1579 0.55122   2
   2   0   9 0.00832 0.24285   3
  -2   0  -9 0.48434 0.37207   1
  -2   0  -9 0.00789 0.21730   3
  -2   0  -9 -0.3322 0.29887   1
  -3   0  -9 0.18208 0.22454   3
  -3   0  -9 0.19305 0.37640   1
   3   0   9 -0.3041 0.34349   1
  -3   0  -9 -0.4914 0.28759   1
  -3   0  -9 -0.3086 0.42097   2
   3   0   9 0.10139 0.43148   2
   3   0   9 0.50318 0.37535   1
   3   0   9 -0.0417 0.22976   3
   4   0   9 0.48833 0.29412   3
  -4   0  -9 0.85492 0.47402   1
   4   0   9 0.41739 0.41596   1
   4   0   9 -0.4297 0.59119   2
   4   0   9 0.31710 0.43004   1
  -4   0  -9 0.22361 0.24680   3
  -4   0  -9 -0.2113 0.57095   2
  -4   0  -9 0.48461 0.47058   1
  -5   0  -9 0.17457 0.38745   1
   5   0   9 -0.0166 0.48872   2
   5   0   9 0.13326 0.40743   1
   5   0   9 -0.3138 0.30933   3
   5   0   9 1.38289 0.48882   1
  -5   0  -9 -0.0607 0.41248   1
  -5   0  -9 -0.2974 0.26712   3
  -5   0  -9 0.71001 0.50716   2
   6   0   9 -0.1772 0.38390   1
   6   0   9 -0.2443 0.28998   3
  -6   0  -9 -0.5641 0.47005   2
   6   0   9 0.54418 0.50207   2
  -6   0  -9 0.54248 0.42547   1
  -6   0  -9 0.25333 0.41052   1
   6   0   9 0.48054 0.43019   1
  -7   0  -9 -0.1934 0.33332   3
  -7   0  -9 -0.1510 0.51083   2
   7   0   9 0.64030 0.34377   3
   7   0   9 0.47108 0.62797   2
  -8   0  -9 -0.1264 0.48104   2
   8   0   9 -0.2661 0.49005   2
  -9   0  -9 0.25066 0.55395   2
   9   0   9 0.01641 0.59630   2
  10   0   9 0.38990 0.54335   2
 -10   0  -9 0.56549 0.55622   2
 -11   0  -9 -0.5006 0.61453   2
  11   0   9 -0.0322 0.52255   2
 -12   0  -9 -0.7738 0.60797   2
 -13   0  -9 -0.6099 0.65883   2
 -14   0  -9 0.36562 0.64412   2
  14   0   9 0.59125 0.58153   2
  15   0   9 0.04817 0.63071   2
  16   0   9 0.31648 0.65303   2
  22  -1  -9 2.26685 0.89260   2
 -22   1   9 2.68712 0.91539   2
 -21  -1   9 3.97695 1.09740   2
  21  -1  -9 4.75353 1.11429   2
  21   1  -9 6.49443 1.20597   2
 -21   1   9 5.72618 1.20228   2
  20  -1  -9 19.6791 2.89718   2
 -20  -1   9 24.8110 3.39189   2
 -20   1   9 23.5857 3.27574   2
  20   1  -9 24.2929 3.32582   2
 -19  -1   9 3.61776 0.98711   2
  19  -1  -9 2.05788 0.77529   2
 -19   1   9 4.12703 1.02804   2
  19   1  -9 2.93454 0.82078   2
  18  -1  -9 9.09855 1.54127   2
 -18  -1   9 10.2613 1.66142   2
  18   1  -9 9.28663 1.54002   2
 -18   1   9 9.44095 1.57386   2
  17  -1  -9 5.87378 1.18999   2
 -17  -1   9 6.80726 1.24465   2
 -17   1   9 8.15651 1.37245   2
  17   1  -9 6.78925 1.23545   2
 -16  -1   9 2.90371 0.76875   2
  16  -1  -9 2.92383 0.82639   2
 -16   1   9 2.68514 0.75879   2
  16   1  -9 2.39403 0.78857   2
 -15  -1   9 106.707 13.1652   2
  15  -1  -9 110.690 13.5417   2
 -15   1   9 106.409 13.1192   2
  15   1  -9 82.0651 11.0013   2
  14  -1  -9 205.859 25.8590   2
 -14  -1   9 227.753 27.8020   2
 -14   1   9 238.376 28.7715   2
  14   1  -9 187.675 24.2525   2
 -13  -1   9 24.6626 3.39362   2
  13  -1  -9 29.2637 3.82484   2
  13   1  -9 31.9086 4.05945   2
 -13   1   9 26.8565 3.60065   2
 -12  -1   9 73.3944 8.00806   3
 -12  -1   9 77.4256 9.46681   2
  12  -1  -9 67.2699 8.59442   2
 -12   1   9 63.3260 8.21204   2
  12   1  -9 64.0848 8.28559   2
 -11  -1   9 424.594 46.0842   3
 -11  -1   9 412.310 73.6090   1
  11  -1  -9 355.206 64.8426   1
 -11  -1   9 383.109 69.1113   1
  11  -1  -9 399.537 71.6373   1
 -11  -1   9 447.797 54.2703   2
  11  -1  -9 411.970 51.0506   2
 -11   1   9 426.283 75.7637   1
 -11   1   9 369.193 47.2769   2
  11   1  -9 459.177 80.8801   1
  11   1  -9 487.220 85.3100   1
  11   1  -9 410.215 50.8782   2
 -11   1   9 450.404 79.5159   1
 -10  -1   9 78.4646 14.2159   1
 -10  -1   9 92.3846 9.96249   3
 -10  -1   9 81.6490 10.3728   2
  10  -1  -9 102.293 12.2654   2
  10  -1  -9 67.9613 12.6407   1
  10  -1  -9 100.617 17.6673   1
 -10  -1   9 80.9899 14.6179   1
  10   1  -9 89.8596 11.1014   2
 -10   1   9 90.0086 11.1346   2
  10   1  -9 54.3032 10.6286   1
  10   1  -9 87.1688 9.59027   3
 -10   1   9 82.6516 14.8732   1
 -10   1   9 96.0818 16.9562   1
  10   1  -9 106.338 18.5767   1
  -9  -1   9 33.5388 6.12178   1
  -9  -1   9 31.5685 5.80381   1
  -9  -1   9 43.1998 4.59921   3
   9  -1  -9 34.8960 6.31908   1
   9  -1  -9 30.8305 4.18134   2
  -9  -1   9 37.3617 4.73647   2
   9  -1  -9 36.1578 6.52423   1
  -9   1   9 34.0443 6.19538   1
  -9   1   9 36.3248 4.00497   3
  -9   1   9 35.3442 4.56138   2
   9   1  -9 34.6614 4.49474   2
   9   1  -9 41.3032 7.32435   1
   9   1  -9 35.9778 4.08492   3
  -9   1   9 32.3169 5.94082   1
   9   1  -9 39.8171 7.08619   1
  -8  -1   9 0.14158 0.34448   3
  -8  -1   9 -0.2986 0.32870   1
   8  -1  -9 1.17887 0.25213   3
   8  -1  -9 0.43243 0.40238   1
  -8  -1   9 -0.0739 0.31650   1
   8  -1  -9 -0.2387 0.27979   1
   8  -1  -9 -0.5086 0.40308   2
  -8  -1   9 0.03116 0.36753   2
  -8   1   9 0.55798 0.35406   1
   8   1  -9 0.88192 0.39553   1
  -8   1   9 0.53205 0.24156   3
   8   1  -9 0.39821 0.30858   1
  -8   1   9 0.01910 0.34549   1
  -8   1   9 0.18447 0.44490   2
   8   1  -9 -0.0680 0.48441   2
   8   1  -9 -0.2209 0.36614   3
   7  -1  -9 -0.0222 0.18021   3
   7  -1  -9 1.10286 0.45268   2
  -7  -1   9 0.48504 0.30169   1
   7  -1  -9 0.43014 0.31825   1
  -7  -1   9 -0.1984 0.35726   2
   7  -1  -9 0.14243 0.34839   1
  -7  -1   9 -0.3612 0.35131   3
  -7  -1   9 -0.2760 0.30942   1
   7   1  -9 0.18137 0.35628   2
  -7   1   9 -0.0260 0.21816   3
  -7   1   9 -0.7510 0.35276   1
  -7   1   9 0.85667 0.45435   2
   7   1  -9 -0.3706 0.38780   1
   7   1  -9 0.57502 0.39729   3
   7   1  -9 0.28750 0.29173   1
  -7   1   9 0.15802 0.29181   1
   6  -1  -9 83.6102 10.5156   2
  -6  -1   9 102.720 10.6855   3
   6  -1  -9 87.4326 9.51465   3
  -6  -1   9 119.830 20.7224   1
   6  -1  -9 85.9361 15.3697   1
   6  -1  -9 78.1990 14.1736   1
  -6  -1   9 82.1360 14.7817   1
  -6   1   9 87.8138 9.54524   3
  -6   1   9 60.2712 11.4982   1
   6   1  -9 92.3184 16.3701   1
   6   1  -9 87.5914 15.6185   1
  -6   1   9 77.2371 9.93940   2
   6   1  -9 86.0497 10.7247   2
  -6   1   9 85.8785 15.3560   1
   5  -1  -9 111.514 20.1571   1
   5  -1  -9 148.355 17.5560   2
   5  -1  -9 119.266 13.1216   3
   5  -1  -9 125.228 22.2841   1
  -5   1   9 114.912 20.6722   1
  -5   1   9 112.368 14.2906   2
   5   1  -9 113.426 20.4502   1
  -5   1   9 94.1997 17.5480   1
   5   1  -9 132.757 14.1477   3
   5   1  -9 118.247 14.7959   2
  -5   1   9 119.249 13.1233   3
   5   1  -9 130.378 23.0747   1
   4  -1  -9 475.201 84.5527   1
   4  -1  -9 609.827 70.8700   2
   4  -1  -9 464.290 50.8156   3
  -4  -1   9 511.459 54.2301   3
   4  -1  -9 444.774 79.8456   1
   4   1  -9 457.359 56.8239   2
  -4   1   9 278.733 55.3399   1
  -4   1   9 489.592 52.6197   3
  -4   1   9 636.479 73.3900   2
   4   1  -9 454.210 81.3083   1
   4   1  -9 572.526 99.7932   1
   4   1  -9 529.976 55.6264   3
  -4   1   9 315.966 60.6053   1
   3  -1  -9 455.746 54.3576   2
   3  -1  -9 401.150 71.4185   1
  -3  -1   9 397.047 43.3368   3
  -3  -1   9 460.462 54.7840   2
   3  -1  -9 398.365 43.4258   3
   3  -1  -9 363.976 65.6874   1
   3   1  -9 388.145 42.7398   3
  -3   1   9 384.517 68.8370   1
  -3   1   9 362.733 65.5013   1
  -3   1   9 366.920 46.3497   2
   3   1  -9 367.304 66.1926   1
   3   1  -9 359.479 45.6935   2
   3   1  -9 407.807 72.4346   1
  -2  -1   9 131.004 14.8053   3
  -2  -1   9 124.383 16.0940   2
   2  -1  -9 146.892 26.1188   1
   2  -1  -9 228.378 39.0928   1
   2  -1  -9 167.095 17.3841   3
  -2  -1   9 187.513 32.5296   1
   2  -1  -9 144.862 17.8912   2
  -2  -1   9 157.961 27.8404   1
   2   1  -9 152.682 16.3520   3
   2   1  -9 130.530 23.6037   1
  -2   1   9 145.392 15.8058   3
  -2   1   9 117.108 15.4700   2
  -1  -1   9 384.081 48.5219   2
  -1  -1   9 402.590 72.0598   1
   1  -1  -9 517.281 90.0199   1
   1  -1  -9 384.683 48.5712   2
  -1  -1   9 399.109 71.5516   1
   1  -1  -9 488.599 85.4817   1
  -1  -1   9 444.635 47.4472   3
   1  -1  -9 436.653 46.8613   3
  -1   1   9 365.577 41.8910   3
   1   1  -9 439.222 47.0566   3
   0  -1  -9 59.2410 10.9793   1
   0  -1  -9 77.9684 8.39821   3
   0  -1   9 65.4442 11.9109   1
   0  -1   9 97.3161 16.9039   1
   0  -1  -9 62.3817 8.22719   2
   0  -1   9 70.2724 8.90747   2
   0  -1  -9 87.8903 15.4132   1
   0  -1   9 76.8034 8.33043   3
   0   1   9 83.6288 8.82173   3
   1  -1   9 49.8269 5.13856   3
   1  -1   9 33.5460 6.15577   1
   1  -1   9 42.2652 7.50520   1
   1  -1   9 35.2937 4.60823   2
  -1  -1  -9 52.4264 6.20903   2
  -1  -1  -9 34.0824 3.94669   3
   1   1   9 37.7471 6.79831   1
   1   1   9 32.8298 3.87247   3
  -1   1  -9 43.9385 4.67477   3
   1   1   9 31.9703 5.91427   1
  -1   1  -9 33.5315 4.45812   2
   2  -1   9 895.080 92.3738   3
  -2  -1  -9 916.188 107.758   2
   2  -1   9 673.606 121.869   1
  -2  -1  -9 925.988 94.6790   3
   2  -1   9 721.134 89.8703   2
   2  -1   9 868.479 152.118   1
  -2   1  -9 649.774 118.260   1
   2   1   9 721.211 79.7342   3
   2   1   9 613.867 80.6360   2
  -2   1  -9 813.066 143.431   1
   2   1   9 887.976 155.194   1
  -2   1  -9 633.219 82.2832   2
   2   1   9 681.359 123.050   1
  -2   1  -9 759.486 82.4314   3
   3  -1   9 13.9329 1.92709   2
   3  -1   9 13.3117 2.46599   1
  -3  -1  -9 12.1365 1.45978   3
   3  -1   9 10.9118 1.38594   3
   3  -1   9 13.3820 2.47045   1
  -3   1  -9 12.9589 2.40670   1
  -3   1  -9 13.3090 1.84420   2
   3   1   9 15.0199 2.04972   2
   3   1   9 14.3016 2.61601   1
  -3   1  -9 12.5936 1.50574   3
   3   1   9 10.8555 1.38981   3
  -3   1  -9 11.9312 2.24426   1
   4  -1   9 625.226 114.019   1
  -4  -1  -9 806.709 142.021   1
  -4  -1  -9 725.486 129.374   1
  -4  -1  -9 772.320 82.6262   3
   4  -1   9 753.959 133.790   1
   4  -1   9 720.052 89.1004   2
   4  -1   9 629.323 72.6590   3
   4   1   9 738.789 131.416   1
  -4   1  -9 502.499 95.8195   1
   4   1   9 679.788 122.343   1
  -4   1  -9 778.775 94.3949   2
   4   1   9 893.801 91.6018   3
   4   1   9 761.110 92.7929   2
  -4   1  -9 737.666 80.1607   3
  -4   1  -9 925.358 160.724   1
   5  -1   9 37.7577 4.24395   3
  -5  -1  -9 39.1192 7.05282   1
   5  -1   9 33.6521 6.20254   1
  -5  -1  -9 35.2920 6.44936   1
   5  -1   9 39.4086 7.08039   1
  -5  -1  -9 43.4045 4.64800   3
  -5   1  -9 35.1502 6.43989   1
  -5   1  -9 38.6614 4.32763   3
   5   1   9 31.6212 3.81920   3
   5   1   9 41.7376 5.25913   2
   5   1   9 46.0099 8.11719   1
  -5   1  -9 46.5672 8.20924   1
   5   1   9 35.9505 6.54757   1
  -6  -1  -9 7.39043 1.42621   1
   6  -1   9 5.43020 1.04892   2
  -6  -1  -9 5.44571 1.03450   2
   6  -1   9 5.21791 1.11444   1
  -6  -1  -9 6.05700 0.82156   3
  -6  -1  -9 5.13485 1.10236   1
   6   1   9 8.01864 1.27495   2
  -6   1  -9 5.74722 1.06654   2
  -6   1  -9 4.98911 0.78877   3
   6   1   9 5.79874 0.82016   3
   6   1   9 6.20302 1.24886   1
  -6   1  -9 7.12035 1.39304   1
   7  -1   9 634.709 78.6087   2
  -7  -1  -9 766.207 90.5963   2
   7   1   9 554.539 64.0073   3
   7   1   9 637.110 78.7939   2
  -7   1  -9 594.335 66.7007   3
  -7   1  -9 690.286 83.5777   2
   8  -1   9 181.011 22.3542   2
  -8  -1  -9 153.339 17.7362   3
  -8  -1  -9 198.743 23.9790   2
   8   1   9 172.625 19.0559   3
  -8   1  -9 156.596 20.1838   2
   8   1   9 204.745 24.5306   2
   9  -1   9 37.8803 4.99407   2
  -9  -1  -9 41.5324 5.33511   2
  -9   1  -9 37.8499 4.98539   2
   9   1   9 39.6353 5.14998   2
  10  -1   9 108.101 12.9714   2
 -10  -1  -9 74.9503 9.98847   2
 -10   1  -9 91.4615 11.4287   2
  10   1   9 87.4774 11.0747   2
 -11  -1  -9 17.0706 2.52626   2
  11  -1   9 22.6918 3.01849   2
 -11   1  -9 19.5793 2.71501   2
  11   1   9 18.0544 2.60111   2
 -12  -1  -9 -0.1970 0.70956   2
  12  -1   9 0.72365 0.72653   2
  12   1   9 0.77492 0.66596   2
 -12   1  -9 -0.6389 0.64278   2
  13  -1   9 9.23739 1.55269   2
 -13  -1  -9 11.3317 1.74555   2
 -13   1  -9 9.72675 1.58652   2
  13   1   9 8.09919 1.45417   2
  14  -1   9 -0.2385 0.67165   2
 -14  -1  -9 0.13043 0.70460   2
 -14   1  -9 0.76720 0.70833   2
  14   1   9 0.07854 0.64800   2
 -15  -1  -9 10.1294 1.72641   2
  15  -1   9 12.7234 1.95451   2
  15   1   9 18.5542 2.49736   2
 -15   1  -9 13.1870 2.01250   2
 -16  -1  -9 13.4556 2.02276   2
  16  -1   9 10.0726 1.73838   2
 -16   1  -9 14.0213 2.07323   2
  16   1   9 19.3323 2.69001   2
  21  -2  -9 11.4317 1.85126   2
 -21   2   9 13.2995 2.02780   2
  20  -2  -9 37.7386 4.97954   2
 -20  -2   9 33.4219 4.62307   2
 -20   2   9 41.7466 5.36714   2
 -19  -2   9 49.3935 6.62244   2
  19  -2  -9 52.7260 6.84498   2
 -19   2   9 58.1991 7.37168   2
  19   2  -9 55.8097 7.15790   2
  18  -2  -9 35.8738 4.83104   2
 -18   2   9 44.4507 5.61102   2
  18   2  -9 36.5553 4.89381   2
 -17  -2   9 21.3236 3.13617   2
  17   2  -9 35.5668 4.42781   2
  16  -2  -9 63.9588 7.97900   2
 -16  -2   9 53.3202 7.02811   2
 -15  -2   9 20.3669 2.90313   2
  15  -2  -9 25.6265 3.36944   2
  15   2  -9 23.6330 3.18139   2
 -14  -2   9 0.57615 0.53691   2
  14  -2  -9 -0.0464 0.57685   2
  14   2  -9 -0.0785 0.52456   2
  13  -2  -9 1.66432 0.60368   2
 -13  -2   9 0.81803 0.56393   3
 -13  -2   9 1.19281 0.60228   2
  13   2  -9 3.03186 0.70851   2
 -12  -2   9 4.97819 0.95184   2
  12  -2  -9 6.42286 1.13630   2
 -12  -2   9 6.51769 1.01567   3
 -12   2   9 5.89685 1.07162   2
  12   2  -9 5.61810 0.96639   2
 -11  -2   9 138.174 25.2513   1
 -11  -2   9 163.849 20.2391   2
 -11  -2   9 159.093 17.5963   3
  11   2  -9 141.420 16.3590   3
 -11   2   9 168.957 20.7153   2
  11   2  -9 178.724 21.5852   2
 -10  -2   9 51.0601 9.34346   1
 -10  -2   9 57.2186 7.24932   2
  10  -2  -9 41.4054 7.91274   1
 -10  -2   9 56.7303 10.2221   1
  10  -2  -9 50.6018 9.28004   1
 -10  -2   9 61.1784 6.73783   3
  10   2  -9 51.5110 9.41577   1
 -10   2   9 65.3124 8.01193   2
  10   2  -9 61.7516 7.66768   2
  10   2  -9 54.6260 6.29471   3
 -10   2   9 62.7753 11.1610   1
 -10   2   9 66.8934 11.8039   1
  10   2  -9 77.1491 13.4401   1
  -9  -2   9 12.3372 1.74085   2
  -9  -2   9 10.3455 1.44038   3
   9  -2  -9 10.6025 2.04402   1
   9  -2  -9 14.0308 2.56268   1
  -9  -2   9 15.7468 2.82932   1
  -9  -2   9 10.4191 2.00749   1
   9   2  -9 11.4500 1.54777   3
   9   2  -9 11.6099 2.17466   1
  -9   2   9 14.2898 2.62209   1
   9   2  -9 11.7910 1.67851   2
  -9   2   9 11.0341 2.10040   1
   9   2  -9 12.8027 2.36790   1
  -9   2   9 11.4926 1.35527   3
  -9   2   9 14.7727 1.99673   2
   8  -2  -9 502.217 60.4739   2
  -8  -2   9 436.432 48.4477   3
  -8  -2   9 437.841 78.4542   1
  -8  -2   9 402.438 51.5494   2
  -8  -2   9 467.558 83.0491   1
   8  -2  -9 466.261 82.8516   1
   8  -2  -9 482.797 85.4314   1
  -8   2   9 440.730 54.9150   2
   8   2  -9 476.769 58.1343   2
   8   2  -9 428.331 77.0074   1
  -8   2   9 493.306 87.0757   1
   8   2  -9 446.880 79.8514   1
  -8   2   9 403.856 73.2805   1
   8   2  -9 472.180 50.9804   3
  -7  -2   9 1038.92 182.692   1
   7  -2  -9 1141.61 198.883   1
  -7  -2   9 875.362 157.316   1
   7  -2  -9 723.302 96.9278   2
  -7  -2   9 1006.67 121.602   2
   7  -2  -9 849.551 153.394   1
  -7  -2   9 1018.68 107.953   3
  -7   2   9 1006.64 121.618   2
   7   2  -9 743.614 137.376   1
  -7   2   9 947.231 102.713   3
   7   2  -9 1019.23 122.745   2
   7   2  -9 1134.70 197.877   1
  -7   2   9 796.257 145.290   1
  -7   2   9 1108.84 193.714   1
  -6  -2   9 81.9570 15.2089   1
   6  -2  -9 113.577 13.8165   2
  -6  -2   9 100.253 12.5733   2
   6  -2  -9 90.7563 10.4588   3
  -6  -2   9 102.790 18.3845   1
   6  -2  -9 108.726 19.3120   1
   6  -2  -9 124.898 21.8552   1
   6   2  -9 96.1555 17.3633   1
   6   2  -9 101.329 12.6843   2
  -6   2   9 110.336 13.5186   2
  -6   2   9 97.8074 10.9411   3
   6   2  -9 107.196 11.7155   3
   6   2  -9 107.118 19.0610   1
  -6   2   9 101.646 18.2152   1
  -6   2   9 123.954 21.7106   1
   5  -2  -9 60.0318 10.6780   1
  -5  -2   9 53.3782 6.80241   2
  -5  -2   9 51.8035 9.39153   1
  -5  -2   9 61.7416 10.9247   1
   5  -2  -9 65.1182 7.88691   2
   5  -2  -9 56.7464 6.22986   3
   5  -2  -9 36.5679 7.12804   1
  -5  -2   9 56.6074 6.30713   3
   5   2  -9 60.1212 10.6864   1
   5   2  -9 55.3298 9.94308   1
  -5   2   9 64.2456 6.77796   3
  -5   2   9 60.5896 7.47660   2
  -5   2   9 56.4018 10.1056   1
   5   2  -9 59.9541 6.55670   3
   5   2  -9 48.6919 6.38786   2
  -5   2   9 51.5247 9.36033   1
   4  -2  -9 371.176 65.3020   1
  -4  -2   9 319.508 39.9096   2
  -4  -2   9 285.709 52.1189   1
   4  -2  -9 330.118 36.1366   3
  -4  -2   9 328.643 58.6923   1
   4  -2  -9 323.979 40.3192   2
  -4  -2   9 373.370 39.3361   3
   4  -2  -9 324.402 58.0569   1
   4   2  -9 340.832 60.5725   1
   4   2  -9 360.112 38.3716   3
  -4   2   9 313.859 56.4190   1
  -4   2   9 323.035 35.6420   3
   4   2  -9 355.930 62.9159   1
  -4   2   9 320.789 40.0397   2
   4   2  -9 295.107 37.7727   2
  -4   2   9 377.793 66.3475   1
   3  -2  -9 18.2306 2.02957   3
   3  -2  -9 11.7886 2.33462   1
  -3  -2   9 15.1664 2.82010   1
  -3  -2   9 14.1562 1.82078   3
   3  -2  -9 17.2618 2.28761   2
  -3  -2   9 16.7821 2.24817   2
  -3  -2   9 18.2458 3.28888   1
  -3   2   9 18.0076 2.37048   2
   3   2  -9 15.9279 1.96072   3
   3   2  -9 17.9282 3.25852   1
   3   2  -9 18.0673 2.35331   2
  -3   2   9 19.4804 3.50256   1
   3   2  -9 19.5740 3.51476   1
  -3   2   9 19.0981 3.42424   1
   2  -2  -9 0.14255 0.29672   3
  -2  -2   9 0.09790 0.31800   3
   2  -2  -9 0.94165 0.46284   2
  -2  -2   9 0.73272 0.34904   1
   2  -2  -9 0.36060 0.37292   1
  -2  -2   9 0.51558 0.33337   1
  -2  -2   9 0.31783 0.43400   2
   2  -2  -9 -0.3096 0.26842   1
  -2   2   9 0.10724 0.30152   3
   2   2  -9 0.06001 0.37155   1
   2   2  -9 0.04623 0.40512   3
   2   2  -9 0.56030 0.39319   1
  -2   2   9 0.33947 0.33298   1
  -2   2   9 0.41390 0.40699   2
  -2   2   9 0.86805 0.34162   1
   2   2  -9 0.35440 0.43554   2
  -1  -2   9 2.36195 0.58895   1
  -1  -2   9 2.65390 0.63623   1
  -1  -2   9 2.58783 0.54379   3
   1  -2  -9 4.46179 0.75910   2
   1  -2  -9 2.14360 0.56824   1
   1  -2  -9 3.18023 0.52050   3
   1  -2  -9 3.83089 0.83324   1
  -1  -2   9 2.62066 0.60863   2
  -1   2   9 3.37269 0.56422   3
   1   2  -9 3.27429 0.65596   2
  -1   2   9 3.12326 0.70013   1
  -1   2   9 3.24545 0.67363   2
   1   2  -9 4.07448 0.82951   1
   1   2  -9 2.79864 0.65238   1
  -1   2   9 3.29263 0.73179   1
   0  -2  -9 886.751 156.015   1
   0  -2  -9 747.134 93.8795   2
   0  -2   9 792.541 141.335   1
   0  -2  -9 719.901 81.5918   3
   0  -2   9 806.991 143.554   1
   0  -2   9 911.057 108.694   2
   0  -2  -9 520.702 100.661   1
   0   2  -9 924.321 161.958   1
   0   2   9 715.385 81.2826   3
   0   2  -9 724.654 81.9786   3
   0   2   9 961.041 113.314   2
   0   2  -9 1177.82 133.908   2
   0   2   9 1369.87 233.209   1
   0   2   9 708.778 128.477   1
  -1  -2  -9 591.253 105.722   1
  -1  -2  -9 691.871 72.3115   3
   1  -2   9 614.525 66.7423   3
   1  -2   9 439.367 82.8142   1
  -1  -2  -9 523.762 67.5465   2
  -1  -2  -9 702.018 122.984   1
   1  -2   9 643.299 113.803   1
   1  -2   9 663.837 79.9973   2
  -1   2  -9 521.274 67.3321   2
  -1   2  -9 665.469 117.256   1
   1   2   9 639.031 68.5000   3
   1   2   9 628.891 111.551   1
   1   2   9 712.871 84.5039   2
   1   2   9 659.072 116.228   1
  -1   2  -9 639.070 113.129   1
  -1   2  -9 552.287 62.4120   3
  -2  -2  -9 3.85496 0.62591   3
  -2  -2  -9 5.63705 1.13671   1
   2  -2   9 5.74050 0.96317   2
  -2  -2  -9 4.19870 0.83869   2
  -2  -2  -9 4.71997 0.95024   1
   2  -2   9 2.41720 0.68330   1
   2  -2   9 5.08713 1.01915   1
   2  -2   9 5.10296 0.74255   3
   2   2   9 4.08873 0.68267   3
   2   2   9 4.47619 0.92059   1
   2   2   9 4.90653 0.86044   2
  -2   2  -9 4.66414 0.95894   1
  -2   2  -9 3.62641 0.70162   3
   2   2   9 6.29387 1.19225   1
  -2   2  -9 3.73844 0.76196   2
  -2   2  -9 7.33669 1.39312   1
   3  -2   9 275.110 30.3477   3
   3  -2   9 266.701 47.9378   1
  -3  -2  -9 379.537 43.9410   2
   3  -2   9 241.854 44.1629   1
   3  -2   9 241.097 31.3086   2
  -3  -2  -9 283.743 50.5506   1
  -3  -2  -9 337.624 58.9929   1
  -3  -2  -9 280.843 30.7209   3
  -3   2  -9 316.822 55.7223   1
  -3   2  -9 301.567 32.2651   3
  -3   2  -9 272.293 34.0031   2
   3   2   9 226.642 41.8490   1
   3   2   9 239.076 43.7234   1
  -3   2  -9 311.789 54.9366   1
   3   2   9 295.101 36.0806   2
   4  -2   9 287.676 51.7584   1
  -4  -2  -9 296.643 32.7928   3
   4  -2   9 282.428 35.7956   2
  -4  -2  -9 297.011 53.1936   1
   4  -2   9 294.417 32.6698   3
  -4  -2  -9 321.847 39.2926   2
   4  -2   9 311.956 55.5055   1
   4   2   9 307.125 54.7733   1
  -4   2  -9 286.895 32.1728   3
  -4   2  -9 326.598 39.7392   2
  -4   2  -9 271.749 49.3222   1
   4   2   9 335.791 40.5696   2
   4   2   9 328.428 35.0697   3
   4   2   9 316.165 56.1640   1
  -4   2  -9 275.869 49.9777   1
   5  -2   9 145.580 26.4116   1
  -5  -2  -9 160.307 28.6572   1
  -5  -2  -9 140.460 18.2314   2
   5  -2   9 165.304 20.4177   2
  -5  -2  -9 155.894 27.9822   1
   5  -2   9 164.506 29.2972   1
  -5   2  -9 162.581 29.0303   1
  -5   2  -9 166.295 18.0889   3
   5   2   9 175.118 21.3102   2
   5   2   9 160.279 28.6633   1
  -5   2  -9 163.285 20.2400   2
  -6  -2  -9 144.025 15.9244   3
  -6  -2  -9 149.330 18.5351   2
  -6   2  -9 126.285 14.7500   3
  -6   2  -9 149.829 18.5870   2
   6   2   9 167.217 20.1532   2
   6   2   9 147.361 16.1757   3
  -7  -2  -9 37.1859 4.14535   3
  -7  -2  -9 36.7536 4.76360   2
   7  -2   9 33.8710 4.49722   2
   7   2   9 33.7388 3.91448   3
  -7   2  -9 38.0994 4.87717   2
  -8  -2  -9 6.06059 1.17469   2
  -8   2  -9 7.60325 1.31008   2
   8   2   9 9.63276 1.22158   3
   8   2   9 9.76337 1.48189   2
  -9  -2  -9 41.3306 5.60653   2
  -9  -2  -9 48.6946 5.42204   3
   9   2   9 47.2257 5.32300   3
  -9   2  -9 47.1910 6.10740   2
   9   2   9 55.6443 6.89792   2
 -10  -2  -9 1.77130 0.66238   2
  10   2   9 1.28420 0.67632   2
 -10   2  -9 0.99161 0.68588   2
  11  -2   9 53.1611 6.81698   2
 -11  -2  -9 67.9838 8.15522   2
 -11   2  -9 45.7469 6.07865   2
  11   2   9 43.1606 5.87549   2
  12  -2   9 67.1928 8.54299   2
 -12  -2  -9 64.2540 8.31813   2
 -12   2  -9 66.6917 8.50918   2
  12   2   9 65.6728 8.43529   2
  13  -2   9 50.0138 6.69505   2
 -13  -2  -9 65.6656 8.13007   2
  14  -2   9 18.3735 2.60171   2
  14   2   9 16.1400 2.39340   2
  15  -2   9 16.5977 2.43977   2
  16  -2   9 23.3704 3.26886   2
  20  -3  -9 0.04892 0.54490   2
 -20   3   9 0.77297 0.67695   2
  19  -3  -9 5.29125 1.12923   2
 -19   3   9 4.04153 1.08487   2
  18  -3  -9 3.47744 0.92208   2
 -18   3   9 3.16493 0.93857   2
  17  -3  -9 1.32632 0.69429   2
 -17   3   9 0.51514 0.76143   2
  16  -3  -9 5.38665 1.05340   2
 -16   3   9 4.67771 1.08460   2
  15  -3  -9 0.31716 0.54855   2
 -15   3   9 1.91305 0.68167   2
  14  -3  -9 18.6108 2.52431   2
 -14  -3   9 13.4756 1.87619   3
 -14   3   9 16.0512 2.28239   2
  14   3  -9 16.6522 2.32350   2
  14   3  -9 15.9469 2.10247   3
  13  -3  -9 52.8858 6.72172   2
 -13  -3   9 53.6623 6.05330   3
  13   3  -9 58.8584 6.52946   3
 -13   3   9 40.0793 5.62907   2
  13   3  -9 58.0205 7.17599   2
  12  -3  -9 44.6600 5.56450   2
 -12  -3   9 37.9763 4.43121   3
  12   3  -9 35.2004 4.25139   3
 -12   3   9 36.4931 4.80686   2
 -11  -3   9 12.3853 1.60165   3
  11  -3  -9 12.9917 1.87192   2
  11   3  -9 10.5119 1.50439   3
  11   3  -9 9.26304 1.42593   2
 -10  -3   9 56.4875 6.57803   3
  10  -3  -9 77.9372 9.31483   2
  10   3  -9 69.8458 7.55891   3
  10   3  -9 50.8391 6.80486   2
  -9  -3   9 1.15935 0.43614   1
  -9  -3   9 0.87139 0.57038   3
   9   3  -9 0.83182 0.62833   3
   9   3  -9 0.34577 0.38883   2
  -8  -3   9 94.0732 16.7524   1
  -8  -3   9 98.1457 10.6450   3
   8  -3  -9 88.3449 15.8842   1
   8  -3  -9 97.7033 17.3331   1
  -8  -3   9 84.0349 15.1926   1
   8  -3  -9 73.7626 9.89120   2
   8   3  -9 88.3622 15.8622   1
  -8   3   9 113.080 11.6142   3
   8   3  -9 98.6795 12.0506   2
   8   3  -9 82.8184 15.0165   1
   8   3  -9 95.5187 10.4724   3
  -8   3   9 89.6320 16.0786   1
  -8   3   9 85.3129 10.8886   2
  -8   3   9 80.7822 14.7160   1
   7  -3  -9 4.09286 0.57528   3
  -7  -3   9 6.22185 1.18970   1
   7  -3  -9 4.07482 0.85549   1
   7  -3  -9 4.28799 0.92805   1
   7  -3  -9 3.10644 0.70747   2
  -7  -3   9 4.28342 0.85397   1
  -7   3   9 4.26871 0.61291   3
   7   3  -9 4.97982 0.97582   1
  -7   3   9 5.84936 1.14345   1
   7   3  -9 4.40896 0.75086   2
  -7   3   9 3.40550 0.78472   1
  -7   3   9 2.71870 0.69596   2
   7   3  -9 3.05322 0.69141   1
   6  -3  -9 2.21362 0.55260   1
  -6  -3   9 2.05741 0.51631   1
   6  -3  -9 1.78288 0.61870   2
  -6  -3   9 2.42012 0.56497   1
   6  -3  -9 2.11614 0.42405   3
  -6  -3   9 1.99551 0.56784   3
   6  -3  -9 0.78684 0.36117   1
   6   3  -9 2.15412 0.58790   1
  -6   3   9 1.24553 0.42803   1
   6   3  -9 2.22547 0.62787   3
  -6   3   9 0.90592 0.41455   1
  -6   3   9 1.44635 0.38329   3
   6   3  -9 1.79323 0.47103   2
  -6   3   9 1.16858 0.47001   2
   6   3  -9 1.35642 0.40538   1
   5  -3  -9 89.8263 10.8888   2
   5  -3  -9 78.6354 14.1103   1
  -5  -3   9 74.8702 8.56138   3
   5  -3  -9 95.9449 9.97948   3
   5  -3  -9 63.7007 11.8426   1
  -5  -3   9 78.7105 14.1021   1
  -5   3   9 75.4518 13.6121   1
  -5   3   9 85.5109 10.5087   2
   5   3  -9 77.8573 14.0014   1
  -5   3   9 85.0948 9.18463   3
   5   3  -9 73.8858 13.3681   1
   5   3  -9 79.7918 9.97131   2
   5   3  -9 67.3549 8.05639   3
  -5   3   9 83.4412 14.8613   1
   4  -3  -9 20.3128 3.72557   1
   4  -3  -9 22.2775 2.51392   3
  -4  -3   9 21.5289 2.56962   3
   4  -3  -9 18.1860 3.41411   1
   4  -3  -9 23.4736 3.01179   2
  -4   3   9 17.0795 3.23785   1
   4   3  -9 20.9909 3.81935   1
   4   3  -9 22.0308 2.63090   3
  -4   3   9 17.9308 3.37547   1
   4   3  -9 20.6206 3.77836   1
  -4   3   9 24.3791 2.68834   3
   4   3  -9 19.7367 2.63299   2
  -4   3   9 25.7507 3.20763   2
  -3  -3   9 27.6670 3.11393   3
   3  -3  -9 33.5247 5.86516   1
   3  -3  -9 26.5672 2.93312   3
   3  -3  -9 20.6081 2.83078   2
   3  -3  -9 17.8300 3.41746   1
  -3   3   9 28.5275 5.06492   1
  -3   3   9 23.1743 3.06918   2
  -3   3   9 26.2442 2.92217   3
   3   3  -9 23.5370 4.27012   1
  -3   3   9 29.2461 5.18302   1
   3   3  -9 29.0418 3.24629   3
   3   3  -9 30.1618 5.32958   1
   3   3  -9 18.6739 2.66001   2
   2  -3  -9 12.6239 2.32746   1
   2  -3  -9 14.6932 1.66313   3
   2  -3  -9 15.7036 2.02582   2
   2  -3  -9 11.0902 2.11694   1
  -2  -3   9 13.8227 1.71161   3
  -2   3   9 11.1141 1.64146   2
   2   3  -9 8.95966 1.81686   1
   2   3  -9 12.2410 2.28481   1
   2   3  -9 12.9165 1.69018   3
  -1  -3   9 16.4445 2.99543   1
   1  -3  -9 18.5082 2.38025   2
  -1  -3   9 16.9586 3.07336   1
   1  -3  -9 15.2165 2.81079   1
  -1  -3   9 13.0534 1.90545   2
   1  -3  -9 19.1185 3.42809   1
   1  -3  -9 15.8165 1.87108   3
  -1   3   9 13.9385 1.96932   2
   1   3  -9 14.7362 1.92507   3
  -1   3   9 17.9585 2.05426   3
   1   3  -9 18.0746 3.26971   1
   0  -3   9 46.2298 8.56665   1
   0  -3  -9 63.4134 11.2209   1
   0  -3   9 59.2531 10.5661   1
   0  -3   9 57.9866 7.27115   2
   0  -3  -9 57.1835 6.31880   3
   0  -3   9 59.2472 6.54621   3
   0  -3  -9 41.4874 5.81784   2
   0   3   9 59.4764 10.5890   1
   0   3   9 55.1883 9.93067   1
   0   3   9 66.5780 7.02595   3
   0   3  -9 57.2968 7.19690   2
   0   3  -9 68.1290 7.22885   3
   1  -3   9 74.4807 13.4883   1
   1  -3   9 85.1410 10.5007   2
  -1  -3  -9 80.9553 10.1115   2
   1  -3   9 102.957 17.9380   1
   1  -3   9 89.8075 9.63497   3
  -1   3  -9 57.0587 8.09529   2
   1   3   9 106.220 18.4614   1
  -1   3  -9 96.2975 10.1415   3
   1   3   9 87.6123 15.5160   1
  -2  -3  -9 31.8921 5.82817   1
   2  -3   9 36.1080 6.48452   1
  -2  -3  -9 41.3544 5.06212   2
   2  -3   9 34.5115 4.45442   2
  -2  -3  -9 31.5362 3.68982   3
  -2  -3  -9 27.4114 5.15163   1
   2  -3   9 37.4482 4.17764   3
   2  -3   9 33.1211 6.02812   1
  -2   3  -9 35.2885 4.51018   2
  -2   3  -9 37.6158 4.22930   3
   2   3   9 33.2806 6.04053   1
   2   3   9 31.9115 3.73392   3
   2   3   9 31.4070 5.75515   1
   3  -3   9 7.69071 1.07092   3
  -3  -3  -9 5.06045 1.05751   1
   3  -3   9 9.62236 1.77168   1
   3  -3   9 7.32107 1.42711   1
  -3  -3  -9 8.15131 1.01493   3
   3  -3   9 4.07188 0.91288   2
  -3  -3  -9 6.28184 1.27819   1
   3   3   9 7.02798 0.96047   3
   3   3   9 6.03266 1.22510   1
   3   3   9 8.22605 1.25234   2
  -3   3  -9 6.95432 1.08418   3
  -3   3  -9 8.18584 1.23443   2
  -4  -3  -9 6.42202 0.88089   3
   4  -3   9 5.75526 0.91384   3
   4   3   9 5.10169 0.93501   2
  -4   3  -9 5.08393 0.96908   3
   5  -3   9 2.56986 0.73787   2
  -5  -3  -9 2.43689 0.55912   3
  -5   3  -9 3.25555 0.75538   3
   5   3   9 3.28799 0.61626   3
   5   3   9 5.07512 0.95094   2
  -6  -3  -9 6.65821 1.18916   2
   6  -3   9 6.80302 1.14871   2
  -6  -3  -9 5.90376 0.82676   3
   6   3   9 5.92325 0.88651   3
  -6   3  -9 4.32271 0.93535   2
   6   3   9 4.81159 0.97773   2
  -7  -3  -9 14.7965 2.02944   2
  -7  -3  -9 8.27397 1.17932   3
   7  -3   9 9.46962 1.51709   2
  -7   3  -9 11.1736 1.71296   2
   7   3   9 12.4999 1.80450   2
   7   3   9 10.4229 1.39020   3
  -8  -3  -9 42.8607 5.13347   3
  -8  -3  -9 47.5666 6.28165   2
   8  -3   9 50.1976 6.47008   2
  -8   3  -9 55.4266 6.95640   2
   8   3   9 52.9672 5.86631   3
   8   3   9 57.6750 7.17297   2
  -9  -3  -9 99.9399 11.7096   3
  -9  -3  -9 137.023 16.5369   2
   9  -3   9 114.723 14.4680   2
  -9   3  -9 123.838 15.2859   2
   9   3   9 113.464 14.3586   2
  10  -3   9 0.88335 0.67474   2
 -10  -3  -9 -0.2484 0.69923   2
 -10  -3  -9 0.55366 0.44156   3
  10   3   9 -0.2801 0.50361   3
 -10   3  -9 0.44106 0.61880   2
  10   3   9 -1.0215 0.55017   2
  11  -3   9 0.58521 0.83141   2
 -11   3  -9 1.01355 0.70591   2
  11   3   9 0.50306 0.65500   2
  12  -3   9 10.8380 1.78396   2
 -12   3  -9 11.9448 1.84234   2
  13  -3   9 -0.6801 0.63607   2
 -13   3  -9 -0.3954 0.60571   2
  14  -3   9 0.57852 0.72777   2
 -14   3  -9 0.93318 0.61836   2
  15  -3   9 3.16372 0.85279   2
  18  -4  -9 4.02988 0.97671   2
  17  -4  -9 2.58892 0.76116   2
  16  -4  -9 16.0183 2.36935   2
  15  -4  -9 19.8764 2.82439   2
  13  -4  -9 1.62799 0.69281   2
  13   4  -9 2.15173 0.87525   3
  12  -4  -9 1.40230 0.76028   2
 -12  -4   9 1.80184 0.67320   3
 -12   4   9 1.70056 0.68714   2
  12   4  -9 2.79493 0.87119   3
 -11  -4   9 40.6617 4.58432   3
  11   4  -9 42.3657 4.74097   3
 -11   4   9 30.5210 4.22071   2
 -10  -4   9 120.814 13.6193   3
  10   4  -9 130.689 14.3478   3
 -10   4   9 123.165 15.4800   2
  -9  -4   9 -0.1181 0.51394   3
   9   4  -9 0.15841 0.63437   3
  -9   4   9 0.88680 0.54116   2
   8  -4  -9 50.4545 6.51027   2
  -8   4   9 52.1627 5.81837   3
  -8   4   9 55.6203 6.96847   2
   8   4  -9 50.8960 5.90056   3
  -7  -4   9 107.529 12.2540   3
   7  -4  -9 118.742 14.7015   2
  -7   4   9 124.058 15.1619   2
   7   4  -9 100.920 11.8126   3
  -7   4   9 125.910 13.4504   3
  -6  -4   9 11.6021 1.52554   3
  -6   4   9 9.93061 1.26385   3
   6   4  -9 8.43498 1.33493   3
  -6   4   9 8.40154 1.29955   2
  -5  -4   9 1.37461 0.61923   3
   5  -4  -9 4.38017 0.68345   3
  -5   4   9 3.91427 0.64010   3
   5   4  -9 2.63448 0.80734   3
  -5   4   9 2.00680 0.53326   2
   4  -4  -9 2.50497 0.58306   1
   4  -4  -9 1.19702 0.46011   3
  -4  -4   9 0.93203 0.39615   1
  -4  -4   9 2.09461 0.69104   3
  -4   4   9 1.69177 0.48282   3
  -4   4   9 1.42587 0.48735   2
   4   4  -9 2.12037 0.76997   3
   3  -4  -9 46.5549 5.64237   3
   3  -4  -9 55.6068 10.0177   1
  -3  -4   9 58.4392 6.57285   3
  -3  -4   9 59.4118 10.5913   1
  -3  -4   9 76.8903 13.3573   1
   3   4  -9 76.4474 7.94411   3
  -3   4   9 52.6288 6.06125   3
  -2  -4   9 35.4460 6.36532   1
  -2  -4   9 37.1108 4.24667   3
   2  -4  -9 33.2028 6.03660   1
  -2   4   9 32.9733 3.82116   3
   2   4  -9 34.3797 4.05253   3
   1  -4  -9 0.46057 0.40560   3
  -1  -4   9 -0.5606 0.42183   3
  -1  -4   9 0.61797 0.33022   1
   1   4  -9 0.68692 0.69031   3
   0  -4  -9 100.221 11.6598   3
   0  -4   9 142.602 14.8246   3
   0   4  -9 136.537 14.3879   3
   0   4   9 100.417 11.6805   3
  -1  -4  -9 10.7697 1.39836   3
   1  -4   9 13.3244 1.73392   3
   1   4   9 10.4111 1.39168   3
   2  -4   9 4.74514 0.92191   3
  -2  -4  -9 4.05200 0.72422   3
  -2   4  -9 4.85717 0.99541   3
   2   4   9 4.08110 0.77927   3
  -2   4  -9 4.44505 0.91478   2
  -3  -4  -9 70.6431 8.63259   3
   3  -4   9 102.150 10.9427   3
   3   4   9 93.3316 10.2068   3
  -3   4  -9 105.331 12.6833   2
   4  -4   9 26.2398 3.37123   3
   4  -4   9 33.0084 4.30214   2
   4   4   9 35.4548 3.96252   3
  -4   4  -9 31.2557 3.79250   3
  -4   4  -9 36.1470 4.58821   2
  -5  -4  -9 8.07255 1.08965   3
   5  -4   9 6.85656 1.19943   2
  -5   4  -9 7.66302 1.28795   2
   6  -4   9 36.3008 5.14327   2
  -6  -4  -9 56.5870 6.03804   3
  -6   4  -9 48.4806 6.21273   2
   6   4   9 56.4462 6.03150   3
   7  -4   9 24.2700 3.35512   2
  -7  -4  -9 26.3544 3.01751   3
  -7   4  -9 25.0121 3.41087   2
   7   4   9 24.9945 2.96200   3
   8  -4   9 51.0572 6.65196   2
  -8  -4  -9 43.9895 5.28784   3
  -8   4  -9 65.7543 7.99862   2
   8   4   9 53.3311 5.97595   3
  -9  -4  -9 0.09781 0.43236   3
  -9   4  -9 -0.2175 0.61037   2
   9   4   9 -0.3172 0.51410   3
 -10  -4  -9 -0.1005 0.39225   3
  10   4   9 -0.3727 0.51783   3
 -10   4  -9 0.48661 0.53956   2
 -11  -4  -9 75.7138 8.38569   3
 -11   4  -9 71.8177 9.23269   2
 -12   4  -9 5.44945 1.16025   2
 -15  -5   9 14.8489 1.96641   3
  15   5  -9 11.6598 1.80392   3
 -14  -5   9 24.2872 3.01975   3
 -13  -5   9 13.8736 1.88671   3
  13   5  -9 9.07129 1.57443   3
 -12  -5   9 1.85460 0.78741   3
  12   5  -9 1.87216 0.82458   3
 -11  -5   9 67.0517 7.58170   3
  11   5  -9 63.6697 7.36353   3
 -10  -5   9 33.7230 4.09516   3
  10   5  -9 38.0484 4.43344   3
  -9  -5   9 -0.1769 0.48063   3
  -8  -5   9 4.02928 0.88494   3
   8   5  -9 5.16419 1.06670   3
  -7  -5   9 1.06090 0.63722   3
   7  -5  -9 0.13243 0.43842   3
  -7   5   9 0.37786 0.44545   3
   7   5  -9 1.59624 0.76226   3
   6  -5  -9 0.76010 0.37590   3
  -6  -5   9 0.13822 0.58697   3
  -6   5   9 0.65460 0.50096   3
   6   5  -9 0.23660 0.58425   3
  -5  -5   9 9.01133 1.35734   3
   5  -5  -9 10.5743 1.34292   3
  -5   5   9 8.45357 1.19385   3
   5   5  -9 9.06969 1.44220   3
  -4  -5   9 252.958 26.4960   3
   4  -5  -9 173.590 20.7952   3
   4   5  -9 252.234 26.4599   3
  -4   5   9 213.452 23.5033   3
   3  -5  -9 110.779 12.4332   3
  -3  -5   9 130.196 13.9474   3
  -3   5   9 107.985 12.2516   3
   2  -5  -9 62.1550 6.99792   3
  -2  -5   9 56.6747 6.72563   3
   2   5  -9 63.3490 7.23140   3
  -2   5   9 72.7430 7.80416   3
  -1  -5   9 105.062 11.2766   3
  -1   5   9 77.3536 9.22450   3
   1   5  -9 102.891 11.1484   3
   0  -5  -9 7.25371 1.04663   3
   0  -5   9 7.97026 1.24488   3
   0   5  -9 7.61697 1.29446   3
   0   5   9 7.89834 1.16239   3
  -1  -5  -9 64.1528 7.35117   3
   1  -5   9 83.8322 8.91648   3
  -1   5  -9 62.6431 7.39932   3
   1   5   9 69.4469 7.75097   3
   2  -5   9 28.0591 3.37285   3
  -2  -5  -9 24.6357 2.99372   3
   2   5   9 31.2968 3.50290   3
   3  -5   9 72.0452 8.21067   3
  -3  -5  -9 87.3949 9.20350   3
  -3   5  -9 63.7492 7.66067   3
   3   5   9 72.0132 8.09420   3
  -4  -5  -9 61.6011 6.86613   3
   4  -5   9 58.6847 6.81937   3
  -4   5  -9 58.3913 6.82563   3
   4   5   9 62.5215 6.96184   3
   5   5   9 17.5411 2.19484   3
  -6  -5  -9 1.30617 0.50867   3
   6   5   9 0.01885 0.64383   3
  -7  -5  -9 25.9247 3.00705   3
   7   5   9 23.9792 2.92874   3
  -8  -5  -9 68.6261 7.76105   3
   8   5   9 72.7356 8.07931   3
  -9  -5  -9 5.23936 0.86122   3
   9   5   9 3.67744 0.77239   3
 -10  -5  -9 18.7567 2.30279   3
  14   6  -9 19.2380 2.55351   3
 -13  -6   9 0.74384 0.68452   3
  13   6  -9 0.85103 0.82222   3
 -12  -6   9 20.1210 2.56097   3
  12   6  -9 19.1748 2.52150   3
 -11  -6   9 4.13522 0.94934   3
  11   6  -9 4.74455 1.00150   3
 -10  -6   9 1.05959 0.66280   3
   9   6  -9 12.4840 1.84788   3
  -8  -6   9 40.9780 4.85404   3
   8   6  -9 43.1060 5.03785   3
  -7  -6   9 35.2761 4.23398   3
   7   6  -9 37.2464 4.40332   3
  -6  -6   9 -0.4630 0.68066   3
   6  -6  -9 -0.0098 0.51644   3
  -6   6   9 -0.4554 0.54963   3
   6   6  -9 -0.0623 0.73195   3
  -5  -6   9 -0.0638 0.57750   3
  -5   6   9 0.19928 0.43604   3
   5   6  -9 -0.2541 0.70005   3
  -4  -6   9 0.93948 0.66830   3
   4  -6  -9 0.05082 0.51892   3
  -4   6   9 -0.5383 0.52348   3
   3  -6  -9 2.98726 0.64843   3
  -3  -6   9 3.08540 0.83270   3
   3   6  -9 2.81554 0.91731   3
  -3   6   9 0.17511 0.62110   3
  -2  -6   9 14.4096 1.94953   3
   2  -6  -9 14.6455 1.84875   3
  -2   6   9 14.7404 1.91422   3
   2   6  -9 16.8405 2.22809   3
   1  -6  -9 2.97477 0.66077   3
  -1  -6   9 3.63160 0.79665   3
  -1   6   9 2.74674 0.76257   3
   1   6  -9 3.56231 0.98942   3
   0  -6   9 2.66212 0.72701   3
   0   6  -9 1.39857 0.81207   3
   0   6   9 1.67528 0.60358   3
  -1  -6  -9 8.88573 1.31122   3
   1  -6   9 9.01865 1.44030   3
   2  -6   9 12.7089 1.75260   3
  -2  -6  -9 10.3476 1.41499   3
  -2   6  -9 9.05129 1.53035   3
   2   6   9 10.8048 1.49702   3
   3  -6   9 36.4527 4.43786   3
  -3  -6  -9 45.2799 4.91968   3
  -3   6  -9 33.7835 4.26765   3
   3   6   9 39.2015 4.49122   3
  -4  -6  -9 59.5418 6.59734   3
   4   6   9 53.8117 6.22809   3
  -5  -6  -9 155.687 17.6006   3
   5   6   9 177.744 19.1841   3
  -6  -6  -9 8.90076 1.25797   3
  -7  -6  -9 0.54175 0.44660   3
   7   6   9 -0.8902 0.58473   3
  -8  -6  -9 8.20658 1.16365   3
   8   6   9 6.26667 1.10253   3
  -9  -6  -9 0.23890 0.43760   3
   9   6   9 0.14164 0.53820   3
 -11  -7   9 2.10809 0.70876   3
  11   7  -9 2.78007 0.91253   3
  10   7  -9 0.69127 0.82000   3
  -9  -7   9 0.54968 0.63405   3
   9   7  -9 -0.2960 0.75389   3
  -8  -7   9 0.92896 0.66145   3
   8   7  -9 0.90698 0.79574   3
  -7  -7   9 5.71064 1.16532   3
   7   7  -9 5.74962 1.18585   3
  -6  -7   9 13.2225 1.81004   3
   6   7  -9 8.49871 1.49989   3
  -5  -7   9 0.14924 0.64171   3
   5  -7  -9 0.86049 0.57981   3
  -5   7   9 1.46936 0.59800   3
  -4  -7   9 1.69172 0.79464   3
  -4   7   9 1.09841 0.63979   3
   4   7  -9 1.48555 0.85091   3
   3  -7  -9 0.27557 0.51397   3
  -3  -7   9 -0.8948 0.65616   3
   3   7  -9 2.73495 0.91688   3
  -3   7   9 0.97055 0.51242   3
  -2  -7   9 2.46550 0.87462   3
   2  -7  -9 1.98338 0.64731   3
  -2   7   9 0.53319 0.50839   3
   2   7  -9 0.34526 0.79052   3
   1  -7  -9 -0.2432 0.46516   3
  -1  -7   9 0.02190 0.76315   3
  -1   7   9 0.13457 0.50634   3
   1   7  -9 1.05364 0.84507   3
   0  -7   9 3.74403 0.96913   3
   0  -7  -9 1.88320 0.59504   3
   0   7   9 2.06811 0.73348   3
   1  -7   9 32.3362 3.73249   3
  -1   7  -9 24.8916 3.22988   3
   1   7   9 22.0743 2.79962   3
  -2  -7  -9 3.71391 0.76025   3
   2   7   9 3.83779 0.87567   3
  -3  -7  -9 9.94782 1.34519   3
   3   7   9 7.27845 1.20340   3
  -4  -7  -9 11.6891 1.58335   3
   4   7   9 13.6533 1.78380   3
  -5  -7  -9 8.02748 1.20936   3
   5   7   9 9.60010 1.38600   3
   6   7   9 1.99327 0.73207   3
 -22   0  10 17.9011 2.60840   2
 -21   0  10 38.2890 5.13556   2
  21   0 -10 40.4246 5.30283   2
  20   0 -10 39.7214 5.08223   2
 -20   0  10 32.9181 4.52134   2
  19   0 -10 2.66377 0.78968   2
  18   0 -10 4.54119 1.05590   2
 -17   0  10 64.2259 7.99788   2
  17   0 -10 51.7186 6.84567   2
 -16   0  10 34.3154 4.51587   2
 -15   0  10 44.7773 5.77746   2
 -14   0  10 48.7595 6.33522   2
  14   0 -10 53.5815 6.81579   2
 -13   0  10 93.1995 11.7076   2
  13   0 -10 91.6254 11.5756   2
  12   0 -10 814.850 99.3281   2
 -12   0  10 734.862 92.2090   2
 -11   0  10 161.610 28.6451   1
  11   0 -10 148.789 18.5957   2
 -11   0  10 190.432 22.4398   2
 -11   0  10 174.230 18.2775   3
 -11   0  10 139.970 25.2897   1
  11   0 -10 169.544 29.8612   1
  11   0 -10 95.3115 18.6759   1
  10   0 -10 122.366 12.8465   3
 -10   0  10 104.669 18.7377   1
 -10   0  10 102.417 18.3780   1
 -10   0  10 100.430 12.7106   2
  10   0 -10 95.1972 17.2688   1
  10   0 -10 100.802 12.7483   2
  10   0 -10 97.3735 17.6069   1
  -9   0  10 563.612 61.7308   3
   9   0 -10 805.674 138.782   1
   9   0 -10 585.349 63.2609   3
   9   0 -10 664.180 116.283   1
   9   0 -10 560.771 69.4845   2
  -9   0  10 604.554 106.951   1
  -9   0  10 573.689 102.120   1
  -9   0  10 475.478 62.0627   2
   8   0 -10 161.401 21.1371   2
  -8   0  10 201.041 21.6452   3
  -8   0  10 209.714 25.3994   2
   8   0 -10 197.805 35.1763   1
   8   0 -10 174.805 31.6091   1
  -8   0  10 187.040 33.4853   1
   8   0 -10 207.779 22.1483   3
  -7   0  10 395.163 48.3743   2
  -7   0  10 388.095 42.1424   3
   7   0 -10 247.887 48.0353   1
   7   0 -10 382.243 41.7390   3
   7   0 -10 394.449 48.3013   2
  -7   0  10 429.452 75.5194   1
   7   0 -10 532.977 91.9336   1
  -7   0  10 459.340 80.2010   1
  -6   0  10 7.60360 1.14328   2
  -6   0  10 5.84545 0.75610   3
  -6   0  10 5.22671 1.10486   1
  -6   0  10 9.05613 1.64845   1
   6   0 -10 7.33625 1.39351   1
   6   0 -10 5.45349 0.92996   2
   6   0 -10 5.88541 1.17385   1
   6   0 -10 4.80135 0.70320   3
   5   0 -10 383.224 48.2221   2
  -5   0  10 464.417 81.5569   1
  -5   0  10 480.976 57.0728   2
   5   0 -10 431.454 46.2557   3
   5   0 -10 424.131 75.2493   1
  -5   0  10 402.794 71.9568   1
   5   0 -10 333.079 61.3404   1
  -5   0  10 371.411 42.0277   3
   4   0 -10 62.2318 10.8571   1
   4   0 -10 53.8240 9.54749   1
   4   0 -10 51.6140 6.41945   2
  -4   0  10 48.1158 5.33664   3
  -4   0  10 50.5280 9.01905   1
  -4   0  10 41.2339 5.49611   2
  -4   0  10 48.5869 8.71791   1
   4   0 -10 45.6907 5.16203   3
  -3   0  10 1177.92 205.800   1
   3   0 -10 942.646 117.908   2
   3   0 -10 1043.13 111.895   3
  -3   0  10 948.374 118.435   2
  -3   0  10 996.739 177.463   1
   3   0 -10 1031.45 182.889   1
   3   0 -10 999.085 177.871   1
  -3   0  10 932.443 104.047   3
  -2   0  10 65.3018 6.91832   3
  -2   0  10 54.3611 9.82823   1
   2   0 -10 61.0340 10.8629   1
   2   0 -10 57.1536 7.19945   2
  -2   0  10 57.3851 7.22710   2
   2   0 -10 77.4045 7.82414   3
  -2   0  10 62.0261 11.0197   1
   2   0 -10 35.5824 7.04911   1
   1   0 -10 422.478 73.5867   1
  -1   0  10 256.654 48.0361   1
  -1   0  10 387.770 40.6533   3
   1   0 -10 381.732 40.1986   3
  -1   0  10 401.424 47.6761   2
  -1   0  10 396.645 69.5094   1
   1   0 -10 259.927 35.1893   2
   1   0 -10 397.218 69.5877   1
   0   0 -10 777.265 142.023   1
   0   0  10 942.744 101.851   3
   0   0 -10 1032.94 181.442   1
   0   0 -10 850.678 107.208   2
   0   0  10 909.038 162.201   1
   0   0  10 928.506 114.113   2
   0   0 -10 910.286 99.5495   3
   0   0  10 1056.80 185.293   1
  -1   0 -10 592.203 70.4996   2
  -1   0 -10 438.169 79.9461   1
   1   0  10 509.541 55.6830   3
  -1   0 -10 692.240 119.654   1
   1   0  10 500.789 89.5441   1
   1   0  10 552.959 97.6077   1
  -1   0 -10 546.788 58.3448   3
   1   0  10 418.796 55.0833   2
   2   0  10 122.010 22.3633   1
   2   0  10 184.253 32.0579   1
  -2   0 -10 158.727 19.2488   2
  -2   0 -10 140.057 15.4955   3
   2   0  10 138.250 17.4020   2
  -2   0 -10 122.002 22.3564   1
  -2   0 -10 159.274 28.1153   1
   2   0  10 143.089 15.7194   3
   3   0  10 545.413 65.4750   2
   3   0  10 508.098 90.1147   1
  -3   0 -10 443.245 50.1268   3
  -3   0 -10 548.659 96.4576   1
   3   0  10 460.553 51.3503   3
  -3   0 -10 518.978 91.7972   1
  -3   0 -10 479.903 59.5533   2
   3   0  10 442.030 79.9385   1
  -4   0 -10 902.712 106.943   2
   4   0  10 826.953 145.965   1
  -4   0 -10 731.065 131.095   1
  -4   0 -10 771.008 83.8939   3
  -4   0 -10 611.942 113.041   1
   4   0  10 709.698 79.6085   3
   4   0  10 584.352 108.920   1
   4   0  10 942.818 110.701   2
  -5   0 -10 155.672 18.7834   3
  -5   0 -10 243.993 42.5512   1
  -5   0 -10 215.885 38.1331   1
   5   0  10 201.699 35.9315   1
   5   0  10 220.563 26.6298   2
  -5   0 -10 207.760 25.4731   2
   5   0  10 208.574 22.4250   3
   5   0  10 183.317 33.0721   1
  -6   0 -10 490.505 59.7027   2
   6   0  10 431.194 54.4158   2
   6   0  10 460.759 50.4052   3
  -7   0 -10 27.2633 3.38662   2
   7   0  10 15.6619 2.31851   2
   7   0  10 18.5590 2.15687   3
  -7   0 -10 17.6858 2.09440   3
  -8   0 -10 79.0817 10.0322   2
  -9   0 -10 97.5893 12.1360   2
   9   0  10 87.7324 11.2442   2
 -10   0 -10 15.5425 2.27244   2
  10   0  10 17.1656 2.39726   2
 -11   0 -10 168.422 21.8660   2
  11   0  10 227.786 27.1948   2
 -12   0 -10 119.031 15.0024   2
 -13   0 -10 47.2817 6.16371   2
 -14   0 -10 5.84834 1.17250   2
  14   0  10 5.18644 1.05641   2
  15   0  10 0.00000 0.64130   2
 -16   0 -10 0.86682 0.70404   2
  16   0  10 0.80601 0.67199   2
  22  -1 -10 0.31061 0.59407   2
 -22   1  10 -0.1516 0.62865   2
 -21  -1  10 0.69911 0.63781   2
  21  -1 -10 0.04966 0.69931   2
  21   1 -10 0.29432 0.70681   2
 -21   1  10 -0.0338 0.74684   2
  20  -1 -10 -0.8635 0.50879   2
 -20  -1  10 0.08206 0.61250   2
  20   1 -10 1.65194 0.76437   2
 -20   1  10 -0.2622 0.72428   2
  19  -1 -10 24.0074 3.20528   2
 -19   1  10 19.1150 2.79971   2
  19   1 -10 20.0869 2.86640   2
 -18  -1  10 12.2553 1.99491   2
  18  -1 -10 12.4573 1.93157   2
 -18   1  10 14.8928 2.20221   2
  18   1 -10 13.9316 2.15354   2
  17  -1 -10 32.9855 4.39633   2
 -17  -1  10 32.9530 4.41062   2
  17   1 -10 34.9722 4.58202   2
 -17   1  10 35.0113 4.60494   2
  16  -1 -10 136.075 16.1832   2
 -16  -1  10 94.3033 12.3832   2
  16   1 -10 103.438 13.1841   2
 -16   1  10 110.371 13.7938   2
 -15  -1  10 38.4780 5.27638   2
  15  -1 -10 54.2737 6.70720   2
 -15   1  10 61.6755 7.39175   2
  15   1 -10 41.2730 5.51675   2
  14  -1 -10 51.2650 6.31921   2
 -14  -1  10 39.4190 5.22309   2
  14   1 -10 36.9222 4.99827   2
 -14   1  10 46.8624 5.89346   2
 -13  -1  10 1.44432 0.58702   2
  13  -1 -10 1.92855 0.74323   2
 -13   1  10 1.49581 0.60996   2
  13   1 -10 2.20309 0.68733   2
 -12  -1  10 4.41640 0.75554   3
 -12  -1  10 3.87564 0.88171   2
  12  -1 -10 4.14819 0.90161   2
  12   1 -10 4.99944 0.94364   2
 -12   1  10 5.30086 1.01333   2
 -11  -1  10 8.78073 1.63711   1
  11  -1 -10 6.98503 1.15331   2
  11  -1 -10 6.38867 1.27912   1
 -11  -1  10 6.01691 1.23751   1
 -11   1  10 6.45871 1.31386   1
  11   1 -10 4.07219 0.95940   1
  11   1 -10 6.22160 0.91474   3
  11   1 -10 5.87577 1.18664   1
 -11   1  10 6.06302 1.06006   2
 -10  -1  10 2.59672 0.65856   2
  10  -1 -10 2.05810 0.57348   1
 -10  -1  10 1.28984 0.47162   1
 -10  -1  10 2.71739 0.63879   1
  10  -1 -10 3.12151 0.70281   1
 -10  -1  10 2.17726 0.54198   3
  10   1 -10 3.38187 0.74423   1
  10   1 -10 2.10321 0.57261   1
 -10   1  10 1.79217 0.58719   1
  10   1 -10 3.41531 0.65120   3
  10   1 -10 2.63745 0.65631   2
 -10   1  10 2.67239 0.43805   3
 -10   1  10 1.53402 0.53990   1
  -9  -1  10 240.915 26.5342   3
  -9  -1  10 257.007 45.5683   1
   9  -1 -10 276.134 33.1532   2
   9  -1 -10 203.422 37.3341   1
  -9  -1  10 203.201 37.3101   1
   9  -1 -10 232.082 41.7037   1
  -9  -1  10 280.132 33.5235   2
   9   1 -10 227.985 28.7995   2
  -9   1  10 276.520 48.6233   1
  -9   1  10 211.290 38.5337   1
   9   1 -10 260.981 27.9713   3
   9   1 -10 241.819 43.1993   1
   9   1 -10 257.656 45.6578   1
  -9   1  10 228.717 28.8896   2
  -8  -1  10 44.9945 8.03565   1
  -8  -1  10 44.8266 4.94933   3
   8  -1 -10 44.2830 5.59655   2
   8  -1 -10 47.1302 8.38114   1
  -8  -1  10 40.4893 5.24169   2
   8  -1 -10 35.3928 6.57422   1
  -8  -1  10 37.9534 6.96437   1
   8  -1 -10 41.9591 4.66789   3
  -8   1  10 41.8344 4.66126   3
  -8   1  10 48.7950 8.63745   1
   8   1 -10 37.0504 6.81874   1
  -8   1  10 51.0205 8.98795   1
   8   1 -10 40.2532 7.30609   1
  -8   1  10 35.8175 4.83916   2
   8   1 -10 44.8243 4.95470   3
   8   1 -10 49.5232 6.05400   2
   7  -1 -10 0.83506 0.41162   1
   7  -1 -10 0.12364 0.33606   1
  -7  -1  10 0.67156 0.41383   1
  -7  -1  10 0.11758 0.38063   2
   7  -1 -10 -0.1002 0.41117   2
  -7  -1  10 1.08705 0.37882   1
   7  -1 -10 1.28104 0.28965   3
  -7  -1  10 -0.0260 0.35245   3
   7   1 -10 0.39940 0.28653   1
  -7   1  10 0.14610 0.40874   1
   7   1 -10 -0.3864 0.49396   1
   7   1 -10 -0.1045 0.37094   3
  -7   1  10 0.13056 0.40184   2
   7   1 -10 0.69270 0.47071   2
  -7   1  10 1.44598 0.44707   1
  -7   1  10 0.79911 0.29020   3
  -6  -1  10 237.061 44.2609   1
   6  -1 -10 311.005 33.9911   3
   6  -1 -10 267.110 48.7463   1
  -6  -1  10 278.302 50.4563   1
  -6  -1  10 311.602 34.0754   3
   6  -1 -10 233.905 43.7949   1
   6  -1 -10 363.959 43.3134   2
   6   1 -10 316.951 56.4023   1
   6   1 -10 318.630 56.6567   1
  -6   1  10 261.340 47.9087   1
   6   1 -10 373.006 44.1459   2
  -6   1  10 320.486 39.3337   2
  -6   1  10 376.059 38.7425   3
  -6   1  10 324.880 57.6296   1
   5  -1 -10 14.1262 1.57751   3
   5  -1 -10 13.6437 1.86478   2
  -5  -1  10 13.5666 1.57956   3
   5  -1 -10 9.15553 1.82918   1
   5  -1 -10 13.5517 2.48802   1
   5   1 -10 14.2957 2.60521   1
   5   1 -10 11.7843 1.66905   2
  -5   1  10 12.3552 2.30774   1
   5   1 -10 11.7380 1.47205   3
   5   1 -10 14.3980 2.61970   1
  -5   1  10 12.5743 2.34585   1
  -5   1  10 11.0089 1.62598   2
  -5   1  10 12.2757 1.44636   3
  -4  -1  10 319.541 35.9066   3
   4  -1 -10 325.028 58.4442   1
   4  -1 -10 350.828 62.4118   1
   4  -1 -10 341.131 42.2776   2
   4  -1 -10 340.090 37.3094   3
   4   1 -10 347.175 37.8529   3
  -4   1  10 439.651 76.3848   1
   4   1 -10 326.533 40.9925   2
  -4   1  10 346.105 42.7099   2
   4   1 -10 372.190 65.7431   1
   4   1 -10 373.004 65.8490   1
  -4   1  10 318.749 57.4785   1
   3  -1 -10 443.908 55.4600   2
   3  -1 -10 477.644 84.7891   1
  -3  -1  10 418.823 53.2684   2
   3  -1 -10 501.659 53.3133   3
   3  -1 -10 438.281 78.7325   1
  -3  -1  10 466.372 50.7932   3
  -3   1  10 394.051 51.1328   2
   3   1 -10 502.585 53.4097   3
  -3   1  10 522.275 54.8219   3
   3   1 -10 528.978 92.8273   1
   3   1 -10 530.560 93.0875   1
  -3   1  10 388.866 71.1986   1
  -3   1  10 562.765 98.1717   1
   3   1 -10 443.863 55.4662   2
   2  -1 -10 27.3618 2.98979   3
  -2  -1  10 26.0645 4.69903   1
  -2  -1  10 25.8990 4.66938   1
   2  -1 -10 26.3491 4.75523   1
  -2  -1  10 25.8704 3.35029   2
  -2  -1  10 26.0595 2.91246   3
   2  -1 -10 25.3343 3.28705   2
   2  -1 -10 23.5804 4.31572   1
   2   1 -10 15.4899 3.11868   1
   2   1 -10 23.0904 2.71249   3
   2   1 -10 34.0640 5.96204   1
  -2   1  10 27.6278 3.02030   3
  -2   1  10 25.8670 3.33254   2
  -1  -1  10 46.7549 8.24395   1
   1  -1 -10 33.9496 6.26307   1
  -1  -1  10 34.2102 6.31055   1
  -1  -1  10 47.2003 5.74876   2
   1  -1 -10 40.5902 5.14482   2
  -1  -1  10 39.1242 4.39758   3
   1  -1 -10 36.7288 6.69228   1
   1  -1 -10 38.0572 4.29388   3
  -1  -1  10 40.0233 4.45294   3
   1   1 -10 36.7465 4.22614   3
  -1   1  10 40.3917 4.46938   3
   0  -1 -10 140.556 17.2823   2
   0  -1 -10 140.984 25.0444   1
   0  -1 -10 127.502 14.2614   3
   0  -1  10 126.980 14.2427   3
   0  -1  10 138.371 24.6298   1
   0  -1  10 119.245 21.6926   1
   0  -1  10 129.969 16.3462   2
   0  -1 -10 145.300 25.7129   1
   0   1  10 146.152 25.8499   1
   0   1 -10 182.195 21.2270   2
   0   1  10 116.173 13.4950   3
   0   1  10 131.104 23.5250   1
  -1  -1 -10 527.163 57.6568   3
  -1  -1 -10 668.006 78.1070   2
   1  -1  10 471.371 85.4953   1
   1  -1  10 490.199 61.9350   2
   1  -1  10 525.173 93.7264   1
   1  -1  10 517.014 56.9439   3
   1   1  10 533.494 58.0946   3
   1   1  10 491.390 88.5400   1
   1   1  10 519.018 92.7805   1
  -1   1 -10 516.176 64.2182   2
  -1   1 -10 524.369 57.4572   3
   2  -1  10 123.472 15.4463   2
   2  -1  10 109.004 19.8919   1
   2  -1  10 115.686 13.0786   3
  -2  -1 -10 96.7690 13.1469   2
   2  -1  10 124.272 22.2291   1
  -2  -1 -10 134.199 14.3714   3
  -2   1 -10 149.533 15.5302   3
   2   1  10 138.686 24.4647   1
   2   1  10 145.964 17.5114   2
  -2   1 -10 121.289 21.7638   1
  -2   1 -10 123.966 22.1861   1
  -2   1 -10 143.710 17.2842   2
   2   1  10 113.210 20.5409   1
  -3  -1 -10 672.704 118.843   1
   3  -1  10 535.217 69.3488   2
   3  -1  10 513.952 60.6733   3
  -3  -1 -10 680.281 72.2257   3
   3  -1  10 866.580 149.527   1
  -3  -1 -10 842.071 145.594   1
   3  -1  10 757.796 132.218   1
   3   1  10 643.143 114.241   1
   3   1  10 543.123 98.8755   1
  -3   1 -10 499.011 92.2599   1
  -3   1 -10 639.470 69.3150   3
  -3   1 -10 663.783 117.456   1
   3   1  10 762.178 89.7621   2
   3   1  10 624.240 68.2015   3
  -3   1 -10 636.263 78.2001   2
   4  -1  10 0.34702 0.43216   1
  -4  -1 -10 1.33278 0.47032   1
  -4  -1 -10 1.81553 0.50191   1
  -4  -1 -10 1.78419 0.42993   3
   4  -1  10 1.20576 0.37840   3
   4  -1  10 3.33424 0.72953   1
   4  -1  10 1.16222 0.67261   2
  -4   1 -10 1.51843 0.55834   1
   4   1  10 2.03315 0.60812   2
   4   1  10 1.73427 0.52435   1
   4   1  10 2.85578 0.54062   3
  -4   1 -10 1.67633 0.63034   2
  -4   1 -10 2.32999 0.51069   3
   4   1  10 2.16889 0.61460   1
  -4   1 -10 1.25885 0.46547   1
   5  -1  10 573.828 101.623   1
   5  -1  10 627.593 74.8229   2
  -5  -1 -10 444.452 81.7904   1
  -5  -1 -10 611.179 64.2529   3
   5  -1  10 581.700 62.1280   3
  -5  -1 -10 550.320 97.9624   1
   5  -1  10 491.700 88.9446   1
   5   1  10 580.313 102.637   1
  -5   1 -10 485.763 88.0612   1
   5   1  10 480.067 87.1750   1
  -5   1 -10 385.473 73.1022   1
   5   1  10 621.740 65.0277   3
  -5   1 -10 548.196 67.5776   2
   5   1  10 527.390 65.7168   2
   6  -1  10 0.53064 0.32903   3
  -6  -1 -10 0.68996 0.53170   2
  -6  -1 -10 0.21377 0.39191   3
   6  -1  10 1.38284 0.64902   2
   6   1  10 1.46210 0.59380   2
   6   1  10 0.49401 0.39737   3
  -6   1 -10 1.64196 0.44693   3
  -6   1 -10 1.28562 0.63368   2
   7  -1  10 29.8423 3.83184   2
  -7  -1 -10 23.7762 3.30965   2
   7   1  10 27.5557 3.65545   2
  -7   1 -10 25.2493 3.42361   2
  -8  -1 -10 128.774 16.6435   2
   8  -1  10 145.915 18.1513   2
  -8  -1 -10 158.731 16.9058   3
   8   1  10 149.071 18.4468   2
  -8   1 -10 150.448 18.5737   2
   8   1  10 132.714 15.0348   3
  -9  -1 -10 15.6495 2.28324   2
   9  -1  10 17.4123 2.43351   2
   9   1  10 16.5769 2.38352   2
  -9   1 -10 15.8779 2.32618   2
  10  -1  10 7.42280 1.28641   2
 -10  -1 -10 9.48534 1.47532   2
  10   1  10 7.34179 1.34512   2
 -10   1 -10 7.54455 1.35685   2
  11  -1  10 28.3280 3.82054   2
 -11  -1 -10 36.0905 4.56217   2
 -11   1 -10 24.6203 3.51110   2
  11   1  10 29.5208 3.95761   2
 -12  -1 -10 23.5843 3.08296   2
  12  -1  10 15.2474 2.29055   2
  12   1  10 15.8013 2.37770   2
 -12   1 -10 17.4272 2.49653   2
  13  -1  10 6.29606 1.22740   2
 -13  -1 -10 7.22588 1.26118   2
 -13   1 -10 5.70009 1.19771   2
  13   1  10 6.46574 1.28698   2
 -14  -1 -10 5.01812 1.06332   2
  14  -1  10 4.61796 1.00113   2
 -14   1 -10 4.19306 1.03384   2
  14   1  10 5.64270 1.16370   2
 -15  -1 -10 10.2384 1.65661   2
  15  -1  10 8.16984 1.47978   2
  15   1  10 10.1782 1.68134   2
 -15   1 -10 12.3005 1.84180   2
  16  -1  10 7.90358 1.38859   2
 -16   1 -10 6.24639 1.28313   2
  21  -2 -10 9.58511 1.60076   2
 -21   2  10 7.12599 1.43337   2
  20  -2 -10 7.27708 1.33972   2
 -20  -2  10 5.31939 1.24152   2
 -20   2  10 8.78603 1.50150   2
 -19  -2  10 0.88310 0.75709   2
  19  -2 -10 1.02777 0.74145   2
 -19   2  10 -0.7314 0.67065   2
  19   2 -10 0.17101 0.64150   2
  18  -2 -10 9.70016 1.67921   2
  18   2 -10 10.5582 1.72471   2
 -18   2  10 12.0285 1.87956   2
 -17  -2  10 3.92589 1.00359   2
  17  -2 -10 5.63000 1.14641   2
 -17   2  10 8.13364 1.38514   2
  17   2 -10 7.60213 1.30913   2
  16  -2 -10 6.40869 1.18835   2
 -16  -2  10 5.09592 1.09948   2
  15  -2 -10 20.5896 2.74700   2
 -15  -2  10 20.7036 2.76881   2
  15   2 -10 13.2766 2.11806   2
 -14  -2  10 0.53191 0.49543   2
  14  -2 -10 1.05204 0.66039   2
  14   2 -10 0.64851 0.53512   2
 -13  -2  10 10.2502 1.58438   2
  13  -2 -10 13.6685 1.91985   2
  13   2 -10 10.5474 1.61232   2
  12  -2 -10 102.420 12.2671   2
 -12  -2  10 85.3840 10.6607   2
 -12  -2  10 80.5033 9.11136   3
  12   2 -10 72.9683 9.55723   2
 -12   2  10 80.6509 10.2401   2
 -11  -2  10 1.65299 0.64973   2
 -11  -2  10 2.53427 0.63252   3
 -11   2  10 1.94066 0.62857   2
  11   2 -10 3.58495 0.75312   3
  11   2 -10 3.17575 0.73670   2
  10  -2 -10 -0.2053 0.39061   1
 -10  -2  10 0.31398 0.40587   2
 -10  -2  10 0.31232 0.34813   1
 -10  -2  10 -0.3863 0.36754   1
 -10  -2  10 0.95511 0.43497   3
  10  -2 -10 -0.4368 0.33933   1
 -10   2  10 0.76275 0.43362   1
  10   2 -10 0.32571 0.33728   1
  10   2 -10 0.51845 0.44756   2
 -10   2  10 -0.2012 0.52692   2
  10   2 -10 0.52526 0.46671   3
  -9  -2  10 4.39382 0.92038   1
   9  -2 -10 3.91758 0.84711   1
   9  -2 -10 1.42011 0.53631   1
  -9  -2  10 4.37468 0.76327   3
  -9  -2  10 3.49512 0.71840   2
  -9  -2  10 4.12013 0.89188   1
   9   2 -10 2.68634 0.63200   1
  -9   2  10 2.04745 0.59044   1
  -9   2  10 2.85594 0.70616   1
   9   2 -10 3.08779 0.68463   2
   9   2 -10 4.09341 0.78977   3
   9   2 -10 3.28778 0.73285   1
  -9   2  10 3.51475 0.52246   3
  -9   2  10 4.08633 0.84663   2
   8  -2 -10 -0.1054 0.36496   1
   8  -2 -10 0.10474 0.20587   3
  -8  -2  10 0.00000 0.41368   2
  -8  -2  10 0.98341 0.49136   3
   8  -2 -10 0.42745 0.50082   2
  -8  -2  10 -0.9230 0.40627   1
  -8  -2  10 0.16567 0.31562   1
   8  -2 -10 0.92101 0.42479   1
  -8   2  10 0.18883 0.24837   3
  -8   2  10 0.31947 0.51220   2
   8   2 -10 0.59328 0.53082   3
   8   2 -10 1.02595 0.45208   1
  -8   2  10 0.27988 0.33762   1
   8   2 -10 1.00072 0.49170   2
  -8   2  10 0.43103 0.38302   1
   8   2 -10 0.33761 0.31290   1
   7  -2 -10 11.8228 2.21224   1
  -7  -2  10 14.4870 1.90014   2
  -7  -2  10 13.5830 2.50480   1
   7  -2 -10 12.1715 1.41165   3
   7  -2 -10 7.90389 1.63033   1
  -7  -2  10 11.0847 1.47231   3
   7  -2 -10 11.6811 1.69550   2
  -7  -2  10 14.3226 2.59852   1
   7   2 -10 15.2812 2.00580   2
   7   2 -10 11.1509 2.09545   1
  -7   2  10 12.2054 2.30416   1
  -7   2  10 15.3430 2.02344   2
  -7   2  10 10.2479 1.29729   3
   7   2 -10 9.83453 1.96134   1
  -7   2  10 13.6827 2.49146   1
   6  -2 -10 41.7991 7.57195   1
   6  -2 -10 45.3280 5.71214   2
  -6  -2  10 37.5071 5.00943   2
   6  -2 -10 38.2772 7.04210   1
  -6  -2  10 47.2863 5.21980   3
  -6  -2  10 43.5565 7.83614   1
  -6  -2  10 56.1413 9.82278   1
   6  -2 -10 42.3298 4.75601   3
  -6   2  10 42.9673 7.76245   1
  -6   2  10 44.6992 5.65419   2
   6   2 -10 36.4538 6.76719   1
  -6   2  10 44.4181 4.91293   3
   6   2 -10 47.4073 8.43662   1
   6   2 -10 45.3106 5.70607   2
  -6   2  10 46.4714 8.30014   1
   6   2 -10 46.7255 5.19240   3
   5  -2 -10 37.3420 6.89146   1
   5  -2 -10 42.7213 7.72839   1
  -5  -2  10 44.9493 5.68492   2
  -5  -2  10 51.9840 9.16600   1
   5  -2 -10 50.9368 6.21375   2
  -5  -2  10 45.2500 8.09567   1
  -5  -2  10 39.4369 4.64214   3
   5  -2 -10 40.3813 4.64146   3
  -5   2  10 39.5171 4.56528   3
   5   2 -10 41.9142 7.59706   1
   5   2 -10 39.7012 7.24861   1
   5   2 -10 49.0642 6.04981   2
  -5   2  10 42.9662 7.75623   1
   5   2 -10 49.9738 5.42362   3
  -5   2  10 42.3736 7.67173   1
  -5   2  10 43.2879 5.53261   2
  -4  -2  10 11.0421 2.03970   1
  -4  -2  10 11.2277 1.37879   3
   4  -2 -10 10.5927 1.51769   2
  -4  -2  10 11.7071 1.61380   2
   4  -2 -10 8.73184 1.12583   3
   4  -2 -10 10.1587 1.90555   1
   4  -2 -10 12.4591 2.28640   1
  -4  -2  10 9.85605 1.85069   1
  -4   2  10 7.22109 1.03686   3
  -4   2  10 10.7175 1.99950   1
   4   2 -10 12.5164 2.27235   1
   4   2 -10 11.9410 1.47021   3
  -4   2  10 7.73226 1.54769   1
   4   2 -10 10.1891 1.47801   2
   4   2 -10 10.9569 2.01839   1
  -4   2  10 9.24630 1.41884   2
  -3  -2  10 185.992 23.9858   2
   3  -2 -10 228.459 40.4012   1
  -3  -2  10 210.542 37.5922   1
   3  -2 -10 229.914 24.4961   3
   3  -2 -10 251.223 43.9770   1
   3  -2 -10 268.355 31.4807   2
  -3  -2  10 180.311 21.0779   3
  -3  -2  10 250.353 43.8232   1
   3   2 -10 287.613 49.7675   1
   3   2 -10 159.480 21.7679   2
  -3   2  10 257.056 30.4185   2
  -3   2  10 226.344 40.0710   1
  -3   2  10 242.142 42.5512   1
   3   2 -10 209.780 37.5003   1
   3   2 -10 211.382 23.2304   3
   2  -2 -10 447.950 52.8267   3
  -2  -2  10 594.404 104.813   1
  -2  -2  10 643.973 76.2862   2
   2  -2 -10 531.528 95.0481   1
   2  -2 -10 577.478 70.1635   2
   2  -2 -10 522.910 93.7229   1
  -2  -2  10 490.305 55.7046   3
  -2  -2  10 652.560 113.941   1
  -2   2  10 479.854 87.1370   1
   2   2 -10 617.018 108.365   1
  -2   2  10 540.662 59.1601   3
   2   2 -10 566.128 100.426   1
  -2   2  10 543.133 96.8356   1
   2   2 -10 533.564 66.2178   2
  -2   2  10 568.459 69.3440   2
   1  -2 -10 53.2965 5.83888   3
   1  -2 -10 55.2620 9.83977   1
   1  -2 -10 45.8441 8.39486   1
   1  -2 -10 59.0843 7.20840   2
  -1  -2  10 54.8271 5.99842   3
  -1  -2  10 57.5374 7.07335   2
  -1  -2  10 54.5196 9.72596   1
  -1  -2  10 49.6504 8.96092   1
  -1   2  10 49.3690 8.92643   1
   1   2 -10 65.8727 7.84424   2
  -1   2  10 48.8696 8.84971   1
   1   2 -10 36.5069 6.99090   1
  -1   2  10 41.6686 5.65776   2
   1   2 -10 56.7490 10.0643   1
  -1   2  10 50.0395 5.62302   3
   0  -2  10 3.78291 0.81880   1
   0  -2  10 3.29812 0.72220   1
   0  -2 -10 3.54422 0.77167   1
   0  -2 -10 3.37857 0.54768   3
   0  -2  10 1.71259 0.64558   2
   0  -2 -10 2.78782 0.65727   2
   0  -2 -10 4.73802 0.95072   1
   0   2  10 3.61852 0.61514   3
   0   2  10 4.59797 0.99241   1
   0   2 -10 2.92832 0.64910   3
   0   2  10 1.56991 0.49579   1
   0   2 -10 3.40172 0.76010   1
   0   2  10 3.45916 0.71657   2
   0   2 -10 1.74422 0.52384   1
   0   2 -10 2.03077 0.65443   2
  -1  -2 -10 642.163 82.4058   2
   1  -2  10 730.397 90.1750   2
  -1  -2 -10 630.599 114.927   1
  -1  -2 -10 707.048 126.609   1
   1  -2  10 805.290 85.1990   3
   1  -2  10 733.713 130.731   1
   1  -2  10 819.262 144.052   1
  -1  -2 -10 634.393 73.1239   3
   1   2  10 818.670 86.1291   3
   1   2  10 575.016 106.591   1
   1   2  10 685.989 86.2123   2
  -1   2 -10 969.806 167.941   1
  -1   2 -10 838.597 99.9773   2
   1   2  10 707.023 126.599   1
  -1   2 -10 778.648 137.696   1
  -1   2 -10 826.712 86.7945   3
   2  -2  10 89.8967 16.0538   1
  -2  -2 -10 103.165 12.4144   2
   2  -2  10 113.870 13.4158   2
  -2  -2 -10 90.8196 16.1948   1
   2  -2  10 79.1029 14.3913   1
  -2  -2 -10 88.4411 9.71890   3
   2  -2  10 83.2569 9.39513   3
  -2  -2 -10 85.6141 15.3852   1
  -2   2 -10 84.5943 15.2248   1
   2   2  10 59.8406 11.5126   1
  -2   2 -10 92.4198 16.4463   1
   2   2  10 95.6541 10.2485   3
  -2   2 -10 89.8854 9.87658   3
   2   2  10 84.9239 15.2755   1
  -2   2 -10 80.5329 10.3622   2
   2   2  10 83.4539 10.6139   2
  -3  -2 -10 32.6534 6.09207   1
  -3  -2 -10 41.7396 5.30162   2
   3  -2  10 43.5433 7.79029   1
   3  -2  10 35.7623 6.56969   1
  -3  -2 -10 45.1339 4.84640   3
  -3  -2 -10 39.0809 7.07778   1
   3  -2  10 39.9455 4.52311   3
  -3   2 -10 38.3071 4.98788   2
   3   2  10 43.0425 7.68563   1
   3   2  10 38.4342 5.01831   2
  -3   2 -10 35.6289 4.22399   3
  -3   2 -10 45.5541 8.08305   1
  -3   2 -10 46.7407 8.27751   1
   3   2  10 39.9917 7.21465   1
   4  -2  10 7.41447 1.52753   1
  -4  -2 -10 9.15744 1.44179   2
   4  -2  10 9.27744 1.21974   3
  -4  -2 -10 9.32225 1.78831   1
  -4  -2 -10 9.46544 1.18356   3
  -4  -2 -10 7.44678 1.51736   1
   4  -2  10 10.1249 1.54814   2
   4  -2  10 6.33723 1.35956   1
   4   2  10 10.5241 1.97822   1
   4   2  10 10.6659 1.56552   2
  -4   2 -10 12.9243 2.37086   1
  -4   2 -10 11.2167 1.62402   2
   4   2  10 10.1844 1.27798   3
  -4   2 -10 9.40107 1.25957   3
  -5  -2 -10 6.78433 0.92486   3
  -5  -2 -10 6.68788 1.13584   2
   5  -2  10 6.63007 1.18607   2
   5   2  10 6.18727 0.92124   3
  -5   2 -10 8.15564 1.12056   3
   5   2  10 8.76862 1.36552   2
  -5   2 -10 5.82309 1.08564   2
  -6  -2 -10 2.84132 0.81492   2
   6  -2  10 1.16583 0.65786   2
  -6   2 -10 2.07349 0.54864   3
  -6   2 -10 2.45773 0.73247   2
   6   2  10 1.80092 0.51869   3
  -7  -2 -10 135.661 16.8910   2
   7  -2  10 148.263 18.0228   2
  -7  -2 -10 133.564 14.6899   3
   7   2  10 138.920 17.1715   2
   7   2  10 131.461 14.5533   3
  -7   2 -10 114.960 15.0569   2
  -8  -2 -10 5.21280 0.78909   3
  -8  -2 -10 2.86137 0.88398   2
  -8   2 -10 4.68890 1.06172   2
   8   2  10 6.66327 0.94843   3
   8   2  10 7.42864 1.24322   2
  -9  -2 -10 29.8383 3.87372   2
  -9  -2 -10 26.6366 3.04262   3
   9   2  10 28.0867 3.15798   3
   9   2  10 21.3690 3.12439   2
  -9   2 -10 24.3782 3.35956   2
 -10  -2 -10 16.5976 2.38174   2
 -10   2 -10 12.0194 1.95474   2
  10   2  10 18.5714 2.55189   2
 -11  -2 -10 6.79675 1.27317   2
  11   2  10 4.83460 1.12503   2
 -12  -2 -10 11.6035 1.79746   2
  12  -2  10 9.98711 1.61190   2
 -12   2 -10 7.51394 1.44077   2
  13  -2  10 4.96547 1.05419   2
 -13  -2 -10 6.31886 1.25818   2
  14  -2  10 0.04733 0.61976   2
  14   2  10 -0.7749 0.66589   2
  15  -2  10 2.61456 0.79788   2
  20  -3 -10 17.1079 2.47659   2
 -20   3  10 15.2272 2.32481   2
  19  -3 -10 15.9079 2.35168   2
 -19   3  10 17.1931 2.50083   2
  18  -3 -10 7.00608 1.28383   2
 -18   3  10 9.87141 1.61642   2
  17  -3 -10 22.5897 3.15264   2
 -17   3  10 23.3551 3.24849   2
  16  -3 -10 69.3920 8.74848   2
 -16   3  10 63.5654 8.24237   2
  15  -3 -10 59.5216 7.21825   2
 -15   3  10 39.5022 5.40993   2
  14  -3 -10 14.5222 2.09786   2
 -14  -3  10 14.5374 1.91294   3
 -14   3  10 14.0775 2.05479   2
  14   3 -10 14.0695 2.04077   2
  14   3 -10 12.9615 1.82843   3
 -13  -3  10 27.3429 3.16111   3
  13  -3 -10 24.9742 3.31133   2
 -13   3  10 20.4772 2.89185   2
  13   3 -10 23.3564 3.14483   2
 -12  -3  10 9.63457 1.36929   3
  12  -3 -10 9.60335 1.52854   2
  12   3 -10 7.36344 1.25369   2
  12   3 -10 9.25607 1.39314   3
 -12   3  10 15.8979 2.14819   2
 -11  -3  10 13.6662 1.78531   3
  11  -3 -10 17.1800 2.31893   2
 -11   3  10 12.3832 1.84658   2
  11   3 -10 12.3129 1.71518   3
  11   3 -10 13.6753 1.92549   2
  10  -3 -10 1.68108 0.59712   2
 -10  -3  10 1.95687 0.67635   3
  10   3 -10 1.92022 0.71428   3
  10   3 -10 2.40991 0.61361   2
   9  -3 -10 100.016 12.8699   2
  -9  -3  10 93.5559 11.0721   3
  -9   3  10 110.430 13.7742   2
   9   3 -10 128.888 13.6112   3
   9   3 -10 110.510 13.7572   2
  -9   3  10 121.064 12.8659   3
  -8  -3  10 177.948 32.4901   1
   8  -3 -10 234.354 28.1847   2
  -8  -3  10 237.728 25.0378   3
   8  -3 -10 153.067 28.8118   1
  -8  -3  10 208.597 37.2209   1
  -8   3  10 220.818 26.9566   2
  -8   3  10 239.426 25.0263   3
   8   3 -10 176.581 23.0084   2
   8   3 -10 214.582 38.1335   1
  -7  -3  10 91.5102 16.1078   1
  -7  -3  10 72.5334 13.1641   1
   7  -3 -10 78.5115 14.1092   1
   7  -3 -10 62.2960 11.6428   1
   7  -3 -10 79.2508 8.75509   3
   7  -3 -10 77.3544 9.81132   2
   7   3 -10 86.0205 10.5606   2
  -7   3  10 87.9695 9.38759   3
  -7   3  10 70.4557 12.8801   1
   7   3 -10 97.3735 17.0535   1
   7   3 -10 76.5435 13.7978   1
   7   3 -10 79.4541 8.91498   3
  -7   3  10 81.2060 14.5204   1
  -7   3  10 78.8702 9.94694   2
   6  -3 -10 201.836 36.4066   1
  -6  -3  10 202.291 22.8359   3
   6  -3 -10 276.739 32.4053   2
   6  -3 -10 236.946 25.1835   3
   6  -3 -10 192.277 34.9303   1
  -6  -3  10 228.894 40.5558   1
  -6  -3  10 206.876 37.1719   1
   6   3 -10 188.519 34.3486   1
  -6   3  10 211.042 37.8208   1
   6   3 -10 226.181 40.1512   1
   6   3 -10 242.765 25.7466   3
  -6   3  10 170.753 22.9157   2
  -6   3  10 226.946 40.2849   1
   6   3 -10 228.102 27.8823   2
  -6   3  10 231.181 24.7721   3
   5  -3 -10 233.792 30.3221   2
   5  -3 -10 360.763 36.3474   3
   5  -3 -10 272.487 48.6109   1
   5  -3 -10 302.018 53.2060   1
  -5  -3  10 212.230 39.4310   1
  -5   3  10 295.505 52.2019   1
   5   3 -10 300.525 36.2410   2
   5   3 -10 274.564 48.9333   1
   5   3 -10 252.735 45.5698   1
  -5   3  10 253.368 32.0328   2
  -5   3  10 268.133 29.4892   3
  -5   3  10 309.505 54.3854   1
   4  -3 -10 4.71932 0.93758   1
   4  -3 -10 3.10018 0.68900   1
   4  -3 -10 3.44945 0.70549   2
  -4  -3  10 2.99421 0.67700   1
  -4  -3  10 3.07677 0.67900   1
   4  -3 -10 1.97723 0.46382   3
   4   3 -10 2.51543 0.61240   1
   4   3 -10 3.35460 0.71280   1
   4   3 -10 2.70610 0.62071   2
  -4   3  10 2.53062 0.66397   1
  -4   3  10 2.99304 0.64847   2
  -4   3  10 2.45967 0.52820   3
   3  -3 -10 762.649 136.963   1
  -3  -3  10 812.213 99.9256   2
   3  -3 -10 707.265 128.482   1
   3  -3 -10 871.388 105.341   2
  -3  -3  10 1016.23 103.528   3
   3   3 -10 776.286 139.059   1
   3   3 -10 653.974 77.6955   3
  -3   3  10 865.714 92.2578   3
  -3   3  10 802.125 99.1057   2
   3   3 -10 796.549 142.191   1
   2  -3 -10 78.9734 8.45911   3
  -2  -3  10 60.9253 8.07913   2
   2  -3 -10 89.6537 15.6776   1
  -2  -3  10 66.6714 7.67607   3
   2  -3 -10 77.3404 9.50989   2
   2  -3 -10 71.2113 12.7762   1
   2   3 -10 75.7184 13.4793   1
  -2   3  10 72.3833 9.07666   2
   2   3 -10 69.4755 12.5186   1
  -1  -3  10 688.064 89.4653   2
   1  -3 -10 621.813 115.977   1
   1  -3 -10 818.485 100.857   2
   1  -3 -10 1011.12 175.961   1
  -1  -3  10 911.199 160.209   1
  -1   3  10 833.838 148.185   1
   1   3 -10 974.042 115.119   2
   1   3 -10 787.566 87.1258   3
   1   3 -10 833.255 148.093   1
   1   3 -10 815.721 145.382   1
  -1   3  10 842.081 149.460   1
  -1   3  10 866.290 105.142   2
   0  -3 -10 186.353 21.4019   3
   0  -3  10 215.008 26.5351   2
   0  -3  10 218.045 38.7449   1
   0  -3 -10 219.186 26.8831   2
   0  -3  10 168.783 31.2271   1
   0  -3  10 212.931 23.3261   3
   0   3 -10 189.800 34.4139   1
   0   3  10 193.628 34.9797   1
   0   3 -10 241.166 25.4107   3
   0   3 -10 244.567 29.2361   2
   0   3  10 194.788 21.9872   3
   0   3 -10 198.955 35.8110   1
   0   3  10 280.838 48.6617   1
  -1  -3 -10 0.95899 0.43944   2
  -1  -3 -10 1.11689 0.40305   1
   1  -3  10 0.81613 0.42730   1
   1  -3  10 0.50651 0.34437   1
   1  -3  10 2.08701 0.53571   2
  -1  -3 -10 1.26874 0.42699   1
   1  -3  10 0.79879 0.48371   3
  -1  -3 -10 0.67303 0.34184   3
  -1   3 -10 0.89993 0.57350   3
   1   3  10 0.09619 0.30504   1
   1   3  10 0.36272 0.38960   3
   1   3  10 -0.0099 0.33131   1
  -1   3 -10 0.85636 0.56237   2
  -2  -3 -10 203.689 36.6112   1
   2  -3  10 214.172 23.5479   3
  -2  -3 -10 198.593 35.8506   1
  -2  -3 -10 241.653 25.4592   3
   2  -3  10 200.348 36.1099   1
  -2  -3 -10 200.337 25.3475   2
   2  -3  10 250.234 29.8791   2
  -2   3 -10 218.255 23.8618   3
   2   3  10 210.528 23.2350   3
  -2   3 -10 191.187 24.5574   2
   3  -3  10 63.1871 7.69385   2
   3  -3  10 42.9905 5.28982   3
  -3   3 -10 78.9838 9.26196   2
  -3   3 -10 53.6562 6.06539   3
   3   3  10 50.8384 5.77332   3
   3   3  10 47.0783 6.22049   2
  -4  -3 -10 299.181 31.6948   3
   4  -3  10 233.124 30.2691   2
  -4   3 -10 299.113 31.8298   3
  -4   3 -10 278.814 34.2932   2
   4   3  10 255.872 32.2369   2
  -5  -3 -10 16.2328 1.93997   3
   5  -3  10 13.2422 2.04046   2
  -5   3 -10 21.2453 2.46083   3
   5   3  10 15.3048 1.90440   3
  -5   3 -10 16.0948 2.29166   2
   5   3  10 18.8991 2.54183   2
  -6  -3 -10 94.3137 10.4463   3
   6  -3  10 86.5054 11.1957   2
  -6  -3 -10 90.8796 11.6091   2
   6   3  10 96.5082 12.1169   2
  -6   3 -10 105.304 12.8971   2
   6   3  10 95.6513 10.5608   3
   7  -3  10 22.0799 3.15159   2
  -7  -3 -10 26.4297 3.58364   2
  -7  -3 -10 29.1895 3.24117   3
  -7   3 -10 39.9594 4.82866   2
   7   3  10 22.4044 3.22000   2
   7   3  10 26.6328 3.06803   3
  -8  -3 -10 35.9128 4.77241   2
   8  -3  10 34.8615 4.65224   2
  -8  -3 -10 36.0678 4.10970   3
   8   3  10 34.8713 4.06033   3
  -8   3 -10 40.3536 5.13941   2
   8   3  10 36.8352 4.85142   2
  -9  -3 -10 105.131 11.3183   3
   9  -3  10 92.4526 11.8131   2
  -9  -3 -10 88.1130 11.4897   2
   9   3  10 113.142 13.7367   2
  -9   3 -10 89.7969 11.5791   2
 -10  -3 -10 10.3370 1.65896   2
  10  -3  10 7.58678 1.35412   2
 -10  -3 -10 6.22369 0.94842   3
  10   3  10 8.52163 1.43832   2
 -10   3 -10 5.30696 1.18334   2
  10   3  10 9.31793 1.22551   3
  11  -3  10 4.34689 1.00173   2
 -11   3 -10 2.66907 0.81263   2
  12  -3  10 10.4041 1.67534   2
 -12   3 -10 8.51125 1.47648   2
  13  -3  10 8.72792 1.47537   2
 -13   3 -10 6.89593 1.31647   2
  14  -3  10 1.98933 0.75089   2
 -14   3 -10 2.18894 0.72447   2
  18  -4 -10 10.0055 1.63282   2
  17  -4 -10 0.59549 0.64754   2
  16  -4 -10 0.18020 0.64363   2
 -15  -4  10 0.80853 0.65950   3
  15  -4 -10 2.24231 0.80004   2
  15   4 -10 0.04487 0.80353   3
 -14  -4  10 6.32945 1.21530   3
  14  -4 -10 6.12607 1.17542   2
  14   4 -10 5.39017 1.15066   3
  13  -4 -10 18.9587 2.78674   2
  13   4 -10 29.0153 3.33851   3
  12  -4 -10 132.931 16.5842   2
 -12  -4  10 127.498 14.3303   3
 -12   4  10 129.648 16.2903   2
  12   4 -10 132.252 14.7046   3
 -11  -4  10 91.7162 9.95444   3
  11   4 -10 86.4143 9.59938   3
 -11   4  10 72.8574 9.56521   2
 -10  -4  10 4.57007 0.87267   3
  10   4 -10 4.11607 0.87772   3
 -10   4  10 3.55264 0.87082   2
  -9  -4  10 32.1827 3.80997   3
   9   4 -10 32.5289 3.88305   3
  -9   4  10 32.7845 4.27529   2
   8  -4 -10 89.9327 11.5900   2
   8  -4 -10 115.678 12.1043   3
   8   4 -10 105.457 11.5028   3
  -8   4  10 95.4198 10.6321   3
  -8   4  10 89.6397 11.5497   2
   7  -4 -10 8.40868 1.34603   2
   7  -4 -10 11.1731 1.32530   3
  -7  -4  10 7.47215 1.25701   3
  -7   4  10 9.09586 1.41108   2
  -7   4  10 12.9321 1.49544   3
   7   4 -10 11.3144 1.57748   3
  -6  -4  10 32.3912 3.65098   3
   6  -4 -10 31.2150 3.41070   3
  -6   4  10 26.0146 3.04251   3
  -6   4  10 22.0460 3.11588   2
   6   4 -10 30.5973 3.55064   3
  -5  -4  10 28.3229 3.30766   3
   5  -4 -10 27.2794 3.09199   3
   5   4 -10 29.2077 3.40267   3
  -5   4  10 22.3293 3.10088   2
  -4  -4  10 157.434 16.8270   3
   4  -4 -10 155.908 16.5977   3
   4   4 -10 146.834 16.0637   3
  -4   4  10 117.058 15.4703   2
  -4   4  10 140.589 15.5067   3
  -3  -4  10 8.25517 1.26530   3
   3  -4 -10 8.24028 1.12035   3
   3   4 -10 9.14865 1.37618   3
  -3   4  10 8.50421 1.13851   3
   2   4 -10 36.1248 4.21577   3
  -2   4  10 35.1087 4.03563   3
  -1  -4  10 28.8139 3.56127   3
   1  -4 -10 30.9285 3.57091   3
   1   4 -10 31.9530 3.78533   3
  -1   4  10 37.6713 4.08885   3
   0  -4  10 375.823 39.9157   3
   0  -4 -10 262.258 31.9648   3
   0   4  10 422.885 43.3019   3
   0   4 -10 368.224 39.3696   3
   1  -4  10 308.253 31.3563   3
  -1  -4 -10 207.954 23.9316   3
   1   4  10 250.231 26.9084   3
  -1   4 -10 192.333 23.0143   3
  -1   4 -10 274.745 32.8101   2
  -2  -4 -10 72.1927 8.18912   3
   2  -4  10 78.7432 8.78063   3
  -2   4 -10 85.3566 9.28467   3
   2   4  10 63.8589 7.63977   3
  -2   4 -10 88.7572 10.7784   2
   3  -4  10 122.035 15.0511   2
   3  -4  10 136.424 14.3596   3
  -3  -4 -10 122.117 13.1701   3
  -3   4 -10 112.272 12.6195   3
   3   4  10 113.996 12.6006   3
  -3   4 -10 91.1399 12.2974   2
   4  -4  10 44.8180 4.97638   3
   4  -4  10 33.6850 4.57050   2
   4   4  10 42.5227 4.67498   3
  -4   4 -10 36.4993 4.83813   2
  -4   4 -10 37.6156 4.46780   3
  -5  -4 -10 1.66371 0.47487   3
   5  -4  10 1.89306 0.72628   2
   5   4  10 1.93214 0.59513   3
  -5   4 -10 1.47934 0.66086   2
  -6  -4 -10 7.70665 1.03664   3
   6  -4  10 8.31228 1.39132   2
  -6   4 -10 4.63398 1.01059   2
   6   4  10 5.19123 0.93900   3
   7  -4  10 81.3015 10.9013   2
  -7  -4 -10 113.569 11.9696   3
   7   4  10 106.344 11.4482   3
  -7   4 -10 97.1726 12.2726   2
  -8  -4 -10 12.9339 1.73728   3
  -8   4 -10 19.7069 2.67318   2
   8   4  10 18.2693 2.15680   3
   9  -4  10 14.9219 2.32349   2
   9   4  10 19.3998 2.29548   3
  -9   4 -10 19.5065 2.74394   2
 -10  -4 -10 14.6942 1.80139   3
  10  -4  10 13.2631 2.07783   2
  10   4  10 14.3489 1.78855   3
 -10   4 -10 10.8555 1.81259   2
 -11   4 -10 8.69003 1.54851   2
  12  -4  10 52.4352 6.84352   2
 -15  -5  10 14.2069 1.97668   3
  15   5 -10 15.7075 2.17933   3
 -14  -5  10 2.76895 0.98839   3
 -13  -5  10 16.2368 2.15765   3
  13   5 -10 14.2620 2.09100   3
 -12  -5  10 4.62105 0.96411   3
  12   5 -10 3.00308 0.94766   3
 -11  -5  10 13.9963 1.84925   3
  11   5 -10 10.6481 1.66808   3
 -10  -5  10 2.55403 0.70901   3
  10   5 -10 -0.1184 0.75653   3
  -9  -5  10 0.40870 0.66279   3
   9   5 -10 0.26320 0.74688   3
  -8  -5  10 7.46946 1.25446   3
   8   5 -10 9.26957 1.48376   3
   7  -5 -10 -0.0463 0.38308   3
  -7  -5  10 -0.4907 0.49275   3
  -7   5  10 -0.1733 0.42125   3
   7   5 -10 -0.8437 0.61301   3
  -6  -5  10 40.5217 4.71883   3
   6  -5 -10 41.3307 4.64286   3
   6   5 -10 38.7722 4.63548   3
   5  -5 -10 44.5492 4.86232   3
  -5  -5  10 40.3610 4.68264   3
   5   5 -10 41.5415 4.82388   3
  -5   5  10 35.0918 4.20904   3
  -4  -5  10 10.6428 1.54156   3
   4  -5 -10 11.0777 1.45919   3
   4   5 -10 13.3634 1.83245   3
  -4   5  10 13.0600 1.66031   3
   3  -5 -10 0.93974 0.49342   3
  -3   5  10 0.35310 0.47062   3
   3   5 -10 0.49159 0.69828   3
   2  -5 -10 18.6167 2.17369   3
  -2  -5  10 17.9189 2.26707   3
   2   5 -10 18.0046 2.32461   3
  -2   5  10 14.1854 1.87249   3
  -1  -5  10 1.07603 0.58646   3
   1   5 -10 1.59367 0.77571   3
  -1   5  10 1.06190 0.59958   3
   0  -5  10 0.45769 0.60499   3
   0  -5 -10 1.14123 0.51609   3
   0   5  10 -0.2678 0.55152   3
   0   5 -10 1.15628 0.74441   3
  -1  -5 -10 10.1817 1.33048   3
   1  -5  10 9.07351 1.40280   3
  -1   5 -10 8.25290 1.38175   3
   1   5  10 8.93910 1.28633   3
   2  -5  10 91.4564 10.1509   3
  -2  -5 -10 79.3016 9.15660   3
   2   5  10 93.2760 10.1671   3
   3  -5  10 6.60906 1.18320   3
  -3  -5 -10 6.70952 1.02338   3
   3   5  10 6.05974 1.05532   3
  -3   5 -10 7.58150 1.31215   3
  -4  -5 -10 130.275 14.4611   3
   4   5  10 132.353 14.6275   3
  -5  -5 -10 82.9634 9.17627   3
   5   5  10 78.0146 8.82566   3
  -6  -5 -10 0.51207 0.42321   3
   6   5  10 0.31880 0.52465   3
  -7  -5 -10 13.0516 1.62432   3
   7   5  10 11.3301 1.57742   3
  -8  -5 -10 2.45845 0.57282   3
   8   5  10 1.66472 0.58784   3
  -9  -5 -10 10.8614 1.43894   3
   9   5  10 13.2278 1.66206   3
  14   6 -10 -0.0971 0.72581   3
 -13  -6  10 10.6263 1.60055   3
  13   6 -10 11.6473 1.71287   3
 -12  -6  10 37.2116 4.20888   3
  12   6 -10 24.4311 3.24084   3
 -11  -6  10 0.75970 0.65404   3
  11   6 -10 1.66418 0.91342   3
 -10  -6  10 7.76436 1.29387   3
  -9  -6  10 7.18506 1.24615   3
   9   6 -10 7.09997 1.32018   3
  -8  -6  10 2.64362 0.82296   3
   8   6 -10 2.31025 0.95851   3
  -7  -6  10 15.8150 2.15367   3
  -7   6  10 17.2273 2.14708   3
   7   6 -10 16.6252 2.22690   3
   6  -6 -10 0.57550 0.46959   3
  -6  -6  10 1.77299 0.65388   3
  -6   6  10 1.00116 0.53858   3
   6   6 -10 0.07815 0.70672   3
   5  -6 -10 11.9908 1.58900   3
  -5  -6  10 14.4276 1.94479   3
   5   6 -10 12.8498 1.96303   3
  -4  -6  10 -0.5477 0.60315   3
   4  -6 -10 0.35103 0.50595   3
  -4   6  10 0.46385 0.53274   3
   4   6 -10 0.73180 0.78004   3
  -3  -6  10 7.33507 1.27562   3
   3  -6 -10 8.75327 1.23079   3
   3   6 -10 8.95810 1.48545   3
  -3   6  10 7.97125 1.21636   3
  -2  -6  10 4.85951 0.97207   3
   2  -6 -10 3.09193 0.69124   3
   2   6 -10 3.27415 1.03544   3
  -2   6  10 2.82754 0.66032   3
   1  -6 -10 24.2376 2.88718   3
  -1  -6  10 27.9098 3.30075   3
  -1   6  10 20.9543 2.66145   3
   1   6 -10 26.0318 3.20863   3
   0  -6  10 25.4039 3.10545   3
   0   6 -10 23.3115 2.98761   3
   0   6  10 22.3626 2.72506   3
   1  -6  10 27.1790 3.22774   3
  -1  -6 -10 24.3498 2.83642   3
   1   6  10 18.9669 2.47398   3
   2  -6  10 17.9672 2.47689   3
  -2  -6 -10 23.5417 2.70515   3
   2   6  10 19.3409 2.43496   3
  -2   6 -10 23.5364 2.93189   3
  -3  -6 -10 12.2195 1.61631   3
   3   6  10 14.3180 1.82777   3
  -4  -6 -10 20.8071 2.44791   3
   4   6  10 17.5448 2.25327   3
  -5  -6 -10 0.61156 0.53346   3
   5   6  10 -0.1737 0.62271   3
  -6  -6 -10 30.0047 3.48235   3
  -7  -6 -10 0.20332 0.40880   3
   7   6  10 0.45163 0.52424   3
  -8  -6 -10 14.3271 1.86550   3
   8   6  10 16.8544 2.09825   3
 -11  -7  10 12.5469 1.70386   3
  11   7 -10 10.1451 1.62502   3
  10   7 -10 0.12611 0.63878   3
  -9  -7  10 11.5386 1.66692   3
   9   7 -10 11.5464 1.74132   3
  -8  -7  10 20.3242 2.56602   3
   8   7 -10 18.3191 2.48161   3
  -7  -7  10 8.14268 1.33234   3
   7   7 -10 6.75840 1.31457   3
  -6  -7  10 6.10901 1.16981   3
   6   7 -10 6.27155 1.26765   3
   5  -7 -10 6.69952 1.03730   3
  -5  -7  10 8.97012 1.47681   3
   5   7 -10 5.88097 1.25992   3
  -5   7  10 7.45572 1.14010   3
  -4  -7  10 40.5846 4.75673   3
   4   7 -10 40.1937 4.77899   3
  -4   7  10 38.5637 4.51759   3
   3  -7 -10 5.01492 0.90250   3
  -3  -7  10 3.93101 1.02132   3
   3   7 -10 3.21779 1.03318   3
  -3   7  10 3.59404 0.82054   3
  -2  -7  10 0.18029 0.73055   3
   2  -7 -10 0.25379 0.52209   3
  -2   7  10 -0.2542 0.47532   3
   2   7 -10 0.30833 0.88748   3
   1  -7 -10 -0.3134 0.53170   3
  -1  -7  10 -0.2781 0.67601   3
  -1   7  10 0.25256 0.60614   3
   1   7 -10 0.82589 0.92137   3
   0  -7 -10 23.4632 2.77167   3
   0   7 -10 25.5147 3.20639   3
   0   7  10 20.0242 2.53139   3
   1  -7  10 7.99682 1.39354   3
   1   7  10 7.28455 1.18721   3
  -2  -7 -10 3.38522 0.73713   3
   2   7  10 3.84732 0.88767   3
  -3  -7 -10 29.8446 3.54199   3
   3   7  10 32.7588 3.78826   3
  -4  -7 -10 12.6655 1.60465   3
   4   7  10 10.0411 1.49703   3
  -5  -7 -10 2.65171 0.67708   3
   5   7  10 1.58248 0.72697   3
  22   0 -11 0.19996 0.52374   2
 -22   0  11 0.01685 0.66185   2
  21   0 -11 -0.6191 0.56128   2
 -21   0  11 -0.5088 0.74148   2
 -20   0  11 0.61394 0.74611   2
  20   0 -11 0.18083 0.63009   2
  19   0 -11 0.20987 0.63432   2
  18   0 -11 -0.4315 0.61210   2
  17   0 -11 0.03250 0.52671   2
 -17   0  11 -0.0776 0.54854   2
 -16   0  11 0.59801 0.60362   2
 -15   0  11 0.26991 0.49928   2
  14   0 -11 -0.3832 0.58901   2
 -14   0  11 0.07606 0.49303   2
  13   0 -11 -0.2399 0.54977   2
 -13   0  11 -0.1484 0.46958   2
 -12   0  11 0.58365 0.60638   2
  12   0 -11 0.18135 0.51862   2
  11   0 -11 0.84933 0.42623   1
  11   0 -11 0.18347 0.47769   1
 -11   0  11 0.18838 0.35892   3
  11   0 -11 -0.3094 0.51187   2
 -11   0  11 -0.9366 0.55855   2
 -11   0  11 0.63733 0.40128   1
 -11   0  11 -0.0469 0.43686   1
 -10   0  11 -0.6939 0.32545   1
 -10   0  11 -0.6055 0.37521   1
  10   0 -11 0.04091 0.36962   1
  10   0 -11 -0.7583 0.36243   3
  10   0 -11 0.22722 0.35117   1
  -9   0  11 -0.8596 0.34657   1
  -9   0  11 0.16348 0.38414   1
  -9   0  11 -0.5616 0.30117   3
   9   0 -11 -0.5766 0.36563   1
   9   0 -11 0.11984 0.53802   2
   9   0 -11 -0.1916 0.34630   1
  -9   0  11 -0.2914 0.44521   2
   9   0 -11 0.13700 0.38488   3
   8   0 -11 0.38116 0.32738   1
  -8   0  11 -0.0166 0.50469   2
  -8   0  11 0.63573 0.36666   1
  -8   0  11 0.23726 0.35224   1
   8   0 -11 -0.2167 0.42574   2
  -8   0  11 -0.0863 0.24817   3
   8   0 -11 0.29964 0.32085   1
   7   0 -11 -0.3156 0.28302   1
   7   0 -11 -0.3647 0.43952   2
   7   0 -11 -0.5747 0.33151   1
   7   0 -11 0.08246 0.30071   3
  -7   0  11 -0.5017 0.22505   3
  -7   0  11 0.36687 0.33975   1
  -7   0  11 -0.1922 0.25546   3
  -7   0  11 -0.0857 0.40400   2
  -7   0  11 0.72018 0.39005   1
   6   0 -11 0.58125 0.30963   3
  -6   0  11 -0.4333 0.36636   1
   6   0 -11 1.07639 0.42817   1
  -6   0  11 -0.5428 0.35041   1
   6   0 -11 -0.2070 0.47449   2
  -6   0  11 0.05425 0.53284   2
  -6   0  11 0.13536 0.26337   3
   6   0 -11 0.37104 0.35297   1
  -5   0  11 -0.3137 0.39370   2
   5   0 -11 -0.1371 0.47136   2
  -5   0  11 0.03803 0.34367   1
   5   0 -11 0.63933 0.31987   3
   5   0 -11 0.41077 0.37212   1
   5   0 -11 -0.9429 0.40503   1
  -5   0  11 0.73015 0.38480   1
   4   0 -11 0.27750 0.36167   1
   4   0 -11 0.06006 0.31416   1
  -4   0  11 -0.0085 0.32475   3
  -4   0  11 -0.3797 0.32308   1
  -4   0  11 -0.3238 0.29888   1
   4   0 -11 -0.1816 0.41024   2
   4   0 -11 0.10646 0.29579   3
  -4   0  11 0.50456 0.46012   2
  -3   0  11 -0.1480 0.29920   1
  -3   0  11 0.18439 0.29207   3
  -3   0  11 -0.8504 0.42646   2
   3   0 -11 0.26512 0.43395   2
   3   0 -11 -0.5708 0.43017   1
   3   0 -11 -0.2351 0.29512   1
  -3   0  11 0.22559 0.29501   1
   3   0 -11 0.25447 0.25925   3
  -2   0  11 -0.2971 0.27424   3
   2   0 -11 -0.2098 0.37779   2
   2   0 -11 0.05736 0.24985   3
  -2   0  11 -0.4890 0.29763   1
   2   0 -11 -0.4481 0.32199   1
  -2   0  11 -0.1937 0.41515   2
   2   0 -11 0.01934 0.27589   1
  -2   0  11 0.16080 0.33135   1
  -1   0  11 -0.0856 0.30540   3
  -1   0  11 0.00000 0.36895   1
   1   0 -11 -0.1704 0.25820   3
   1   0 -11 -0.5980 0.30767   1
   1   0 -11 0.35746 0.41348   1
  -1   0  11 0.07104 0.52322   2
  -1   0  11 -0.1953 0.35388   1
   1   0 -11 0.18818 0.47041   2
   0   0 -11 -0.3644 0.26478   1
   0   0 -11 0.48879 0.27061   3
   0   0  11 0.26641 0.45365   2
   0   0 -11 -0.2541 0.44581   2
   0   0 -11 -0.3331 0.32633   1
   0   0  11 1.17408 0.44492   1
   0   0  11 1.25555 0.41900   1
   0   0  11 0.19425 0.27402   3
  -1   0 -11 0.41513 0.32305   1
  -1   0 -11 0.19217 0.29279   3
   1   0  11 0.25008 0.31714   1
   1   0  11 0.37028 0.48487   2
  -1   0 -11 -0.4482 0.49304   2
  -1   0 -11 -0.2442 0.32901   1
   1   0  11 -0.2435 0.28500   1
  -2   0 -11 0.36598 0.34078   3
   2   0  11 -0.7371 0.33942   3
   2   0  11 0.81698 0.55816   2
  -2   0 -11 0.12308 0.35120   1
   2   0  11 0.15291 0.31814   1
   2   0  11 -0.3606 0.29018   1
  -2   0 -11 1.00021 0.44042   1
  -2   0 -11 -0.2960 0.47885   2
  -3   0 -11 -1.0545 0.36628   1
   3   0  11 -0.0196 0.33630   1
   3   0  11 0.92982 0.50534   1
  -3   0 -11 0.04703 0.40258   1
   3   0  11 0.23583 0.36175   3
  -3   0 -11 0.12082 0.55937   2
  -3   0 -11 -0.1486 0.34849   3
   3   0  11 0.89384 0.55708   2
   4   0  11 0.46122 0.52037   2
  -4   0 -11 -0.2438 0.49639   2
   4   0  11 0.25585 0.32533   3
  -4   0 -11 0.19016 0.38023   1
  -4   0 -11 0.07660 0.41019   1
   4   0  11 1.00657 0.46508   1
   4   0  11 0.29857 0.42176   1
   5   0  11 0.25143 0.37239   3
  -5   0 -11 0.46150 0.36110   3
  -5   0 -11 -1.0223 0.48524   2
   5   0  11 -0.2858 0.49524   2
   6   0  11 0.13383 0.31815   3
  -6   0 -11 0.30582 0.51726   2
   6   0  11 -0.3258 0.50522   2
   7   0  11 -0.6095 0.58202   2
  -7   0 -11 -0.0451 0.32291   3
  -7   0 -11 0.45177 0.63141   2
   7   0  11 0.39153 0.33144   3
   8   0  11 0.68076 0.61970   2
  -8   0 -11 -0.3578 0.58577   2
  -9   0 -11 -0.0492 0.61255   2
   9   0  11 0.22755 0.60659   2
  10   0  11 0.69074 0.64721   2
 -10   0 -11 0.06302 0.58842   2
 -11   0 -11 1.01032 0.70400   2
  11   0  11 0.55705 0.67400   2
 -12   0 -11 -0.2317 0.66746   2
 -13   0 -11 0.87803 0.64925   2
  14   0  11 -0.2047 0.63417   2
  15   0  11 0.20641 0.65504   2
  22  -1 -11 13.8677 2.11900   2
 -22   1  11 15.6407 2.33237   2
 -21  -1  11 34.3012 4.59175   2
  21  -1 -11 33.0437 4.41715   2
  21   1 -11 32.4064 4.41021   2
 -21   1  11 34.9801 4.64174   2
 -20  -1  11 14.9822 2.28474   2
  20  -1 -11 15.0060 2.24096   2
  20   1 -11 15.3933 2.26117   2
  19  -1 -11 37.0772 4.90684   2
 -19  -1  11 39.0441 5.10776   2
  19   1 -11 35.8652 4.81732   2
 -19   1  11 37.4857 4.96077   2
  18  -1 -11 39.5147 5.42153   2
 -18  -1  11 44.3695 5.88309   2
 -18   1  11 49.6382 6.32202   2
  18   1 -11 57.4982 7.14335   2
 -17  -1  11 2.04937 0.77179   2
  17  -1 -11 2.60144 0.83387   2
 -17   1  11 0.70280 0.70060   2
  17   1 -11 2.42915 0.80424   2
  16  -1 -11 16.4011 2.31159   2
 -16  -1  11 16.9770 2.38663   2
 -16   1  11 13.4207 2.04834   2
  16   1 -11 16.3783 2.32217   2
  15  -1 -11 60.3405 7.55160   2
 -15  -1  11 82.5730 9.66194   2
  15   1 -11 56.9403 7.23040   2
 -15   1  11 42.9268 6.02968   2
  14  -1 -11 32.4933 4.32943   2
 -14  -1  11 31.6414 4.21161   2
  14   1 -11 32.7500 4.34051   2
 -14   1  11 36.2505 4.63208   2
 -13  -1  11 87.1728 10.8632   2
  13  -1 -11 85.5191 10.7306   2
  13   1 -11 92.9995 11.4035   2
 -13   1  11 72.5154 9.57032   2
 -12  -1  11 1.73944 0.61286   2
  12  -1 -11 2.38404 0.75613   2
 -12  -1  11 2.09301 0.54813   3
  12   1 -11 1.73902 0.68516   2
 -12   1  11 3.42337 0.82433   2
  12   1 -11 2.20662 0.54843   3
 -11  -1  11 117.582 20.7756   1
 -11  -1  11 113.322 13.9301   2
  11  -1 -11 88.2380 16.2611   1
  11  -1 -11 118.338 14.3819   2
  11   1 -11 85.4406 11.4719   2
  11   1 -11 125.885 13.2009   3
 -11   1  11 105.405 18.8930   1
 -11   1  11 119.214 14.4747   2
  11   1 -11 85.2172 15.8053   1
 -10  -1  11 76.5369 9.34876   2
 -10  -1  11 76.2583 13.4885   1
  10  -1 -11 72.5821 12.9093   1
  10  -1 -11 64.7931 11.7024   1
 -10  -1  11 62.0131 7.14163   3
 -10  -1  11 67.0310 12.0438   1
  10  -1 -11 72.0185 8.93988   2
  10   1 -11 85.6804 10.2022   2
 -10   1  11 72.6873 12.9176   1
 -10   1  11 67.3381 8.50248   2
  10   1 -11 47.1668 9.04473   1
 -10   1  11 65.4741 7.31180   3
  10   1 -11 63.3449 11.4737   1
  10   1 -11 66.3434 7.46458   3
 -10   1  11 54.7661 10.1745   1
   9  -1 -11 55.3845 9.93597   1
  -9  -1  11 66.8990 11.7344   1
   9  -1 -11 50.2157 9.14317   1
  -9  -1  11 78.6022 9.16698   2
  -9  -1  11 67.7793 11.8859   1
  -9  -1  11 54.0782 6.09134   3
   9  -1 -11 53.5669 5.96919   3
   9  -1 -11 45.4899 6.14364   2
   9   1 -11 54.2674 6.10750   3
  -9   1  11 49.0666 5.64628   3
   9   1 -11 50.3952 9.16761   1
   9   1 -11 49.5795 6.48510   2
   9   1 -11 52.7116 9.51886   1
  -9   1  11 54.9866 9.87902   1
  -9   1  11 61.3812 10.8721   1
  -9   1  11 57.9295 7.22688   2
   8  -1 -11 748.134 97.2570   2
  -8  -1  11 889.751 96.9362   3
   8  -1 -11 835.422 93.0950   3
   8  -1 -11 945.044 167.021   1
  -8  -1  11 725.022 133.312   1
  -8  -1  11 900.638 160.153   1
   8  -1 -11 857.740 153.505   1
  -8  -1  11 842.502 105.339   2
   8   1 -11 996.394 119.270   2
  -8   1  11 1301.90 148.210   2
  -8   1  11 1007.19 176.784   1
   8   1 -11 704.049 130.184   1
   8   1 -11 901.424 160.313   1
  -8   1  11 969.820 170.917   1
   8   1 -11 1008.48 105.569   3
  -8   1  11 812.271 91.4818   3
   7  -1 -11 173.664 30.9742   1
  -7  -1  11 193.093 20.4056   3
   7  -1 -11 184.886 19.7402   3
  -7  -1  11 207.300 24.5967   2
  -7  -1  11 211.787 36.9385   1
  -7  -1  11 145.997 26.7304   1
   7  -1 -11 194.045 23.3483   2
   7  -1 -11 214.824 37.4056   1
  -7   1  11 133.115 24.8096   1
  -7   1  11 177.694 19.2258   3
   7   1 -11 131.092 17.8174   2
   7   1 -11 202.441 35.4719   1
  -7   1  11 143.327 18.8475   2
   7   1 -11 181.589 19.5726   3
   7   1 -11 202.117 35.4226   1
  -7   1  11 164.795 29.5952   1
  -6  -1  11 56.7771 6.08977   3
   6  -1 -11 38.8791 7.31223   1
  -6  -1  11 39.1840 7.34398   1
   6  -1 -11 48.7454 5.45652   3
   6  -1 -11 51.0881 9.15574   1
  -6  -1  11 41.1194 7.64139   1
   6  -1 -11 59.2982 7.21668   2
  -6   1  11 53.1087 6.63532   2
   6   1 -11 44.5514 8.15544   1
  -6   1  11 48.6836 8.79869   1
   6   1 -11 49.4631 5.57224   3
   6   1 -11 48.9582 8.83867   1
  -6   1  11 44.2072 8.10877   1
   6   1 -11 63.7762 7.61898   2
  -6   1  11 52.2353 5.70919   3
   5  -1 -11 155.820 20.0368   2
  -5  -1  11 196.710 34.6537   1
   5  -1 -11 192.190 33.9367   1
   5  -1 -11 192.919 34.0603   1
   5  -1 -11 189.934 20.2468   3
  -5  -1  11 179.629 19.5244   3
   5   1 -11 177.142 31.5959   1
  -5   1  11 152.037 19.7105   2
  -5   1  11 200.531 21.0213   3
   5   1 -11 168.882 18.7777   3
   5   1 -11 159.336 20.3327   2
  -5   1  11 199.818 35.1255   1
  -5   1  11 162.871 29.3900   1
   5   1 -11 189.984 33.5866   1
   4  -1 -11 122.256 21.9340   1
   4  -1 -11 135.096 14.4441   3
   4  -1 -11 136.165 16.5903   2
  -4  -1  11 151.674 15.7048   3
   4  -1 -11 134.231 23.7752   1
  -4   1  11 105.585 13.8740   2
  -4   1  11 135.404 23.9693   1
   4   1 -11 118.012 14.9557   2
   4   1 -11 138.966 14.7660   3
  -4   1  11 84.0446 16.2153   1
   4   1 -11 137.916 24.3749   1
   4   1 -11 135.016 23.9094   1
   3  -1 -11 47.9389 8.52804   1
  -3  -1  11 38.2649 4.51504   3
   3  -1 -11 44.0190 4.89797   3
   3  -1 -11 36.3129 6.75405   1
   3  -1 -11 47.5064 5.91442   2
  -3  -1  11 45.0074 5.69311   2
  -3   1  11 43.5115 4.87019   3
  -3   1  11 47.3674 5.90794   2
   3   1 -11 46.9016 5.13720   3
   3   1 -11 39.4212 7.21730   1
   3   1 -11 44.2705 7.97558   1
  -3   1  11 46.2486 8.29567   1
   2  -1 -11 45.0888 6.23997   2
  -2  -1  11 63.7226 7.86426   2
   2  -1 -11 56.3699 10.1779   1
   2  -1 -11 71.7121 12.5904   1
   2  -1 -11 62.4443 6.75750   3
  -2  -1  11 60.9441 10.8826   1
  -2  -1  11 54.3449 9.86553   1
  -2  -1  11 61.1174 6.67958   3
  -2   1  11 56.4910 7.24052   2
   2   1 -11 59.5117 10.6644   1
   2   1 -11 69.9510 12.3028   1
   2   1 -11 55.4766 6.29268   3
  -2   1  11 68.3399 7.20219   3
  -1  -1  11 224.606 40.5675   1
   1  -1 -11 342.420 39.4049   2
  -1  -1  11 268.867 28.5042   3
  -1  -1  11 263.182 31.9726   2
   1  -1 -11 212.117 24.5029   3
  -1  -1  11 237.900 42.5883   1
   1  -1 -11 279.269 49.0474   1
   1  -1 -11 223.341 40.3749   1
  -1   1  11 219.175 24.9878   3
   1   1 -11 223.475 25.2941   3
   0  -1  11 360.248 65.4031   1
   0  -1 -11 390.355 70.0079   1
   0  -1  11 365.241 66.1722   1
   0  -1  11 422.552 51.7074   2
   0  -1  11 389.072 43.2148   3
   0  -1 -11 429.106 46.0302   3
   0  -1 -11 362.659 46.4069   2
   0  -1 -11 499.339 87.0293   1
   0   1  11 480.170 84.0222   1
   0   1  11 458.485 80.6117   1
   0   1 -11 424.859 45.7741   3
   0   1 -11 340.163 44.4977   2
   0   1  11 519.474 52.7786   3
  -1  -1 -11 57.0554 6.15022   3
   1  -1  11 51.6695 5.76979   3
   1  -1  11 49.5593 8.97566   1
   1  -1  11 54.2512 9.71022   1
   1  -1  11 44.3749 5.96301   2
  -1  -1 -11 49.8743 6.44260   2
  -1   1 -11 56.5373 6.12961   3
   1   1  11 45.9945 8.43105   1
  -1   1 -11 61.6589 7.52124   2
   1   1  11 54.8879 9.80427   1
   1   1  11 50.1835 5.65835   3
  -2  -1 -11 70.6620 8.89602   2
   2  -1  11 74.0579 9.17720   2
   2  -1  11 74.0767 13.1808   1
   2  -1  11 75.8728 13.4637   1
  -2  -1 -11 59.6070 6.99940   3
   2  -1  11 71.6821 7.85431   3
  -2   1 -11 64.9107 11.7644   1
  -2   1 -11 85.6262 10.2572   2
   2   1  11 72.9272 13.0024   1
   2   1  11 72.1995 12.8818   1
  -2   1 -11 71.9216 12.8508   1
   2   1  11 65.3004 8.41442   2
  -2   1 -11 60.2412 7.06153   3
   3  -1  11 486.777 50.1895   3
  -3  -1 -11 426.021 75.4760   1
  -3  -1 -11 419.070 45.2388   3
   3  -1  11 343.249 62.7751   1
  -3  -1 -11 459.051 80.6463   1
   3  -1  11 411.768 73.2566   1
   3   1  11 326.446 43.2349   2
  -3   1 -11 420.065 74.5493   1
  -3   1 -11 396.613 70.9033   1
   3   1  11 444.384 78.3320   1
   3   1  11 413.069 73.4620   1
   3   1  11 381.420 42.5518   3
  -3   1 -11 426.770 45.8010   3
  -4  -1 -11 81.9705 15.3872   1
   4  -1  11 117.547 12.6006   3
   4  -1  11 105.456 13.3128   2
   4  -1  11 105.227 18.9197   1
  -4  -1 -11 102.348 18.4702   1
   4  -1  11 104.051 18.7262   1
  -4  -1 -11 112.793 12.2446   3
  -4   1 -11 121.476 12.9002   3
  -4   1 -11 96.1282 12.4872   2
   4   1  11 120.030 12.7727   3
   4   1  11 121.530 14.7664   2
   4   1  11 101.367 18.3131   1
  -4   1 -11 96.6430 17.6010   1
   5  -1  11 15.8482 2.28036   2
   5  -1  11 17.0929 2.00029   3
  -5   1 -11 16.2000 2.29887   2
   6  -1  11 1.08370 0.67805   2
   6  -1  11 1.56242 0.42541   3
  -6  -1 -11 2.21209 0.52783   3
  -6  -1 -11 2.27316 0.67925   2
   6   1  11 2.01467 0.71059   2
  -6   1 -11 2.61190 0.56792   3
  -6   1 -11 2.88162 0.83370   2
   6   1  11 2.11697 0.48724   3
  -7  -1 -11 18.9110 2.64357   2
   7  -1  11 19.0205 2.66261   2
  -7  -1 -11 19.8388 2.31277   3
   7   1  11 24.5010 3.15986   2
   7   1  11 20.2855 2.35292   3
  -7   1 -11 15.3046 2.34056   2
  -8  -1 -11 0.52656 0.40090   3
  -8  -1 -11 0.74861 0.55704   2
   8  -1  11 2.40879 0.78432   2
   8   1  11 0.71709 0.43782   3
  -8   1 -11 0.08030 0.64800   2
   8   1  11 0.08482 0.56800   2
   9  -1  11 1.83920 0.73923   2
  -9  -1 -11 1.88016 0.71576   2
   9   1  11 1.32291 0.70917   2
  -9   1 -11 2.65539 0.77058   2
 -10  -1 -11 89.9523 11.0197   2
  10  -1  11 84.8662 10.5289   2
  10   1  11 66.0592 8.88143   2
 -11  -1 -11 73.8761 8.83052   2
  11  -1  11 43.9608 6.05185   2
 -11   1 -11 55.0288 7.02850   2
  11   1  11 52.7654 6.86768   2
 -12  -1 -11 6.47752 1.26086   2
  12  -1  11 5.11348 1.09331   2
 -12   1 -11 6.72834 1.19312   2
  12   1  11 5.10777 1.15656   2
 -13  -1 -11 19.1227 2.87947   2
  13  -1  11 24.2365 3.29580   2
  13   1  11 23.0293 3.21438   2
 -13   1 -11 27.8630 3.63110   2
 -14  -1 -11 24.8685 3.58074   2
  14  -1  11 31.7254 4.24010   2
  14   1  11 30.1395 4.04958   2
 -14   1 -11 30.8882 4.10326   2
 -15  -1 -11 4.40295 1.10012   2
  15  -1  11 6.05789 1.21091   2
 -15   1 -11 4.43270 1.07085   2
  21  -2 -11 -0.4421 0.54670   2
 -21   2  11 0.18563 0.72921   2
  20  -2 -11 0.06343 0.63854   2
 -20  -2  11 0.01631 0.83318   2
 -20   2  11 0.13119 0.66033   2
 -19  -2  11 9.70928 1.71341   2
  19  -2 -11 10.9622 1.74818   2
  19   2 -11 12.0969 1.85098   2
 -19   2  11 11.5625 1.80417   2
  18  -2 -11 0.62492 0.56770   2
 -18   2  11 0.50117 0.57276   2
  17  -2 -11 81.9308 10.2177   2
 -17  -2  11 90.4375 11.0367   2
 -17   2  11 97.2405 11.6400   2
  17   2 -11 57.4435 8.09057   2
 -16  -2  11 67.0768 8.68957   2
  16  -2 -11 74.0020 9.28719   2
  15  -2 -11 25.0025 3.41759   2
 -15  -2  11 29.0910 3.80177   2
  15   2 -11 25.3609 3.45249   2
 -14  -2  11 91.4686 11.4985   2
  14  -2 -11 85.0319 10.9359   2
  14   2 -11 94.6019 11.7694   2
  13  -2 -11 119.513 15.3232   2
 -13  -2  11 130.945 16.2927   2
 -13  -2  11 161.577 16.7134   3
  13   2 -11 114.950 14.9047   2
  13   2 -11 130.200 14.4062   3
 -12  -2  11 268.660 34.4192   2
  12  -2 -11 286.879 36.0486   2
  12   2 -11 290.090 32.2584   3
  12   2 -11 365.354 43.1944   2
 -12   2  11 305.840 37.7132   2
 -11  -2  11 137.236 16.5146   2
 -11   2  11 101.912 13.2699   2
 -10  -2  11 36.5640 4.63471   2
 -10  -2  11 32.1197 5.87273   1
 -10  -2  11 33.4301 3.88821   3
  10   2 -11 33.3815 4.36271   2
  10   2 -11 32.4534 3.83863   3
 -10   2  11 33.9242 4.41755   2
  -9  -2  11 7.41011 1.18708   2
   9  -2 -11 10.1111 1.90862   1
  -9  -2  11 12.3687 2.24306   1
  -9  -2  11 10.2052 1.36981   3
  -9  -2  11 10.6071 1.98546   1
   9  -2 -11 7.34721 1.48712   1
  -9   2  11 7.78458 1.01738   3
   9   2 -11 9.78864 1.35054   3
   9   2 -11 8.04615 1.55750   1
  -9   2  11 9.64941 1.84572   1
   9   2 -11 9.22277 1.37091   2
   9   2 -11 9.24962 1.75249   1
  -9   2  11 8.37249 1.63667   1
  -8  -2  11 23.1118 2.84043   3
   8  -2 -11 29.2201 5.22181   1
  -8  -2  11 28.8448 5.16434   1
   8  -2 -11 22.9750 2.70291   3
   8  -2 -11 28.7451 3.69123   2
  -8  -2  11 27.9912 3.57809   2
  -8  -2  11 29.6548 5.31883   1
   8   2 -11 19.7850 2.64329   3
  -8   2  11 26.2934 4.78025   1
   8   2 -11 22.9477 4.26289   1
   8   2 -11 29.3804 3.72115   2
   8   2 -11 28.9499 5.17570   1
  -8   2  11 27.3870 3.02053   3
  -8   2  11 28.3927 3.62192   2
  -8   2  11 21.4894 4.02937   1
  -7  -2  11 206.273 36.1869   1
   7  -2 -11 179.996 19.5874   3
   7  -2 -11 178.188 22.0918   2
  -7  -2  11 180.128 32.0886   1
  -7  -2  11 187.840 22.9503   2
   7  -2 -11 149.751 27.4470   1
  -7  -2  11 200.775 21.2026   3
   7  -2 -11 215.401 37.6314   1
   7   2 -11 207.820 36.4301   1
   7   2 -11 190.096 23.1487   2
  -7   2  11 105.541 20.9912   1
  -7   2  11 202.929 35.6594   1
  -7   2  11 219.024 22.4689   3
   7   2 -11 171.479 30.7697   1
  -7   2  11 151.645 19.7625   2
  -6  -2  11 3.55107 0.65390   3
  -6  -2  11 2.51426 0.62633   1
   6  -2 -11 0.99769 0.44166   1
   6  -2 -11 2.12020 0.45055   3
   6  -2 -11 1.79950 0.56621   1
  -6  -2  11 1.31027 0.54325   2
   6  -2 -11 1.89526 0.61678   2
  -6   2  11 1.30164 0.56179   2
  -6   2  11 1.57613 0.40815   3
  -6   2  11 3.86385 0.82304   1
   6   2 -11 2.23899 0.60051   2
   6   2 -11 2.13048 0.63062   3
   6   2 -11 2.02818 0.56099   1
   6   2 -11 2.22485 0.58276   1
  -6   2  11 1.99732 0.56564   1
   5  -2 -11 424.181 76.3858   1
  -5  -2  11 402.100 72.9814   1
   5  -2 -11 385.873 70.5299   1
  -5  -2  11 498.325 60.0881   2
   5  -2 -11 428.149 53.8128   2
  -5  -2  11 453.866 80.9397   1
  -5  -2  11 537.161 55.7349   3
   5  -2 -11 422.734 47.4055   3
   5   2 -11 404.158 73.2927   1
  -5   2  11 444.272 79.4669   1
  -5   2  11 519.966 54.3629   3
  -5   2  11 434.606 54.3815   2
   5   2 -11 431.810 77.5316   1
   5   2 -11 455.111 56.1841   2
   5   2 -11 485.149 51.9052   3
  -5   2  11 422.646 76.1275   1
  -4  -2  11 1244.31 135.676   3
   4  -2 -11 1821.06 312.727   1
   4  -2 -11 1416.31 168.937   2
   4  -2 -11 1229.55 219.432   1
  -4  -2  11 1141.93 205.892   1
  -4  -2  11 1453.12 172.323   2
   4   2 -11 1209.47 216.320   1
  -4   2  11 1517.67 178.321   2
   4   2 -11 1136.17 204.974   1
  -4   2  11 934.336 174.629   1
   4   2 -11 1309.70 140.344   3
   4   2 -11 1140.86 144.096   2
  -4   2  11 1152.85 129.204   3
  -4   2  11 914.183 171.693   1
  -3  -2  11 2.63668 0.66448   2
   3  -2 -11 2.10619 0.44842   3
   3  -2 -11 3.22558 0.76430   1
  -3  -2  11 2.40000 0.59473   1
  -3  -2  11 3.51506 0.74918   1
   3  -2 -11 2.07478 0.62227   2
  -3  -2  11 2.15828 0.55606   3
   3  -2 -11 2.42285 0.61303   1
  -3   2  11 2.28070 0.63508   1
   3   2 -11 3.14905 0.63985   3
  -3   2  11 2.57793 0.65930   1
   3   2 -11 2.19408 0.64279   2
   3   2 -11 2.88791 0.66928   1
   3   2 -11 3.15371 0.76101   1
  -3   2  11 3.03163 0.67877   2
   2  -2 -11 27.9484 3.14303   3
  -2  -2  11 27.7224 3.18780   3
  -2  -2  11 30.9506 3.92131   2
  -2  -2  11 32.8318 5.83724   1
  -2  -2  11 29.6494 5.31836   1
   2  -2 -11 25.4570 4.69051   1
   2  -2 -11 26.4193 3.48551   2
   2  -2 -11 24.1047 4.46898   1
   2   2 -11 27.0330 3.56416   2
  -2   2  11 25.7319 4.71020   1
   2   2 -11 25.1673 4.63064   1
  -2   2  11 27.9212 3.15928   3
   2   2 -11 25.9762 4.77887   1
   2   2 -11 26.8855 3.15425   3
  -2   2  11 26.0031 3.45549   2
  -2   2  11 32.9222 5.82863   1
  -1  -2  11 525.237 56.1125   3
   1  -2 -11 478.113 85.5499   1
  -1  -2  11 514.343 91.1549   1
   1  -2 -11 559.678 98.2521   1
  -1  -2  11 417.935 54.2562   2
   1  -2 -11 541.396 57.2408   3
   1  -2 -11 551.582 66.1249   2
  -1  -2  11 443.685 80.2496   1
   1   2 -11 391.573 52.0313   2
  -1   2  11 526.333 63.8322   2
  -1   2  11 436.632 79.1836   1
   1   2 -11 543.180 95.6727   1
  -1   2  11 682.334 117.691   1
   1   2 -11 401.861 73.9334   1
  -1   2  11 581.537 60.2113   3
   0  -2  11 445.588 79.2305   1
   0  -2 -11 379.269 69.0580   1
   0  -2  11 497.287 52.0983   3
   0  -2 -11 341.047 45.7001   2
   0  -2  11 471.139 83.2336   1
   0  -2 -11 399.488 72.1423   1
   0  -2  11 422.793 52.7143   2
   0  -2 -11 500.408 52.3179   3
   0   2 -11 490.420 86.2427   1
   0   2  11 333.358 62.1756   1
   0   2  11 411.419 51.7158   2
   0   2  11 333.668 62.2275   1
   0   2 -11 457.852 49.2506   3
   0   2 -11 580.908 67.3074   2
   0   2 -11 512.681 89.7353   1
   0   2  11 546.829 55.7661   3
   1  -2  11 17.0654 3.17155   1
  -1  -2 -11 19.4249 2.21072   3
   1  -2  11 21.0480 2.38301   3
  -1  -2 -11 15.5179 2.22524   2
   1  -2  11 18.0534 3.32040   1
   1  -2  11 16.4434 2.32304   2
  -1  -2 -11 22.6328 4.04405   1
  -1  -2 -11 19.0226 3.49627   1
  -1   2 -11 14.3591 2.76843   1
   1   2  11 18.4173 2.15182   3
   1   2  11 18.8636 3.45597   1
  -1   2 -11 18.8515 3.46085   1
  -1   2 -11 20.4625 2.69696   2
   1   2  11 20.6030 2.72125   2
  -1   2 -11 17.2416 2.12592   3
   1   2  11 18.2794 3.36228   1
  -2  -2 -11 12.1527 1.71324   2
   2  -2  11 5.61784 1.26943   1
   2  -2  11 9.80921 1.87928   1
   2  -2  11 10.1259 1.31061   3
  -2  -2 -11 8.14899 1.62178   1
  -2  -2 -11 8.55317 1.71421   1
   2  -2  11 11.2049 1.63545   2
  -2   2 -11 11.4892 2.14264   1
  -2   2 -11 11.0534 1.61179   2
  -2   2 -11 10.7213 2.00794   1
   2   2  11 11.8947 1.41423   3
   2   2  11 10.7196 2.00308   1
  -2   2 -11 8.10627 1.18133   3
   2   2  11 12.2847 2.25875   1
   2   2  11 11.3877 1.62936   2
   3  -2  11 0.09544 0.38123   1
  -3  -2 -11 -0.0183 0.53809   2
   3  -2  11 -0.0088 0.39927   3
  -3  -2 -11 -0.1602 0.33166   1
  -3  -2 -11 -0.0551 0.45400   1
   3  -2  11 -0.1013 0.48066   2
  -3  -2 -11 0.31258 0.33072   3
   3   2  11 0.23761 0.42486   1
  -3   2 -11 -0.5923 0.41560   1
  -3   2 -11 0.06996 0.56680   2
  -3   2 -11 -0.2064 0.41059   3
   3   2  11 0.53198 0.57469   2
  -4  -2 -11 58.1489 6.65287   3
   4  -2  11 57.8323 7.53475   2
   4  -2  11 59.0797 6.77527   3
  -4  -2 -11 96.1508 11.1428   2
   4   2  11 61.9142 6.92800   3
  -4   2 -11 70.3510 8.66809   2
   4   2  11 57.2940 7.51997   2
  -4   2 -11 62.6195 7.06907   3
  -5  -2 -11 34.3363 4.44550   2
   5  -2  11 29.3573 3.50716   3
  -5  -2 -11 34.1757 3.80023   3
   5  -2  11 32.4487 4.26464   2
  -5   2 -11 33.0625 3.78530   3
  -5   2 -11 34.4870 4.44290   2
   5   2  11 29.3933 3.47933   3
   6  -2  11 120.576 14.4715   2
  -6  -2 -11 89.9903 11.6921   2
  -6  -2 -11 118.055 12.3738   3
   6   2  11 97.4680 12.3626   2
  -6   2 -11 104.705 11.4840   3
  -6   2 -11 87.2793 11.4786   2
   6   2  11 96.2048 10.7945   3
   7  -2  11 227.943 29.3714   2
  -7  -2 -11 258.064 28.2513   3
  -7  -2 -11 306.518 36.4960   2
  -7   2 -11 338.487 39.4719   2
   7   2  11 254.333 27.9979   3
   7   2  11 214.847 28.2518   2
  -8  -2 -11 174.216 18.3934   3
  -8  -2 -11 160.367 19.8182   2
   8   2  11 141.537 18.1199   2
  -8   2 -11 142.627 18.2195   2
  -9  -2 -11 54.8939 6.18188   3
  -9  -2 -11 53.6796 7.00167   2
   9   2  11 52.4215 6.02026   3
  -9   2 -11 62.0827 7.73027   2
 -10  -2 -11 10.4418 1.74087   2
 -10   2 -11 13.7324 1.99160   2
  10   2  11 10.6773 1.74287   2
 -11  -2 -11 2.41358 0.89693   2
  11   2  11 3.24770 0.94074   2
 -11   2 -11 4.41952 0.97493   2
 -12  -2 -11 10.6007 1.74710   2
  12  -2  11 12.0508 1.88612   2
 -12   2 -11 15.2131 2.15111   2
  13  -2  11 2.13941 0.82204   2
  13   2  11 0.58471 0.59424   2
  14  -2  11 25.2057 3.52012   2
  15  -2  11 9.52421 1.66594   2
  20  -3 -11 16.7625 2.54059   2
 -20   3  11 25.8680 3.41438   2
  19  -3 -11 8.51785 1.45557   2
 -19   3  11 4.41029 1.09520   2
  18  -3 -11 0.57782 0.64881   2
 -18   3  11 -0.0505 0.71067   2
  17  -3 -11 4.25853 0.97757   2
 -17   3  11 1.97287 0.81630   2
  16  -3 -11 4.05760 0.92412   2
 -16   3  11 2.23074 0.81658   2
  15  -3 -11 1.91021 0.74476   2
 -15   3  11 3.57574 0.87568   2
 -14  -3  11 4.78351 1.02781   3
  14  -3 -11 6.39642 1.17958   2
  14   3 -11 6.92198 1.17127   2
 -14   3  11 6.79235 1.18110   2
  14   3 -11 6.10018 1.15219   3
  13  -3 -11 31.2259 4.02854   2
 -13  -3  11 25.0092 3.12746   3
  13   3 -11 31.5459 4.02402   2
 -13   3  11 24.7126 3.43097   2
 -12  -3  11 4.85803 0.92942   3
  12  -3 -11 3.82106 0.92522   2
  12   3 -11 4.92287 0.98525   3
  12   3 -11 5.08619 0.95312   2
 -12   3  11 6.21693 1.10493   2
 -11  -3  11 2.05608 0.66161   3
  11  -3 -11 4.03557 0.88326   2
  11   3 -11 3.09014 0.81574   2
 -11   3  11 3.72799 0.82306   2
  11   3 -11 4.54629 0.91552   3
 -10  -3  11 11.7336 1.67802   2
  10  -3 -11 9.92026 1.55703   2
 -10  -3  11 10.9245 1.51365   3
 -10   3  11 8.13256 1.39610   2
  10   3 -11 11.5584 1.66175   2
  10   3 -11 10.6931 1.53775   3
  -9  -3  11 13.5558 1.87217   2
   9  -3 -11 11.7131 1.76391   2
  -9  -3  11 14.1037 1.77165   3
   9   3 -11 12.3871 1.69148   3
   9   3 -11 9.98627 1.54060   2
  -9   3  11 10.2672 1.31008   3
  -8  -3  11 32.8700 3.81767   3
  -8  -3  11 36.1939 4.54430   2
   8  -3 -11 31.3575 3.54563   3
   8   3 -11 30.3456 4.00119   2
  -8   3  11 30.0092 3.46714   3
  -7  -3  11 36.5383 4.13481   3
   7  -3 -11 27.9207 5.23242   1
  -7  -3  11 31.2290 5.71889   1
  -7  -3  11 39.1473 6.94763   1
   7  -3 -11 29.5352 3.50396   3
   7   3 -11 39.0887 4.35007   3
   7   3 -11 37.2486 4.68007   2
   7   3 -11 36.3729 6.52067   1
  -7   3  11 35.7776 4.58134   2
  -7   3  11 31.5198 3.65043   3
   6  -3 -11 59.9227 6.78228   3
   6  -3 -11 89.1558 15.4691   1
   6  -3 -11 65.1802 11.6673   1
  -6  -3  11 72.7973 7.83825   3
  -6  -3  11 50.5064 9.41681   1
  -6  -3  11 76.1286 13.3849   1
  -6   3  11 59.6440 10.8187   1
  -6   3  11 60.9030 7.81868   2
   6   3 -11 73.6092 7.90766   3
   6   3 -11 72.3267 12.7888   1
  -6   3  11 57.3520 6.61427   3
   6   3 -11 59.5147 7.64308   2
   6   3 -11 61.8089 11.1371   1
   5  -3 -11 0.22183 0.34004   1
   5  -3 -11 0.11528 0.28821   3
  -5  -3  11 -0.2601 0.24825   1
  -5  -3  11 0.61588 0.32100   1
   5  -3 -11 1.44662 0.47706   1
  -5  -3  11 0.05856 0.51456   3
   5  -3 -11 0.37977 0.45452   2
  -5   3  11 1.27703 0.44133   1
  -5   3  11 -0.3558 0.38350   1
   5   3 -11 0.67166 0.38956   2
   5   3 -11 0.33983 0.29623   1
   5   3 -11 0.19167 0.30772   1
  -5   3  11 0.47451 0.32715   3
  -5   3  11 0.82096 0.46118   2
   5   3 -11 -0.0399 0.58292   3
   4  -3 -11 16.1412 2.96690   1
   4  -3 -11 17.5205 1.94999   3
  -4  -3  11 14.2408 1.85037   3
   4  -3 -11 14.3880 2.67255   1
  -4  -3  11 15.8127 2.12297   2
  -4  -3  11 12.5962 2.40710   1
   4  -3 -11 14.1948 1.99138   2
  -4  -3  11 15.4439 2.82839   1
   4   3 -11 13.7741 2.58161   1
  -4   3  11 14.6426 2.03971   2
   4   3 -11 15.5063 1.97012   3
   4   3 -11 13.8407 1.93305   2
   4   3 -11 13.4907 2.53388   1
  -4   3  11 14.3910 1.73387   3
   3  -3 -11 378.502 65.4258   1
   3  -3 -11 305.091 36.8420   2
  -3  -3  11 240.907 31.1273   2
  -3  -3  11 287.398 51.0382   1
  -3  -3  11 271.941 30.0349   3
   3  -3 -11 258.260 46.5304   1
   3   3 -11 329.547 57.6389   1
  -3   3  11 272.880 33.9420   2
   3   3 -11 262.008 47.1072   1
   3   3 -11 266.250 29.6626   3
  -2  -3  11 87.1537 11.1937   2
   2  -3 -11 69.3377 13.1136   1
   2  -3 -11 86.6506 11.1411   2
   2  -3 -11 99.5295 10.7782   3
  -2  -3  11 116.164 12.0982   3
   2  -3 -11 100.336 17.8248   1
  -2   3  11 93.4383 16.7671   1
  -2   3  11 99.5817 12.2796   2
   2   3 -11 122.149 21.2687   1
   2   3 -11 92.3721 16.5961   1
  -2   3  11 83.1870 15.1850   1
  -2   3  11 99.9122 10.8132   3
   1  -3 -11 260.587 31.7552   2
  -1  -3  11 248.934 30.7063   2
   1  -3 -11 256.841 27.6506   3
   1   3 -11 232.372 41.7691   1
   1   3 -11 230.269 25.8713   3
   1   3 -11 202.532 26.6364   2
   1   3 -11 232.508 41.7842   1
  -1   3  11 282.257 33.7723   2
  -1   3  11 251.364 27.2684   3
  -1   3  11 224.392 40.5474   1
  -1   3  11 278.035 48.8842   1
   0  -3 -11 4.08369 0.79272   2
   0  -3  11 3.04668 0.74422   2
   0  -3 -11 3.40826 0.62857   3
   0  -3  11 4.90100 0.87229   3
   0   3  11 3.52489 0.78222   1
   0   3 -11 4.01969 0.80273   2
   0   3  11 3.91994 0.69818   3
   0   3 -11 3.06778 0.82471   3
   0   3 -11 4.40241 0.91565   1
   1  -3  11 22.8933 2.61747   3
   1  -3  11 21.9095 2.87219   2
  -1  -3 -11 15.6284 2.97397   1
  -1  -3 -11 18.3430 2.16887   3
  -1  -3 -11 18.5255 2.51409   2
   1  -3  11 20.5930 3.76920   1
   1   3  11 17.5352 2.13098   3
  -1   3 -11 18.3757 2.30401   3
  -1   3 -11 16.8629 2.39867   2
  -2  -3 -11 57.0941 6.26538   3
  -2  -3 -11 54.4443 6.94639   2
   2  -3  11 49.7675 5.84630   3
  -2   3 -11 60.9508 6.66801   3
   2   3  11 51.8813 5.91317   3
   3  -3  11 34.3846 4.56725   2
   3  -3  11 37.7851 4.32041   3
  -3   3 -11 35.0569 4.62697   2
  -3   3 -11 32.5626 3.98869   3
   3   3  11 44.5060 4.73784   3
   3   3  11 38.7098 4.95406   2
   4  -3  11 16.1026 2.24816   2
  -4  -3 -11 14.2320 1.75255   3
   4   3  11 14.7555 2.13510   2
  -4   3 -11 14.1129 1.90265   3
   4   3  11 16.3765 1.92599   3
  -4   3 -11 15.6482 2.21308   2
  -5  -3 -11 0.22464 0.36418   3
   5  -3  11 0.67446 0.52996   2
   5   3  11 0.53675 0.42837   3
  -5   3 -11 -0.3537 0.46323   2
   5   3  11 -0.2313 0.48929   2
  -5   3 -11 0.01065 0.58714   3
   6  -3  11 0.33728 0.58044   2
  -6  -3 -11 0.65524 0.60944   2
  -6  -3 -11 0.68869 0.40894   3
  -6   3 -11 0.61177 0.55290   2
   6   3  11 1.01529 0.67113   2
   6   3  11 -0.2534 0.41182   3
  -7  -3 -11 1.74135 0.74853   2
  -7  -3 -11 0.19085 0.42241   3
   7  -3  11 0.43644 0.62684   2
   7   3  11 0.33890 0.66603   2
   7   3  11 -0.2183 0.50992   3
  -7   3 -11 0.06768 0.64846   2
  -8  -3 -11 0.49255 0.61770   2
   8  -3  11 0.33240 0.65340   2
   8   3  11 0.76207 0.62988   2
   8   3  11 0.44247 0.54200   3
  -8   3 -11 -0.0855 0.65538   2
  -9  -3 -11 7.09201 1.01667   3
  -9  -3 -11 8.30095 1.47853   2
   9  -3  11 6.84095 1.30000   2
   9   3  11 8.52770 1.21156   3
  -9   3 -11 7.88927 1.39695   2
   9   3  11 7.03556 1.34876   2
  10  -3  11 0.68305 0.68695   2
 -10  -3 -11 -0.2949 0.62767   2
 -10  -3 -11 -0.0905 0.42564   3
  10   3  11 0.31683 0.70434   2
  10   3  11 0.61174 0.53137   3
 -10   3 -11 0.38355 0.57340   2
  11  -3  11 7.09824 1.27385   2
 -11   3 -11 5.26245 1.09676   2
  12  -3  11 3.84301 0.89986   2
 -12   3 -11 2.50438 0.80243   2
  13  -3  11 -0.1282 0.56709   2
 -13   3 -11 0.75715 0.59840   2
  18  -4 -11 9.32252 1.54705   2
  17  -4 -11 33.3087 4.46391   2
  16  -4 -11 3.32398 0.93996   2
  15  -4 -11 15.7445 2.22968   2
 -15  -4  11 10.5036 1.62352   3
  15   4 -11 12.3618 1.83276   3
 -14  -4  11 2.08715 0.77608   3
  14  -4 -11 4.43850 1.01124   2
  14   4 -11 1.99886 0.79994   3
 -13  -4  11 1.74834 0.62860   3
  13  -4 -11 2.08898 0.72638   2
  13   4 -11 2.43710 0.85786   3
  12  -4 -11 8.60280 1.42144   2
 -12  -4  11 12.1169 1.59150   3
  12   4 -11 7.57888 1.37627   3
 -12   4  11 8.61552 1.42199   2
 -11  -4  11 0.49358 0.50435   3
 -11   4  11 -0.2164 0.75910   2
  11   4 -11 -0.3790 0.58202   3
 -10  -4  11 0.20540 0.59145   3
  10   4 -11 0.52537 0.60762   3
 -10   4  11 0.41649 0.54595   2
  -9  -4  11 4.54846 0.90730   3
  -9   4  11 4.67473 0.91198   2
   8  -4 -11 2.03066 0.67960   2
   8  -4 -11 1.95356 0.46980   3
  -8   4  11 2.50227 0.67774   2
  -8   4  11 2.38490 0.54633   3
   8   4 -11 1.93099 0.80278   3
  -7  -4  11 21.1525 2.65213   3
   7  -4 -11 20.9061 2.45480   3
   7   4 -11 24.5299 2.94962   3
   6  -4 -11 -0.0161 0.42806   2
   6  -4 -11 0.88353 0.39614   3
  -6  -4  11 0.77350 0.51141   3
   6   4 -11 1.12008 0.71211   3
  -6   4  11 -0.6612 0.43839   2
  -6   4  11 -0.2801 0.36896   3
  -5  -4  11 0.78675 0.55793   3
   5  -4 -11 2.00539 0.51583   3
  -5   4  11 2.06691 0.57779   2
   5   4 -11 0.83460 0.62303   3
  -5   4  11 1.59839 0.51610   3
  -4  -4  11 298.203 33.5731   3
   4  -4 -11 361.879 38.0189   3
  -4   4  11 299.106 33.5298   3
  -4   4  11 291.518 37.0638   2
   4   4 -11 359.435 37.9708   3
   3  -4 -11 27.1034 3.12503   3
  -3  -4  11 29.6603 3.45577   3
  -3   4  11 29.1380 3.28383   3
  -3   4  11 24.6991 3.36461   2
   2  -4 -11 34.4985 3.84656   3
   2   4 -11 31.5349 3.76041   3
  -2   4  11 28.7169 3.41044   3
   1  -4 -11 269.675 30.4539   3
  -1  -4  11 325.806 34.5757   3
  -1   4  11 288.997 31.8080   3
   1   4 -11 288.009 31.8602   3
   0  -4 -11 8.57815 1.10241   3
   0  -4  11 7.21455 1.19816   3
   0   4 -11 8.40091 1.39778   3
   0   4  11 6.96056 1.02941   3
   1  -4  11 93.8023 9.63935   3
  -1  -4 -11 63.5964 7.24088   3
  -1   4 -11 51.0038 7.13727   2
   1   4  11 69.2967 7.66617   3
  -1   4 -11 100.265 10.1991   3
   2  -4  11 0.54226 0.60105   3
  -2  -4 -11 0.09977 0.36188   3
  -2   4 -11 0.54246 0.73077   3
   2   4  11 0.90050 0.47097   3
  -2   4 -11 0.95417 0.58453   2
  -3  -4 -11 28.6067 3.16133   3
   3  -4  11 27.4502 3.59919   2
  -3   4 -11 30.0503 3.47456   3
  -3   4 -11 20.5099 3.02518   2
   3   4  11 23.8151 2.84131   3
   4  -4  11 36.8287 5.04346   2
   4  -4  11 40.8512 4.86065   3
  -4   4 -11 42.9251 5.03019   3
   4   4  11 45.1683 5.03639   3
  -4   4 -11 54.3387 6.65027   2
  -5  -4 -11 7.23216 1.06145   3
   5  -4  11 9.24325 1.51040   2
  -5   4 -11 8.22218 1.37265   2
   5   4  11 9.87832 1.30060   3
   6  -4  11 17.2577 2.51666   2
  -6  -4 -11 19.9964 2.31561   3
  -6   4 -11 17.4744 2.52891   2
   6   4  11 17.4719 2.14989   3
  -7  -4 -11 4.98974 0.82541   3
   7   4  11 5.03749 0.85617   3
  -7   4 -11 6.42095 1.17482   2
  -8  -4 -11 -0.0905 0.48451   3
   8  -4  11 1.89811 0.79032   2
  -8   4 -11 -0.0987 0.63078   2
   8   4  11 0.55653 0.55934   3
  -9  -4 -11 2.44607 0.62636   3
   9  -4  11 2.80322 0.93650   2
  -9   4 -11 2.17941 0.73075   2
  10  -4  11 0.00000 0.67958   2
 -10  -4 -11 -0.1255 0.47939   3
  10   4  11 -0.2995 0.53546   3
 -10   4 -11 -0.5651 0.63424   2
  11  -4  11 0.55802 0.67772   2
 -11   4 -11 0.43517 0.58652   2
 -15  -5  11 25.0440 3.07258   3
  15   5 -11 19.2569 2.64782   3
 -14  -5  11 3.61765 0.97251   3
  14   5 -11 4.65718 1.10058   3
 -13  -5  11 9.55589 1.49824   3
  13   5 -11 9.79297 1.57012   3
 -12  -5  11 16.7992 2.19262   3
  12   5 -11 15.9433 2.18683   3
 -11  -5  11 15.1314 2.02652   3
  11   5 -11 14.3117 2.00722   3
 -10  -5  11 54.2348 6.16079   3
  10   5 -11 49.6962 5.86383   3
   9   5 -11 89.9626 10.1698   3
  -8  -5  11 83.5208 9.32682   3
  -8   5  11 76.6988 8.68783   3
   8   5 -11 82.7049 9.29112   3
   7  -5 -11 93.8940 10.1974   3
  -7  -5  11 84.5956 9.66591   3
  -7   5  11 82.9883 9.43530   3
   7   5 -11 92.2635 10.2495   3
  -6  -5  11 15.6249 2.10577   3
   6  -5 -11 17.7888 2.10349   3
   6   5 -11 18.9895 2.42054   3
   5  -5 -11 9.09231 1.23858   3
  -5  -5  11 10.5810 1.48043   3
  -5   5  11 10.7047 1.37998   3
   5   5 -11 9.09771 1.42529   3
  -4  -5  11 69.4964 7.71674   3
   4  -5 -11 62.6428 7.07738   3
  -4   5  11 69.1794 7.56623   3
   4   5 -11 58.7253 6.96441   3
   3  -5 -11 8.05627 1.10650   3
   3   5 -11 8.13453 1.36259   3
  -3   5  11 7.74898 1.11687   3
   2  -5 -11 17.5543 2.07203   3
  -2  -5  11 22.6773 2.63121   3
   2   5 -11 14.1395 2.06938   3
  -2   5  11 14.8034 1.90568   3
  -1  -5  11 49.8172 6.07013   3
   1  -5 -11 60.6348 6.68231   3
  -1   5  11 57.3902 6.48150   3
   1   5 -11 68.3892 7.47088   3
   0  -5  11 28.9087 3.80127   3
   0  -5 -11 43.7183 4.70686   3
   0   5  11 40.8282 4.52281   3
   0   5 -11 39.6126 4.61094   3
   1  -5  11 12.5505 1.76090   3
  -1  -5 -11 11.0524 1.45830   3
  -1   5 -11 13.7461 1.95352   3
   1   5  11 12.8662 1.63699   3
  -2  -5 -11 49.9700 5.56910   3
  -2   5 -11 44.2437 5.37091   3
   2   5  11 51.2570 5.69042   3
  -3  -5 -11 89.9611 10.1122   3
   3  -5  11 89.8388 10.2678   3
   3   5  11 86.3335 9.87899   3
  -3   5 -11 112.242 11.9318   3
  -4  -5 -11 22.3797 2.73952   3
   4   5  11 28.1187 3.18843   3
  -5  -5 -11 36.7600 4.19756   3
  -6  -5 -11 2.20472 0.58439   3
   6   5  11 1.85191 0.68264   3
  -7  -5 -11 1.49270 0.56203   3
   7   5  11 1.18820 0.62727   3
  -8  -5 -11 2.19160 0.55049   3
   8   5  11 1.29467 0.61079   3
   9   5  11 2.60162 0.68982   3
  14   6 -11 6.14830 1.25213   3
 -13  -6  11 19.2235 2.40099   3
  13   6 -11 11.9730 1.87714   3
 -12  -6  11 11.5877 1.67328   3
  12   6 -11 10.4441 1.67202   3
 -11  -6  11 0.39552 0.61580   3
  11   6 -11 -0.2405 0.71180   3
 -10  -6  11 7.73879 1.29395   3
  -9  -6  11 26.4155 3.27885   3
   9   6 -11 26.9163 3.34314   3
  -8  -6  11 4.43128 0.92174   3
   8   6 -11 4.05215 1.05936   3
  -7  -6  11 65.9224 7.59806   3
  -7   6  11 67.9878 7.63483   3
   7   6 -11 69.9205 7.91113   3
  -6  -6  11 33.7896 3.94354   3
   6  -6 -11 28.2543 3.38537   3
  -6   6  11 30.6127 3.57291   3
   6   6 -11 32.4180 3.89343   3
   5  -6 -11 40.3794 4.57414   3
  -5  -6  11 38.0392 4.56622   3
   5   6 -11 40.2221 4.77238   3
   4  -6 -11 18.4942 2.17410   3
  -4   6  11 14.4132 1.90809   3
   4   6 -11 18.6480 2.42481   3
   3  -6 -11 15.8436 1.89118   3
  -3  -6  11 16.2875 2.12035   3
  -3   6  11 10.4665 1.54936   3
   3   6 -11 18.2099 2.39567   3
  -2  -6  11 5.24101 1.04563   3
   2  -6 -11 2.85453 0.74495   3
  -2   6  11 4.19557 0.83915   3
   2   6 -11 4.31945 1.08295   3
   1  -6 -11 28.0886 3.33258   3
  -1  -6  11 27.5649 3.46859   3
   1   6 -11 32.1749 3.87750   3
  -1   6  11 31.6980 3.62570   3
   0  -6 -11 20.6835 2.44899   3
   0  -6  11 21.8314 2.72877   3
   0   6 -11 17.4927 2.49134   3
   0   6  11 20.4566 2.53832   3
  -1  -6 -11 13.2181 1.67063   3
  -1   6 -11 12.2787 1.89556   3
   1   6  11 13.0415 1.70406   3
   2  -6  11 6.83340 1.30408   3
  -2  -6 -11 9.58759 1.28808   3
   2   6  11 7.67070 1.20760   3
  -2   6 -11 13.1747 1.85447   3
  -3  -6 -11 38.5159 4.48365   3
   3   6  11 42.8534 4.81743   3
  -4  -6 -11 1.92277 0.57866   3
   4   6  11 0.52487 0.63280   3
   5   6  11 0.16846 0.58209   3
  -6  -6 -11 6.79387 1.01511   3
   6   6  11 6.25807 1.07014   3
  -7  -6 -11 4.89714 0.85342   3
   7   6  11 5.06311 0.88494   3
   8   6  11 12.5539 1.70639   3
 -11  -7  11 8.66921 1.38115   3
  11   7 -11 10.9059 1.63357   3
  10   7 -11 -0.2742 0.65006   3
  -9  -7  11 10.8878 1.62784   3
   9   7 -11 15.2368 2.03318   3
  -8  -7  11 15.6164 2.03790   3
   8   7 -11 11.7567 1.84413   3
  -7  -7  11 1.83381 0.77077   3
   7   7 -11 4.13484 1.04964   3
  -6  -7  11 1.26831 0.74859   3
   6   7 -11 1.36739 0.90229   3
   5  -7 -11 30.8194 3.39690   3
   5   7 -11 21.6922 2.95665   3
  -4  -7  11 3.87712 0.96009   3
   4   7 -11 5.65358 1.19837   3
  -4   7  11 4.07993 0.82735   3
  -3  -7  11 7.53451 1.31716   3
   3  -7 -11 9.48844 1.25109   3
  -3   7  11 8.63461 1.24733   3
   3   7 -11 5.75896 1.28900   3
   2  -7 -11 0.92604 0.51442   3
  -2  -7  11 1.49483 0.74559   3
  -2   7  11 0.42268 0.54745   3
   2   7 -11 2.10920 0.92598   3
   1  -7 -11 2.19412 0.59609   3
  -1  -7  11 2.14609 0.80184   3
  -1   7  11 1.76714 0.59409   3
   1   7 -11 0.25798 0.86120   3
   0  -7  11 6.13177 1.19371   3
   0  -7 -11 5.61084 0.92381   3
   0   7 -11 6.55536 1.32599   3
   0   7  11 6.17010 1.01304   3
  -1  -7 -11 12.6089 1.62886   3
   1   7  11 11.6300 1.62049   3
  -2  -7 -11 -0.3716 0.45536   3
   2   7  11 0.67085 0.58714   3
  -3  -7 -11 0.69895 0.50361   3
   3   7  11 0.90955 0.65955   3
  -4  -7 -11 0.39203 0.50650   3
   4   7  11 0.66626 0.60562   3
 -22   0  12 1.84549 0.88150   2
  21   0 -12 6.45233 1.26561   2
 -21   0  12 6.60505 1.31965   2
 -20   0  12 25.6699 3.49916   2
  20   0 -12 22.3155 3.16725   2
  19   0 -12 3.55729 0.92646   2
  18   0 -12 85.8275 10.8903   2
  17   0 -12 184.206 22.3607   2
 -17   0  12 150.655 19.3746   2
 -16   0  12 161.590 20.2177   2
 -15   0  12 49.8370 6.42048   2
 -14   0  12 0.58497 0.56122   2
  14   0 -12 0.96901 0.57941   2
  13   0 -12 76.1457 9.43963   2
 -13   0  12 64.3107 8.35163   2
  12   0 -12 73.2753 9.29399   2
 -12   0  12 67.7213 8.80058   2
 -12   0  12 81.9076 8.82688   3
 -11   0  12 13.4103 1.66698   3
 -11   0  12 11.4882 2.24140   1
  11   0 -12 14.5794 2.07920   2
 -11   0  12 15.5549 2.15863   2
  10   0 -12 25.8013 3.39992   2
  10   0 -12 26.3188 4.76020   1
 -10   0  12 20.9568 3.92823   1
  10   0 -12 22.6519 4.18873   1
 -10   0  12 25.8191 2.93444   3
 -10   0  12 25.6610 4.65232   1
 -10   0  12 23.1437 3.13409   2
  10   0 -12 24.9966 2.88471   3
   9   0 -12 2605.84 460.068   1
  -9   0  12 2632.67 317.577   2
  -9   0  12 2184.88 395.078   1
  -9   0  12 2221.68 400.682   1
   9   0 -12 2097.29 270.145   2
   9   0 -12 2748.72 287.855   3
  -9   0  12 2320.40 257.080   3
   9   0 -12 2848.04 498.072   1
  -8   0  12 4.30622 0.84035   2
   8   0 -12 3.75573 0.82416   2
   8   0 -12 3.23165 0.79828   1
  -8   0  12 5.16999 1.08351   1
   8   0 -12 3.58853 0.80475   1
  -8   0  12 3.16120 0.77602   1
   8   0 -12 5.06449 0.75454   3
  -8   0  12 5.29394 0.72973   3
   7   0 -12 272.360 47.5031   1
  -7   0  12 177.521 32.8416   1
  -7   0  12 228.947 24.7632   3
   7   0 -12 204.830 25.9827   2
   7   0 -12 220.280 39.3500   1
  -7   0  12 252.275 30.2551   2
  -7   0  12 184.931 33.9572   1
   7   0 -12 232.736 25.0470   3
   6   0 -12 1640.63 197.381   2
   6   0 -12 1193.82 220.424   1
  -6   0  12 1728.34 205.443   2
  -6   0  12 1228.01 225.522   1
  -6   0  12 1543.41 166.436   3
   6   0 -12 1328.91 240.751   1
  -6   0  12 1510.01 268.709   1
  -5   0  12 200.701 36.8885   1
   5   0 -12 211.805 38.5545   1
   5   0 -12 216.007 39.1958   1
   5   0 -12 254.797 31.1425   2
   5   0 -12 243.023 26.5581   3
  -5   0  12 288.649 50.4832   1
  -5   0  12 262.225 31.8027   2
  -4   0  12 229.230 41.4919   1
  -4   0  12 269.327 32.8102   2
   4   0 -12 299.571 31.0720   3
  -4   0  12 259.156 46.1053   1
  -4   0  12 244.204 27.0648   3
   4   0 -12 309.028 53.9122   1
   4   0 -12 201.304 26.8731   2
   4   0 -12 332.649 57.6953   1
  -3   0  12 3.30365 0.56969   3
   3   0 -12 2.70812 0.49698   3
  -3   0  12 3.57484 0.76250   1
   3   0 -12 3.00871 0.67531   1
   3   0 -12 3.66955 0.85542   1
  -3   0  12 4.20592 0.88470   1
  -3   0  12 2.85892 0.74489   2
   3   0 -12 3.18025 0.77083   2
  -2   0  12 18.8410 3.56171   1
   2   0 -12 25.6290 3.30638   2
   2   0 -12 15.6975 3.11067   1
  -2   0  12 26.0433 3.34273   2
  -2   0  12 28.4040 3.03106   3
  -2   0  12 19.5574 3.66977   1
   2   0 -12 25.1009 2.77641   3
   2   0 -12 23.9375 4.33918   1
   1   0 -12 83.4783 10.6398   2
  -1   0  12 82.2316 14.8775   1
   1   0 -12 94.1839 10.1442   3
  -1   0  12 81.9561 10.5166   2
   1   0 -12 85.6125 15.3956   1
  -1   0  12 77.5080 14.1636   1
  -1   0  12 100.998 10.6563   3
   1   0 -12 100.412 17.7066   1
   0   0  12 52.2294 9.73846   1
   0   0  12 42.7863 8.34915   1
   0   0 -12 59.4914 10.8244   1
   0   0 -12 77.3296 13.6093   1
   0   0 -12 90.0326 10.5719   2
   0   0 -12 68.2740 7.43327   3
   0   0  12 63.1809 7.08281   3
   0   0  12 82.0702 9.80809   2
  -1   0 -12 63.5616 11.3262   1
  -1   0 -12 56.9641 6.41493   3
  -1   0 -12 56.6746 10.2564   1
   1   0  12 62.5052 7.83557   2
  -1   0 -12 62.0760 7.78616   2
   1   0  12 51.9332 9.53413   1
  -2   0 -12 263.874 47.3929   1
   2   0  12 318.071 55.8301   1
  -2   0 -12 287.169 51.0056   1
   2   0  12 271.190 29.8949   3
  -2   0 -12 297.217 31.7446   3
   2   0  12 225.402 41.5383   1
   3   0  12 444.756 47.5171   3
   3   0  12 441.441 53.7335   2
  -3   0 -12 462.753 81.4779   1
  -3   0 -12 368.449 47.2603   2
   3   0  12 386.353 69.6341   1
  -3   0 -12 415.886 45.4462   3
   3   0  12 412.353 73.6246   1
  -3   0 -12 392.625 70.5944   1
   4   0  12 425.108 47.3353   3
   4   0  12 424.145 53.2783   2
  -4   0 -12 505.665 60.6410   2
  -4   0 -12 437.237 48.1790   3
   5   0  12 77.0804 10.1357   2
  -5   0 -12 106.730 12.8323   2
   6   0  12 33.9390 4.42591   2
  -6   0 -12 28.8981 3.42833   3
   6   0  12 36.8432 4.04244   3
  -6   0 -12 32.0887 4.25103   2
   7   0  12 208.286 22.6769   3
   7   0  12 212.238 26.1229   2
  -7   0 -12 172.745 20.2039   3
  -7   0 -12 230.185 27.7499   2
   8   0  12 34.8676 4.62375   2
  -8   0 -12 36.6457 4.78611   2
   9   0  12 44.8031 5.84749   2
  -9   0 -12 44.5240 5.82775   2
  10   0  12 40.2827 5.20713   2
 -10   0 -12 35.7034 4.83050   2
 -11   0 -12 0.08496 0.66750   2
  11   0  12 -0.1630 0.65629   2
 -12   0 -12 15.4327 2.30381   2
 -13   0 -12 38.2985 5.09448   2
  14   0  12 7.13453 1.37499   2
  22  -1 -12 1.59785 0.70894   2
 -22   1  12 0.75734 0.76437   2
  21  -1 -12 16.4925 2.33664   2
 -21  -1  12 11.0386 1.81706   2
 -21   1  12 14.4746 2.14639   2
  21   1 -12 11.0453 1.80942   2
  20  -1 -12 7.13859 1.35320   2
 -20  -1  12 7.97460 1.42938   2
 -20   1  12 9.37210 1.62740   2
  20   1 -12 7.84690 1.41777   2
  19  -1 -12 0.75636 0.66597   2
 -19  -1  12 0.81352 0.73826   2
 -19   1  12 0.47172 0.72088   2
  19   1 -12 1.31787 0.75042   2
  18  -1 -12 3.90192 0.93220   2
 -18  -1  12 7.99165 1.37640   2
  18   1 -12 6.40881 1.16094   2
 -18   1  12 3.82191 1.03094   2
  17  -1 -12 21.5003 3.00682   2
 -17  -1  12 26.5372 3.49485   2
  17   1 -12 24.9245 3.33398   2
 -17   1  12 19.4929 2.84046   2
  16  -1 -12 20.5392 2.95615   2
 -16  -1  12 26.3985 3.50597   2
  16   1 -12 23.2034 3.19280   2
 -16   1  12 32.2127 4.05481   2
  15  -1 -12 13.8132 2.02976   2
 -15  -1  12 11.9149 1.82708   2
  15   1 -12 11.2187 1.78477   2
 -15   1  12 14.8540 2.10871   2
 -14  -1  12 32.2073 4.16550   2
  14  -1 -12 26.8214 3.72057   2
  14   1 -12 29.1973 3.93620   2
 -14   1  12 35.0064 4.43522   2
  13  -1 -12 11.9728 1.81923   2
 -13  -1  12 14.5884 1.85544   3
 -13  -1  12 12.8326 1.87338   2
 -13   1  12 12.3637 1.82408   2
  13   1 -12 11.3906 1.78456   2
 -12  -1  12 251.521 31.7748   2
 -12  -1  12 294.271 31.3137   3
  12  -1 -12 264.410 32.9204   2
  12   1 -12 253.746 28.4319   3
  12   1 -12 295.858 35.7691   2
 -12   1  12 249.657 31.6134   2
  11  -1 -12 25.0996 3.30400   2
 -11  -1  12 22.0935 3.00715   2
 -11  -1  12 19.8650 2.51680   3
  11   1 -12 23.9141 3.20016   2
 -11   1  12 25.2022 3.31427   2
 -11   1  12 23.4483 2.68704   3
  11   1 -12 23.0140 2.75581   3
  10  -1 -12 170.085 29.9021   1
 -10  -1  12 120.550 22.2162   1
 -10  -1  12 180.701 18.6555   3
 -10  -1  12 143.694 25.7353   1
  10  -1 -12 154.843 27.4708   1
  10  -1 -12 139.299 17.5977   2
 -10   1  12 141.688 15.7038   3
  10   1 -12 145.504 26.0088   1
  10   1 -12 107.452 20.2769   1
 -10   1  12 180.974 21.4161   2
  10   1 -12 149.360 16.3527   3
 -10   1  12 189.178 32.9093   1
 -10   1  12 109.116 20.5225   1
  -9  -1  12 273.566 48.3589   1
  -9  -1  12 218.571 39.8492   1
   9  -1 -12 224.865 40.8212   1
   9  -1 -12 270.055 47.7846   1
  -9  -1  12 252.317 31.2781   2
  -9  -1  12 248.256 27.3836   3
   9  -1 -12 263.913 28.4336   3
   9   1 -12 250.084 31.0735   2
   9   1 -12 251.365 44.9020   1
   9   1 -12 171.781 32.9176   1
   9   1 -12 265.544 28.6203   3
  -9   1  12 318.661 32.4863   3
  -9   1  12 254.821 45.4141   1
  -9   1  12 271.488 48.0062   1
   8  -1 -12 11.7081 1.65532   2
  -8  -1  12 11.8737 1.67532   2
  -8  -1  12 8.46841 1.69648   1
   8  -1 -12 9.03192 1.76925   1
  -8  -1  12 11.4470 1.41337   3
  -8  -1  12 9.55554 1.84584   1
   8  -1 -12 11.1175 2.06819   1
   8  -1 -12 11.0221 1.30413   3
  -8   1  12 10.8528 1.58003   2
  -8   1  12 9.75433 1.89772   1
  -8   1  12 8.42752 1.67610   1
   8   1 -12 11.3464 1.63601   2
  -8   1  12 10.2835 1.24464   3
   8   1 -12 8.45653 1.69094   1
   8   1 -12 8.30534 1.64011   1
   8   1 -12 10.7917 1.39026   3
   7  -1 -12 498.691 61.0803   2
   7  -1 -12 471.645 51.9511   3
  -7  -1  12 581.993 101.618   1
   7  -1 -12 463.766 83.1494   1
  -7  -1  12 479.644 85.5936   1
   7  -1 -12 458.026 82.2759   1
  -7  -1  12 361.610 44.6537   3
   7   1 -12 493.849 60.6474   2
  -7   1  12 534.231 94.1214   1
  -7   1  12 643.306 74.5017   2
  -7   1  12 510.486 90.3920   1
   7   1 -12 476.742 85.1540   1
   7   1 -12 502.634 54.2220   3
   7   1 -12 446.752 80.5423   1
  -7   1  12 494.694 53.5822   3
  -6  -1  12 461.529 82.7018   1
   6  -1 -12 362.611 67.7732   1
   6  -1 -12 538.193 64.5639   2
   6  -1 -12 456.983 82.0244   1
  -6  -1  12 433.632 78.4339   1
   6  -1 -12 479.414 52.3250   3
   6   1 -12 474.298 84.6827   1
  -6   1  12 482.181 85.9038   1
   6   1 -12 452.050 81.2380   1
  -6   1  12 588.490 102.571   1
   6   1 -12 501.837 61.2270   2
  -6   1  12 460.010 57.4961   2
   6   1 -12 477.449 52.2579   3
  -6   1  12 499.682 53.8039   3
  -5  -1  12 242.653 43.0699   1
   5  -1 -12 204.808 37.2152   1
  -5  -1  12 174.441 32.6971   1
   5  -1 -12 287.234 50.0897   1
  -5  -1  12 238.964 25.9145   3
   5  -1 -12 280.520 33.2063   2
   5   1 -12 216.537 39.0282   1
   5   1 -12 236.270 29.1401   2
   5   1 -12 235.330 25.6671   3
  -5   1  12 217.990 27.5252   2
  -5   1  12 208.079 37.7346   1
  -5   1  12 243.871 26.2417   3
   5   1 -12 228.462 40.8655   1
  -5   1  12 222.914 40.0135   1
   4  -1 -12 49.5231 6.40938   2
  -4  -1  12 53.7105 6.80458   2
   4  -1 -12 61.4931 10.8535   1
   4  -1 -12 61.5933 10.8560   1
   4  -1 -12 58.9943 6.29446   3
  -4  -1  12 50.9164 5.74256   3
   4   1 -12 50.8735 9.20155   1
  -4   1  12 40.1794 7.56985   1
   4   1 -12 48.8132 8.86999   1
   4   1 -12 58.4476 7.20113   2
  -4   1  12 55.5799 9.91985   1
   4   1 -12 50.5279 5.73281   3
  -4   1  12 49.6654 6.41820   2
  -3  -1  12 383.671 46.7403   2
   3  -1 -12 365.874 65.2132   1
  -3  -1  12 393.691 41.9037   3
   3  -1 -12 415.066 43.4216   3
   3  -1 -12 295.058 38.9928   2
   3  -1 -12 527.900 90.7998   1
   3   1 -12 396.117 69.8988   1
  -3   1  12 408.950 42.9972   3
   3   1 -12 341.803 38.2199   3
   3   1 -12 408.544 71.8520   1
  -3   1  12 300.418 39.4458   2
  -2  -1  12 171.200 30.2626   1
   2  -1 -12 164.315 20.1514   2
  -2  -1  12 159.444 28.4153   1
  -2  -1  12 167.309 17.9324   3
  -2  -1  12 143.680 18.3075   2
   2  -1 -12 139.335 25.2981   1
   2  -1 -12 127.046 23.4721   1
   2  -1 -12 173.598 18.3649   3
  -2   1  12 194.664 23.0131   2
  -2   1  12 164.571 17.7221   3
   2   1 -12 165.104 17.7790   3
   2   1 -12 159.601 28.4287   1
   2   1 -12 99.1528 19.3824   1
  -1  -1  12 292.910 51.4981   1
   1  -1 -12 273.059 29.3107   3
  -1  -1  12 202.737 27.2133   2
   1  -1 -12 285.513 50.3363   1
  -1  -1  12 264.711 47.0848   1
   1  -1 -12 269.516 47.8415   1
   1  -1 -12 303.886 36.1756   2
  -1  -1  12 286.610 30.3132   3
   1   1 -12 252.014 27.8432   3
  -1   1  12 264.765 28.7208   3
   1   1 -12 208.188 38.4659   1
   0  -1 -12 19.0864 2.15567   3
   0  -1 -12 17.7938 2.41308   2
   0  -1  12 15.6575 2.93920   1
   0  -1  12 17.6459 3.24266   1
   0  -1  12 18.0880 2.46475   2
   0   1  12 14.7976 2.81026   1
   0   1 -12 18.5439 2.51168   2
   0   1 -12 16.5843 2.00840   3
   0   1  12 15.5417 2.93389   1
   0   1  12 20.0933 2.23933   3
  -1  -1 -12 2.53034 0.73309   2
   1  -1  12 1.88809 0.43379   3
   1  -1  12 2.68680 0.63758   1
   1  -1  12 3.13815 0.72959   1
   1  -1  12 3.25721 0.79466   2
   1   1  12 2.21332 0.48957   3
   1   1  12 2.20413 0.60324   1
   1   1  12 2.22644 0.62617   1
  -1   1 -12 2.78987 0.69083   2
  -1   1 -12 2.79945 0.54383   3
   2  -1  12 13.3561 2.53231   1
  -2  -1 -12 15.6170 1.82694   3
  -2  -1 -12 18.5677 3.35373   1
   2  -1  12 15.2591 1.81116   3
  -2  -1 -12 17.4620 3.17964   1
   2  -1  12 15.5762 2.88991   1
  -2   1 -12 16.2039 1.90035   3
   2   1  12 11.0971 2.20325   1
   2   1  12 14.7968 2.74632   1
  -2   1 -12 14.9739 2.81783   1
   3  -1  12 0.64515 0.54839   2
  -3  -1 -12 0.31536 0.33592   1
   3  -1  12 -0.2669 0.40851   1
   3  -1  12 1.13243 0.39603   3
  -3   1 -12 0.15813 0.42520   1
   3   1  12 0.60162 0.57335   2
  -3   1 -12 0.01694 0.51615   2
   3   1  12 0.47213 0.45853   1
  -3   1 -12 0.23105 0.41666   3
  -4  -1 -12 19.9171 2.42726   3
   4  -1  12 21.4464 2.97070   2
   4  -1  12 23.7528 2.70306   3
  -4   1 -12 29.3143 3.14759   3
   4   1  12 23.7468 2.69160   3
   4   1  12 24.6551 3.25464   2
  -4   1 -12 18.9472 2.75180   2
   5  -1  12 0.24888 0.32214   3
  -5  -1 -12 0.25505 0.51823   2
   5  -1  12 1.02134 0.56891   2
   5   1  12 0.29184 0.59059   2
   5   1  12 0.33330 0.35405   3
  -5   1 -12 0.30733 0.50363   2
  -6  -1 -12 22.4944 2.62767   3
   6  -1  12 23.7433 3.21037   2
  -6  -1 -12 23.6697 3.20784   2
  -6   1 -12 22.4872 3.09441   2
   6   1  12 25.3949 3.35316   2
   6   1  12 20.1754 2.47501   3
  -7  -1 -12 15.6754 1.94316   3
   7  -1  12 22.9422 2.96669   2
  -7  -1 -12 24.7584 3.14754   2
  -7   1 -12 13.4592 2.07973   2
   7   1  12 14.4561 2.17697   2
  -8  -1 -12 1.12435 0.63346   2
  -8  -1 -12 1.89784 0.51471   3
   8  -1  12 0.79624 0.64244   2
   8   1  12 1.94971 0.71013   2
   8   1  12 1.18497 0.47585   3
  -8   1 -12 2.08105 0.72162   2
  -9  -1 -12 32.2639 4.27546   2
  -9   1 -12 30.1090 4.09504   2
   9   1  12 31.6473 4.21321   2
 -10  -1 -12 50.8292 6.50472   2
  10  -1  12 41.5834 5.72097   2
  10   1  12 54.4353 6.83302   2
 -10   1 -12 49.3466 6.45005   2
 -11  -1 -12 23.9309 3.32295   2
  11  -1  12 23.1102 3.25413   2
  11   1  12 25.9701 3.52492   2
 -11   1 -12 27.2738 3.63893   2
  12  -1  12 26.9217 3.86518   2
 -12  -1 -12 38.8509 4.92210   2
  12   1  12 32.5610 4.38483   2
 -12   1 -12 34.8824 4.57578   2
  13  -1  12 4.30684 0.99521   2
 -13  -1 -12 4.20190 0.99155   2
  13   1  12 4.23519 1.00217   2
 -13   1 -12 6.16592 1.18730   2
 -14  -1 -12 0.25683 0.70961   2
  14  -1  12 0.72622 0.71342   2
  14   1  12 0.89415 0.72153   2
 -14   1 -12 -0.6840 0.67200   2
  21  -2 -12 0.36518 0.63948   2
 -21   2  12 0.09956 0.63575   2
 -20  -2  12 0.96128 0.74147   2
  20  -2 -12 1.21509 0.75388   2
 -20   2  12 0.47583 0.61470   2
 -19  -2  12 16.3704 2.43577   2
  19  -2 -12 18.8142 2.64490   2
 -19   2  12 15.7129 2.32066   2
  19   2 -12 14.7614 2.26077   2
  18  -2 -12 6.49201 1.21049   2
 -18   2  12 4.31055 0.99490   2
  18   2 -12 5.99289 1.16146   2
 -17  -2  12 10.4663 1.64647   2
  17  -2 -12 8.90379 1.55009   2
 -17   2  12 11.1982 1.72527   2
 -16  -2  12 3.35178 0.92769   2
  16  -2 -12 3.84843 0.96963   2
  15  -2 -12 28.8350 4.02943   2
 -15  -2  12 41.4317 5.19227   2
  15   2 -12 34.9031 4.55235   2
 -14  -2  12 116.913 14.3780   2
  14  -2 -12 101.836 13.0607   2
 -14  -2  12 103.740 11.7737   3
  14   2 -12 110.846 13.8499   2
  13  -2 -12 19.9349 2.69619   2
 -13  -2  12 14.7648 2.02296   3
 -13  -2  12 19.9317 2.72435   2
  13   2 -12 17.2501 2.24680   3
  13   2 -12 19.1818 2.61690   2
  12  -2 -12 16.1515 2.34369   2
 -12  -2  12 15.6564 2.25371   2
  12   2 -12 14.7401 1.96447   3
 -12   2  12 17.5614 2.41348   2
  12   2 -12 17.6261 2.42404   2
 -11  -2  12 188.392 20.5089   3
 -11  -2  12 190.375 23.3814   2
  11   2 -12 166.289 21.2192   2
  11   2 -12 163.374 18.7540   3
 -11   2  12 200.800 24.3378   2
 -10  -2  12 81.9829 9.36532   3
 -10   2  12 90.0975 11.2213   2
 -10   2  12 83.7121 9.34787   3
  10   2 -12 90.3726 9.96254   3
  -9  -2  12 13.6476 2.50705   1
  -9  -2  12 9.75613 1.89195   1
  -9  -2  12 12.7157 1.67868   3
  -9  -2  12 10.3772 1.57196   2
   9  -2 -12 10.9977 1.33072   3
  -9   2  12 10.6904 2.05257   1
  -9   2  12 11.5282 1.37205   3
   9   2 -12 11.8654 1.71191   2
  -9   2  12 10.7573 1.64310   2
   9   2 -12 11.3317 2.13842   1
  -8  -2  12 33.4007 6.18567   1
   8  -2 -12 42.6619 4.59404   3
  -8  -2  12 44.5232 5.49550   2
   8  -2 -12 32.9999 6.11009   1
  -8  -2  12 41.2695 7.37774   1
   8  -2 -12 42.2268 7.53623   1
  -8   2  12 32.1129 3.85488   3
   8   2 -12 38.5228 4.95066   2
   8   2 -12 41.6001 7.45115   1
  -8   2  12 35.8250 6.55505   1
   8   2 -12 41.7578 7.45638   1
  -8   2  12 39.6546 7.12672   1
  -7  -2  12 0.71441 0.50314   2
   7  -2 -12 1.49632 0.47947   1
  -7  -2  12 0.30984 0.33341   1
  -7  -2  12 0.55610 0.43999   1
   7  -2 -12 0.77610 0.52086   2
   7  -2 -12 0.80633 0.28263   3
   7  -2 -12 0.85246 0.41237   1
   7   2 -12 0.53815 0.49171   3
  -7   2  12 0.28025 0.36123   1
  -7   2  12 0.77081 0.46922   2
   7   2 -12 0.49463 0.37899   1
  -7   2  12 1.30064 0.39051   3
   7   2 -12 0.21242 0.45154   2
   7   2 -12 0.49215 0.39718   1
  -7   2  12 1.40582 0.46964   1
   6  -2 -12 55.4194 9.79585   1
   6  -2 -12 40.7861 7.50437   1
   6  -2 -12 45.0532 5.08153   3
  -6  -2  12 51.9872 5.68392   3
  -6  -2  12 42.3594 7.74159   1
  -6  -2  12 48.1492 6.09238   2
  -6  -2  12 39.4955 7.31395   1
  -6   2  12 59.6899 10.4599   1
   6   2 -12 42.0817 7.69762   1
  -6   2  12 44.0039 5.02475   3
   6   2 -12 53.2206 5.79049   3
   6   2 -12 46.8477 5.97020   2
   6   2 -12 47.3582 8.51838   1
  -6   2  12 40.4714 7.45874   1
  -6   2  12 49.1603 6.19665   2
   5  -2 -12 453.895 54.1276   2
   5  -2 -12 546.009 54.3820   3
  -5  -2  12 306.027 56.8554   1
  -5  -2  12 390.584 69.6962   1
   5  -2 -12 284.767 53.7086   1
  -5  -2  12 372.871 41.5813   3
  -5  -2  12 429.447 51.8454   2
   5  -2 -12 390.275 69.6611   1
  -5   2  12 361.789 65.2734   1
   5   2 -12 408.592 44.1071   3
   5   2 -12 385.910 68.9842   1
   5   2 -12 368.094 46.3560   2
   5   2 -12 370.691 66.6181   1
  -5   2  12 366.791 46.2545   2
  -5   2  12 442.119 46.4520   3
  -5   2  12 372.289 66.8857   1
  -4  -2  12 200.913 25.8881   2
  -4  -2  12 235.768 25.5732   3
  -4  -2  12 266.063 46.6569   1
  -4  -2  12 248.052 43.8108   1
   4  -2 -12 280.236 48.8912   1
   4  -2 -12 230.468 28.4950   2
   4  -2 -12 229.932 40.9966   1
   4   2 -12 221.756 27.7136   2
  -4   2  12 257.042 27.0621   3
   4   2 -12 209.327 37.8386   1
  -4   2  12 199.163 25.7418   2
   4   2 -12 215.972 24.1860   3
  -4   2  12 213.979 38.5432   1
   4   2 -12 238.189 42.2637   1
  -4   2  12 297.611 51.6370   1
   3  -2 -12 35.1126 3.95234   3
   3  -2 -12 34.1297 6.20575   1
   3  -2 -12 37.8265 4.79304   2
  -3  -2  12 31.1726 5.75860   1
  -3  -2  12 37.3132 4.18166   3
  -3  -2  12 38.4294 4.84746   2
   3  -2 -12 28.4610 5.36450   1
  -3  -2  12 31.0802 5.73115   1
   3   2 -12 34.5946 4.51163   2
  -3   2  12 36.4966 4.06343   3
   3   2 -12 46.4420 8.13363   1
  -3   2  12 33.8952 6.17049   1
   3   2 -12 56.8944 9.82828   1
  -3   2  12 41.0588 7.28626   1
   3   2 -12 40.1250 4.41045   3
  -3   2  12 29.4448 4.04658   2
  -2  -2  12 11.3904 2.15291   1
  -2  -2  12 12.1911 2.26704   1
  -2  -2  12 10.7397 1.43350   3
   2  -2 -12 10.8069 2.06368   1
   2  -2 -12 15.8178 2.85890   1
   2  -2 -12 13.7104 1.86091   2
   2  -2 -12 12.1418 1.45283   3
  -2  -2  12 9.48356 1.53322   2
   2   2 -12 10.4228 1.99586   1
  -2   2  12 10.4425 1.58273   2
   2   2 -12 11.6746 1.72996   2
  -2   2  12 12.0092 1.46977   3
  -2   2  12 13.1791 2.43652   1
   2   2 -12 12.7929 2.40126   1
   2   2 -12 15.6284 1.83095   3
  -2   2  12 10.8964 2.07767   1
   1  -2 -12 225.014 39.9914   1
  -1  -2  12 206.867 37.1472   1
   1  -2 -12 218.514 38.9707   1
  -1  -2  12 202.344 22.7633   3
  -1  -2  12 229.800 40.7010   1
   1  -2 -12 197.496 25.1819   2
  -1  -2  12 247.083 29.6506   2
  -1   2  12 193.281 35.0912   1
   1   2 -12 253.163 44.3826   1
  -1   2  12 210.947 37.7952   1
   1   2 -12 199.517 36.0444   1
  -1   2  12 318.635 36.4596   2
   1   2 -12 175.065 20.9406   3
   1   2 -12 227.260 27.8188   2
   0  -2  12 2.85542 0.71220   1
   0  -2 -12 2.66611 0.68702   1
   0  -2 -12 2.26706 0.61114   1
   0  -2  12 3.08383 0.78743   2
   0  -2 -12 2.45168 0.47901   3
   0  -2 -12 4.13656 0.77049   2
   0  -2  12 2.06325 0.54748   3
   0  -2  12 1.33165 0.51651   1
   0   2  12 2.59521 0.72392   1
   0   2 -12 2.17438 0.62079   1
   0   2 -12 1.59477 0.53794   3
   0   2  12 3.30059 0.77605   2
   0   2  12 3.41281 0.76804   1
   0   2  12 2.32430 0.51157   3
   0   2 -12 3.94501 0.83739   2
   0   2 -12 2.58689 0.67436   1
  -1  -2 -12 43.6408 7.82945   1
  -1  -2 -12 47.7940 5.89250   2
  -1  -2 -12 53.2405 5.50071   3
   1  -2  12 48.7112 5.21976   3
   1  -2  12 44.8034 7.98484   1
   1  -2  12 48.9914 8.65053   1
  -1  -2 -12 44.8273 8.00232   1
   1  -2  12 45.5143 5.71638   2
   1   2  12 32.0520 6.03678   1
   1   2  12 28.7393 4.26933   2
  -1   2 -12 34.3772 4.19862   3
   1   2  12 43.3288 4.76505   3
   1   2  12 40.4475 7.32777   1
  -1   2 -12 48.6472 5.99926   2
  -1   2 -12 32.9406 6.18351   1
  -1   2 -12 43.4304 7.78315   1
   2  -2  12 8.30766 1.31186   2
   2  -2  12 8.25956 1.09850   3
   2  -2  12 9.56619 1.81533   1
  -2  -2 -12 7.23799 1.42984   1
  -2   2 -12 8.52796 1.14064   3
   2   2  12 5.45102 0.87148   3
  -2   2 -12 8.33310 1.30324   2
  -3  -2 -12 -0.1055 0.34200   3
  -3  -2 -12 0.38400 0.57468   2
   3  -2  12 0.55490 0.57904   2
   3   2  12 0.44505 0.57696   2
   3   2  12 -0.4428 0.40723   3
  -3   2 -12 0.03392 0.53310   2
  -4  -2 -12 22.6476 2.56543   3
   4  -2  12 23.3730 3.10317   2
  -4  -2 -12 21.1191 2.89498   2
  -4   2 -12 18.3115 2.64645   2
   4   2  12 20.4286 2.41355   3
  -5  -2 -12 0.33317 0.33395   3
   5  -2  12 0.13577 0.55001   2
   5  -2  12 -0.7964 0.38870   3
  -5  -2 -12 -0.0182 0.53522   2
  -5   2 -12 -0.0681 0.44125   3
  -5   2 -12 0.35915 0.60466   2
   5   2  12 0.57509 0.60009   2
   5   2  12 -0.1016 0.34983   3
   6  -2  12 8.83334 1.39927   2
  -6  -2 -12 7.52604 1.05291   3
  -6  -2 -12 6.31536 1.26690   2
   6   2  12 8.31547 1.11653   3
   6   2  12 8.04543 1.39192   2
  -6   2 -12 8.57710 1.40660   2
  -7  -2 -12 17.1609 2.08143   3
   7  -2  12 16.6428 2.42517   2
  -7  -2 -12 20.9461 2.81379   2
  -7   2 -12 14.5249 2.22939   2
   7   2  12 18.0631 2.55718   2
   7   2  12 17.4861 2.10344   3
  -8  -2 -12 10.1084 1.69801   2
  -8  -2 -12 11.7306 1.52475   3
   8   2  12 17.0035 2.32768   2
  -8   2 -12 12.5881 1.93273   2
   8   2  12 13.3540 1.65381   3
  -9  -2 -12 9.42879 1.30554   3
  -9  -2 -12 12.7297 1.90027   2
   9   2  12 10.0250 1.32610   3
   9   2  12 10.0511 1.65435   2
  -9   2 -12 7.90566 1.47462   2
 -10  -2 -12 2.88844 0.92680   2
 -10   2 -12 1.78303 0.72865   2
  10   2  12 1.57759 0.77748   2
 -11  -2 -12 0.16899 0.59873   2
  11   2  12 1.08423 0.65275   2
 -11   2 -12 0.60744 0.59781   2
 -12  -2 -12 4.07904 0.99321   2
  12  -2  12 4.84355 1.10104   2
 -12   2 -12 4.17965 0.98114   2
  13  -2  12 4.04828 1.08911   2
 -13   2 -12 9.78040 1.60726   2
  14  -2  12 4.45662 1.03349   2
  20  -3 -12 52.1917 6.83684   2
 -20   3  12 56.9797 7.29810   2
  19  -3 -12 0.44922 0.73634   2
 -19   3  12 0.76549 0.75280   2
  18  -3 -12 8.10524 1.43509   2
 -18   3  12 9.89272 1.63230   2
  17  -3 -12 8.89937 1.49355   2
 -17   3  12 8.03209 1.45468   2
  16  -3 -12 34.6534 4.58011   2
 -16   3  12 33.1986 4.43620   2
  15  -3 -12 0.03139 0.63205   2
 -15   3  12 -0.1683 0.60107   2
 -14  -3  12 34.4099 4.14241   3
  14  -3 -12 35.6568 4.71670   2
 -14   3  12 38.5541 4.98017   2
  14   3 -12 36.2675 4.30964   3
  14   3 -12 37.1320 4.82272   2
  13  -3 -12 371.632 47.6285   2
 -13  -3  12 465.533 56.0770   2
  13   3 -12 415.121 45.6203   3
 -13   3  12 450.124 54.5874   2
  13   3 -12 390.585 49.2595   2
 -12  -3  12 4.14790 0.91998   3
 -12  -3  12 7.22063 1.21925   2
  12  -3 -12 6.19649 1.11619   2
  12   3 -12 4.32524 0.98004   3
 -12   3  12 4.86560 1.01370   2
  12   3 -12 4.86963 0.98311   2
  11  -3 -12 55.8157 6.91590   2
 -11  -3  12 47.7846 6.16853   2
 -11  -3  12 43.5547 5.21418   3
  11   3 -12 45.3723 5.95487   2
 -11   3  12 49.8832 6.37451   2
  11   3 -12 50.1113 5.72405   3
 -10  -3  12 78.0056 8.45553   3
  10  -3 -12 59.9656 7.93984   2
 -10  -3  12 66.7218 8.51798   2
  10   3 -12 66.3712 7.60918   3
 -10   3  12 70.1151 8.83862   2
  10   3 -12 73.5469 9.13343   2
  -9  -3  12 7.57836 1.14983   3
   9  -3 -12 5.83094 0.78718   3
  -9  -3  12 6.36238 1.04115   2
   9  -3 -12 6.46346 1.11766   2
   9   3 -12 6.12501 1.05736   3
  -9   3  12 6.64602 0.89160   3
   9   3 -12 6.80413 1.11172   2
   8  -3 -12 96.0410 12.0735   2
   8  -3 -12 86.2702 9.92033   3
  -8  -3  12 90.5030 11.5464   2
  -8  -3  12 102.205 11.1644   3
   8   3 -12 110.222 13.3427   2
  -7  -3  12 15.8885 1.92985   3
   7  -3 -12 13.6264 1.59548   3
  -7  -3  12 11.5329 1.71530   2
  -7   3  12 10.4000 1.37416   3
   7   3 -12 13.7925 1.91181   2
   7   3 -12 18.0758 2.11261   3
  -6  -3  12 7.53546 1.48152   1
   6  -3 -12 11.5784 2.13480   1
  -6  -3  12 12.0604 1.52233   3
   6  -3 -12 6.56902 1.14103   2
   6   3 -12 8.79688 1.33439   3
  -6   3  12 11.4012 1.59170   2
   6   3 -12 8.49204 1.31269   2
   5  -3 -12 260.897 31.9391   2
  -5  -3  12 260.559 46.2453   1
  -5  -3  12 221.810 40.2785   1
   5  -3 -12 192.269 35.8434   1
  -5  -3  12 220.072 25.3716   3
   5  -3 -12 252.684 27.5329   3
   5   3 -12 266.123 28.6271   3
   5   3 -12 257.207 31.5987   2
   5   3 -12 283.328 49.8147   1
  -5   3  12 235.021 29.6472   2
  -5   3  12 300.721 31.0615   3
  -4  -3  12 1.96423 0.59510   3
  -4  -3  12 1.40247 0.44454   1
   4  -3 -12 2.08333 0.45666   3
   4  -3 -12 1.62451 0.57586   2
   4  -3 -12 0.81105 0.41367   1
  -4  -3  12 1.67972 0.47077   1
   4  -3 -12 1.20101 0.48103   1
  -4  -3  12 2.41035 0.66694   2
   4   3 -12 1.70619 0.55718   1
  -4   3  12 2.53288 0.69608   2
  -4   3  12 2.03650 0.49922   3
   4   3 -12 1.47192 0.64595   3
  -3  -3  12 30.9940 5.57812   1
   3  -3 -12 37.6706 4.63039   2
   3  -3 -12 27.6617 5.07479   1
   3  -3 -12 33.2141 5.94687   1
  -3  -3  12 31.8019 5.72141   1
  -3  -3  12 26.7204 3.62363   2
   3  -3 -12 33.3066 3.62667   3
  -3  -3  12 34.9355 3.85939   3
  -3   3  12 27.7737 3.71209   2
  -3   3  12 19.5401 3.87638   1
  -3   3  12 31.5440 3.50960   3
   3   3 -12 25.8291 4.80156   1
   3   3 -12 29.4821 3.49145   3
   2  -3 -12 708.653 89.3545   2
  -2  -3  12 740.631 81.8235   3
  -2  -3  12 988.392 171.397   1
  -2  -3  12 909.543 158.940   1
   2  -3 -12 869.381 90.9806   3
  -2  -3  12 628.954 82.5224   2
  -2   3  12 783.548 84.7709   3
  -2   3  12 793.346 96.8662   2
  -1  -3  12 103.216 13.0415   2
   1  -3 -12 102.383 11.4441   3
  -1  -3  12 114.767 12.4383   3
   1  -3 -12 101.506 12.8870   2
  -1   3  12 103.425 11.5250   3
   1   3 -12 114.797 14.0833   2
  -1   3  12 102.246 12.9575   2
   1   3 -12 108.137 11.9681   3
   0  -3  12 46.1635 5.91605   2
   0  -3 -12 42.5248 4.91315   3
   0  -3  12 58.5683 6.19747   3
   0  -3 -12 53.4138 6.56777   2
   0   3  12 47.0091 5.22630   3
   0   3  12 37.2616 5.19673   2
   0   3 -12 54.5035 5.89239   3
   0   3 -12 40.8983 5.45701   2
   1  -3  12 212.334 25.1237   2
  -1  -3 -12 174.408 18.9646   3
  -1  -3 -12 136.072 18.2070   2
   1  -3  12 167.512 18.5763   3
   1   3  12 183.445 19.6246   3
  -1   3 -12 147.614 17.2009   3
  -1   3 -12 206.294 24.5821   2
   2  -3  12 -0.1432 0.58018   2
   2  -3  12 0.15342 0.48956   3
  -2  -3 -12 0.33686 0.36640   3
  -2   3 -12 0.70078 0.59158   3
  -2   3 -12 0.01790 0.58000   2
   2   3  12 -0.4630 0.39571   3
   3  -3  12 27.2652 3.89019   2
   3  -3  12 42.0424 4.56106   3
  -3   3 -12 30.7404 4.16812   2
   3   3  12 44.1473 5.45606   2
   3   3  12 34.1214 3.87895   3
   4  -3  12 18.4434 2.73749   2
   4  -3  12 23.3197 2.83014   3
  -4  -3 -12 22.9431 2.68944   3
   4   3  12 24.7693 3.32058   2
  -4   3 -12 27.3291 3.17213   3
   4   3  12 25.2203 2.88173   3
  -4   3 -12 27.4813 3.55577   2
   5  -3  12 34.7670 4.90032   2
  -5  -3 -12 45.2553 5.87797   2
  -5  -3 -12 48.8427 5.30618   3
   5   3  12 48.8774 6.14651   2
   5   3  12 41.2583 4.78207   3
  -5   3 -12 46.2090 5.27049   3
  -5   3 -12 48.7718 6.16157   2
  -6  -3 -12 85.7498 9.27109   3
   6  -3  12 93.8184 11.3879   2
  -6  -3 -12 65.3547 8.87142   2
   6   3  12 103.263 10.5953   3
  -6   3 -12 92.9480 11.3042   2
   6   3  12 62.0383 8.56635   2
   7  -3  12 26.7654 3.57702   2
  -7  -3 -12 28.7390 3.80748   2
  -7  -3 -12 27.8707 3.12133   3
   7   3  12 22.8812 3.28207   2
   7   3  12 21.4120 2.68375   3
  -8  -3 -12 67.6121 8.39397   2
   8  -3  12 69.9299 8.57011   2
   8   3  12 45.9743 6.47802   2
  -8   3 -12 56.7926 7.33330   2
   8   3  12 59.1954 6.60972   3
  -9  -3 -12 32.3610 4.54483   2
   9  -3  12 39.5185 5.13707   2
  -9  -3 -12 32.7906 3.95303   3
   9   3  12 53.3136 6.48908   2
  -9   3 -12 38.4820 5.03101   2
   9   3  12 37.6842 4.31517   3
  10  -3  12 24.3943 3.39662   2
 -10   3 -12 23.5409 3.24880   2
  11  -3  12 16.1304 2.44929   2
 -11   3 -12 22.4068 3.02952   2
  12  -3  12 4.20517 1.03042   2
 -12   3 -12 3.88167 0.98476   2
  13  -3  12 2.43844 0.88232   2
  18  -4 -12 2.76828 0.88147   2
  17  -4 -12 59.6005 7.69705   2
  16  -4 -12 31.8343 4.27693   2
  15  -4 -12 5.43557 1.14554   2
 -15  -4  12 6.04065 1.10337   3
  15   4 -12 6.96389 1.29369   3
 -14  -4  12 11.6738 1.74197   3
  14  -4 -12 16.2786 2.29460   2
 -13  -4  12 0.50207 0.60343   3
  13  -4 -12 0.30600 0.64794   2
 -13   4  12 0.80703 0.70280   2
  13   4 -12 1.85349 0.74004   3
 -12  -4  12 12.7860 1.78826   3
  12   4 -12 14.1367 1.91257   3
 -11  -4  12 10.9538 1.58515   3
  11   4 -12 10.7134 1.64582   3
 -11   4  12 11.6338 1.77614   2
 -10  -4  12 121.022 13.7917   3
  10   4 -12 130.544 14.4767   3
 -10   4  12 134.192 16.6294   2
  -9  -4  12 17.0712 2.31163   3
   9  -4 -12 20.3542 2.81712   2
  -9   4  12 19.5389 2.29794   3
  -9   4  12 23.1310 3.02792   2
   8  -4 -12 69.6596 8.39642   3
   8  -4 -12 77.8876 10.1666   2
  -8  -4  12 87.9713 9.81156   3
   8   4 -12 97.5162 10.5437   3
  -8   4  12 112.739 13.3917   2
  -8   4  12 89.9184 9.80370   3
   7  -4 -12 7.77254 1.31458   2
   7  -4 -12 7.83083 1.05359   3
  -7  -4  12 7.83754 1.25897   3
  -7   4  12 9.16346 1.42311   2
   7   4 -12 10.0314 1.47703   3
  -6  -4  12 1.02130 0.67610   3
   6  -4 -12 2.06956 0.44430   3
  -6   4  12 1.94840 0.46355   3
   6   4 -12 0.85930 0.72783   3
   5  -4 -12 484.276 54.4115   3
  -5  -4  12 491.153 55.0290   3
  -5   4  12 479.032 60.7279   2
   5   4 -12 595.446 62.4986   3
  -5   4  12 585.295 61.6238   3
   4  -4 -12 37.3034 4.07233   3
  -4  -4  12 36.9003 4.19059   3
   4   4 -12 27.3609 3.53923   3
  -4   4  12 31.2405 4.13617   2
  -4   4  12 36.2911 4.00322   3
   3  -4 -12 1.36701 0.45931   3
  -3  -4  12 0.02015 0.58042   3
  -3   4  12 0.11878 0.46748   2
  -3   4  12 0.21724 0.47767   3
  -2  -4  12 0.69806 0.59051   3
   2  -4 -12 0.29432 0.38152   3
   2   4 -12 0.91775 0.70450   3
  -1  -4  12 3.17784 0.73425   3
   1  -4 -12 3.72308 0.65772   3
   1   4 -12 2.75019 0.82831   3
  -1   4  12 2.57042 0.61696   3
   0  -4 -12 23.2475 2.66151   3
   0  -4  12 23.3687 2.82429   3
   0   4  12 22.3399 2.62817   3
   0   4 -12 23.7790 2.90013   3
   0   4 -12 20.0643 2.84477   2
   1  -4  12 47.9711 5.64613   3
  -1  -4 -12 54.4472 5.96759   3
  -1   4 -12 50.7271 6.54507   2
  -1   4 -12 58.8245 6.47131   3
   1   4  12 46.7549 5.45313   3
   2  -4  12 87.9889 10.9067   2
  -2  -4 -12 70.4951 8.20890   3
   2  -4  12 86.2901 9.46422   3
   2   4  12 78.2571 8.77132   3
  -2   4 -12 75.0264 8.69058   3
  -2   4 -12 84.6777 10.5610   2
   3  -4  12 64.8533 8.23436   2
  -3  -4 -12 54.3874 6.44841   3
   3   4  12 63.1520 7.08327   3
  -3   4 -12 64.7212 8.24101   2
  -3   4 -12 76.2134 8.22437   3
   4  -4  12 50.0931 5.71207   3
  -4  -4 -12 42.3526 5.00498   3
   4  -4  12 46.7019 6.10180   2
  -4   4 -12 52.4604 6.65294   2
  -4   4 -12 49.7480 5.79689   3
   5  -4  12 6.74915 1.24890   2
  -5  -4 -12 5.53061 0.90472   3
   5   4  12 6.60168 0.99318   3
  -5   4 -12 6.59488 1.21174   2
   6  -4  12 16.4379 2.43078   2
  -6  -4 -12 16.0426 2.01117   3
  -6   4 -12 21.1149 2.85432   2
   7  -4  12 38.8182 5.14713   2
  -7  -4 -12 43.5219 4.78492   3
  -7   4 -12 35.6076 4.88163   2
   7   4  12 41.3222 4.64321   3
   8  -4  12 11.4722 1.92168   2
  -8  -4 -12 12.0838 1.55871   3
   8   4  12 11.4011 1.54383   3
  -8   4 -12 15.3410 2.27436   2
  -9  -4 -12 1.14221 0.53701   3
   9  -4  12 1.14442 0.77411   2
  -9   4 -12 1.05580 0.74880   2
  10  -4  12 1.18699 0.79879   2
 -10   4 -12 -0.0652 0.57675   2
 -15  -5  12 1.33704 0.79038   3
  15   5 -12 0.47898 0.84173   3
  14   5 -12 3.74755 1.00474   3
 -13  -5  12 -0.2416 0.62297   3
  13   5 -12 0.44528 0.65300   3
 -12  -5  12 2.14964 0.79662   3
  12   5 -12 2.43174 0.86545   3
 -11  -5  12 47.8032 5.65066   3
  11   5 -12 48.8742 5.75893   3
 -10  -5  12 32.5449 4.00183   3
  10   5 -12 35.2867 4.18269   3
   9   5 -12 -0.0195 0.68048   3
  -8  -5  12 178.759 20.4777   3
   8  -5 -12 198.800 21.7368   3
  -8   5  12 202.078 21.9869   3
   8   5 -12 205.308 22.3859   3
  -7  -5  12 74.7600 7.93947   3
   7  -5 -12 54.1744 6.29653   3
  -7   5  12 60.0067 6.71359   3
   7   5 -12 56.8011 6.67289   3
   6  -5 -12 8.46690 1.10694   3
  -6  -5  12 6.77857 1.16793   3
   6   5 -12 7.24498 1.30512   3
   5  -5 -12 24.5543 2.81481   3
  -5  -5  12 22.5284 2.81526   3
   5   5 -12 26.7412 3.20098   3
  -5   5  12 21.2067 2.60316   3
   4  -5 -12 3.21442 0.59944   3
  -4  -5  12 1.57435 0.73046   3
  -4   5  12 3.79312 0.70693   3
   3  -5 -12 6.01259 0.89738   3
  -3   5  12 5.91427 0.92990   3
   3   5 -12 7.91354 1.38244   3
   2  -5 -12 7.05720 0.97482   3
  -2  -5  12 5.36893 1.04209   3
   2   5 -12 8.32510 1.40473   3
  -2   5  12 7.08870 1.04023   3
   1  -5 -12 0.15805 0.41692   3
  -1  -5  12 1.08065 0.64163   3
   1   5 -12 2.54335 0.90291   3
   0  -5  12 1.26803 0.71651   3
   0  -5 -12 0.99768 0.46894   3
   0   5 -12 0.28065 0.74220   3
   0   5  12 1.38407 0.59374   3
  -1  -5 -12 0.64432 0.45646   3
   1  -5  12 0.52848 0.61779   3
  -1   5 -12 0.56667 0.77989   3
   1   5  12 0.48235 0.45027   3
  -2  -5 -12 0.55902 0.41652   3
   2   5  12 -0.3990 0.53938   3
  -2   5 -12 1.23591 0.80324   3
   3  -5  12 6.33262 1.13053   3
  -3   5 -12 4.64321 1.14316   3
   3   5  12 4.67913 0.96110   3
   4   5  12 4.39142 0.83083   3
  -5  -5 -12 11.8428 1.50532   3
  -6  -5 -12 -0.2916 0.47266   3
   6   5  12 -0.0176 0.52757   3
  -7  -5 -12 4.04899 0.77478   3
   7   5  12 5.11519 0.87445   3
  -8  -5 -12 3.51823 0.73828   3
   8   5  12 3.69086 0.77568   3
   9   5  12 1.94939 0.69579   3
 -13  -6  12 6.85133 1.23290   3
  13   6 -12 9.19554 1.51041   3
 -12  -6  12 3.18044 0.84014   3
  12   6 -12 2.40046 0.91910   3
 -11  -6  12 -0.3878 0.61105   3
  11   6 -12 -0.0419 0.71234   3
 -10  -6  12 4.25462 0.94561   3
  10   6 -12 5.69619 1.18567   3
  -9  -6  12 94.8060 10.7948   3
   9   6 -12 100.677 11.2327   3
  -8  -6  12 0.78450 0.58331   3
   8   6 -12 1.80238 0.82437   3
   7  -6 -12 0.43118 0.47611   3
  -7  -6  12 0.56644 0.66942   3
   7   6 -12 1.81039 0.86055   3
  -7   6  12 0.81993 0.51505   3
  -6  -6  12 91.3293 10.3667   3
   6  -6 -12 97.8384 10.6864   3
  -6   6  12 81.8037 9.57252   3
   6   6 -12 106.610 11.5098   3
  -5  -6  12 1.30081 0.76057   3
   5  -6 -12 2.53382 0.56205   3
   4  -6 -12 2.94837 0.68748   3
   4   6 -12 4.82846 1.15124   3
  -4   6  12 3.90306 0.75874   3
   3  -6 -12 -0.0849 0.36718   3
  -3  -6  12 0.51152 0.63925   3
   3   6 -12 0.77833 0.76494   3
  -3   6  12 0.43012 0.51936   3
  -2  -6  12 6.26717 1.13701   3
   2  -6 -12 4.94177 0.83845   3
   2   6 -12 6.03579 1.24812   3
  -2   6  12 5.53975 0.92503   3
  -1  -6  12 1.74736 0.73834   3
   1  -6 -12 1.08111 0.48549   3
  -1   6  12 0.84694 0.52241   3
   1   6 -12 1.80815 0.92111   3
   0  -6  12 5.25024 1.10255   3
   0  -6 -12 6.04642 0.93577   3
   0   6 -12 6.23458 1.30550   3
  -1  -6 -12 3.55850 0.69888   3
   1  -6  12 2.58996 0.91498   3
   1   6  12 4.29136 0.78694   3
  -1   6 -12 3.83019 1.01598   3
   2  -6  12 10.9910 1.70858   3
  -2  -6 -12 12.7479 1.60079   3
   2   6  12 11.5121 1.53778   3
  -2   6 -12 12.0426 1.87962   3
  -3  -6 -12 5.89668 0.94881   3
   3   6  12 7.14448 1.04812   3
  -4  -6 -12 3.32226 0.70273   3
   4   6  12 3.03359 0.76627   3
   5   6  12 2.96546 0.74103   3
  -6  -6 -12 1.58339 0.58409   3
   6   6  12 1.85812 0.67371   3
  -7  -6 -12 6.03007 0.97675   3
   7   6  12 4.87501 0.92659   3
 -10  -7  12 2.24952 0.80090   3
  10   7 -12 1.33189 0.82224   3
  -9  -7  12 8.40634 1.33294   3
   9   7 -12 6.65804 1.28775   3
  -8  -7  12 8.51223 1.40087   3
   8   7 -12 11.5887 1.67606   3
  -7  -7  12 -1.0609 0.60933   3
   7   7 -12 0.25788 0.76071   3
  -6  -7  12 26.0713 3.22678   3
   5  -7 -12 0.18735 0.49383   3
   5   7 -12 0.53158 0.69292   3
  -4  -7  12 11.5750 1.67159   3
   4  -7 -12 11.3898 1.49325   3
   4   7 -12 9.45742 1.60010   3
   3  -7 -12 12.7747 1.66586   3
  -3  -7  12 14.2154 1.92788   3
  -3   7  12 11.1368 1.55645   3
   3   7 -12 12.9980 1.92169   3
  -2  -7  12 6.19866 1.16055   3
   2  -7 -12 4.23292 0.77534   3
  -2   7  12 4.17676 0.83553   3
   2   7 -12 6.61210 1.32610   3
  -1  -7  12 17.8858 2.48208   3
   1  -7 -12 21.5855 2.54325   3
  -1   7  12 22.9100 2.67139   3
   0  -7 -12 15.7949 1.97019   3
   0   7  12 15.9145 2.01643   3
  -1  -7 -12 3.05907 0.69903   3
  -2  -7 -12 3.72265 0.75368   3
   2   7  12 3.74490 0.76600   3
  -3  -7 -12 1.18771 0.49798   3
   3   7  12 1.10087 0.61354   3
 -22   0  13 -0.5455 0.66556   2
 -21   0  13 0.03303 0.71369   2
  21   0 -13 0.29906 0.70172   2
 -20   0  13 0.11326 0.73100   2
  20   0 -13 0.16091 0.71118   2
  19   0 -13 -0.1594 0.54778   2
  18   0 -13 0.38579 0.66351   2
  17   0 -13 -0.9101 0.49992   2
 -17   0  13 0.69107 0.60328   2
 -16   0  13 0.18842 0.66318   2
 -15   0  13 -0.0156 0.55163   2
 -14   0  13 0.69294 0.61720   2
  14   0 -13 0.62469 0.58192   2
 -13   0  13 0.16698 0.50835   2
  13   0 -13 -1.0399 0.52709   2
  12   0 -13 -0.1685 0.59579   2
 -12   0  13 0.23797 0.65105   2
 -12   0  13 0.11264 0.44884   3
 -11   0  13 0.92664 0.66303   2
 -11   0  13 0.30659 0.44753   3
  11   0 -13 0.70743 0.56689   2
  10   0 -13 -0.2222 0.55396   2
 -10   0  13 0.05991 0.37452   3
  10   0 -13 -0.1000 0.36326   1
 -10   0  13 0.21425 0.56650   2
  10   0 -13 0.13224 0.46696   3
 -10   0  13 -0.3694 0.34234   1
  -9   0  13 0.49722 0.46345   1
  -9   0  13 -0.0399 0.34951   3
   9   0 -13 0.18791 0.37531   1
  -9   0  13 -0.1850 0.46242   2
   9   0 -13 -0.0803 0.34786   1
   9   0 -13 0.00877 0.45482   3
  -9   0  13 -0.7861 0.34711   1
   9   0 -13 -0.2843 0.50908   2
  -8   0  13 0.25687 0.39867   1
  -8   0  13 0.39230 0.36216   3
  -8   0  13 0.36729 0.38667   1
   8   0 -13 -0.1826 0.55480   2
   8   0 -13 2.26267 0.50114   3
   8   0 -13 -0.4661 0.40763   1
   8   0 -13 0.81890 0.37626   1
  -8   0  13 -0.4579 0.53340   2
   7   0 -13 -0.1717 0.33574   1
   7   0 -13 -1.1448 0.53619   2
  -7   0  13 0.08206 0.24384   3
  -7   0  13 0.51546 0.59351   2
   7   0 -13 0.02971 0.37673   1
  -7   0  13 -0.2925 0.37093   1
   7   0 -13 0.22489 0.32946   3
  -7   0  13 1.29016 0.48367   1
  -6   0  13 -0.2827 0.41224   1
   6   0 -13 -0.0587 0.32544   1
   6   0 -13 -0.0174 0.51141   2
  -6   0  13 0.06491 0.34396   1
  -6   0  13 0.38801 0.58890   2
  -6   0  13 -0.2015 0.36206   3
   6   0 -13 -0.8607 0.38981   1
   5   0 -13 0.18824 0.39575   1
  -5   0  13 -0.4207 0.41043   1
   5   0 -13 -0.5618 0.33984   3
   5   0 -13 0.04950 0.32952   1
   5   0 -13 0.24051 0.40491   2
  -5   0  13 0.21925 0.36958   3
  -5   0  13 -1.1504 0.35602   1
  -5   0  13 0.36655 0.40907   2
  -4   0  13 0.36022 0.37540   3
   4   0 -13 -0.5177 0.36443   1
   4   0 -13 0.25717 0.31883   3
   4   0 -13 0.34979 0.46382   2
  -4   0  13 0.25586 0.32766   1
  -4   0  13 0.26296 0.41986   1
  -4   0  13 -0.0711 0.45387   2
   3   0 -13 -0.1228 0.46521   2
   3   0 -13 0.13047 0.28649   1
   3   0 -13 0.04227 0.47243   1
  -3   0  13 0.55240 0.40289   1
   3   0 -13 0.25776 0.31346   3
  -3   0  13 -0.2155 0.33316   1
  -3   0  13 0.18524 0.33447   3
  -3   0  13 0.45632 0.55164   2
  -2   0  13 -0.0084 0.31214   3
   2   0 -13 -0.5933 0.31131   1
  -2   0  13 0.37523 0.35688   1
   2   0 -13 -0.0724 0.30523   3
   2   0 -13 0.58921 0.43692   1
  -2   0  13 -0.3637 0.31039   1
   2   0 -13 0.31284 0.49499   2
  -2   0  13 0.26451 0.58882   2
   1   0 -13 0.66532 0.41561   1
   1   0 -13 -0.8171 0.30905   1
   1   0 -13 0.00000 0.32484   3
  -1   0  13 0.96948 0.40019   1
  -1   0  13 -0.4233 0.53702   2
  -1   0  13 0.43933 0.37624   3
   1   0 -13 0.41309 0.49025   2
  -1   0  13 0.16654 0.40071   1
   0   0 -13 -0.1737 0.34925   1
   0   0  13 0.54701 0.33859   1
   0   0  13 -0.0416 0.33084   3
   0   0  13 0.78486 0.39722   1
   0   0 -13 -0.1792 0.47559   2
   0   0  13 -0.2387 0.52333   2
   0   0 -13 0.80116 0.37678   1
  -1   0 -13 -0.3854 0.54069   2
  -1   0 -13 0.18724 0.37398   1
  -1   0 -13 0.28668 0.42309   1
   1   0  13 -0.0672 0.37430   1
  -1   0 -13 0.03600 0.29761   3
   1   0  13 -0.8422 0.39120   1
   1   0  13 0.41027 0.59562   2
   2   0  13 -0.9371 0.50355   2
   2   0  13 -0.6102 0.32050   1
  -2   0 -13 -0.5728 0.34503   1
  -2   0 -13 -0.5394 0.47679   2
  -3   0 -13 2.80248 0.73675   2
   3   0  13 -0.2291 0.33795   3
   3   0  13 0.62823 0.65277   2
  -3   0 -13 0.19668 0.36109   3
  -4   0 -13 -0.2579 0.59092   2
   4   0  13 0.05090 0.35754   3
   4   0  13 -0.1386 0.51051   2
  -4   0 -13 0.40583 0.34685   3
   5   0  13 1.12242 0.60128   2
  -5   0 -13 -0.5864 0.34894   3
  -5   0 -13 0.46503 0.60895   2
   5   0  13 0.01710 0.43663   3
  -6   0 -13 0.71623 0.65234   2
  -6   0 -13 0.14465 0.37707   3
   6   0  13 0.43490 0.64109   2
  -7   0 -13 0.61584 0.58847   2
  -7   0 -13 0.55369 0.40386   3
   7   0  13 0.47188 0.61282   2
   7   0  13 -0.1681 0.43799   3
  -8   0 -13 -0.2014 0.54404   2
   8   0  13 -0.3170 0.63912   2
   9   0  13 0.86537 0.67392   2
  -9   0 -13 -0.0669 0.64059   2
 -10   0 -13 1.22301 0.74790   2
  10   0  13 0.26090 0.64203   2
  11   0  13 -0.3749 0.70432   2
 -11   0 -13 -0.0164 0.72311   2
 -12   0 -13 0.66660 0.75171   2
 -13   0 -13 0.61624 0.70085   2
  13   0  13 -0.2245 0.66149   2
  14   0  13 -0.0315 0.64885   2
  22  -1 -13 0.94020 0.67566   2
 -22   1  13 0.91263 0.76829   2
 -21  -1  13 0.83955 0.71628   2
  21  -1 -13 1.81923 0.80563   2
 -21   1  13 0.59727 0.73591   2
  21   1 -13 0.75777 0.73073   2
 -20  -1  13 9.33542 1.60973   2
  20  -1 -13 9.60229 1.59204   2
 -20   1  13 8.07390 1.51038   2
  20   1 -13 9.73940 1.66227   2
  19  -1 -13 6.47867 1.21141   2
 -19  -1  13 7.35476 1.38309   2
 -19   1  13 7.30937 1.37550   2
  19   1 -13 7.21786 1.29698   2
  18  -1 -13 83.2579 10.6979   2
 -18  -1  13 80.3032 10.4300   2
  18   1 -13 90.7731 11.3761   2
 -18   1  13 95.5558 11.7850   2
 -17  -1  13 4.54362 1.11607   2
  17  -1 -13 10.5148 1.61564   2
 -17   1  13 7.74387 1.36652   2
  17   1 -13 8.09508 1.33694   2
 -16  -1  13 7.82881 1.33292   2
  16  -1 -13 7.79909 1.34283   2
 -16   1  13 8.48701 1.41130   2
  16   1 -13 6.90311 1.22914   2
 -15  -1  13 132.154 16.3868   2
  15   1 -13 130.684 16.2940   2
 -15   1  13 119.652 15.2695   2
 -14  -1  13 54.7956 6.92332   2
  14  -1 -13 45.7896 6.12878   2
  14   1 -13 56.0022 7.05467   2
 -14   1  13 51.4504 6.61476   2
 -13  -1  13 22.9858 2.76485   3
  13  -1 -13 21.4818 3.01525   2
 -13  -1  13 23.5750 3.17404   2
  13   1 -13 25.7082 3.40045   2
 -13   1  13 21.2682 2.96545   2
  12  -1 -13 318.415 37.7779   2
 -12  -1  13 290.822 35.2030   2
 -12  -1  13 294.126 31.1850   3
 -12   1  13 269.539 33.2639   2
  12   1 -13 201.124 27.3758   2
 -11  -1  13 0.70355 0.51239   2
 -11  -1  13 0.79675 0.55107   3
  11  -1 -13 1.15360 0.57681   2
  11   1 -13 0.24533 0.50039   2
 -11   1  13 0.84602 0.35942   3
 -11   1  13 0.62133 0.54821   2
  11   1 -13 1.30130 0.59882   3
  10  -1 -13 280.625 32.5613   3
 -10  -1  13 352.400 37.6553   3
 -10  -1  13 260.735 48.2718   1
 -10  -1  13 350.898 42.6322   2
  10  -1 -13 352.411 42.8168   2
 -10   1  13 336.654 36.4617   3
 -10   1  13 329.048 40.6724   2
  10   1 -13 326.795 40.4763   2
  10   1 -13 327.806 35.8900   3
   9  -1 -13 37.8993 6.93662   1
   9  -1 -13 41.4788 4.61453   3
  -9  -1  13 38.2210 6.97272   1
  -9  -1  13 39.9529 7.22793   1
   9  -1 -13 44.1141 7.87647   1
   9  -1 -13 44.2892 5.62689   2
  -9  -1  13 42.4858 4.74996   3
   9   1 -13 43.9498 7.85689   1
   9   1 -13 35.5105 6.54801   1
  -9   1  13 32.9403 6.17924   1
  -9   1  13 31.7623 3.93729   3
  -9   1  13 40.3304 7.30102   1
  -9   1  13 53.6872 6.47894   2
   9   1 -13 49.7500 5.29792   3
  -8  -1  13 45.1261 5.54382   2
   8  -1 -13 36.0106 6.55031   1
  -8  -1  13 35.5312 6.47224   1
   8  -1 -13 40.5670 5.18710   2
   8  -1 -13 32.8731 6.07262   1
  -8  -1  13 37.4395 4.26740   3
   8  -1 -13 36.3473 4.10718   3
   8   1 -13 33.0265 6.09339   1
   8   1 -13 37.0482 6.69676   1
  -8   1  13 45.9081 5.67503   2
   8   1 -13 39.7118 4.44214   3
  -8   1  13 32.2031 5.97721   1
   8   1 -13 37.3483 4.83170   2
  -8   1  13 35.8944 4.08042   3
  -8   1  13 27.9766 5.32986   1
  -7  -1  13 410.145 76.6227   1
   7  -1 -13 592.023 104.409   1
   7  -1 -13 747.574 129.022   1
  -7  -1  13 527.891 58.2233   3
   7  -1 -13 646.654 66.7998   3
   7  -1 -13 612.839 73.3564   2
   7   1 -13 538.094 96.0137   1
  -7   1  13 667.857 116.333   1
  -7   1  13 635.032 75.4082   2
  -7   1  13 546.198 97.2870   1
   7   1 -13 390.674 54.0479   2
   7   1 -13 450.063 82.5931   1
  -7   1  13 650.021 67.0420   3
  -6  -1  13 350.893 62.1230   1
   6  -1 -13 323.467 40.2889   2
   6  -1 -13 309.914 55.8043   1
   6  -1 -13 261.213 48.4394   1
  -6  -1  13 325.125 58.1442   1
   6  -1 -13 329.819 36.0928   3
   6   1 -13 340.279 60.4770   1
  -6   1  13 304.182 38.5890   2
  -6   1  13 285.066 51.9899   1
  -6   1  13 350.196 62.0537   1
   6   1 -13 354.766 37.9345   3
   6   1 -13 355.077 43.1312   2
   6   1 -13 380.057 66.6925   1
  -6   1  13 352.740 37.7376   3
   5  -1 -13 32.0527 4.03926   2
   5  -1 -13 24.8903 4.60680   1
  -5  -1  13 24.6114 2.95118   3
  -5  -1  13 31.1326 5.57590   1
  -5  -1  13 29.2720 5.27878   1
   5  -1 -13 29.0925 5.26073   1
  -5   1  13 26.4782 4.84388   1
  -5   1  13 26.1783 3.51587   2
  -5   1  13 26.3540 4.83424   1
   5   1 -13 37.9267 6.63420   1
   5   1 -13 23.0400 2.86526   3
   5   1 -13 30.1973 5.42273   1
   5   1 -13 26.6810 3.53793   2
  -5   1  13 35.1156 3.69829   3
  -4  -1  13 142.464 17.8168   2
   4  -1 -13 167.381 29.4066   1
   4  -1 -13 146.791 16.0014   3
   4  -1 -13 166.532 29.2419   1
   4  -1 -13 124.286 16.2132   2
  -4  -1  13 130.461 14.8833   3
  -4   1  13 158.872 16.8793   3
   4   1 -13 122.415 14.3560   3
  -4   1  13 137.409 24.7290   1
   4   1 -13 141.710 17.7198   2
  -4   1  13 174.837 20.7728   2
   4   1 -13 164.611 28.9419   1
   4   1 -13 151.847 26.9686   1
  -4   1  13 154.740 27.4173   1
  -3  -1  13 72.3610 8.59043   3
   3  -1 -13 69.9794 12.9977   1
   3  -1 -13 92.7551 9.99069   3
   3  -1 -13 80.8601 10.3701   2
   3  -1 -13 82.9256 14.9434   1
  -3  -1  13 100.226 12.1161   2
   3   1 -13 82.2051 14.8370   1
   3   1 -13 102.656 18.0416   1
   3   1 -13 81.6693 9.24437   3
  -3   1  13 101.003 12.2086   2
  -3   1  13 97.1561 10.3157   3
  -2  -1  13 96.4049 10.4059   3
   2  -1 -13 81.5454 14.8270   1
  -2  -1  13 108.203 12.9781   2
   2  -1 -13 89.4613 9.88896   3
   2  -1 -13 96.8753 11.9350   2
   2  -1 -13 65.0133 12.3713   1
   2   1 -13 88.3447 15.8666   1
   2   1 -13 79.4598 9.22854   3
  -2   1  13 97.5690 12.0348   2
  -2   1  13 95.8766 10.3540   3
   2   1 -13 83.6401 15.1573   1
   1  -1 -13 60.7471 10.9100   1
   1  -1 -13 57.8839 6.53026   3
  -1  -1  13 59.5168 6.65325   3
  -1  -1  13 62.4223 11.1692   1
  -1  -1  13 63.7256 11.3817   1
   1  -1 -13 70.8375 12.4975   1
  -1  -1  13 69.2024 8.51229   2
  -1   1  13 56.8781 10.3127   1
  -1   1  13 52.4476 9.63815   1
  -1   1  13 61.4188 6.78083   3
   1   1 -13 59.5090 10.7167   1
   1   1 -13 55.9311 6.43306   3
   0  -1  13 1.24170 0.47240   1
   0  -1  13 0.48228 0.43198   1
   0  -1 -13 0.92679 0.57455   2
   0   1  13 1.37141 0.50122   1
   0   1 -13 0.73532 0.39938   3
   0   1  13 -0.1826 0.35847   1
  -1  -1 -13 2.03643 0.64669   2
   1  -1  13 0.83175 0.64314   2
   1  -1  13 1.91556 0.52399   1
   1  -1  13 0.63831 0.37103   3
   1  -1  13 1.22662 0.48446   1
   1   1  13 1.02530 0.46309   3
  -1   1 -13 0.64410 0.54675   2
   1   1  13 2.19946 0.60988   1
  -1   1 -13 1.38790 0.44454   3
   1   1  13 0.32938 0.37367   1
  -2  -1 -13 31.1181 3.49875   3
   2  -1  13 25.5318 3.60847   2
  -2  -1 -13 29.0733 5.32577   1
   2  -1  13 27.1501 5.02340   1
  -2  -1 -13 30.7197 4.08888   2
   2   1  13 36.7176 4.59676   2
   2   1  13 32.8116 3.64090   3
  -2   1 -13 30.8303 4.06485   2
   3  -1  13 92.9808 10.0600   3
   3  -1  13 104.003 12.5347   2
  -3  -1 -13 74.7747 8.75916   3
   3   1  13 78.8691 9.05481   3
  -3   1 -13 88.0688 9.72586   3
  -3   1 -13 90.0820 11.2450   2
   3   1  13 86.1568 10.9037   2
   4  -1  13 16.6284 1.90700   3
  -4  -1 -13 14.8809 1.76953   3
   4  -1  13 12.5202 1.91774   2
  -4   1 -13 15.7480 1.88486   3
   4   1  13 12.4813 1.62087   3
  -4   1 -13 16.1836 2.24908   2
   4   1  13 13.8692 2.06215   2
   5  -1  13 67.1196 8.26202   2
  -5  -1 -13 64.4406 6.94456   3
  -5  -1 -13 62.5238 7.84528   2
  -5   1 -13 52.0261 6.09178   3
  -5   1 -13 46.9480 6.46272   2
   5   1  13 55.7814 7.23177   2
   5   1  13 66.1055 7.06667   3
  -6  -1 -13 160.510 17.9448   3
  -6  -1 -13 183.086 22.3271   2
   6  -1  13 173.830 18.9038   3
   6  -1  13 185.837 22.5821   2
   6  -1  13 196.516 20.5934   3
  -6   1 -13 149.760 19.3587   2
   6   1  13 152.327 19.5801   2
  -6   1 -13 152.850 17.4491   3
   6   1  13 169.786 18.5930   3
  -7  -1 -13 70.2024 9.36164   2
  -7  -1 -13 96.7552 10.1844   3
   7  -1  13 85.1324 10.6708   2
   7   1  13 73.0921 9.60514   2
  -7   1 -13 94.0247 11.4767   2
  -8  -1 -13 20.9636 3.00270   2
  -8  -1 -13 22.1787 2.59849   3
   8  -1  13 24.9448 3.32669   2
   8   1  13 21.6437 2.58181   3
   8   1  13 22.4840 3.11672   2
  -8   1 -13 22.3886 3.09541   2
  -9  -1 -13 11.8754 1.89262   2
   9  -1  13 9.64023 1.65328   2
  -9   1 -13 11.5683 1.80617   2
   9   1  13 12.9045 1.94449   2
  10  -1  13 6.84059 1.34668   2
 -10  -1 -13 10.9842 1.71938   2
  10   1  13 10.5288 1.64515   2
  11  -1  13 1.21029 0.78196   2
 -11  -1 -13 0.48156 0.62022   2
 -11   1 -13 -0.1791 0.70403   2
  11   1  13 0.22919 0.61146   2
 -12  -1 -13 6.81886 1.36753   2
  12  -1  13 7.34714 1.38286   2
  12   1  13 7.75167 1.42634   2
 -12   1 -13 8.06107 1.43632   2
  13  -1  13 8.28532 1.48122   2
 -13  -1 -13 6.71036 1.28780   2
 -13   1 -13 7.28263 1.35355   2
  13   1  13 7.84494 1.38800   2
  14  -1  13 0.25886 0.70047   2
 -14   1 -13 1.07329 0.69359   2
  21  -2 -13 45.3094 5.87709   2
 -21   2  13 42.2597 5.60971   2
  20  -2 -13 7.27095 1.39176   2
 -20   2  13 7.27574 1.33606   2
  19  -2 -13 19.5376 2.84229   2
 -19  -2  13 21.2088 3.02573   2
  19   2 -13 23.2217 3.22916   2
 -19   2  13 22.7648 3.12317   2
  18  -2 -13 18.8798 2.59266   2
  18   2 -13 14.3322 2.16675   2
 -18   2  13 12.1968 1.96085   2
 -17  -2  13 21.2758 2.89638   2
  17  -2 -13 14.8616 2.22765   2
  17   2 -13 14.7257 2.24996   2
  16  -2 -13 25.8755 3.46549   2
 -16  -2  13 24.1733 3.35058   2
  15  -2 -13 6.50276 1.19109   2
 -15  -2  13 6.88791 1.22872   2
  15   2 -13 6.85237 1.25257   2
 -14  -2  13 142.297 16.5362   3
  14  -2 -13 191.025 22.8672   2
 -14  -2  13 163.184 20.2968   2
  14   2 -13 144.070 16.7715   3
  14   2 -13 176.007 21.4600   2
 -13  -2  13 52.8938 5.89141   3
  13  -2 -13 49.8105 6.35225   2
 -13  -2  13 44.2556 5.83984   2
 -13   2  13 50.2622 6.39117   2
  13   2 -13 43.1356 5.74769   2
  13   2 -13 44.9303 5.27360   3
 -12  -2  13 11.8604 1.74556   2
 -12  -2  13 8.46353 1.30781   3
 -12   2  13 9.86241 1.57742   2
  12   2 -13 10.3057 1.57019   2
  12   2 -13 10.5935 1.49217   3
 -11  -2  13 81.5911 9.33603   3
 -11  -2  13 90.1777 11.2384   2
 -11   2  13 90.5300 11.2783   2
  11   2 -13 91.9602 11.4155   2
  11   2 -13 78.8826 9.15348   3
 -10  -2  13 320.654 39.7294   2
 -10  -2  13 327.998 35.7360   3
  10  -2 -13 350.981 37.2980   3
 -10   2  13 298.898 33.5762   3
 -10   2  13 302.859 38.1744   2
  10   2 -13 309.188 38.7276   2
  10   2 -13 332.853 36.0958   3
   9  -2 -13 180.350 19.6453   3
   9  -2 -13 204.504 24.5725   2
  -9  -2  13 186.548 20.1926   3
   9   2 -13 168.102 18.9076   3
  -9   2  13 153.644 19.9748   2
  -8  -2  13 89.2129 16.1575   1
   8  -2 -13 112.464 11.8055   3
   8  -2 -13 93.9912 16.9073   1
   8  -2 -13 79.4024 10.6146   2
  -8  -2  13 113.523 11.9976   3
  -8  -2  13 114.949 13.7896   2
   8   2 -13 94.1354 11.8936   2
   8   2 -13 93.5886 16.8436   1
   8   2 -13 96.3711 10.7417   3
  -8   2  13 109.253 19.3156   1
  -8   2  13 86.2209 9.92354   3
  -8   2  13 94.9838 11.9831   2
   7  -2 -13 6.30104 1.14531   2
  -7  -2  13 5.40797 1.09773   1
   7  -2 -13 5.87053 1.16941   1
   7  -2 -13 4.16545 0.66740   3
  -7  -2  13 6.25507 1.23116   1
  -7  -2  13 5.94991 1.02280   2
   7  -2 -13 4.37837 0.99090   1
   7   2 -13 3.39160 0.83867   1
  -7   2  13 6.57422 1.29499   1
   7   2 -13 5.90891 1.02181   2
   7   2 -13 4.45772 0.84547   3
  -7   2  13 6.24378 0.81695   3
   7   2 -13 4.32583 0.93049   1
  -7   2  13 4.71328 1.02169   1
   6  -2 -13 42.4222 4.71365   3
  -6  -2  13 36.0463 4.86554   2
  -6  -2  13 45.2806 5.00985   3
   6  -2 -13 50.2440 6.14544   2
   6  -2 -13 43.1471 7.75083   1
   6  -2 -13 40.4351 7.33856   1
  -6  -2  13 39.0331 7.10615   1
  -6   2  13 45.2679 8.07768   1
   6   2 -13 36.0476 6.66957   1
   6   2 -13 43.9797 4.92043   3
  -6   2  13 43.8803 5.56010   2
  -6   2  13 41.9395 4.68399   3
   6   2 -13 45.4877 8.10589   1
   6   2 -13 35.5947 4.82180   2
  -6   2  13 41.2407 7.46028   1
   5  -2 -13 184.144 21.4754   3
   5  -2 -13 193.804 35.1587   1
   5  -2 -13 291.811 50.5090   1
  -5  -2  13 250.591 26.2538   3
   5  -2 -13 241.710 29.1475   2
  -5  -2  13 229.651 28.0500   2
  -5  -2  13 276.471 48.0712   1
  -5  -2  13 201.623 36.3550   1
   5   2 -13 226.125 40.1301   1
   5   2 -13 210.921 26.3580   2
   5   2 -13 206.932 23.1048   3
  -5   2  13 206.169 25.9553   2
   5   2 -13 229.732 40.7165   1
  -5   2  13 185.667 33.9224   1
  -5   2  13 162.162 30.4275   1
  -5   2  13 243.974 25.6949   3
   4  -2 -13 9.58152 1.85623   1
  -4  -2  13 10.3658 1.54419   2
  -4  -2  13 10.8340 1.41735   3
   4  -2 -13 8.88878 1.76152   1
   4  -2 -13 11.9713 1.69263   2
  -4  -2  13 11.7245 2.18309   1
  -4  -2  13 10.2732 1.95201   1
  -4   2  13 10.2751 1.55891   2
   4   2 -13 11.3901 1.47201   3
  -4   2  13 12.2338 2.27344   1
   4   2 -13 10.2989 1.96831   1
   4   2 -13 10.2971 1.54377   2
  -4   2  13 12.6517 2.32817   1
   4   2 -13 10.0103 1.92159   1
  -3  -2  13 128.542 15.5228   2
  -3  -2  13 129.231 22.7431   1
   3  -2 -13 101.610 11.6292   3
   3  -2 -13 132.365 23.2329   1
   3  -2 -13 127.944 22.5589   1
   3  -2 -13 163.008 18.8067   2
  -3  -2  13 121.081 13.0550   3
  -3  -2  13 97.8181 17.8707   1
   3   2 -13 99.4277 18.1216   1
   3   2 -13 124.979 13.3585   3
   3   2 -13 120.576 21.4013   1
  -3   2  13 106.583 19.2139   1
   3   2 -13 108.388 13.6936   2
  -3   2  13 83.5939 11.5899   2
  -3   2  13 106.533 19.1993   1
  -2  -2  13 59.5629 6.79787   3
   2  -2 -13 67.6083 12.0361   1
   2  -2 -13 58.8689 7.59084   2
   2  -2 -13 66.6205 7.23383   3
  -2  -2  13 66.1696 11.8040   1
   2  -2 -13 81.5515 14.2394   1
  -2  -2  13 62.7121 11.2642   1
  -2  -2  13 70.1336 8.63538   2
   2   2 -13 45.8162 8.72539   1
   2   2 -13 70.8588 7.62990   3
   2   2 -13 73.6324 8.94995   2
  -2   2  13 44.9130 8.58302   1
  -2   2  13 62.6424 11.2538   1
  -2   2  13 67.1430 8.35857   2
  -2   2  13 58.9979 6.70144   3
   2   2 -13 58.9290 10.6769   1
  -1  -2  13 350.916 63.8811   1
   1  -2 -13 418.367 51.1944   2
   1  -2 -13 350.842 40.4176   3
  -1  -2  13 444.867 53.6154   2
   1  -2 -13 396.833 70.9343   1
  -1  -2  13 485.667 84.8151   1
   1  -2 -13 407.919 72.6309   1
   1   2 -13 378.853 68.1599   1
   1   2 -13 357.187 40.9102   3
  -1   2  13 429.126 52.1865   2
  -1   2  13 417.773 74.1519   1
   1   2 -13 414.141 50.8205   2
  -1   2  13 413.967 44.8078   3
  -1   2  13 377.906 68.0045   1
   1   2 -13 423.291 75.0131   1
   0  -2 -13 155.406 27.6744   1
   0  -2  13 156.306 17.0150   3
   0  -2 -13 171.433 18.0509   3
   0  -2  13 133.157 24.2513   1
   0   2  13 169.066 17.8846   3
   0   2 -13 131.234 15.2713   3
   0   2 -13 131.540 24.0130   1
   0   2 -13 150.737 26.9415   1
   1  -2  13 38.3710 4.36437   3
  -1  -2 -13 35.9988 4.12957   3
   1  -2  13 38.4048 4.98955   2
  -1  -2 -13 38.6511 4.98489   2
  -1   2 -13 28.1854 3.67674   3
  -1   2 -13 50.7809 6.13277   2
   1   2  13 41.1138 4.50273   3
   1   2  13 43.5197 5.43989   2
  -2  -2 -13 324.358 39.8323   2
   2  -2  13 291.272 36.8864   2
   2  -2  13 291.731 32.8427   3
  -2   2 -13 333.886 40.6915   2
   2   2  13 307.762 38.3521   2
   2   2  13 327.985 35.3500   3
  -3  -2 -13 206.114 22.1217   3
   3  -2  13 212.134 25.7789   2
   3  -2  13 191.045 21.0932   3
  -3  -2 -13 162.283 21.3446   2
  -3   2 -13 185.798 23.3892   2
  -3   2 -13 231.028 24.0238   3
   3   2  13 195.012 21.3296   3
   3   2  13 178.778 22.7622   2
   4  -2  13 0.28126 0.43465   3
  -4  -2 -13 -0.0431 0.32834   3
   4  -2  13 0.29389 0.57736   2
  -4  -2 -13 0.49441 0.62952   2
  -4   2 -13 1.07946 0.64611   2
   4   2  13 -0.2630 0.35769   3
   4   2  13 0.17968 0.49421   2
  -5  -2 -13 6.69636 0.92930   3
   5  -2  13 5.25472 1.01837   2
  -5  -2 -13 6.64658 1.22503   2
   5  -2  13 5.07297 0.88650   3
   5   2  13 5.96651 0.90463   3
  -5   2 -13 6.13052 1.16233   2
  -5   2 -13 6.43570 1.01774   3
   5   2  13 7.99534 1.36549   2
   6  -2  13 2.71781 0.85703   2
  -6  -2 -13 2.50546 0.87230   2
  -6  -2 -13 3.73727 0.66094   3
   6   2  13 1.93238 0.56640   3
  -6   2 -13 2.50418 0.84801   2
   6   2  13 2.32875 0.87837   2
  -7  -2 -13 0.05124 0.63749   2
   7  -2  13 -0.4526 0.62560   2
   7   2  13 0.52562 0.53075   3
   7   2  13 -0.5222 0.66672   2
  -7   2 -13 0.75739 0.57857   2
  -8  -2 -13 49.5415 6.22868   2
  -8  -2 -13 42.0101 4.80338   3
   8   2  13 41.7172 4.77453   3
  -8   2 -13 38.1288 5.16052   2
   8   2  13 42.7776 5.60602   2
  -9  -2 -13 21.8123 3.01055   2
  -9  -2 -13 19.4744 2.36153   3
   9   2  13 18.2301 2.69504   2
  -9   2 -13 20.7057 2.88483   2
 -10  -2 -13 7.47195 1.32975   2
  10   2  13 5.19901 1.15554   2
 -10   2 -13 4.51261 0.99318   2
 -11  -2 -13 39.7264 5.11622   2
 -11   2 -13 31.1650 4.28781   2
 -12  -2 -13 52.5034 6.59665   2
 -12   2 -13 42.2178 5.58922   2
  12   2  13 39.9615 5.44855   2
  13  -2  13 2.72441 0.90912   2
 -13   2 -13 4.29824 1.00183   2
  20  -3 -13 3.10971 0.89195   2
 -20   3  13 5.52216 1.19042   2
  19  -3 -13 2.85189 0.92540   2
 -19   3  13 1.96893 0.87512   2
  18  -3 -13 -0.0325 0.65447   2
 -18   3  13 0.50876 0.70932   2
  17  -3 -13 2.92139 0.83661   2
 -17   3  13 3.47347 0.87395   2
  16  -3 -13 8.72171 1.45009   2
 -16   3  13 9.21919 1.48330   2
  15  -3 -13 8.90133 1.48797   2
 -15  -3  13 8.50853 1.40177   3
 -15   3  13 8.59832 1.45363   2
 -14  -3  13 34.6245 4.02632   3
  14  -3 -13 44.9549 5.47877   2
  14   3 -13 29.9753 4.08597   2
  14   3 -13 34.1917 4.04575   3
 -14   3  13 27.4475 3.86455   2
 -13  -3  13 126.450 15.7757   2
  13  -3 -13 126.660 15.7942   2
  13   3 -13 115.341 13.2528   3
 -13   3  13 127.821 15.8976   2
  13   3 -13 123.227 15.4927   2
  12  -3 -13 1.54632 0.63680   2
 -12  -3  13 1.49331 0.66486   2
 -12  -3  13 0.74514 0.64100   3
 -12   3  13 -0.2801 0.56941   2
  12   3 -13 0.88503 0.58759   2
  12   3 -13 1.64257 0.75355   3
  11  -3 -13 1.12344 0.62765   2
 -11  -3  13 1.03368 0.59820   2
 -11  -3  13 0.16457 0.57722   3
  11   3 -13 1.35125 0.61915   2
 -11   3  13 0.25181 0.51340   2
  11   3 -13 0.59921 0.65459   3
  10  -3 -13 1.25674 0.62800   2
 -10  -3  13 0.98545 0.51835   2
 -10  -3  13 1.07822 0.61353   3
 -10   3  13 0.54308 0.56962   2
 -10   3  13 0.93339 0.36105   3
  10   3 -13 1.24590 0.72577   3
  10   3 -13 0.50348 0.54538   2
  -9  -3  13 2.63480 0.75287   3
  -9  -3  13 3.14965 0.68009   2
   9  -3 -13 2.75754 0.76358   2
   9   3 -13 2.12951 0.77621   3
  -9   3  13 3.03404 0.74306   2
   9   3 -13 2.70588 0.72523   2
   8  -3 -13 0.51066 0.34340   3
  -8  -3  13 0.67300 0.53420   2
   8  -3 -13 0.08663 0.66539   2
   8   3 -13 1.80635 0.66509   3
   8   3 -13 1.19899 0.55058   2
   7  -3 -13 45.3739 4.86312   3
  -7  -3  13 38.5438 4.52160   3
  -7   3  13 29.8380 4.29821   2
   7   3 -13 44.3203 5.54485   2
   7   3 -13 46.0835 5.09992   3
  -7   3  13 42.8661 4.69156   3
  -6  -3  13 91.3152 10.1345   3
   6  -3 -13 89.0427 11.2676   2
   6  -3 -13 81.8586 9.34907   3
  -6   3  13 90.2609 9.94293   3
   6   3 -13 97.5310 10.6080   3
   6   3 -13 76.6379 10.1071   2
  -6   3  13 110.202 13.1698   2
   5  -3 -13 15.5340 1.78320   3
  -5  -3  13 12.9478 1.72447   3
   5   3 -13 13.9699 1.83909   3
   5   3 -13 12.1541 1.78369   2
  -5   3  13 13.7038 1.66273   3
   4  -3 -13 2.51597 0.51876   3
  -4  -3  13 2.76516 0.68914   3
   4  -3 -13 3.12011 0.73891   2
  -4  -3  13 3.81892 0.82504   2
   4   3 -13 2.90868 0.76328   3
  -4   3  13 2.63673 0.53587   3
  -4   3  13 2.72948 0.69990   2
  -3  -3  13 1.43171 0.61778   2
   3  -3 -13 0.82191 0.40942   3
   3  -3 -13 0.72639 0.50096   2
  -3  -3  13 1.20371 0.59257   3
  -3   3  13 0.31392 0.53400   2
   3   3 -13 1.28482 0.64327   3
   2  -3 -13 5.04577 0.96773   2
  -2  -3  13 8.37264 1.29940   2
  -2  -3  13 5.66019 0.98586   3
   2  -3 -13 5.83336 0.84917   3
  -2   3  13 6.18891 1.08059   2
   2   3 -13 5.56063 1.00388   3
   2   3 -13 7.02568 1.19151   2
  -2   3  13 4.44741 0.76214   3
   1  -3 -13 15.4435 1.97316   3
  -1  -3  13 20.2786 2.43010   3
   1   3 -13 21.1012 2.51339   3
  -1   3  13 20.0208 2.30256   3
   0  -3  13 11.8169 1.60983   3
   0  -3 -13 13.5492 1.59439   3
   0  -3 -13 12.6457 1.85267   2
   0  -3  13 13.5881 1.94031   2
   0   3 -13 12.7357 1.70350   3
   0   3  13 13.1108 1.58735   3
   0   3 -13 9.77973 1.59270   2
  -1  -3 -13 4.75432 0.73163   3
   1  -3  13 2.99833 0.75251   2
   1  -3  13 4.08541 0.81279   3
  -1  -3 -13 3.62030 0.78796   2
  -1   3 -13 5.68164 0.94802   3
   1   3  13 3.55799 0.67785   3
  -1   3 -13 3.36520 0.80354   2
  -2  -3 -13 7.60607 1.30302   2
   2  -3  13 8.17644 1.23275   3
  -2  -3 -13 9.09442 1.16218   3
   2  -3  13 8.50994 1.42346   2
   2   3  13 7.85895 1.10533   3
  -2   3 -13 8.84904 1.45877   2
  -2   3 -13 11.0544 1.47201   3
   3  -3  13 11.5129 1.73990   2
  -3  -3 -13 11.2271 1.42325   3
   3  -3  13 11.8858 1.59335   3
  -3   3 -13 10.0825 1.68637   2
   3   3  13 11.4280 1.75687   2
   4  -3  13 10.5718 1.53354   3
  -4  -3 -13 14.6738 1.70227   3
   4  -3  13 10.9930 1.75683   2
   4   3  13 15.1862 2.12852   2
  -4   3 -13 12.1299 1.71188   3
  -4   3 -13 11.7933 1.83132   2
   4   3  13 11.6420 1.50302   3
   5  -3  13 40.2288 5.31869   2
  -5  -3 -13 35.8754 4.97752   2
  -5  -3 -13 43.9042 4.87432   3
   5   3  13 46.4817 5.91901   2
  -5   3 -13 45.2684 5.75552   2
   5   3  13 41.3031 4.70557   3
  -6  -3 -13 27.1132 3.59897   2
   6  -3  13 21.3202 2.99690   2
  -6  -3 -13 21.7522 2.59169   3
  -6   3 -13 23.5772 3.21020   2
   6   3  13 20.4431 2.52453   3
   6   3  13 21.5511 3.02003   2
  -7  -3 -13 8.95459 1.20568   3
  -7  -3 -13 9.97276 1.65862   2
   7  -3  13 9.88756 1.62548   2
   7   3  13 10.1487 1.33445   3
   7   3  13 14.5673 2.05343   2
  -7   3 -13 6.78977 1.31666   2
  -8  -3 -13 23.8060 2.76063   3
  -8  -3 -13 21.0477 3.07483   2
   8  -3  13 23.2625 3.22090   2
   8   3  13 26.8285 3.56654   2
  -8   3 -13 19.7375 2.88004   2
  -9  -3 -13 14.8053 1.80575   3
  -9  -3 -13 14.5324 2.18310   2
   9  -3  13 14.4119 2.15676   2
  -9   3 -13 14.5485 2.13585   2
   9   3  13 14.9430 1.83253   3
   9   3  13 9.15695 1.77027   2
  10  -3  13 1.75398 0.81710   2
 -10   3 -13 0.69154 0.76392   2
  11  -3  13 1.68905 0.79127   2
 -11   3 -13 0.00000 0.67806   2
  12  -3  13 0.89639 0.82249   2
 -12   3 -13 1.87755 0.80685   2
  18  -4 -13 7.31120 1.35101   2
  17  -4 -13 8.20740 1.44837   2
  16  -4 -13 33.0533 4.41880   2
  15  -4 -13 10.0397 1.63491   2
 -15  -4  13 8.28380 1.39518   3
  15   4 -13 12.2340 1.70919   3
  14  -4 -13 96.9090 11.9626   2
 -14  -4  13 80.9413 9.44493   3
 -13  -4  13 5.06927 0.99989   3
  13  -4 -13 6.93136 1.26574   2
  13   4 -13 6.66889 1.22867   3
 -13   4  13 5.45862 1.10160   2
 -12  -4  13 1.59701 0.66658   3
  12   4 -13 0.62541 0.70223   3
 -12   4  13 0.58302 0.62041   2
 -11  -4  13 144.176 15.8959   3
  11   4 -13 157.768 16.9054   3
 -11   4  13 125.699 16.2937   2
 -10  -4  13 22.3505 2.88096   3
 -10   4  13 26.9447 3.63106   2
  10   4 -13 27.1852 3.28098   3
  -9  -4  13 8.86749 1.34003   3
   9  -4 -13 8.44917 1.09654   3
   9  -4 -13 8.41846 1.40930   2
  -9   4  13 6.77127 1.26062   2
  -9   4  13 8.47098 1.09744   3
  -8  -4  13 32.7095 3.82208   3
   8  -4 -13 25.5530 3.62757   2
  -8   4  13 30.0180 3.45953   3
  -8   4  13 38.0631 4.74066   2
   8   4 -13 31.8113 3.79367   3
   7  -4 -13 1.62981 0.76212   2
   7  -4 -13 1.08961 0.40423   3
  -7  -4  13 -0.2277 0.54077   3
  -7   4  13 1.07946 0.42683   3
   7   4 -13 0.65022 0.68217   3
  -7   4  13 0.97240 0.59561   2
  -6  -4  13 2.51610 0.77692   3
   6  -4 -13 4.83564 0.90972   2
   6  -4 -13 3.71688 0.62591   3
  -6   4  13 4.11754 0.87232   2
   6   4 -13 4.91530 1.02737   3
  -6   4  13 3.72742 0.65091   3
   5  -4 -13 12.3640 1.78135   2
  -5  -4  13 10.6329 1.53673   3
   5  -4 -13 10.1781 1.34046   3
  -5   4  13 14.4138 1.67756   3
  -5   4  13 13.7349 1.93766   2
   5   4 -13 10.6542 1.59000   3
   4  -4 -13 14.2006 1.69435   3
  -4  -4  13 13.5496 1.80361   3
   4   4 -13 15.3594 2.01491   3
  -4   4  13 13.2956 1.65683   3
  -4   4  13 11.7792 1.83316   2
  -3  -4  13 12.4603 1.70132   3
   3  -4 -13 11.8579 1.49760   3
  -3   4  13 12.9408 1.58879   3
   2  -4 -13 21.8822 2.52143   3
  -2  -4  13 19.4032 2.49127   3
   2   4 -13 21.7714 2.70573   3
  -1  -4  13 12.4254 1.72939   3
   1  -4 -13 13.8808 1.65461   3
   1   4 -13 12.2614 1.74952   3
  -1   4  13 12.3596 1.56820   3
   0  -4  13 5.17427 0.97115   3
   0  -4 -13 5.00990 0.76617   3
   0   4 -13 4.41440 0.95800   2
   0   4 -13 3.94858 0.93910   3
   0   4  13 4.24987 0.74997   3
   1  -4  13 0.82359 0.61965   3
  -1  -4 -13 0.15542 0.38601   3
  -1   4 -13 0.78660 0.57148   2
   1   4  13 -0.3725 0.44656   3
  -1   4 -13 1.44729 0.71977   3
  -2  -4 -13 17.4329 2.21602   3
   2  -4  13 23.0393 3.11647   2
   2  -4  13 20.0874 2.56479   3
   2   4  13 21.2656 2.49942   3
  -2   4 -13 24.6408 3.25836   2
   3  -4  13 43.1272 5.67064   2
  -3  -4 -13 53.4958 5.68411   3
   3  -4  13 45.5045 5.22290   3
  -3   4 -13 37.6538 5.19366   2
  -3   4 -13 43.7284 5.13489   3
   3   4  13 42.9492 4.90665   3
  -4  -4 -13 3.88737 0.71310   3
   4  -4  13 4.93475 1.10047   2
   4  -4  13 5.30060 1.00595   3
  -4   4 -13 5.42327 1.20273   2
  -4   4 -13 7.32481 1.23192   3
   5  -4  13 3.92525 0.98387   2
  -5  -4 -13 3.73404 0.71958   3
  -5   4 -13 2.58326 0.91179   2
   5   4  13 3.18867 0.71336   3
   6  -4  13 20.6233 2.85807   2
  -6  -4 -13 19.9400 2.35570   3
  -6   4 -13 15.3803 2.38177   2
   7  -4  13 8.70642 1.49171   2
  -7  -4 -13 8.15549 1.13498   3
  -7   4 -13 4.62759 1.11762   2
   7   4  13 9.84773 1.29140   3
   8  -4  13 15.6987 2.41596   2
  -8   4 -13 19.1296 2.66312   2
   8   4  13 16.7807 2.08356   3
  -9  -4 -13 8.28505 1.16431   3
   9  -4  13 6.39088 1.29498   2
   9   4  13 7.25902 1.13954   3
  -9   4 -13 7.37114 1.33771   2
 -15  -5  13 19.9394 2.55032   3
  15   5 -13 17.3189 2.41632   3
  14   5 -13 10.9019 1.71746   3
 -13  -5  13 8.21634 1.30057   3
  13   5 -13 7.84786 1.32040   3
 -12  -5  13 42.2066 4.97119   3
  12   5 -13 43.1684 5.07535   3
 -11  -5  13 27.2108 3.35642   3
  11   5 -13 26.1191 3.26137   3
 -10  -5  13 14.1160 1.94688   3
   9   5 -13 24.2628 3.04928   3
  -8  -5  13 0.29032 0.65776   3
   8  -5 -13 0.24331 0.45592   3
   8   5 -13 0.54508 0.74693   3
  -8   5  13 0.68303 0.46701   3
  -7  -5  13 28.6232 3.33092   3
  -7   5  13 23.5315 2.81947   3
   7   5 -13 23.9653 3.04072   3
   6  -5 -13 44.4437 5.67810   3
  -6  -5  13 76.2657 8.08736   3
  -6   5  13 73.6097 7.74092   3
   6   5 -13 68.9974 7.58067   3
   5  -5 -13 32.4919 3.98202   3
  -5  -5  13 44.9164 5.01551   3
   5   5 -13 50.3511 5.50247   3
  -5   5  13 36.5307 4.25649   3
  -4  -5  13 23.3287 2.77919   3
   4  -5 -13 16.7878 2.13376   3
  -4   5  13 21.1153 2.46020   3
   3  -5 -13 57.7863 6.42681   3
  -3  -5  13 55.1712 6.39162   3
  -3   5  13 55.1436 6.25466   3
   3   5 -13 58.0434 6.66174   3
   2  -5 -13 37.2063 4.29303   3
  -2  -5  13 38.7822 4.56741   3
   2   5 -13 35.8819 4.43368   3
  -2   5  13 43.8572 4.79582   3
  -1  -5  13 39.0686 4.57292   3
   1  -5 -13 39.0011 4.38809   3
   1   5 -13 36.5577 4.45624   3
   0  -5 -13 13.4879 1.68524   3
   0  -5  13 12.4491 1.78820   3
   0   5 -13 14.5409 2.03527   3
   0   5  13 14.4487 1.79431   3
  -1  -5 -13 32.5567 3.70149   3
   1  -5  13 32.5163 3.90560   3
   1   5  13 30.2454 3.55712   3
  -2  -5 -13 29.3956 3.33202   3
   2  -5  13 27.9290 3.42532   3
  -2   5 -13 28.1145 3.48806   3
   2   5  13 25.6164 3.09572   3
  -3  -5 -13 11.3975 1.51970   3
   3  -5  13 13.0760 1.85388   3
  -3   5 -13 13.0690 1.95128   3
   3   5  13 13.7998 1.73419   3
   4   5  13 18.0982 2.21540   3
  -5  -5 -13 24.2167 2.76713   3
   5   5  13 20.2612 2.49927   3
  -6  -5 -13 31.9568 3.79193   3
   6   5  13 37.5731 4.20309   3
  -7  -5 -13 4.30230 0.78300   3
   7   5  13 4.27625 0.84920   3
  -8  -5 -13 1.88794 0.60166   3
   8   5  13 3.18087 0.72536   3
 -13  -6  13 2.45868 0.75525   3
  13   6 -13 1.99928 0.84852   3
 -12  -6  13 4.72328 0.97786   3
  12   6 -13 4.20654 1.09408   3
 -11  -6  13 2.50281 0.74436   3
  11   6 -13 2.19692 0.87473   3
  10   6 -13 22.4426 2.85930   3
  -9  -6  13 135.772 14.8869   3
   9   6 -13 122.420 13.9622   3
  -8  -6  13 2.09456 0.76985   3
   8   6 -13 3.11126 0.95733   3
   7  -6 -13 16.9203 2.04941   3
  -7  -6  13 16.5220 2.19728   3
   7   6 -13 17.4944 2.32850   3
  -7   6  13 14.7906 1.90599   3
  -6  -6  13 25.1964 3.19690   3
   6  -6 -13 25.4474 3.05153   3
  -6   6  13 29.9748 3.37816   3
   6   6 -13 27.2087 3.37652   3
   5  -6 -13 0.95802 0.49899   3
  -5  -6  13 0.01054 0.67607   3
  -5   6  13 0.89128 0.61457   3
  -4  -6  13 0.45027 0.67928   3
   4  -6 -13 0.81412 0.48180   3
  -4   6  13 -0.2395 0.50066   3
   4   6 -13 0.45796 0.67160   3
  -3  -6  13 5.51008 1.08191   3
   3  -6 -13 6.12940 0.92045   3
  -3   6  13 5.97350 0.98098   3
   3   6 -13 7.20118 1.34784   3
  -2  -6  13 21.3277 2.73210   3
   2  -6 -13 23.3611 2.67884   3
  -2   6  13 19.2007 2.41249   3
   2   6 -13 24.0129 2.96758   3
  -1  -6  13 2.20401 0.78471   3
   1  -6 -13 1.50310 0.54267   3
  -1   6  13 1.44633 0.53528   3
   1   6 -13 1.58479 0.79048   3
   0  -6  13 0.18124 0.67430   3
   0  -6 -13 0.44814 0.48720   3
   1  -6  13 2.95857 0.90142   3
  -1  -6 -13 3.93416 0.72537   3
  -1   6 -13 3.40901 1.10620   3
   1   6  13 3.91034 0.73583   3
  -2  -6 -13 0.47860 0.41189   3
   2   6  13 1.08710 0.55600   3
  -3  -6 -13 18.5609 2.31625   3
   3   6  13 23.7383 2.72044   3
  -4  -6 -13 10.3636 1.36346   3
   4   6  13 9.92247 1.39060   3
  -5  -6 -13 0.44253 0.48700   3
   5   6  13 0.72801 0.59109   3
  -6  -6 -13 1.23907 0.54778   3
   6   6  13 1.10896 0.57946   3
 -10  -7  13 6.76071 1.18532   3
  10   7 -13 6.58682 1.24761   3
  -9  -7  13 -0.1428 0.59509   3
   9   7 -13 0.51334 0.74886   3
  -8  -7  13 0.26028 0.64122   3
   8   7 -13 -0.5555 0.73362   3
  -7  -7  13 22.7803 2.77739   3
   7   7 -13 18.6241 2.51528   3
  -6  -7  13 2.17514 0.79147   3
  -5  -7  13 1.00671 0.67148   3
   5   7 -13 0.38821 0.72181   3
  -4  -7  13 13.5616 1.87094   3
   4  -7 -13 13.3162 1.69711   3
   4   7 -13 12.1341 1.82583   3
   3  -7 -13 4.77116 0.79334   3
  -3  -7  13 2.66228 0.78897   3
  -3   7  13 5.20783 0.89037   3
   3   7 -13 1.84982 0.85199   3
   2  -7 -13 0.93871 0.54410   3
  -2  -7  13 1.40305 0.63490   3
  -2   7  13 1.79399 0.67392   3
   2   7 -13 1.52391 0.81979   3
   1  -7 -13 -0.2804 0.42513   3
  -1   7  13 0.06260 0.52904   3
   0  -7 -13 11.3912 1.49272   3
   0   7  13 11.5773 1.55644   3
  -1  -7 -13 0.83991 0.48823   3
  -2  -7 -13 0.01790 0.53056   3
   2   7  13 1.18093 0.63645   3
  21   0 -14 115.934 14.6082   2
 -21   0  14 114.790 14.5175   2
  20   0 -14 0.82864 0.60736   2
 -20   0  14 0.09841 0.74176   2
  19   0 -14 86.7604 11.0220   2
  18   0 -14 22.0757 3.06808   2
  17   0 -14 9.26792 1.51881   2
 -17   0  14 8.79150 1.50609   2
 -16   0  14 25.6273 3.48017   2
 -15   0  14 30.6984 4.10812   2
  14   0 -14 179.480 22.2526   2
 -14   0  14 169.626 21.3559   2
 -13   0  14 142.244 18.1445   2
  13   0 -14 164.233 20.1309   2
  12   0 -14 29.2289 3.34235   3
 -12   0  14 24.5186 3.41226   2
  12   0 -14 29.9837 3.92259   2
 -12   0  14 28.4587 3.27549   3
 -11   0  14 16.3047 2.18196   2
  11   0 -14 11.3969 1.52298   3
  11   0 -14 11.2814 1.76771   2
  10   0 -14 485.305 59.0978   2
 -10   0  14 441.953 48.9704   3
  10   0 -14 481.954 51.8161   3
 -10   0  14 420.086 53.2847   2
  -9   0  14 175.618 21.8931   2
   9   0 -14 162.812 29.4513   1
  -9   0  14 122.919 23.4917   1
  -9   0  14 197.231 20.9014   3
   9   0 -14 188.829 23.0788   2
   9   0 -14 200.873 21.1860   3
   8   0 -14 34.5871 3.86053   3
  -8   0  14 36.2600 4.60865   2
  -8   0  14 33.0842 5.98355   1
   8   0 -14 33.9166 6.11213   1
  -8   0  14 33.8064 3.78687   3
   8   0 -14 20.8795 4.17237   1
  -8   0  14 28.4128 5.27213   1
   8   0 -14 40.5355 5.00495   2
  -7   0  14 22.2612 4.24440   1
   7   0 -14 27.1833 3.15562   3
  -7   0  14 27.1733 3.13182   3
  -7   0  14 47.5802 8.23118   1
   7   0 -14 31.9660 5.71576   1
   7   0 -14 32.6875 5.83781   1
  -6   0  14 107.267 12.4819   2
  -6   0  14 77.2213 8.36680   3
  -6   0  14 54.8880 10.3281   1
   6   0 -14 63.1757 11.5769   1
   6   0 -14 84.4044 10.2897   2
   6   0 -14 69.0959 12.4914   1
  -6   0  14 53.5635 10.1389   1
   5   0 -14 257.154 45.9258   1
   5   0 -14 264.842 28.7569   3
  -5   0  14 273.010 33.3606   2
   5   0 -14 252.456 31.5092   2
  -5   0  14 220.287 25.6706   3
  -5   0  14 291.037 51.2024   1
  -5   0  14 250.435 44.8964   1
   5   0 -14 332.311 57.7298   1
   4   0 -14 149.314 27.5983   1
  -4   0  14 180.941 32.4006   1
   4   0 -14 166.610 19.0014   3
  -4   0  14 195.166 21.0058   3
  -4   0  14 208.472 25.1348   2
   4   0 -14 182.756 22.7851   2
   4   0 -14 215.311 37.7852   1
  -4   0  14 188.891 33.6358   1
   3   0 -14 245.647 43.9417   1
   3   0 -14 244.557 26.9699   3
   3   0 -14 241.493 30.2390   2
  -3   0  14 196.142 36.4248   1
  -3   0  14 264.061 46.7847   1
   3   0 -14 240.083 43.0977   1
  -3   0  14 285.405 29.9214   3
  -3   0  14 259.706 31.8614   2
   2   0 -14 934.559 163.584   1
   2   0 -14 778.099 139.161   1
  -2   0  14 790.461 141.068   1
  -2   0  14 716.640 129.750   1
   1   0 -14 23.6824 4.44383   1
  -1   0  14 26.6300 4.89639   1
  -1   0  14 18.9026 3.74018   1
   1   0 -14 31.5587 3.45108   3
  -1   0  14 31.7936 3.48101   3
  -1   0  14 35.8295 4.45811   2
   1   0 -14 31.1385 3.98300   2
   1   0 -14 25.5964 4.73586   1
   0   0  14 20.4698 3.82606   1
   0   0  14 20.5601 3.82046   1
   0   0 -14 19.3395 3.64892   1
   0   0 -14 17.8252 3.41190   1
   0   0  14 24.4229 2.75228   3
   0   0  14 25.4208 3.34451   2
   0   0 -14 28.9235 3.63149   2
  -1   0 -14 60.3174 6.84736   3
   1   0  14 51.6968 6.27992   3
  -1   0 -14 95.9855 11.1724   2
   1   0  14 70.5932 8.74951   2
   2   0  14 7.71488 1.32617   2
   2   0  14 8.19705 1.10935   3
  -2   0 -14 8.45729 1.08911   3
  -2   0 -14 10.4000 1.56644   2
  -3   0 -14 3.34334 0.60825   3
  -3   0 -14 5.37170 1.02860   2
   3   0  14 5.90752 1.09163   2
   3   0  14 3.24969 0.63283   3
  -4   0 -14 91.1055 10.8310   2
   4   0  14 76.8032 8.24406   3
  -4   0 -14 65.4675 7.40459   3
   4   0  14 55.8173 7.61985   2
   5   0  14 2.05412 0.77395   2
   5   0  14 2.10212 0.58496   3
  -5   0 -14 2.36852 0.79186   2
  -5   0 -14 1.65898 0.52912   3
   6   0  14 39.0132 5.18603   2
  -6   0 -14 43.2498 4.81831   3
  -6   0 -14 39.3998 5.21558   2
   6   0  14 43.4018 4.83970   3
  -7   0 -14 138.007 17.5106   2
  -7   0 -14 149.640 16.2888   3
   7   0  14 139.675 17.6558   2
   7   0  14 147.817 16.1606   3
  -8   0 -14 12.6721 1.93681   2
   8   0  14 9.00290 1.56355   2
  -9   0 -14 50.4849 6.39856   2
   9   0  14 41.0866 5.51300   2
  10   0  14 48.9129 6.58189   2
 -10   0 -14 66.2158 8.16576   2
 -11   0 -14 35.1125 4.69621   2
 -12   0 -14 3.68475 0.99125   2
 -13   0 -14 16.3914 2.41054   2
  13   0  14 12.6120 2.02490   2
 -21  -1  14 4.31726 1.06114   2
  21  -1 -14 2.92019 0.96082   2
  21   1 -14 5.68447 1.21455   2
 -21   1  14 5.30238 1.20724   2
  20  -1 -14 46.1468 5.86796   2
 -20  -1  14 40.4027 5.33844   2
 -20   1  14 37.4857 5.07984   2
  20   1 -14 40.2282 5.32927   2
 -19  -1  14 0.26642 0.66181   2
  19  -1 -14 -0.5797 0.65068   2
  19   1 -14 -0.2718 0.69079   2
 -19   1  14 -0.1261 0.58828   2
 -18  -1  14 68.2336 8.30624   2
  18  -1 -14 54.6253 7.03578   2
 -18   1  14 50.7460 6.69079   2
  18   1 -14 49.5483 6.58632   2
  17  -1 -14 78.8610 10.3447   2
 -17  -1  14 99.0833 12.1754   2
  17   1 -14 86.5182 11.0151   2
 -17   1  14 92.4667 11.5489   2
  16  -1 -14 1.08789 0.70831   2
 -16  -1  14 0.54503 0.58300   2
  16   1 -14 1.20784 0.66784   2
 -16   1  14 0.06258 0.69293   2
 -15  -1  14 6.54185 1.22825   2
  15  -1 -14 6.62114 1.18313   2
  15   1 -14 6.18680 1.18968   2
 -15   1  14 4.50025 1.02346   2
 -14  -1  14 -0.0166 0.58604   2
  14  -1 -14 0.36913 0.64269   2
  14   1 -14 0.26488 0.61787   2
 -14   1  14 -0.0334 0.52459   2
  13  -1 -14 41.8360 5.22746   2
 -13  -1  14 38.4465 4.30894   3
 -13  -1  14 30.2078 4.14776   2
  13   1 -14 30.8915 3.77734   3
  13   1 -14 32.2761 4.33481   2
 -13   1  14 36.7224 4.75639   2
  12  -1 -14 15.1737 2.14757   2
 -12  -1  14 15.7322 2.19509   2
 -12  -1  14 13.9854 1.78751   3
 -12   1  14 11.4757 1.79319   2
  12   1 -14 12.7611 1.91898   2
 -11  -1  14 257.291 32.3073   2
  11  -1 -14 267.642 29.3728   3
 -11  -1  14 277.265 30.1153   3
  11  -1 -14 244.284 31.1811   2
 -11   1  14 242.261 31.0042   2
  11   1 -14 274.770 29.9393   3
  11   1 -14 300.371 36.2116   2
 -11   1  14 289.017 30.8885   3
 -10  -1  14 41.8351 4.72860   3
 -10  -1  14 42.8242 5.44230   2
  10  -1 -14 43.3847 4.76117   3
  10  -1 -14 34.7273 4.74284   2
 -10   1  14 46.4082 5.79587   2
  10   1 -14 41.6963 4.71464   3
  10   1 -14 35.8354 4.83509   2
  -9  -1  14 8.77293 1.75392   1
  -9  -1  14 14.2395 1.73514   3
   9  -1 -14 10.3073 1.57256   2
  -9  -1  14 9.99429 1.55024   2
   9  -1 -14 10.4886 1.31521   3
   9   1 -14 13.7248 1.70664   3
  -9   1  14 10.7926 1.62775   2
   9   1 -14 9.09095 1.47253   2
  -9   1  14 10.6204 1.31401   3
  -8  -1  14 54.1498 9.47399   1
   8  -1 -14 42.5931 7.63781   1
  -8  -1  14 39.4245 7.14768   1
   8  -1 -14 38.2430 4.37007   3
   8  -1 -14 41.5165 5.31990   2
  -8  -1  14 42.4155 5.42073   2
  -8   1  14 39.8639 5.17934   2
   8   1 -14 41.1570 5.26704   2
  -8   1  14 39.9874 7.24791   1
   8   1 -14 33.8390 6.29887   1
  -8   1  14 38.5712 4.39767   3
  -7  -1  14 56.9577 10.1426   1
   7  -1 -14 59.8466 7.37580   2
   7  -1 -14 69.1532 7.10991   3
   7  -1 -14 48.4346 8.83510   1
   7  -1 -14 51.2650 9.26566   1
  -7  -1  14 57.5748 10.2369   1
  -7   1  14 34.4838 6.74918   1
   7   1 -14 54.2689 9.73203   1
  -7   1  14 55.5225 6.98865   2
  -7   1  14 49.5725 5.63922   3
  -7   1  14 55.3747 9.90022   1
   7   1 -14 46.6214 8.55060   1
   6  -1 -14 19.8767 3.71725   1
   6  -1 -14 22.9265 2.61002   3
  -6  -1  14 21.7450 3.99848   1
  -6  -1  14 22.4998 4.11900   1
   6  -1 -14 26.6056 4.76452   1
   6   1 -14 24.1000 4.36298   1
   6   1 -14 22.3932 2.99953   2
  -6   1  14 22.1878 2.57184   3
  -6   1  14 22.1060 4.05746   1
  -6   1  14 22.3943 4.09955   1
   6   1 -14 22.3754 4.10046   1
   5  -1 -14 56.4525 10.0429   1
   5  -1 -14 53.9367 9.66466   1
   5  -1 -14 56.2422 6.07607   3
  -5  -1  14 40.8531 7.65651   1
  -5  -1  14 55.1231 9.83238   1
   5   1 -14 54.3439 9.71138   1
  -5   1  14 60.3262 10.6466   1
   5   1 -14 68.9998 8.19955   2
  -5   1  14 53.5477 5.88899   3
   5   1 -14 58.1312 10.3136   1
  -5   1  14 31.2605 6.26541   1
   4  -1 -14 4.04227 0.88001   1
   4  -1 -14 5.32230 1.10418   1
  -4  -1  14 2.51859 0.68770   1
  -4  -1  14 2.70942 0.80501   2
   4   1 -14 3.83681 0.86683   1
   4   1 -14 4.84491 0.98733   1
   4   1 -14 3.73731 0.82518   2
  -3  -1  14 20.2203 2.70965   2
   3  -1 -14 18.2707 3.38601   1
   3  -1 -14 21.5271 3.89736   1
   3   1 -14 17.8465 3.33154   1
   3   1 -14 16.7062 3.13934   1
   2  -1 -14 1.73320 0.53667   1
   2  -1 -14 1.19917 0.43519   3
  -2  -1  14 0.69502 0.41121   3
   2  -1 -14 1.54635 0.55865   1
   2   1 -14 0.83681 0.40120   3
  -2   1  14 1.28545 0.42186   3
   2   1 -14 2.19673 0.59316   1
   2   1 -14 1.01985 0.44487   1
  -1  -1  14 0.00979 0.34806   1
  -1  -1  14 0.68297 0.53538   2
   1  -1 -14 0.37129 0.54048   2
   1  -1 -14 1.01370 0.36395   3
  -1  -1  14 0.96321 0.39197   1
  -1  -1  14 1.37605 0.37491   3
   1   1 -14 0.60533 0.36196   1
  -1   1  14 1.02539 0.38817   3
   1   1 -14 0.98072 0.39764   1
  -1   1  14 0.98617 0.44972   1
  -1   1  14 0.57802 0.37883   1
   0  -1 -14 48.5349 5.17779   3
   0  -1 -14 37.2003 4.98390   2
   0  -1  14 41.4771 5.38514   2
   0  -1  14 37.4753 6.88840   1
   0   1 -14 51.1684 5.41298   3
   0   1 -14 46.1775 5.80211   2
   0   1  14 35.3298 4.24531   3
   0   1  14 41.3267 7.47686   1
   1  -1  14 245.016 27.1155   3
  -1  -1 -14 311.668 36.7550   2
   1  -1  14 239.020 30.1279   2
   1   1  14 296.486 30.8379   3
  -1   1 -14 197.466 26.5713   2
  -1   1 -14 273.597 29.1812   3
   2  -1  14 67.6634 7.82230   3
  -2  -1 -14 83.2142 8.91234   3
   2  -1  14 66.0404 8.71866   2
  -2   1 -14 78.9627 8.63533   3
   2   1  14 76.2149 8.40623   3
   2   1  14 77.7655 9.75659   2
  -2   1 -14 78.1257 9.78677   2
  -3  -1 -14 32.6402 3.76028   3
   3  -1  14 33.1550 4.39973   2
   3  -1  14 33.5894 3.83446   3
   3   1  14 39.7633 5.00652   2
  -3   1 -14 30.6432 4.18576   2
   3   1  14 34.2416 3.87421   3
   4  -1  14 118.002 13.1987   3
   4  -1  14 124.176 15.5133   2
  -4  -1 -14 112.224 12.7757   3
   4   1  14 128.573 15.9127   2
  -4   1 -14 132.760 16.2937   2
   4   1  14 127.767 13.8746   3
  -4   1 -14 113.441 12.9022   3
   5  -1  14 41.7722 5.41071   2
  -5  -1 -14 35.9909 4.91710   2
  -5  -1 -14 45.7332 4.98438   3
   5   1  14 44.9348 4.94944   3
   5   1  14 43.8124 5.63323   2
  -5   1 -14 41.3564 5.38124   2
  -5   1 -14 36.2053 4.33700   3
  -6  -1 -14 41.0930 5.47840   2
   6  -1  14 43.9330 4.99436   3
   6  -1  14 45.0892 5.82751   2
   6   1  14 43.0419 5.65837   2
   6   1  14 47.1141 5.19311   3
  -6   1 -14 40.6944 4.76533   3
  -6   1 -14 47.9080 6.08121   2
  -7  -1 -14 4.01288 0.71768   3
  -7  -1 -14 5.07416 1.03840   2
   7  -1  14 4.44475 1.05107   2
  -7   1 -14 4.37433 1.06357   2
   7   1  14 4.95456 1.06081   2
   7   1  14 4.29440 0.78923   3
   8  -1  14 1.34552 0.73754   2
  -8  -1 -14 0.60147 0.41234   3
  -8  -1 -14 1.82331 0.70356   2
   8   1  14 1.97330 0.77176   2
  -8   1 -14 0.27426 0.74409   2
  -9  -1 -14 1.57854 0.71761   2
   9  -1  14 2.14076 0.80610   2
   9   1  14 0.96304 0.69362   2
  -9   1 -14 2.25684 0.75237   2
  10  -1  14 23.7087 3.27921   2
 -10  -1 -14 25.8258 3.48229   2
 -10   1 -14 24.0934 3.28855   2
  10   1  14 20.0167 2.97888   2
 -11  -1 -14 12.5800 2.03785   2
  11  -1  14 15.8729 2.28945   2
  11   1  14 15.4966 2.28184   2
 -11   1 -14 12.2462 1.98051   2
 -12  -1 -14 3.83656 1.04146   2
  12  -1  14 4.37432 1.04771   2
  12   1  14 2.48632 0.94228   2
 -12   1 -14 3.67515 0.97817   2
  13  -1  14 -0.5821 0.66699   2
 -13  -1 -14 -0.4628 0.68178   2
 -13   1 -14 0.29449 0.69089   2
  21  -2 -14 0.72018 0.75682   2
 -21   2  14 -0.1362 0.71936   2
  20  -2 -14 5.88310 1.20816   2
 -20   2  14 7.06256 1.29282   2
 -19  -2  14 3.54476 0.96886   2
  19  -2 -14 3.96772 0.97024   2
  19   2 -14 2.76651 0.88484   2
 -19   2  14 2.92369 0.94993   2
  18  -2 -14 0.99359 0.71023   2
 -18   2  14 0.42329 0.58748   2
  18   2 -14 1.26110 0.74818   2
  17  -2 -14 30.0707 3.91519   2
 -17  -2  14 19.4356 3.08891   2
 -17   2  14 32.6507 4.17094   2
  17   2 -14 29.5818 3.89309   2
 -16  -2  14 98.1687 11.9097   2
  16  -2 -14 72.4853 9.57975   2
 -15  -2  14 4.51009 0.95334   2
  15  -2 -14 5.00793 1.08888   2
  15   2 -14 4.92420 1.05338   2
 -14  -2  14 5.36752 1.00492   3
  14  -2 -14 5.99402 1.14192   2
 -14  -2  14 5.29340 1.11058   2
  14   2 -14 6.74420 1.19102   3
  14   2 -14 6.25572 1.20004   2
  13  -2 -14 138.778 16.8502   2
 -13  -2  14 109.067 12.7003   3
 -13  -2  14 130.945 16.1234   2
 -13   2  14 100.385 13.4516   2
  13   2 -14 161.358 18.9809   2
 -12  -2  14 -0.2398 0.51028   3
 -12  -2  14 0.10096 0.59513   2
  12   2 -14 0.28897 0.54933   3
  12   2 -14 1.08889 0.62537   2
 -12   2  14 0.05029 0.54346   2
 -11  -2  14 1.70391 0.66522   3
 -11  -2  14 2.00883 0.68892   2
 -11   2  14 1.73191 0.46706   3
  11   2 -14 2.45917 0.67531   2
  11   2 -14 3.35560 0.78518   3
 -11   2  14 2.55377 0.72157   2
 -10  -2  14 13.5468 1.83979   3
 -10  -2  14 13.4545 1.99219   2
  10  -2 -14 16.7600 1.92323   3
  10   2 -14 15.0352 1.99350   3
 -10   2  14 15.9460 1.85233   3
  10   2 -14 14.8895 2.12778   2
 -10   2  14 17.2127 2.33941   2
  -9  -2  14 21.0878 2.78271   2
  -9  -2  14 21.3966 2.51662   3
   9  -2 -14 18.9989 2.62764   2
   9  -2 -14 18.5997 2.19045   3
   9   2 -14 18.6629 2.34584   3
   9   2 -14 18.9459 2.60743   2
  -9   2  14 16.0482 2.37617   2
   8  -2 -14 10.8917 1.68745   2
  -8  -2  14 12.9429 1.67227   3
  -8  -2  14 11.8859 1.75295   2
  -8   2  14 14.1704 2.00058   2
  -8   2  14 15.1353 1.73260   3
   8   2 -14 10.9916 1.71459   2
   7  -2 -14 -0.8124 0.52106   2
  -7  -2  14 -0.6436 0.43357   1
   7   2 -14 0.88003 0.54626   3
  -7   2  14 0.90306 0.58567   2
   6  -2 -14 49.4983 5.51967   3
  -6  -2  14 54.0621 6.73811   2
   6  -2 -14 59.0702 10.4201   1
  -6  -2  14 45.8035 8.34637   1
   6  -2 -14 52.4348 6.60282   2
  -6  -2  14 43.8094 5.20475   3
  -6   2  14 54.3643 5.88692   3
   6   2 -14 53.7941 5.92771   3
   6   2 -14 51.8639 6.53070   2
  -6   2  14 40.0025 5.51557   2
   5  -2 -14 2.40633 0.48551   3
  -5  -2  14 1.20227 0.53768   1
  -5  -2  14 2.65024 0.67595   1
  -5  -2  14 3.69804 0.69067   3
   5  -2 -14 3.44772 0.75703   1
   5  -2 -14 2.66898 0.68009   2
  -5  -2  14 2.48229 0.74479   2
   5   2 -14 1.39432 0.56026   3
   5   2 -14 2.95644 0.72445   1
  -5   2  14 2.64999 0.71801   2
   5   2 -14 3.10362 0.77558   2
  -5   2  14 3.49461 0.57686   3
   4  -2 -14 12.9158 1.89550   2
   4  -2 -14 13.2478 1.62614   3
  -4  -2  14 12.9477 2.47598   1
   4  -2 -14 14.7686 2.73506   1
  -4  -2  14 14.6227 1.82299   3
  -4  -2  14 12.8191 1.90814   2
  -4  -2  14 17.5454 3.15802   1
   4   2 -14 11.9763 2.30716   1
   4   2 -14 15.1345 1.85559   3
  -4   2  14 13.5994 1.95007   2
   4   2 -14 17.4731 2.31904   2
  -4   2  14 14.4188 2.67924   1
  -3  -2  14 89.9162 10.3252   3
   3  -2 -14 100.947 11.0361   3
   3  -2 -14 103.769 18.4771   1
   3  -2 -14 88.9145 11.5276   2
   3   2 -14 109.685 11.7552   3
  -3   2  14 135.336 23.4599   1
  -3   2  14 101.371 11.0772   3
   3   2 -14 82.6302 15.2226   1
  -3   2  14 101.188 12.6178   2
  -2  -2  14 4.70212 0.80550   3
  -2  -2  14 3.80613 0.91975   2
   2  -2 -14 5.98758 1.05795   2
   2  -2 -14 4.09349 0.66510   3
   2  -2 -14 4.29288 0.93198   1
  -2  -2  14 4.81747 1.00078   1
   2   2 -14 6.01674 0.95191   3
   2   2 -14 6.63133 1.12658   2
  -2   2  14 5.23479 1.01417   2
  -2   2  14 4.22173 0.69090   3
   1  -2 -14 7.25905 0.95953   3
  -1  -2  14 8.30475 1.33187   2
   1  -2 -14 6.23369 1.10154   2
  -1   2  14 7.39743 1.21109   2
   1   2 -14 6.46391 1.12804   2
  -1   2  14 8.23916 1.05731   3
   1   2 -14 5.65581 0.95901   3
   0  -2  14 11.9534 1.82354   2
   0  -2 -14 13.8402 1.96239   2
   0  -2 -14 10.5745 1.37797   3
   0  -2  14 13.1294 1.64625   3
   0   2  14 12.0974 1.83423   2
   0   2 -14 13.4903 1.70258   3
   0   2 -14 13.6436 1.94176   2
   0   2  14 12.7990 1.55481   3
   1  -2  14 13.6708 1.71979   3
  -1  -2 -14 11.4082 1.49011   3
   1  -2  14 14.4697 2.07245   2
  -1  -2 -14 17.0511 2.30257   2
  -1   2 -14 12.7727 1.68139   3
  -1   2 -14 12.1057 1.88332   2
   1   2  14 14.0431 1.70489   3
   1   2  14 12.9049 1.93708   2
   2  -2  14 22.8516 3.09270   2
  -2  -2 -14 24.4099 3.18032   2
   2  -2  14 16.8568 2.21944   3
  -2  -2 -14 19.4236 2.32371   3
  -2   2 -14 23.1453 3.09220   2
   2   2  14 20.9853 2.88975   2
  -2   2 -14 21.1785 2.54913   3
  -3  -2 -14 41.6365 5.38718   2
  -3  -2 -14 41.7304 4.65755   3
   3  -2  14 38.1326 5.05666   2
   3  -2  14 40.2514 4.61098   3
  -3   2 -14 35.5414 4.30443   3
  -3   2 -14 60.6907 7.20625   2
   3   2  14 35.2062 4.81471   2
   3   2  14 42.6786 4.74005   3
  -4  -2 -14 6.23871 0.90557   3
  -4  -2 -14 6.56845 1.21825   2
   4  -2  14 6.90920 1.20565   2
  -4   2 -14 6.42654 1.22763   2
   4   2  14 6.08760 0.94990   3
   4   2  14 6.01092 1.16538   2
  -4   2 -14 5.14407 0.95471   3
   5  -2  14 4.81305 0.87833   3
  -5  -2 -14 5.62774 0.86004   3
   5  -2  14 4.80548 1.07496   2
  -5  -2 -14 5.61634 1.11767   2
  -5   2 -14 6.23006 1.16919   2
  -5   2 -14 5.29971 0.96218   3
   5   2  14 6.91647 1.25580   2
   5   2  14 5.92205 0.88216   3
   6  -2  14 51.8879 6.45707   2
  -6  -2 -14 48.4616 5.31558   3
  -6  -2 -14 36.8296 5.12101   2
  -6   2 -14 41.9225 5.55564   2
   6   2  14 43.5653 4.96650   3
   6   2  14 47.2009 6.06513   2
   7  -2  14 21.6971 2.95436   2
  -7  -2 -14 22.4322 2.56579   3
  -7  -2 -14 19.0435 2.77645   2
   7   2  14 18.6833 2.72999   2
   7   2  14 18.4575 2.29433   3
  -7   2 -14 19.0716 2.71618   2
  -8  -2 -14 2.15001 0.86403   2
  -8  -2 -14 3.11116 0.66492   3
   8  -2  14 1.35341 0.81129   2
   8   2  14 3.68874 0.74076   3
  -8   2 -14 2.19907 0.82659   2
   8   2  14 2.94601 0.92761   2
  -9  -2 -14 -0.6089 0.54859   2
   9   2  14 1.20340 0.72629   2
  -9   2 -14 0.86050 0.61346   2
 -10  -2 -14 20.1629 2.80330   2
  10   2  14 13.1281 2.22680   2
 -10   2 -14 22.0728 2.95592   2
 -11  -2 -14 9.10646 1.58456   2
 -11   2 -14 10.2604 1.69466   2
 -12   2 -14 1.54491 0.79728   2
  20  -3 -14 8.34098 1.45839   2
 -20   3  14 8.25639 1.55464   2
  19  -3 -14 32.5423 4.42176   2
 -19   3  14 35.1516 4.62273   2
  18  -3 -14 0.86471 0.67725   2
 -18   3  14 0.31787 0.62545   2
  17  -3 -14 81.8501 10.3507   2
 -17   3  14 79.2416 10.1388   2
  16  -3 -14 27.6665 3.80636   2
 -16   3  14 32.1443 4.21100   2
 -15  -3  14 104.093 11.9407   3
  15  -3 -14 111.031 13.9993   2
 -15   3  14 126.111 15.4061   2
  15   3 -14 105.054 12.0397   3
  14  -3 -14 75.2632 9.27190   2
 -14  -3  14 64.1174 7.36505   3
  14   3 -14 66.2611 7.54931   3
 -14   3  14 64.3431 8.25426   2
  14   3 -14 59.4519 7.82887   2
  13  -3 -14 73.5375 8.88824   2
 -13  -3  14 53.1880 7.04759   2
  13   3 -14 57.9206 6.70556   3
 -13   3  14 56.9565 7.36874   2
  13   3 -14 56.2243 7.31731   2
  12  -3 -14 83.4594 10.4098   2
 -12  -3  14 79.7218 8.94152   3
 -12  -3  14 81.7447 10.2629   2
  12   3 -14 84.2018 10.4795   2
  12   3 -14 71.4186 8.39692   3
 -12   3  14 71.8530 9.37025   2
 -11  -3  14 28.6264 3.65623   3
 -11  -3  14 34.7813 4.57808   2
  11  -3 -14 42.1927 5.28160   2
  11   3 -14 36.0645 4.22024   3
 -11   3  14 41.2146 5.18710   2
  11   3 -14 31.7920 4.31602   2
  10  -3 -14 54.8405 6.88140   2
 -10  -3  14 53.7070 6.75485   2
 -10  -3  14 38.1999 4.95328   3
  10   3 -14 48.7710 6.32741   2
 -10   3  14 56.6787 7.04948   2
 -10   3  14 48.8132 5.51588   3
  10   3 -14 60.2881 6.53393   3
  -9  -3  14 46.0387 5.35679   3
   9  -3 -14 49.6756 6.34345   2
  -9  -3  14 50.3997 6.37618   2
   9   3 -14 43.1466 5.73950   2
   9   3 -14 48.0530 5.53069   3
  -9   3  14 52.1562 5.67723   3
  -9   3  14 46.9581 6.09386   2
   8  -3 -14 43.3296 5.48769   2
   8  -3 -14 34.2269 4.07191   3
   8   3 -14 39.5852 4.63393   3
  -8   3  14 40.5812 4.54250   3
  -8   3  14 42.8113 5.45052   2
   7  -3 -14 219.268 27.2075   2
  -7  -3  14 210.598 23.5050   3
   7  -3 -14 207.438 23.1774   3
  -7   3  14 235.678 25.1873   3
   7   3 -14 212.091 26.5953   2
   7   3 -14 193.776 22.3659   3
  -7   3  14 257.822 30.7346   2
   6  -3 -14 133.344 14.7092   3
   6  -3 -14 144.364 17.7054   2
  -6  -3  14 149.521 15.9960   3
  -6   3  14 148.823 18.1171   2
  -6   3  14 120.918 13.8571   3
   6   3 -14 123.323 14.1559   3
   6   3 -14 126.923 16.1303   2
  -5  -3  14 10.3162 1.38722   3
   5  -3 -14 7.04961 1.25330   2
   5  -3 -14 8.97043 1.14088   3
  -5  -3  14 10.9179 1.61874   2
   5   3 -14 8.41977 1.34389   2
  -5   3  14 8.17242 1.35142   2
   5   3 -14 8.66281 1.31562   3
  -5   3  14 8.34116 1.10169   3
   4  -3 -14 104.975 11.3332   3
   4  -3 -14 89.4946 11.5506   2
  -4  -3  14 104.062 11.3577   3
  -4  -3  14 116.203 13.9881   2
  -4   3  14 92.0121 10.3963   3
  -4   3  14 82.6005 10.9739   2
   4   3 -14 106.672 11.5651   3
  -3  -3  14 17.7154 2.13575   3
   3  -3 -14 14.1771 1.74072   3
   3  -3 -14 14.3140 2.07187   2
  -3   3  14 14.8210 2.13395   2
   3   3 -14 14.7163 1.93406   3
   2  -3 -14 67.3642 8.30765   2
  -2  -3  14 60.7550 7.70805   2
   2  -3 -14 75.6750 7.82999   3
  -2   3  14 66.0596 7.10993   3
   2   3 -14 51.0948 6.16358   3
   2   3 -14 56.4938 7.32866   2
  -2   3  14 50.9656 6.83531   2
   1  -3 -14 3.36651 0.80439   2
  -1  -3  14 3.49669 0.83929   2
   1  -3 -14 3.78510 0.63392   3
  -1  -3  14 3.33117 0.72241   3
   1   3 -14 4.74683 0.91950   2
  -1   3  14 1.95113 0.69626   2
  -1   3  14 3.43694 0.62623   3
   1   3 -14 3.07920 0.79646   3
   0  -3  14 71.2461 9.03139   2
   0  -3  14 78.0513 8.50232   3
   0  -3 -14 69.7218 7.79223   3
   0   3 -14 71.8800 9.09607   2
   0   3  14 64.6087 7.44934   3
   0   3 -14 72.0440 8.09747   3
  -1  -3 -14 118.222 13.0849   3
   1  -3  14 120.047 15.0432   2
   1  -3  14 114.433 12.9194   3
  -1  -3 -14 140.182 16.9026   2
  -1   3 -14 137.435 14.6147   3
  -1   3 -14 115.144 14.6133   2
   1   3  14 102.459 12.0114   3
  -2  -3 -14 162.734 18.0539   3
   2  -3  14 169.770 18.6555   3
   2  -3  14 152.214 19.5481   2
   2   3  14 170.315 21.1685   2
  -2   3 -14 162.775 18.1870   3
  -2   3 -14 159.222 20.1588   2
   2   3  14 195.804 20.4636   3
   3  -3  14 13.3520 1.78370   3
  -3  -3 -14 13.2556 1.67239   3
   3  -3  14 14.7595 2.13503   2
  -3   3 -14 14.0199 1.93672   3
   3   3  14 13.2573 2.01691   2
  -3   3 -14 17.0506 2.38654   2
   4  -3  14 12.3564 1.85387   2
   4  -3  14 9.44638 1.43068   3
  -4  -3 -14 10.2829 1.35996   3
  -4   3 -14 10.6566 1.56356   3
   4   3  14 13.1101 1.96117   2
  -4   3 -14 12.0346 1.88930   2
   4   3  14 11.2045 1.45081   3
  -5  -3 -14 86.7720 9.50227   3
   5  -3  14 82.3940 10.4912   2
  -5  -3 -14 65.0339 9.02372   2
   5   3  14 91.3510 9.84414   3
   5   3  14 88.2273 11.0521   2
  -5   3 -14 98.2906 11.9393   2
   6  -3  14 1.52465 0.73110   2
  -6  -3 -14 2.32035 0.61447   3
  -6  -3 -14 2.87916 0.87896   2
   6   3  14 3.11183 0.68513   3
  -6   3 -14 2.14131 0.73843   2
   6   3  14 2.23978 0.78278   2
  -7  -3 -14 1.85203 0.83010   2
   7  -3  14 -0.2521 0.64381   2
  -7  -3 -14 0.35989 0.42708   3
   7   3  14 0.12151 0.68208   2
  -7   3 -14 0.18423 0.64166   2
   7   3  14 -0.1459 0.45220   3
  -8  -3 -14 0.15606 0.49329   3
  -8  -3 -14 0.51728 0.71922   2
   8  -3  14 1.03328 0.72582   2
   8   3  14 0.95386 0.71635   2
  -8   3 -14 0.44098 0.71725   2
  -9  -3 -14 8.46536 1.20975   3
   9  -3  14 6.63947 1.32381   2
   9   3  14 9.80667 1.37706   3
   9   3  14 7.28300 1.38855   2
  -9   3 -14 9.92110 1.64069   2
  10  -3  14 21.5953 3.07050   2
 -10   3 -14 23.3498 3.22837   2
  11  -3  14 29.6942 3.95867   2
 -11   3 -14 25.1402 3.53470   2
  18  -4 -14 16.9505 2.45642   2
  17  -4 -14 10.0781 1.66831   2
  16  -4 -14 1.83010 0.83436   2
 -15  -4  14 26.9836 3.36909   3
  15  -4 -14 31.5397 4.21229   2
  15   4 -14 26.2847 3.36962   3
 -14  -4  14 74.7506 8.34127   3
  14  -4 -14 74.1333 9.31135   2
 -14   4  14 64.5696 8.48246   2
  14   4 -14 67.9948 7.88294   3
 -13  -4  14 64.2740 7.46257   3
 -13   4  14 71.0970 8.95208   2
  13   4 -14 67.8240 7.75555   3
 -12  -4  14 8.57244 1.33184   3
 -12   4  14 9.48395 1.59477   2
  12   4 -14 6.09823 1.25692   3
 -11  -4  14 19.2747 2.47700   3
 -11   4  14 19.8953 2.80688   2
  11   4 -14 20.5052 2.65606   3
 -10  -4  14 115.074 12.8050   3
 -10   4  14 105.245 13.5558   2
  10   4 -14 122.767 13.3984   3
   9  -4 -14 6.00234 1.13154   2
  -9  -4  14 4.57624 1.00859   3
  -9   4  14 6.50120 0.92245   3
   9   4 -14 7.24945 1.26255   3
  -9   4  14 6.13250 1.14754   2
  -8  -4  14 9.60137 1.43225   3
   8  -4 -14 11.1995 1.78870   2
   8   4 -14 10.1983 1.53667   3
  -8   4  14 8.02992 1.42733   2
  -8   4  14 10.7743 1.32388   3
   7  -4 -14 4.73474 0.79977   3
  -7  -4  14 5.00054 0.98197   3
  -7   4  14 4.97738 0.79973   3
  -7   4  14 6.12211 1.12888   2
   7   4 -14 5.31736 1.10842   3
  -6  -4  14 35.0862 3.77480   3
   6  -4 -14 22.1842 2.64389   3
   6  -4 -14 25.1684 3.32352   2
   6   4 -14 25.3680 3.06273   3
  -6   4  14 22.9708 3.15779   2
  -6   4  14 19.5875 2.48032   3
   5  -4 -14 8.19746 1.34654   2
  -5  -4  14 6.91137 1.22148   3
   5  -4 -14 10.9230 1.31351   3
   5   4 -14 9.68947 1.48638   3
  -5   4  14 10.8520 1.32706   3
  -5   4  14 10.5549 1.59052   2
  -4  -4  14 15.8373 2.01040   3
   4  -4 -14 13.3786 1.67336   3
  -4   4  14 16.3346 1.91232   3
  -4   4  14 13.2747 1.98930   2
   4   4 -14 12.8412 1.83574   3
  -3  -4  14 68.1106 7.43088   3
   3   4 -14 57.4705 6.57382   3
  -3   4  14 57.7448 6.44882   3
  -3   4  14 50.5004 6.74322   2
   2  -4 -14 50.9996 5.85498   3
  -2  -4  14 51.4899 6.02929   3
   2   4 -14 64.5058 7.00033   3
  -1  -4  14 145.975 15.4903   3
   1  -4 -14 117.189 13.2664   3
   1   4 -14 135.718 14.7511   3
  -1   4  14 112.601 12.9700   3
   0  -4  14 -0.2207 0.49596   3
   0  -4 -14 -0.0175 0.36954   3
   0   4  14 0.07063 0.45792   3
   0   4 -14 -0.2463 0.67371   2
   0   4 -14 0.40069 0.65735   3
   1  -4  14 0.41722 0.63288   2
  -1  -4 -14 0.61173 0.42668   3
   1  -4  14 0.47582 0.65748   3
  -1   4 -14 0.45621 0.59864   2
  -1   4 -14 0.54112 0.60719   3
   1   4  14 1.01167 0.52187   3
   2  -4  14 73.8113 8.45684   3
  -2  -4 -14 67.8593 7.88103   3
   2  -4  14 75.4630 9.64312   2
  -2   4 -14 85.3565 10.5432   2
   2   4  14 80.2054 8.76822   3
   3  -4  14 1.18590 0.65767   3
   3  -4  14 0.45173 0.54666   2
   3   4  14 0.48202 0.47660   3
  -3   4 -14 -0.0492 0.69395   3
  -3   4 -14 0.14370 0.52989   2
  -4  -4 -14 4.20528 0.77114   3
   4  -4  14 5.07559 1.13188   2
  -4   4 -14 3.18148 0.96047   2
   4   4  14 3.69845 0.78751   3
   5  -4  14 11.1998 1.77623   2
  -5  -4 -14 10.1100 1.33530   3
   5   4  14 8.77684 1.27519   3
  -5   4 -14 9.11477 1.61205   2
  -7  -4 -14 26.1046 3.05538   3
   7  -4  14 25.2486 3.54930   2
   7   4  14 25.7055 3.04526   3
  -7   4 -14 26.3136 3.60429   2
   8  -4  14 31.9224 4.25605   2
   8   4  14 33.9556 3.79547   3
  -8   4 -14 26.1081 3.73255   2
  15   5 -14 1.63560 0.86682   3
 -14  -5  14 -0.5573 0.66872   3
  14   5 -14 0.57333 0.76331   3
 -13  -5  14 1.21943 0.69045   3
  13   5 -14 -0.4275 0.66028   3
 -12  -5  14 12.6712 1.79980   3
  12   5 -14 11.3278 1.71709   3
 -11  -5  14 1.01598 0.69779   3
  11   5 -14 0.99731 0.77140   3
 -10  -5  14 20.3056 2.58541   3
  -9  -5  14 9.85109 1.54095   3
   9   5 -14 12.8761 1.82101   3
   8  -5 -14 7.59229 1.03335   3
  -8  -5  14 6.22118 1.12561   3
  -8   5  14 7.42836 1.02349   3
   8   5 -14 5.56234 1.15060   3
  -7  -5  14 5.82883 1.07772   3
   7   5 -14 7.25532 1.28366   3
  -7   5  14 4.54448 0.77374   3
  -6  -5  14 4.20058 0.87118   3
   6  -5 -14 3.67059 0.66216   3
  -6   5  14 3.43655 0.67345   3
   6   5 -14 4.78432 1.07679   3
   5  -5 -14 5.17536 0.83555   3
  -5  -5  14 6.95849 1.11858   3
  -5   5  14 4.01084 0.79941   3
   5   5 -14 5.73718 1.16280   3
  -4  -5  14 3.80270 0.86796   3
   4  -5 -14 3.72982 0.69010   3
  -4   5  14 3.53697 0.72207   3
   4   5 -14 2.77662 1.01115   3
   3  -5 -14 6.80567 0.95287   3
  -3  -5  14 4.31221 0.98242   3
   3   5 -14 5.31908 1.15404   3
  -3   5  14 5.41689 0.89518   3
  -2  -5  14 14.5811 2.05045   3
  -2   5  14 16.4630 2.02532   3
   2   5 -14 24.2996 2.86930   3
  -1  -5  14 13.7266 1.85338   3
   1  -5 -14 10.9649 1.46817   3
   1   5 -14 12.6825 1.85846   3
   0  -5  14 11.5647 1.67931   3
   0   5 -14 11.2192 1.72111   3
  -1  -5 -14 4.07555 0.73862   3
   1  -5  14 2.31512 0.81617   3
   1   5  14 3.53198 0.73069   3
  -2  -5 -14 3.37674 0.64272   3
   2  -5  14 1.37992 0.76164   3
  -2   5 -14 2.49088 0.90645   3
   2   5  14 1.47722 0.59862   3
  -3  -5 -14 4.06053 0.76094   3
   3   5  14 4.56712 0.82949   3
   4   5  14 0.29757 0.48958   3
  -5  -5 -14 0.42510 0.45253   3
   5   5  14 1.27307 0.58848   3
  -6  -5 -14 2.37611 0.60233   3
   6   5  14 1.43190 0.57223   3
  -7  -5 -14 10.5457 1.42179   3
   7   5  14 10.6030 1.46907   3
 -13  -6  14 4.58816 0.97964   3
  13   6 -14 6.15603 1.17592   3
 -12  -6  14 2.57052 0.84419   3
  12   6 -14 2.99180 0.86108   3
 -11  -6  14 -0.1749 0.60880   3
  11   6 -14 -0.3135 0.64304   3
  10   6 -14 5.29700 1.19358   3
  -9  -6  14 -0.2374 0.63583   3
   9   6 -14 0.44041 0.81925   3
  -8  -6  14 8.50782 1.33686   3
   8   6 -14 5.98257 1.25805   3
   7  -6 -14 -0.3234 0.43936   3
  -7  -6  14 -0.1978 0.62422   3
   7   6 -14 -0.0288 0.73885   3
  -7   6  14 -0.1287 0.41734   3
  -6  -6  14 1.59807 0.80230   3
  -6   6  14 3.14899 0.69690   3
   6   6 -14 3.66172 0.97705   3
  -5  -6  14 9.84912 1.50364   3
   5  -6 -14 9.55508 1.26190   3
  -5   6  14 8.49020 1.20686   3
   5   6 -14 10.1007 1.61805   3
  -4  -6  14 0.93061 0.67224   3
   4  -6 -14 0.27237 0.42014   3
   4   6 -14 -0.6318 0.82001   3
  -4   6  14 1.22098 0.52053   3
  -3  -6  14 7.16772 1.26025   3
   3  -6 -14 8.35961 1.13189   3
   3   6 -14 8.54639 1.41274   3
  -3   6  14 7.84507 1.12117   3
   2  -6 -14 27.8906 3.23836   3
  -2  -6  14 28.5473 3.46899   3
  -2   6  14 24.7621 3.01366   3
   2   6 -14 32.5524 3.82308   3
  -1  -6  14 0.32304 0.55736   3
   1   6 -14 0.06933 0.74647   3
  -1   6  14 -0.4580 0.49246   3
   0  -6 -14 7.19088 1.04501   3
   0  -6  14 5.67472 1.15485   3
   0   6 -14 6.35762 1.25924   3
   1  -6  14 7.77950 1.36251   3
  -1  -6 -14 7.96755 1.15288   3
   1   6  14 10.2968 1.34767   3
  -1   6 -14 8.30298 1.54339   3
  -2  -6 -14 0.13804 0.40300   3
   2   6  14 0.35945 0.49266   3
  -3  -6 -14 0.29158 0.48756   3
   3   6  14 0.11748 0.52379   3
  -4  -6 -14 10.4715 1.41988   3
   4   6  14 10.4999 1.45656   3
  -5  -6 -14 0.72785 0.46996   3
  -9  -7  14 0.52199 0.59381   3
   9   7 -14 0.89325 0.75010   3
  -8  -7  14 2.69289 0.74578   3
   8   7 -14 3.16484 0.91056   3
  -7  -7  14 10.0452 1.47473   3
   7   7 -14 9.04822 1.49519   3
  -6  -7  14 18.7383 2.40382   3
   6   7 -14 18.6112 2.46448   3
  -5  -7  14 7.14991 1.21688   3
   5   7 -14 7.85768 1.35576   3
  -4  -7  14 0.40774 0.53021   3
   4   7 -14 0.99407 0.71195   3
  -3  -7  14 1.32750 0.60204   3
   3  -7 -14 2.16316 0.63092   3
   3   7 -14 0.14727 0.74498   3
   2  -7 -14 0.40337 0.47192   3
  -2   7  14 0.31321 0.48705   3
   1  -7 -14 0.23431 0.56233   3
  -1   7  14 0.31479 0.56010   3
   0   7  14 5.33715 0.95597   3
  -1  -7 -14 10.2326 1.38655   3
 -21   0  15 0.49139 0.78865   2
  21   0 -15 0.34129 0.63896   2
 -20   0  15 -0.4290 0.59300   2
  20   0 -15 0.19205 0.62870   2
  19   0 -15 0.33244 0.65333   2
  18   0 -15 0.06197 0.50212   2
 -17   0  15 0.14204 0.65097   2
  17   0 -15 -0.3907 0.62347   2
 -16   0  15 0.04740 0.65171   2
 -15   0  15 0.19900 0.57016   2
 -14   0  15 0.84883 0.70057   2
  14   0 -15 -0.0504 0.59441   2
 -13   0  15 -0.2102 0.49556   3
 -13   0  15 0.44394 0.57015   2
  13   0 -15 -0.0513 0.57087   2
 -12   0  15 -0.1275 0.42082   3
  12   0 -15 1.02397 0.64879   2
 -12   0  15 -0.8442 0.49744   2
  12   0 -15 0.12065 0.41554   3
  11   0 -15 0.10557 0.44353   3
  11   0 -15 0.05224 0.63283   2
 -11   0  15 0.38222 0.50066   2
 -10   0  15 0.17655 0.53753   2
  10   0 -15 0.28941 0.49112   3
  10   0 -15 -0.0678 0.53292   2
 -10   0  15 0.08932 0.42123   3
  -9   0  15 0.33710 0.48026   2
  -9   0  15 0.36163 0.35707   3
   9   0 -15 0.34961 0.57244   2
   9   0 -15 -0.4188 0.52348   3
  -8   0  15 0.45667 0.40750   3
   8   0 -15 0.26117 0.42369   3
   8   0 -15 0.57517 0.54855   2
  -8   0  15 -0.1362 0.50197   2
  -7   0  15 0.83370 0.64084   2
   7   0 -15 0.19081 0.54522   2
  -7   0  15 -0.5418 0.38215   1
   7   0 -15 -0.2775 0.39605   1
  -7   0  15 0.27424 0.32610   3
   7   0 -15 1.42484 0.44798   3
   6   0 -15 -0.1308 0.37350   1
  -6   0  15 -0.4543 0.48067   2
  -6   0  15 0.40373 0.37564   1
  -6   0  15 0.16877 0.38170   3
   6   0 -15 0.64848 0.40521   1
   6   0 -15 -0.2038 0.50045   2
   6   0 -15 0.32963 0.31410   3
  -6   0  15 0.33891 0.35016   1
  -5   0  15 0.40840 0.37078   1
   5   0 -15 0.50875 0.48387   1
  -5   0  15 -0.0901 0.46026   2
   5   0 -15 -0.3531 0.45075   2
   5   0 -15 0.00802 0.35088   3
  -5   0  15 -0.2845 0.34229   3
   5   0 -15 -0.1779 0.35626   1
  -5   0  15 0.20507 0.36083   1
   4   0 -15 -0.3104 0.52501   2
  -4   0  15 -0.5315 0.57419   2
  -4   0  15 0.20659 0.39768   3
   4   0 -15 0.38563 0.37636   3
  -4   0  15 0.51438 0.41544   1
  -4   0  15 -0.3148 0.36787   1
   4   0 -15 -0.5561 0.44083   1
   4   0 -15 1.59488 0.49304   1
  -3   0  15 -0.0684 0.37418   3
   3   0 -15 -0.1003 0.32429   1
   3   0 -15 -0.0746 0.48633   1
   3   0 -15 -0.2715 0.34222   3
  -3   0  15 -0.1104 0.42864   1
  -3   0  15 -0.3364 0.60865   2
  -3   0  15 -0.0287 0.33607   1
   3   0 -15 -0.2464 0.58761   2
  -2   0  15 -0.8670 0.50390   2
   2   0 -15 -0.5007 0.31210   3
  -2   0  15 -0.3884 0.32645   1
  -2   0  15 0.19586 0.33124   3
   2   0 -15 0.08894 0.36654   1
   2   0 -15 -0.2924 0.47300   2
   1   0 -15 0.10605 0.52084   2
  -1   0  15 0.25233 0.32732   3
  -1   0  15 -0.4616 0.59286   2
   1   0 -15 0.34143 0.31988   3
   0   0 -15 -0.2078 0.54424   2
   0   0  15 0.32091 0.41063   3
   0   0  15 -0.1968 0.65001   2
   1   0  15 -0.0737 0.54304   2
  -1   0 -15 -0.3471 0.50231   2
   1   0  15 0.08483 0.37124   3
  -1   0 -15 -0.4864 0.33960   3
   2   0  15 -0.3202 0.50669   2
  -2   0 -15 -0.6624 0.52405   2
   2   0  15 0.83549 0.40764   3
  -2   0 -15 0.17306 0.35978   3
  -3   0 -15 0.30987 0.59076   2
   3   0  15 0.15779 0.61986   2
   3   0  15 0.18852 0.51392   3
  -3   0 -15 -0.2062 0.42084   3
  -4   0 -15 0.23501 0.36186   3
  -4   0 -15 -0.2724 0.62430   2
   4   0  15 -1.0925 0.62588   2
   4   0  15 0.06044 0.39184   3
   5   0  15 0.53841 0.40784   3
   5   0  15 -0.2672 0.57738   2
  -5   0 -15 0.05347 0.61272   2
  -6   0 -15 0.23108 0.43313   3
   6   0  15 0.76137 0.73102   2
   6   0  15 0.46600 0.47250   3
  -6   0 -15 -0.1043 0.64919   2
   7   0  15 0.59537 0.63626   2
  -7   0 -15 1.29918 0.66419   2
  -7   0 -15 0.23452 0.47030   3
  -8   0 -15 -0.1993 0.55443   2
   8   0  15 -0.1019 0.60059   2
  -9   0 -15 -0.0335 0.72285   2
   9   0  15 0.46667 0.75306   2
 -10   0 -15 0.06720 0.61057   2
  10   0  15 0.34456 0.72521   2
 -11   0 -15 -0.4685 0.72307   2
 -12   0 -15 -0.1995 0.70214   2
  21  -1 -15 12.9938 1.97276   2
 -21  -1  15 11.9247 1.92897   2
 -21   1  15 11.3837 1.86751   2
  20  -1 -15 7.79949 1.45237   2
 -20  -1  15 7.71013 1.44835   2
 -20   1  15 8.56248 1.51688   2
  20   1 -15 10.4438 1.65308   2
  19  -1 -15 31.8940 4.33849   2
 -19  -1  15 42.6950 5.36149   2
 -19   1  15 27.4033 3.96796   2
  19   1 -15 44.1457 5.48904   2
  18  -1 -15 33.1458 4.45855   2
 -18  -1  15 33.2289 4.50423   2
 -18   1  15 35.9013 4.72119   2
  18   1 -15 37.4563 4.85912   2
 -17  -1  15 3.51907 0.91019   2
  17  -1 -15 2.73889 0.89154   2
  17   1 -15 3.54515 0.88281   2
 -17   1  15 5.09211 1.08183   2
  16  -1 -15 6.98356 1.34494   2
 -16  -1  15 8.32199 1.40783   2
  16   1 -15 9.05028 1.50090   2
 -16   1  15 8.58010 1.44657   2
 -15  -1  15 32.9062 4.31867   2
  15  -1 -15 27.0147 3.81324   2
 -15   1  15 30.2514 4.07382   2
  15   1 -15 34.2841 4.44520   2
 -14  -1  15 22.7955 3.11283   2
  14  -1 -15 26.7501 3.50616   2
 -14   1  15 20.9407 2.96036   2
  14   1 -15 21.1947 2.99645   2
 -13  -1  15 4.59106 1.03797   2
  13  -1 -15 4.44183 1.01435   2
 -13  -1  15 6.36484 0.98892   3
  13   1 -15 4.12814 0.86938   3
  13   1 -15 6.52154 1.31550   2
 -13   1  15 4.98091 1.06619   2
 -12  -1  15 110.363 13.9472   2
  12  -1 -15 108.318 13.7906   2
 -12   1  15 102.058 11.7397   3
  12   1 -15 115.832 12.7869   3
 -12   1  15 136.388 16.3300   2
  12   1 -15 112.383 14.1586   2
  11  -1 -15 125.137 15.7179   2
 -11  -1  15 129.345 14.2045   3
  11  -1 -15 154.017 16.0160   3
 -11  -1  15 134.357 16.5024   2
 -11   1  15 150.279 15.6993   3
  11   1 -15 107.752 14.1983   2
 -11   1  15 116.316 14.9174   2
  11   1 -15 111.723 12.9705   3
 -10  -1  15 26.3959 3.53027   2
  10  -1 -15 25.7110 3.46792   2
 -10   1  15 28.2547 3.70104   2
  10   1 -15 26.0805 3.09701   3
  10   1 -15 25.3436 3.43763   2
   9  -1 -15 99.8993 12.7639   2
  -9  -1  15 126.685 15.1925   2
  -9  -1  15 117.584 12.6005   3
   9   1 -15 109.283 13.6008   2
   9   1 -15 121.604 12.9112   3
  -9   1  15 82.3130 11.2494   2
  -8  -1  15 35.6314 4.64861   2
   8  -1 -15 41.8008 4.47615   3
  -8  -1  15 36.6323 4.16597   3
   8  -1 -15 34.9836 4.59397   2
  -8   1  15 29.4837 4.11562   2
   8   1 -15 39.0804 4.35953   3
   8   1 -15 32.0541 4.32176   2
  -8   1  15 40.9312 4.42075   3
  -7  -1  15 8.57577 1.15218   3
   7  -1 -15 6.08761 1.14180   2
   7  -1 -15 8.07840 1.04292   3
  -7  -1  15 9.90731 1.86037   1
  -7   1  15 9.81603 1.50665   2
  -7   1  15 7.43445 1.01229   3
   7   1 -15 10.1743 1.52536   2
  -6  -1  15 21.2915 3.92059   1
   6  -1 -15 20.7495 3.84004   1
   6  -1 -15 22.2918 3.00704   2
   6  -1 -15 26.8578 2.88800   3
  -6  -1  15 24.0718 2.73053   3
   6   1 -15 21.3011 3.91718   1
   6   1 -15 23.6419 2.71532   3
  -6   1  15 12.9034 2.68399   1
  -6   1  15 25.0185 2.75953   3
   6   1 -15 20.4596 2.82292   2
  -6   1  15 25.1311 3.28463   2
   5  -1 -15 37.3423 4.31098   3
   5  -1 -15 36.4840 6.69809   1
  -5  -1  15 42.1955 4.69582   3
   5  -1 -15 42.5704 5.42063   2
  -5  -1  15 31.7757 5.97589   1
  -5  -1  15 34.3105 6.36027   1
   5   1 -15 46.9884 5.82668   2
   5   1 -15 38.3792 4.43397   3
  -5   1  15 46.7373 5.79448   2
  -5   1  15 42.2639 7.59100   1
   5   1 -15 40.1888 7.26134   1
   4  -1 -15 132.631 14.7170   3
  -4  -1  15 123.884 14.1424   3
  -4  -1  15 133.441 23.9277   1
   4  -1 -15 161.091 19.2988   2
  -4  -1  15 123.019 22.3361   1
   4  -1 -15 107.601 20.0067   1
  -4  -1  15 162.918 19.4580   2
   4   1 -15 123.496 14.1306   3
  -4   1  15 123.896 15.9268   2
   4   1 -15 142.318 25.3028   1
  -4   1  15 132.821 14.7320   3
   4   1 -15 182.987 21.3528   2
   3  -1 -15 224.847 27.3997   2
  -3  -1  15 227.760 27.6706   2
   3  -1 -15 214.453 23.2896   3
  -3  -1  15 202.020 22.4452   3
   3  -1 -15 146.847 27.9645   1
   3   1 -15 226.697 24.2150   3
  -3   1  15 230.390 24.4509   3
  -3   1  15 189.001 24.2175   2
   3   1 -15 209.688 37.4252   1
   2  -1 -15 16.3814 2.41717   2
   2  -1 -15 20.7582 3.79555   1
  -2  -1  15 20.4227 2.38598   3
   2  -1 -15 18.5152 2.22479   3
  -2  -1  15 20.3137 2.81161   2
  -2   1  15 23.7389 3.12082   2
   2   1 -15 23.4134 2.62459   3
  -2   1  15 20.1161 2.34439   3
  -1  -1  15 61.9785 6.88338   3
  -1  -1  15 66.4703 7.19094   3
  -1  -1  15 57.4407 7.46092   2
   1  -1 -15 68.4263 8.44782   2
   1  -1 -15 55.8442 6.41578   3
  -1   1  15 57.7377 6.55535   3
   0  -1  15 273.359 33.7581   2
   0  -1  15 293.014 31.1908   3
   0  -1 -15 260.103 28.8137   3
   0  -1 -15 221.363 29.2136   2
   0   1 -15 265.605 29.2365   3
   0   1  15 328.391 33.8004   3
   0   1 -15 266.417 33.1279   2
   1  -1  15 122.133 15.3774   2
  -1  -1 -15 133.135 14.3299   3
  -1  -1 -15 162.800 19.1342   2
   1  -1  15 120.808 13.4600   3
   1   1  15 132.426 16.3608   2
  -1   1 -15 110.424 12.7633   3
  -1   1 -15 107.740 14.1289   2
   2  -1  15 0.20463 0.38362   3
   2  -1  15 0.14355 0.61769   2
  -2  -1 -15 0.55392 0.37883   3
   2   1  15 0.86186 0.64919   2
   2   1  15 0.80668 0.47968   3
  -2   1 -15 0.64019 0.49228   3
  -2   1 -15 0.60656 0.66874   2
  -3  -1 -15 21.8048 2.59845   3
   3  -1  15 25.0957 3.35387   2
   3  -1  15 29.5300 3.18600   3
  -3   1 -15 26.1922 2.97156   3
  -3   1 -15 20.3767 2.93020   2
   3   1  15 19.3408 2.44632   3
   3   1  15 25.8162 3.42069   2
   4  -1  15 81.2784 10.3461   2
   4  -1  15 79.3249 8.94473   3
  -4  -1 -15 80.5980 8.98524   3
   4  -1  15 83.7324 9.23751   3
   4   1  15 83.1341 10.4819   2
  -4   1 -15 70.5540 9.39910   2
  -4   1 -15 98.2118 10.3553   3
   4   1  15 83.4235 9.20401   3
  -5  -1 -15 37.2697 4.27820   3
   5  -1  15 40.1824 4.53433   3
   5  -1  15 37.7656 4.99476   2
  -5  -1 -15 34.5002 4.71513   2
  -5   1 -15 37.7582 4.98400   2
   5   1  15 36.1476 4.88182   2
   5   1  15 41.5285 4.60037   3
  -5   1 -15 45.6346 4.94860   3
   6  -1  15 69.1733 7.77582   3
  -6  -1 -15 76.3164 8.26367   3
  -6  -1 -15 53.2848 7.49876   2
   6  -1  15 68.0337 8.75486   2
   6   1  15 76.7511 8.29657   3
   6   1  15 87.3310 10.5520   2
  -6   1 -15 65.5052 7.51887   3
  -6   1 -15 78.6243 9.69435   2
  -7  -1 -15 1.91438 0.83509   2
   7  -1  15 2.18761 0.80413   2
   7   1  15 2.80750 0.96053   2
  -7   1 -15 3.73367 0.92986   2
   7   1  15 1.97842 0.54752   3
  -8  -1 -15 9.81517 1.62774   2
   8  -1  15 10.0286 1.61949   2
  -8   1 -15 9.37460 1.53854   2
   8   1  15 7.74948 1.48908   2
  -9  -1 -15 59.5109 7.63918   2
   9  -1  15 65.7394 8.21247   2
  -9   1 -15 64.0530 8.04022   2
   9   1  15 49.2268 6.73214   2
  10  -1  15 9.45162 1.61583   2
 -10  -1 -15 10.4618 1.66704   2
 -10   1 -15 9.96422 1.63715   2
  10   1  15 7.93015 1.47344   2
 -11  -1 -15 8.95533 1.53932   2
  11  -1  15 9.97762 1.63467   2
  11   1  15 9.38760 1.59506   2
 -11   1 -15 6.85114 1.36632   2
 -12  -1 -15 21.4051 2.96624   2
  12  -1  15 19.9102 2.84063   2
 -12   1 -15 17.4222 2.58735   2
  12   1  15 18.9679 2.76649   2
  21  -2 -15 6.34036 1.26387   2
 -21   2  15 4.26517 1.03351   2
  20  -2 -15 -1.5538 0.64249   2
 -20   2  15 -0.3618 0.64599   2
  19  -2 -15 12.0446 1.92791   2
 -19  -2  15 14.2726 2.15816   2
 -19   2  15 12.2764 1.92923   2
  19   2 -15 13.8080 2.06203   2
  18  -2 -15 112.619 13.8059   2
  18   2 -15 93.8945 12.0863   2
 -18   2  15 95.9054 12.2489   2
  17  -2 -15 1.41659 0.64335   2
  17   2 -15 -0.0760 0.59871   2
  16  -2 -15 -0.1689 0.69681   2
 -16  -2  15 0.20084 0.60690   2
 -15  -2  15 161.131 20.2454   2
  15  -2 -15 193.136 23.1589   2
  15   2 -15 146.031 18.9126   2
 -14  -2  15 139.384 16.8420   2
  14  -2 -15 126.383 15.6482   2
 -14  -2  15 106.147 12.3818   3
  14   2 -15 121.859 15.2321   2
  14   2 -15 109.673 12.6563   3
 -13  -2  15 9.35027 1.56257   2
  13  -2 -15 10.7620 1.67672   2
 -13  -2  15 11.5469 1.61334   3
 -13   2  15 9.09245 1.52391   2
  13   2 -15 10.3832 1.71198   2
 -12  -2  15 1.22091 0.66272   3
 -12  -2  15 -0.6164 0.46245   2
  12   2 -15 1.33885 0.66586   2
 -12   2  15 0.34072 0.53577   2
  12   2 -15 0.60705 0.60709   3
 -11  -2  15 0.01635 0.41826   2
 -11  -2  15 0.12805 0.56738   3
  11   2 -15 0.45455 0.64536   2
 -11   2  15 0.94584 0.66404   2
  11   2 -15 0.21891 0.58350   3
 -11   2  15 0.71771 0.33017   3
 -10  -2  15 -0.1696 0.44326   3
 -10  -2  15 0.80778 0.57426   2
  10   2 -15 0.51400 0.57030   2
  10   2 -15 0.96952 0.67850   3
 -10   2  15 -0.0454 0.38314   3
 -10   2  15 0.39737 0.48435   2
   9  -2 -15 47.3942 5.34224   3
  -9  -2  15 49.9160 5.64140   3
   9  -2 -15 60.6690 7.39558   2
  -9  -2  15 50.1130 6.37415   2
  -9   2  15 41.1277 4.91877   3
   9   2 -15 52.6499 5.85642   3
  -9   2  15 44.4707 5.89480   2
   8  -2 -15 168.763 17.7594   3
  -8  -2  15 159.453 19.5040   2
  -8  -2  15 137.120 15.5879   3
   8  -2 -15 136.072 17.4125   2
  -8   2  15 144.683 18.1645   2
  -8   2  15 143.551 15.9383   3
  -7  -2  15 176.551 19.2981   3
  -7  -2  15 175.847 21.7847   2
   7  -2 -15 198.299 23.8839   2
   7  -2 -15 164.320 18.3462   3
   7   2 -15 152.613 17.6338   3
  -7   2  15 175.887 19.1673   3
  -7   2  15 165.080 20.8273   2
  -6  -2  15 189.860 20.9519   3
   6  -2 -15 201.128 24.7046   2
   6  -2 -15 200.561 21.6467   3
  -6  -2  15 189.107 23.6060   2
  -6   2  15 227.416 27.1082   2
   6   2 -15 194.764 24.1089   2
   6   2 -15 220.051 23.1515   3
  -6   2  15 143.438 17.7619   3
  -5  -2  15 92.0050 11.7476   2
   5  -2 -15 94.8583 11.9943   2
  -5  -2  15 105.414 11.3771   3
   5  -2 -15 98.6920 10.8306   3
  -5   2  15 88.0096 10.0754   3
   5   2 -15 94.7115 10.6263   3
  -5   2  15 100.352 12.4959   2
   5   2 -15 99.9132 12.4509   2
  -4  -2  15 27.7297 3.39824   3
   4  -2 -15 30.9516 3.55489   3
  -4  -2  15 33.2415 4.31435   2
   4  -2 -15 36.8268 4.66781   2
   4   2 -15 32.1863 4.20756   2
   4   2 -15 28.1607 3.44940   3
  -4   2  15 37.0696 4.69407   2
  -3  -2  15 35.3774 4.73132   2
   3  -2 -15 43.2648 4.68994   3
   3  -2 -15 36.4365 4.84022   2
  -3  -2  15 39.0358 4.46406   3
   3   2 -15 42.3400 5.36126   2
  -3   2  15 38.9115 5.06056   2
  -3   2  15 37.2102 4.26297   3
   3   2 -15 38.8549 4.46782   3
   2  -2 -15 61.0372 7.63275   2
   2  -2 -15 61.2632 6.67216   3
  -2  -2  15 79.6513 9.40333   2
  -2  -2  15 42.6254 5.45428   3
   2   2 -15 52.3340 6.87401   2
  -2   2  15 66.4959 8.14852   2
   1  -2 -15 0.00000 0.39948   3
   1  -2 -15 0.89782 0.64485   2
  -1  -2  15 0.73102 0.61339   2
  -1   2  15 0.45853 0.61763   2
   1   2 -15 0.20864 0.52994   2
   1   2 -15 0.27083 0.52736   3
  -1   2  15 0.48501 0.42954   3
   0  -2 -15 11.1285 1.37121   3
   0  -2  15 8.48599 1.45644   2
   0  -2 -15 11.3604 1.69896   2
   0  -2  15 10.8921 1.43277   3
   0   2  15 12.4914 1.84297   2
   0   2  15 9.70392 1.28176   3
   0   2 -15 10.2663 1.60085   2
   0   2 -15 9.08665 1.31789   3
  -1  -2 -15 2.87490 0.78375   2
   1  -2  15 3.41954 0.82763   2
  -1  -2 -15 3.49367 0.63601   3
   1  -2  15 4.01834 0.74086   3
   1   2  15 3.29984 0.64180   3
   1   2  15 2.89969 0.87725   2
  -1   2 -15 3.16783 0.73136   3
  -1   2 -15 3.10290 0.81713   2
  -2  -2 -15 34.6802 3.87365   3
   2  -2  15 29.7438 3.57965   3
   2  -2  15 30.4413 4.11597   2
  -2  -2 -15 40.9688 5.07809   2
   2   2  15 29.3401 4.04869   2
  -2   2 -15 29.9510 3.61142   3
  -2   2 -15 37.2345 4.76879   2
  -3  -2 -15 35.5034 4.08797   3
   3  -2  15 38.8721 5.00734   2
  -3  -2 -15 41.6734 5.29129   2
   3  -2  15 34.9059 4.10596   3
  -3   2 -15 31.1088 4.34003   2
   3   2  15 34.2348 4.00330   3
  -3   2 -15 45.0587 4.86544   3
   3   2  15 36.3430 4.80575   2
  -4  -2 -15 61.4163 7.94544   2
   4  -2  15 67.7972 8.49706   2
  -4  -2 -15 70.3740 7.57882   3
  -4   2 -15 71.2192 7.72245   3
   4   2  15 60.5529 6.87956   3
   4   2  15 53.0856 7.19216   2
   5  -2  15 59.2920 6.71507   3
  -5  -2 -15 67.0038 7.19613   3
  -5  -2 -15 47.9305 6.63454   2
   5  -2  15 78.2766 9.39184   2
   5   2  15 64.0403 8.04681   2
   5   2  15 52.2493 6.14435   3
  -5   2 -15 60.8595 7.75992   2
  -5   2 -15 57.7564 6.61580   3
  -6  -2 -15 35.3167 4.79703   2
  -6  -2 -15 46.5598 4.94966   3
   6  -2  15 37.9162 4.98628   2
  -6   2 -15 36.8039 4.89429   2
   6   2  15 38.7101 4.36997   3
   6   2  15 33.4214 4.61340   2
  -7  -2 -15 82.8276 10.8193   2
  -7  -2 -15 93.9893 10.3031   3
   7   2  15 95.4416 11.9351   2
  -8  -2 -15 47.1383 5.90351   2
   8  -2  15 35.0423 4.77552   2
  -8  -2 -15 30.9499 3.87000   3
  -8   2 -15 41.0819 5.29822   2
   8   2  15 40.6870 4.54982   3
   8   2  15 39.1141 5.18309   2
  -9  -2 -15 0.48079 0.69987   2
  -9   2 -15 -0.0169 0.66523   2
   9   2  15 0.74063 0.86619   2
 -10  -2 -15 2.48518 0.84232   2
 -10   2 -15 2.68963 0.83132   2
 -11  -2 -15 0.15803 0.65558   2
 -11   2 -15 0.40477 0.59658   2
 -12   2 -15 2.80163 0.84376   2
  20  -3 -15 2.00654 0.85912   2
  19  -3 -15 0.92472 0.75010   2
 -19   3  15 0.40507 0.76504   2
  18  -3 -15 3.12396 0.92685   2
 -18   3  15 3.99813 0.95323   2
  17  -3 -15 7.28515 1.31445   2
 -17   3  15 6.84993 1.25644   2
  16  -3 -15 1.98148 0.75115   2
 -16   3  15 2.84201 0.88061   2
 -15  -3  15 46.2089 5.40159   3
  15   3 -15 46.8224 5.48893   3
 -14  -3  15 -0.5087 0.64908   3
  14  -3 -15 -0.3062 0.61723   2
 -14   3  15 -0.0162 0.62104   2
  14   3 -15 0.03117 0.56639   2
  14   3 -15 0.07999 0.66448   3
 -13  -3  15 8.89905 1.47590   2
 -13  -3  15 7.51491 1.21736   3
  13  -3 -15 6.08023 1.20167   2
  13   3 -15 6.99336 1.26487   2
  13   3 -15 7.22488 1.30053   3
 -13   3  15 6.82754 1.25326   2
 -12  -3  15 16.5794 2.43554   2
  12  -3 -15 17.9442 2.53377   2
 -12  -3  15 20.3407 2.46320   3
  12   3 -15 17.1010 2.27844   3
  12   3 -15 17.4208 2.49188   2
 -12   3  15 17.8585 2.54255   2
 -11  -3  15 9.17912 1.49359   2
  11  -3 -15 9.14425 1.50175   2
 -11  -3  15 9.81387 1.41790   3
  11   3 -15 10.6939 1.55060   3
 -11   3  15 10.8098 1.65182   2
  11   3 -15 9.58754 1.57596   2
  10  -3 -15 12.0068 1.80455   2
 -10  -3  15 10.2802 1.45532   3
 -10  -3  15 10.7302 1.62102   2
  10  -3 -15 9.35027 1.22093   3
 -10   3  15 7.24556 1.32728   2
  10   3 -15 10.1107 1.60425   2
 -10   3  15 9.27431 1.21916   3
  10   3 -15 9.51254 1.44192   3
  -9  -3  15 0.69524 0.56332   2
   9  -3 -15 -1.2000 0.73447   2
  -9  -3  15 -0.5989 0.55006   3
  -9   3  15 -0.2374 0.55957   2
   9   3 -15 0.45021 0.55680   2
  -9   3  15 0.52225 0.40138   3
   8  -3 -15 0.07742 0.43259   3
   8  -3 -15 -0.5823 0.62116   2
  -8  -3  15 0.11670 0.49150   2
   8   3 -15 1.29214 0.60224   2
  -8   3  15 0.57340 0.61459   2
  -8   3  15 0.58878 0.43349   3
   8   3 -15 -0.3022 0.62891   3
   7  -3 -15 36.8004 4.89063   2
  -7  -3  15 48.5301 5.24624   3
   7  -3 -15 37.4634 4.30092   3
   7   3 -15 32.2072 4.10846   3
   7   3 -15 48.6498 5.99294   2
  -7   3  15 41.8894 5.35442   2
  -7   3  15 38.3211 4.38067   3
   6  -3 -15 4.83157 1.07372   2
  -6  -3  15 6.29540 1.00314   3
   6  -3 -15 5.03193 0.80711   3
   6   3 -15 5.51967 1.05782   3
  -6   3  15 5.19807 0.81716   3
   6   3 -15 5.93559 1.07380   2
  -6   3  15 5.37078 1.02007   2
   5  -3 -15 9.40386 1.50705   2
  -5  -3  15 8.85879 1.29181   3
  -5  -3  15 10.8991 1.59268   2
   5  -3 -15 10.6377 1.29290   3
  -5   3  15 5.85706 1.20720   2
   5   3 -15 9.70684 1.42982   3
  -5   3  15 9.67848 1.25796   3
   5   3 -15 11.0348 1.62154   2
  -4  -3  15 8.51334 1.45735   2
   4  -3 -15 8.18766 1.39818   2
  -4  -3  15 10.8532 1.47658   3
  -4   3  15 9.15169 1.19975   3
   4   3 -15 9.86374 1.42109   3
  -4   3  15 12.7929 1.83425   2
  -3  -3  15 24.9141 3.44789   2
   3  -3 -15 27.9214 3.68857   2
  -3  -3  15 25.8606 3.13229   3
   3  -3 -15 28.2746 3.19451   3
  -3   3  15 28.6845 3.76976   2
   2  -3 -15 24.9691 2.83258   3
   2  -3 -15 23.9109 3.23414   2
  -2  -3  15 21.7102 3.02980   2
  -2   3  15 21.1464 2.99468   2
   2   3 -15 27.2600 3.14543   3
  -2   3  15 21.8319 2.61576   3
   2   3 -15 24.5238 3.29168   2
  -1  -3  15 16.4060 2.29148   2
   1  -3 -15 14.4166 1.74426   3
  -1  -3  15 13.9636 1.84759   3
   1  -3 -15 14.5583 2.11387   2
  -1   3  15 14.2639 1.74191   3
   1   3 -15 13.9149 1.87318   3
   1   3 -15 14.5829 2.11238   2
  -1   3  15 13.3725 2.00856   2
   0  -3  15 16.9071 2.11756   3
   0  -3 -15 15.9909 1.94313   3
   0  -3 -15 17.4743 2.43227   2
   0  -3  15 20.5558 2.73145   2
   0   3  15 14.9191 1.89139   3
   0   3 -15 16.7657 2.16770   3
   0   3 -15 14.9386 2.20299   2
  -1  -3 -15 40.6271 4.54111   3
  -1  -3 -15 37.8726 5.04339   2
   1  -3  15 38.8512 5.11812   2
   1  -3  15 41.4005 4.70791   3
  -1   3 -15 41.9164 4.78558   3
  -1   3 -15 36.0036 4.84611   2
   1   3  15 40.1536 4.52498   3
   2  -3  15 16.5448 2.41182   2
  -2  -3 -15 24.7298 3.17576   2
   2  -3  15 18.6412 2.29373   3
  -2   3 -15 23.3228 3.06374   2
  -2   3 -15 14.9869 2.09891   3
   2   3  15 16.4055 2.39878   2
   2   3  15 15.1072 1.93818   3
  -3  -3 -15 1.82030 0.54878   3
   3  -3  15 0.99686 0.70831   2
  -3   3 -15 2.74126 0.81707   3
   3   3  15 2.03661 0.69885   2
  -3   3 -15 1.54796 0.67128   2
  -4  -3 -15 -0.9610 0.64049   2
  -4  -3 -15 0.65930 0.42752   3
   4  -3  15 0.12327 0.51493   3
   4  -3  15 0.17304 0.61185   2
   4   3  15 0.64366 0.71760   2
  -4   3 -15 0.62126 0.69734   2
   4   3  15 -0.2877 0.45955   3
  -4   3 -15 0.03899 0.69523   3
   6  -3  15 0.33053 0.76898   2
  -6  -3 -15 0.31694 0.70916   2
  -6  -3 -15 -0.1205 0.45384   3
   6   3  15 -0.0612 0.52475   3
  -6   3 -15 0.05138 0.58896   2
   6   3  15 1.51096 0.75977   2
   7  -3  15 8.70021 1.53803   2
  -7  -3 -15 9.63576 1.67649   2
   7   3  15 10.0006 1.69712   2
   7   3  15 11.7963 1.49650   3
  -7   3 -15 7.65779 1.41564   2
   8  -3  15 0.23420 0.75613   2
  -8  -3 -15 -0.3827 0.51755   3
   8   3  15 1.18404 0.65772   2
  -8   3 -15 1.24402 0.65206   2
   8   3  15 -0.3126 0.52891   3
   9  -3  15 4.36119 1.05498   2
  -9   3 -15 2.58711 0.79997   2
  10  -3  15 8.83648 1.52327   2
 -10   3 -15 7.22183 1.37175   2
  17  -4 -15 6.42807 1.31792   2
  16  -4 -15 1.38766 0.70273   2
 -15  -4  15 15.7098 2.22632   3
  15  -4 -15 14.5611 2.20300   2
  15   4 -15 18.0200 2.37751   3
 -15   4  15 17.8890 2.54251   2
  14   4 -15 9.01527 1.45911   3
 -14   4  15 7.37035 1.49958   2
 -13  -4  15 18.7583 2.40818   3
 -13   4  15 18.5536 2.63745   2
  13   4 -15 17.7390 2.39891   3
 -12  -4  15 0.10514 0.65621   3
  12   4 -15 -0.4709 0.70109   3
 -12   4  15 0.67936 0.63480   2
 -11  -4  15 0.48544 0.57381   3
 -11   4  15 1.62691 0.64651   2
  11   4 -15 1.20407 0.79515   3
  10  -4 -15 13.7682 2.07274   2
 -10  -4  15 10.4197 1.57131   3
 -10   4  15 12.4573 1.93162   2
  10   4 -15 13.3219 1.85539   3
   9  -4 -15 8.00005 1.36971   2
   9  -4 -15 6.68998 0.98313   3
  -9   4  15 8.28996 1.12120   3
  -9   4  15 8.99124 1.45709   2
   9   4 -15 7.93482 1.33411   3
   8  -4 -15 26.0820 3.54136   2
  -8  -4  15 25.5307 3.10228   3
  -8   4  15 24.0631 2.85834   3
  -8   4  15 30.8893 3.96762   2
   8   4 -15 22.6537 2.93530   3
  -7  -4  15 13.6287 1.78865   3
   7  -4 -15 14.8956 2.08146   2
   7  -4 -15 8.49787 1.24611   3
   7   4 -15 12.1201 1.72224   3
  -7   4  15 11.9418 1.83241   2
  -7   4  15 15.4371 1.75480   3
  -6  -4  15 2.26687 0.73318   3
   6  -4 -15 0.59057 0.52240   2
   6  -4 -15 2.04343 0.55274   3
  -6   4  15 1.99196 0.49208   3
   6   4 -15 1.43603 0.79202   3
  -6   4  15 1.16857 0.65778   2
   5  -4 -15 69.4185 8.46950   2
   5  -4 -15 51.0954 5.87652   3
  -5  -4  15 48.2732 5.80942   3
  -5   4  15 53.3741 6.05091   3
   5   4 -15 55.2705 6.34229   3
  -5   4  15 58.2655 7.37554   2
  -4  -4  15 30.2150 3.50374   3
   4  -4 -15 32.0208 3.47336   3
   4  -4 -15 24.9762 3.53363   2
   4   4 -15 24.5203 3.12014   3
  -4   4  15 23.0766 3.28733   2
  -4   4  15 30.2240 3.35818   3
   3   4 -15 10.2472 1.58957   3
  -3   4  15 11.3901 1.75590   2
  -3   4  15 10.3427 1.35331   3
   2  -4 -15 4.55580 0.74106   3
  -2  -4  15 4.05618 0.91480   3
  -2   4  15 4.24511 0.96152   2
   2   4 -15 4.94405 1.04694   3
  -2   4  15 3.75269 0.74913   3
  -1  -4  15 0.32521 0.66601   3
   1  -4 -15 1.30966 0.44813   3
   1   4 -15 1.10058 0.71005   3
  -1   4  15 0.91406 0.51165   3
   0  -4  15 0.14842 0.54525   3
   0  -4 -15 -0.0983 0.39819   3
   0   4 -15 -0.8624 0.65009   3
   0   4  15 0.89957 0.49055   3
   0   4 -15 -0.7920 0.62224   2
  -1  -4 -15 27.8394 3.22007   3
   1  -4  15 26.9761 3.71911   2
   1  -4  15 25.1935 3.22000   3
  -1   4 -15 31.9953 3.75171   3
   1   4  15 26.1158 3.11754   3
  -1   4 -15 31.7289 4.12248   2
  -2  -4 -15 33.9388 3.88461   3
   2  -4  15 31.4088 4.29328   2
   2   4  15 31.8413 3.74900   3
  -2   4 -15 36.2181 4.25912   3
  -2   4 -15 36.8843 4.78053   2
   3  -4  15 11.7647 1.87660   2
   3  -4  15 15.8448 2.00459   3
   3   4  15 7.89810 1.26033   3
  -3   4 -15 15.4302 2.20820   2
  -3   4 -15 10.8474 1.66028   3
  -4  -4 -15 15.4597 1.90873   3
   4  -4  15 15.3279 2.30475   2
  -4   4 -15 14.8259 2.26862   2
   4   4  15 15.9649 1.98256   3
  -5  -4 -15 32.6038 3.72245   3
   5  -4  15 32.2324 4.36534   2
   5   4  15 31.2807 3.64433   3
  -5   4 -15 30.8409 4.21258   2
  -6  -4 -15 1.17595 0.48267   3
   6  -4  15 1.06402 0.74556   2
   6   4  15 1.63340 0.55574   3
  -6   4 -15 0.71495 0.77448   2
   7  -4  15 2.87437 0.93956   2
  -7  -4 -15 2.20302 0.63657   3
  -7   4 -15 1.71836 0.87223   2
   7   4  15 1.80468 0.63197   3
  -8  -4 -15 14.1919 1.83197   3
   8  -4  15 15.9007 2.43327   2
  15   5 -15 2.81646 0.96646   3
 -14  -5  15 3.79101 0.94947   3
  14   5 -15 3.40143 0.98539   3
 -13  -5  15 0.36318 0.68393   3
  13   5 -15 -0.0509 0.64344   3
 -12  -5  15 12.2146 1.75412   3
  12   5 -15 14.8950 1.98127   3
 -11  -5  15 105.721 11.6804   3
  11   5 -15 96.1814 11.0183   3
 -10  -5  15 18.2256 2.36409   3
  -9  -5  15 11.4425 1.70089   3
   9   5 -15 14.8877 1.99157   3
   8  -5 -15 24.1028 2.82205   3
  -8  -5  15 21.5275 2.76551   3
  -8   5  15 23.3655 2.73911   3
   8   5 -15 23.1575 2.93907   3
  -7  -5  15 6.44049 1.13138   3
   7   5 -15 7.38147 1.30679   3
  -7   5  15 8.13214 1.11890   3
  -6  -5  15 0.88870 0.76366   3
   6  -5 -15 1.00922 0.51119   3
   6   5 -15 1.05757 0.91371   3
  -6   5  15 0.89934 0.52120   3
  -5  -5  15 1.69597 0.74019   3
   5  -5 -15 1.54014 0.46217   3
   5   5 -15 0.32429 0.72283   3
  -5   5  15 0.88857 0.49299   3
   4  -5 -15 47.7393 5.40442   3
  -4   5  15 47.4820 5.39900   3
   4   5 -15 50.0269 5.77883   3
   3  -5 -15 26.7634 3.13218   3
  -3  -5  15 29.1294 3.48857   3
   3   5 -15 25.8059 3.31616   3
  -3   5  15 29.3449 3.34002   3
  -2  -5  15 16.6088 2.21655   3
   2   5 -15 16.0210 2.22081   3
   1  -5 -15 4.90923 0.80084   3
  -1  -5  15 5.98769 1.14096   3
   1   5 -15 5.93976 1.23260   3
  -1   5  15 4.68247 0.85677   3
   0  -5 -15 20.5261 2.42293   3
   0  -5  15 18.9734 2.53599   3
   0   5 -15 22.4110 2.85765   3
   0   5  15 20.2949 2.43694   3
  -1  -5 -15 16.3350 1.99655   3
   1   5  15 17.0157 2.07459   3
  -1   5 -15 16.7039 2.30706   3
   2  -5  15 2.98865 0.89121   3
  -2  -5 -15 3.75314 0.72107   3
  -2   5 -15 3.59203 1.02622   3
   2   5  15 3.57383 0.77637   3
  -3  -5 -15 7.16553 1.06500   3
   3   5  15 7.89107 1.14131   3
  -4  -5 -15 10.6443 1.41406   3
  -5  -5 -15 0.38170 0.43881   3
   5   5  15 -0.5514 0.46716   3
  -6  -5 -15 11.1047 1.42753   3
   6   5  15 9.10390 1.34303   3
   7   5  15 -0.4650 0.63504   3
  13   6 -15 -0.0209 0.73849   3
 -12  -6  15 1.72530 0.71114   3
  12   6 -15 2.40166 0.85447   3
 -11  -6  15 -0.0402 0.47258   3
 -10  -6  15 0.42236 0.66079   3
  10   6 -15 0.95095 0.81225   3
  -9  -6  15 3.38524 0.87639   3
   9   6 -15 3.50126 1.01567   3
  -8  -6  15 -0.5507 0.62308   3
   8   6 -15 -0.3431 0.71058   3
  -7  -6  15 6.99005 1.21286   3
   7  -6 -15 5.72813 0.92011   3
   7   6 -15 6.04850 1.21640   3
  -7   6  15 5.50047 0.92463   3
  -6  -6  15 15.4279 2.07032   3
   6   6 -15 12.6971 1.95333   3
  -6   6  15 14.8878 1.85457   3
   5  -6 -15 3.57911 0.74085   3
   5   6 -15 5.51260 1.13969   3
  -5   6  15 3.87512 0.77510   3
  -4  -6  15 1.92533 0.74415   3
   4  -6 -15 0.21797 0.48694   3
  -4   6  15 0.23718 0.54073   3
   4   6 -15 0.33543 0.80069   3
   3  -6 -15 32.0332 3.64088   3
  -3  -6  15 30.3822 3.70245   3
   3   6 -15 32.5180 3.91004   3
  -3   6  15 29.9439 3.51116   3
  -2  -6  15 25.1365 3.21817   3
   2  -6 -15 30.2320 3.39063   3
   2   6 -15 28.5900 3.51351   3
  -2   6  15 26.7325 3.15114   3
  -1  -6  15 1.05152 0.67385   3
   1   6 -15 0.16444 0.76212   3
  -1   6  15 0.91946 0.50873   3
   0  -6 -15 0.58762 0.43311   3
   0   6 -15 0.78663 0.79732   3
   0   6  15 0.11209 0.45501   3
  -1  -6 -15 1.13962 0.50673   3
   1   6  15 1.02350 0.54134   3
  -2  -6 -15 1.61104 0.59404   3
   2   6  15 2.28675 0.69202   3
  -3  -6 -15 29.2365 3.40247   3
   3   6  15 29.2651 3.43012   3
   4   6  15 0.33213 0.53166   3
  -8  -7  15 0.53147 0.61814   3
   8   7 -15 0.96524 0.79980   3
  -7  -7  15 -0.3782 0.48874   3
   7   7 -15 -0.4407 0.69838   3
   6   7 -15 1.50122 0.75503   3
  -5  -7  15 0.04994 0.58293   3
   5   7 -15 0.34807 0.61129   3
  -4  -7  15 0.17049 0.52839   3
  21   0 -16 17.1266 2.50821   2
 -21   0  16 17.4910 2.55571   2
 -20   0  16 61.0605 7.77773   2
  20   0 -16 57.0960 7.43604   2
  19   0 -16 114.447 14.4271   2
  18   0 -16 7.20543 1.26700   2
 -17   0  16 37.0181 4.73328   2
  17   0 -16 28.4446 3.97490   2
 -16   0  16 1.77492 0.87920   2
 -15   0  16 20.6875 2.90802   2
 -14   0  16 56.7739 7.21898   2
  14   0 -16 51.7798 6.76524   2
 -13   0  16 241.411 30.6412   2
 -13   0  16 250.039 27.8615   3
  13   0 -16 291.012 35.0997   2
 -12   0  16 25.3063 3.53666   2
 -12   0  16 35.7006 3.94095   3
  12   0 -16 28.0399 3.32972   3
  12   0 -16 27.9770 3.76962   2
 -11   0  16 59.5096 6.70977   3
 -11   0  16 58.3752 7.49165   2
  11   0 -16 53.4684 6.27487   3
  11   0 -16 67.5411 8.34868   2
  10   0 -16 424.309 47.8312   3
 -10   0  16 464.187 50.5963   3
  10   0 -16 468.377 57.6436   2
 -10   0  16 472.681 58.0140   2
   9   0 -16 4.89565 0.85760   3
  -9   0  16 3.89035 0.70360   3
   9   0 -16 3.38881 0.89223   2
  -9   0  16 5.29913 1.03519   2
  -8   0  16 85.6425 9.56849   3
   8   0 -16 83.3111 9.42557   3
   8   0 -16 87.7181 11.0624   2
  -8   0  16 92.6364 11.4981   2
   7   0 -16 116.222 13.0472   3
  -7   0  16 139.199 14.6807   3
  -7   0  16 120.838 15.1662   2
   7   0 -16 113.591 14.5264   2
   6   0 -16 79.1814 9.17923   3
  -6   0  16 92.3893 11.5169   2
   6   0 -16 97.8717 12.0177   2
  -5   0  16 2.26574 0.77450   2
  -5   0  16 2.07062 0.48418   3
   5   0 -16 1.44008 0.46754   3
   5   0 -16 1.63684 0.72605   2
   4   0 -16 51.9625 6.57603   2
  -4   0  16 51.9680 5.71574   3
   4   0 -16 44.7715 5.20919   3
   3   0 -16 70.4981 7.84538   3
  -3   0  16 77.1646 9.56998   2
  -3   0  16 65.3819 7.48273   3
   3   0 -16 70.6798 8.96090   2
  -2   0  16 17.2928 2.62229   2
   2   0 -16 23.4619 2.64802   3
  -2   0  16 23.0765 2.62532   3
   2   0 -16 24.6677 3.22129   2
  -1   0  16 84.1483 9.31487   3
   1   0 -16 83.0132 10.5264   2
  -1   0  16 81.4230 10.3808   2
   1   0 -16 85.8483 9.43414   3
   0   0  16 130.387 15.5338   2
   0   0 -16 82.7055 10.0762   3
   0   0 -16 123.592 14.8905   2
  -1   0 -16 18.4207 2.10961   3
   1   0  16 13.2333 1.74207   3
  -1   0 -16 14.9393 2.20331   2
   1   0  16 20.7111 2.75690   2
   2   0  16 144.834 18.6029   2
  -2   0 -16 175.196 21.3345   2
   2   0  16 157.864 17.4031   3
  -2   0 -16 158.178 17.4244   3
   3   0  16 686.078 75.8891   3
  -3   0 -16 688.616 85.8134   2
  -3   0 -16 721.260 78.3665   3
   3   0  16 725.054 89.0834   2
   4   0  16 16.2721 1.90523   3
   4   0  16 15.1252 2.19837   2
  -4   0 -16 12.4673 1.62406   3
  -4   0 -16 13.1185 2.02020   2
  -5   0 -16 13.4053 2.06131   2
   5   0  16 15.6967 2.26910   2
  -5   0 -16 14.4017 1.78490   3
   5   0  16 14.3543 1.81071   3
   6   0  16 89.4908 11.4589   2
   6   0  16 100.913 10.8920   3
  -6   0 -16 101.682 10.9505   3
  -6   0 -16 81.9661 10.8079   2
  -7   0 -16 19.8676 2.83543   2
   7   0  16 19.3836 2.78680   2
   8   0  16 2.28273 0.88000   2
  -8   0 -16 0.49706 0.71131   2
   9   0  16 49.9194 6.25805   2
  -9   0 -16 36.5388 5.03936   2
  10   0  16 43.1880 5.83008   2
 -10   0 -16 52.9989 6.70537   2
 -11   0 -16 8.20500 1.42037   2
 -12   0 -16 4.71742 1.04708   2
  12   0  16 6.78931 1.37088   2
  21  -1 -16 -0.5246 0.64400   2
 -21   1  16 -0.3294 0.58231   2
 -20  -1  16 -0.5341 0.60165   2
  20  -1 -16 -0.1000 0.67140   2
  20   1 -16 0.28111 0.60087   2
 -20   1  16 -0.2341 0.68961   2
 -19  -1  16 22.6508 3.14821   2
  19  -1 -16 21.6711 3.03174   2
 -19   1  16 20.5097 2.92968   2
  19   1 -16 23.1792 3.17533   2
  18  -1 -16 3.85717 0.95833   2
 -18  -1  16 4.73433 1.07434   2
 -18   1  16 4.51071 1.05939   2
  18   1 -16 3.06582 0.84517   2
  17  -1 -16 0.71677 0.72158   2
 -17  -1  16 1.40719 0.62367   2
 -17   1  16 0.09324 0.55056   2
  17   1 -16 0.23665 0.54899   2
 -16  -1  16 92.8021 12.0637   2
  16  -1 -16 105.549 13.1883   2
 -16   1  16 101.163 12.7945   2
  16   1 -16 109.340 13.5406   2
  15  -1 -16 0.35204 0.67528   2
 -15  -1  16 0.73314 0.58943   2
  15   1 -16 -0.0166 0.56983   2
 -15   1  16 0.15074 0.65826   2
 -14  -1  16 14.1158 2.01640   3
  14  -1 -16 16.7379 2.46405   2
 -14  -1  16 22.8438 3.00357   2
  14   1 -16 16.7674 2.49218   2
 -14   1  16 22.6236 2.98801   2
 -13  -1  16 34.6981 4.48243   2
 -13  -1  16 31.0380 3.69991   3
  13  -1 -16 26.4797 3.76735   2
  13   1 -16 35.8882 4.64699   2
 -13   1  16 34.7007 4.48299   2
  13   1 -16 30.5805 3.68889   3
 -12  -1  16 6.23849 1.10356   2
  12  -1 -16 5.50074 1.10782   2
  12   1 -16 5.99572 1.02590   3
  12   1 -16 7.10140 1.26931   2
 -12   1  16 5.23277 0.86832   3
 -12   1  16 4.19133 0.93837   2
  11  -1 -16 149.139 18.6437   2
 -11  -1  16 173.722 18.2725   3
 -11  -1  16 161.143 19.7106   2
 -11   1  16 168.550 20.3887   2
  11   1 -16 117.118 15.8684   2
 -11   1  16 141.313 15.8698   3
  11   1 -16 154.131 16.8466   3
 -10  -1  16 5.56195 1.02326   2
  10  -1 -16 6.33989 0.93116   3
  10  -1 -16 7.88816 1.28758   2
 -10  -1  16 6.15428 0.98772   3
  10   1 -16 7.50552 1.24976   2
 -10   1  16 6.95681 0.95185   3
 -10   1  16 5.41418 1.08991   2
  10   1 -16 7.07700 1.08086   3
   9  -1 -16 9.86583 1.27314   3
  -9  -1  16 9.49643 1.31410   3
  -9  -1  16 10.8590 1.60405   2
   9  -1 -16 8.47618 1.44411   2
   9   1 -16 8.71142 1.29292   3
  -9   1  16 11.1416 1.67139   2
   9   1 -16 12.7898 1.82587   2
   8  -1 -16 0.09599 0.37610   3
  -8  -1  16 0.53203 0.45179   3
   8  -1 -16 0.01643 0.54871   2
  -8  -1  16 -0.2809 0.50009   2
  -8   1  16 0.76244 0.41446   3
   8   1 -16 0.51619 0.53792   3
  -8   1  16 0.10205 0.58472   2
   8   1 -16 -0.3714 0.50382   2
   7  -1 -16 87.1488 9.94213   3
   7  -1 -16 93.9361 11.8590   2
  -7  -1  16 106.643 11.3943   3
  -7   1  16 80.1592 9.47083   3
   7   1 -16 90.3065 11.5479   2
  -7   1  16 129.561 15.1841   2
   7   1 -16 98.1266 10.7885   3
  -6  -1  16 6.01414 0.88741   3
   6  -1 -16 8.98625 1.09910   3
   6  -1 -16 5.84813 1.08430   2
  -6   1  16 6.99014 0.94629   3
  -6   1  16 4.36500 0.97728   2
   6   1 -16 5.87814 0.92586   3
   6   1 -16 7.51218 1.24438   2
  -5  -1  16 161.128 18.1785   3
   5  -1 -16 168.775 21.1797   2
   5  -1 -16 177.924 19.3225   3
   5   1 -16 182.208 22.3792   2
  -5   1  16 161.551 20.5496   2
   5   1 -16 182.009 19.6732   3
   4  -1 -16 130.356 14.4914   3
   4  -1 -16 136.986 17.0279   2
  -4  -1  16 144.760 17.7429   2
  -4  -1  16 128.788 14.4148   3
   4   1 -16 140.133 17.3018   2
   4   1 -16 136.974 15.0106   3
  -4   1  16 123.572 14.0266   3
  -4   1  16 129.784 16.3790   2
   3  -1 -16 57.2347 7.48110   2
   3  -1 -16 62.4985 6.95272   3
  -3  -1  16 62.8026 7.00611   3
  -3  -1  16 64.9036 8.17053   2
  -3   1  16 77.9186 9.39274   2
   3   1 -16 54.3419 6.43374   3
  -3   1  16 64.6543 7.11519   3
  -2  -1  16 53.8187 6.07947   3
   2  -1 -16 58.4178 6.37277   3
  -2  -1  16 56.2389 7.15946   2
   2  -1 -16 56.7970 7.19443   2
   2   1 -16 49.1471 5.75660   3
  -2   1  16 54.6496 6.11019   3
  -1  -1  16 27.7460 3.15972   3
   1  -1 -16 24.4347 2.87110   3
   1  -1 -16 35.8506 4.41560   2
  -1  -1  16 25.1733 3.41927   2
   1   1 -16 23.1922 2.85128   3
  -1   1  16 25.1021 2.92816   3
   0  -1 -16 42.3092 4.67965   3
   0  -1  16 38.4359 4.43848   3
   0  -1  16 38.9395 5.15015   2
   0  -1  16 35.3937 4.20441   3
   0  -1 -16 42.3419 5.42288   2
   0   1 -16 45.9376 5.77958   2
   0   1  16 39.6007 4.49374   3
   0   1 -16 39.6358 4.52715   3
   1  -1  16 106.560 11.7051   3
  -1  -1 -16 117.003 14.2605   2
  -1  -1 -16 87.1151 10.3069   3
   1  -1  16 110.027 13.6300   2
   1  -1  16 86.3591 10.2752   3
  -1   1 -16 115.247 12.3279   3
  -1   1 -16 141.478 16.5790   2
   1   1  16 95.4718 12.3411   2
   2  -1  16 8.95209 1.16798   3
   2  -1  16 8.63781 1.17568   3
  -2  -1 -16 8.35158 1.12291   3
   2  -1  16 8.46022 1.43793   2
   2   1  16 6.71751 1.02880   3
   2   1  16 7.33796 1.36848   2
  -2   1 -16 7.68076 1.37932   2
  -2   1 -16 7.97387 1.13593   3
   3  -1  16 1.81856 0.75077   2
   3  -1  16 2.65486 0.60409   3
   3  -1  16 1.49444 0.51943   3
  -3  -1 -16 1.77584 0.48142   3
  -3   1 -16 1.54684 0.71382   2
   3   1  16 1.51083 0.69760   2
   3   1  16 1.07561 0.48046   3
  -3   1 -16 2.09881 0.65877   3
   4  -1  16 33.8797 3.85962   3
   4  -1  16 28.1088 3.93375   2
  -4  -1 -16 33.5922 3.78779   3
  -4   1 -16 28.6017 3.96940   2
   4   1  16 41.2852 5.14073   2
   4   1  16 33.3074 3.78361   3
  -5  -1 -16 3.72192 1.00350   2
   5  -1  16 3.17859 0.71285   3
  -5  -1 -16 4.17444 0.75181   3
   5  -1  16 3.57518 0.94273   2
   5   1  16 4.58810 1.06039   2
   5   1  16 3.96610 0.76002   3
  -5   1 -16 5.31480 1.08789   2
  -5   1 -16 4.88297 0.84283   3
  -6  -1 -16 77.6629 8.76211   3
  -6  -1 -16 76.0944 9.85070   2
   6  -1  16 66.2363 8.99073   2
  -6   1 -16 83.0527 9.20198   3
   6   1  16 92.8040 11.3809   2
  -6   1 -16 100.418 12.0783   2
   7  -1  16 -0.2928 0.71052   2
  -7  -1 -16 0.11223 0.44175   3
  -7  -1 -16 -0.3215 0.59633   2
  -7   1 -16 -0.0518 0.67768   2
   7   1  16 0.21766 0.48508   3
   7   1  16 -0.2866 0.59805   2
  -8  -1 -16 1.43525 0.74858   2
   8  -1  16 3.29893 1.00945   2
   8   1  16 4.41243 1.03900   2
  -8   1 -16 1.85348 0.83357   2
   9  -1  16 23.2890 3.20861   2
  -9  -1 -16 25.6608 3.40415   2
  -9   1 -16 17.9176 2.70020   2
   9   1  16 20.3282 2.92936   2
 -10  -1 -16 1.58038 0.81074   2
  10  -1  16 0.78425 0.80394   2
 -10   1 -16 -0.0823 0.69621   2
  10   1  16 0.41229 0.76022   2
  11  -1  16 33.2239 4.30658   2
 -11  -1 -16 27.1444 3.74032   2
  11   1  16 26.1623 3.67829   2
 -11   1 -16 24.4345 3.45377   2
  21  -2 -16 2.93653 0.83786   2
 -21   2  16 2.13475 0.79712   2
  20  -2 -16 4.46697 1.04463   2
 -20   2  16 6.07701 1.19190   2
 -19  -2  16 1.87821 0.77697   2
  19  -2 -16 1.37139 0.77084   2
  19   2 -16 0.59891 0.71907   2
 -19   2  16 0.79214 0.70395   2
  18  -2 -16 3.51316 0.86108   2
 -18   2  16 4.29024 0.95717   2
  18   2 -16 3.17021 0.89327   2
  17  -2 -16 10.3294 1.70261   2
  17   2 -16 9.06780 1.55990   2
 -16  -2  16 -0.8362 0.60828   2
  16  -2 -16 0.19925 0.68489   2
 -15  -2  16 4.78291 1.11920   2
  15  -2 -16 4.47475 1.12326   2
 -14  -2  16 16.8549 2.24881   3
 -14  -2  16 21.5499 2.92470   2
  14  -2 -16 23.8686 3.14563   2
  14   2 -16 19.5218 2.49311   3
  14   2 -16 15.3165 2.38638   2
  13  -2 -16 7.53761 1.32951   2
 -13  -2  16 6.91607 1.17568   3
 -13  -2  16 6.37569 1.21023   2
  13   2 -16 5.63546 1.23915   2
  13   2 -16 6.55877 1.13501   3
 -13   2  16 4.29348 1.00106   2
 -12  -2  16 5.33391 0.97507   3
 -12  -2  16 7.05352 1.23155   2
  12   2 -16 6.54049 1.24095   2
 -12   2  16 5.32986 1.05695   2
  12   2 -16 6.02446 1.08135   3
  11  -2 -16 -0.4349 0.33860   3
 -11  -2  16 0.88751 0.59681   3
 -11  -2  16 0.11242 0.55201   2
  11   2 -16 -0.6960 0.59775   3
 -11   2  16 0.00000 0.59514   2
 -11   2  16 0.27271 0.36580   3
  11   2 -16 0.24087 0.60829   2
 -10  -2  16 0.33647 0.56105   3
 -10  -2  16 -0.2423 0.61203   2
  10   2 -16 -0.2694 0.57888   2
 -10   2  16 0.01707 0.60357   2
  10   2 -16 0.43122 0.62588   3
 -10   2  16 0.70918 0.40542   3
  -9  -2  16 62.7239 8.73357   2
  -9  -2  16 90.9053 9.86858   3
   9  -2 -16 82.2579 9.13513   3
   9  -2 -16 91.0478 11.2211   2
   9   2 -16 84.7122 9.43565   3
  -9   2  16 85.3980 10.6991   2
  -9   2  16 92.1379 9.86015   3
   9   2 -16 89.5889 11.1012   2
   8  -2 -16 20.2697 2.31362   3
  -8  -2  16 17.7594 2.51273   2
   8  -2 -16 18.8570 2.62945   2
  -8  -2  16 18.8024 2.31637   3
  -8   2  16 19.7022 2.70171   2
   8   2 -16 19.1172 2.63377   2
  -8   2  16 16.5971 2.04926   3
   7  -2 -16 40.3484 5.63262   2
  -7  -2  16 59.6261 6.43999   3
  -7  -2  16 58.3489 7.23988   2
   7  -2 -16 45.7869 5.36263   3
   7   2 -16 52.9910 6.73947   2
   7   2 -16 57.2430 6.28924   3
  -7   2  16 53.4126 5.89291   3
  -7   2  16 54.1622 6.85599   2
   6  -2 -16 31.7860 4.18500   2
  -6  -2  16 34.0539 3.86558   3
   6  -2 -16 27.2750 3.29772   3
  -6  -2  16 26.5784 3.73106   2
   6   2 -16 35.5653 3.98458   3
   6   2 -16 38.9728 4.85190   2
  -6   2  16 30.3750 4.08247   2
  -6   2  16 35.5977 3.88536   3
  -5  -2  16 6.55021 1.22104   2
  -5  -2  16 7.33191 1.06838   3
   5  -2 -16 8.98870 1.39710   2
   5   2 -16 8.02023 1.15418   3
  -5   2  16 5.89835 0.86951   3
   5   2 -16 5.08235 1.02505   2
  -5   2  16 6.16111 1.17175   2
  -4  -2  16 3.90423 0.88846   2
  -4  -2  16 3.95672 0.74997   3
   4  -2 -16 3.57767 0.85195   2
   4  -2 -16 3.47509 0.65271   3
  -4   2  16 3.87215 0.85633   2
   4   2 -16 3.37602 0.74578   3
   4   2 -16 4.28257 0.89561   2
  -3  -2  16 39.9834 4.54041   3
  -3  -2  16 39.8581 5.15193   2
   3  -2 -16 38.5378 4.35781   3
   3  -2 -16 37.7468 4.97840   2
   3   2 -16 46.4847 5.78242   2
  -3   2  16 36.3450 4.21618   3
   3   2 -16 36.1788 4.28127   3
  -3   2  16 37.4728 4.95206   2
  -2  -2  16 3.06278 0.77530   2
  -2  -2  16 2.65365 0.65807   3
   2  -2 -16 3.41274 0.64227   3
   2  -2 -16 3.84023 0.88287   2
   2   2 -16 3.10123 0.80496   2
  -2   2  16 2.97699 0.61249   3
  -2   2  16 3.17217 0.78008   2
   1  -2 -16 75.7433 10.2218   2
  -1  -2  16 103.415 12.6547   2
   1  -2 -16 101.028 10.8549   3
  -1  -2  16 83.5024 9.68144   3
  -1   2  16 83.1469 10.8414   2
   1   2 -16 106.251 12.9285   2
  -1   2  16 98.4373 10.6701   3
   1   2 -16 107.216 11.3978   3
   0  -2  16 33.1001 4.36494   2
   0  -2 -16 32.3595 3.69164   3
   0  -2  16 30.3400 3.62693   3
   0  -2 -16 35.3361 4.54623   2
   0   2 -16 28.9175 3.54377   3
   0   2 -16 41.0585 5.12923   2
   0   2  16 32.1246 4.26858   2
   0   2  16 31.4476 3.63985   3
   1  -2  16 8.98551 1.46709   2
   1  -2  16 8.73872 1.24724   3
  -1  -2 -16 9.67586 1.57372   2
   1   2  16 9.54550 1.23115   3
  -1   2 -16 9.33362 1.50821   2
   1   2  16 8.77205 1.49257   2
  -1   2 -16 7.43810 1.19963   3
   2  -2  16 20.4447 2.69078   3
  -2  -2 -16 25.5502 2.97036   3
   2  -2  16 25.9142 3.49915   2
  -2  -2 -16 29.9801 3.88382   2
   2   2  16 29.1177 3.79977   2
  -2   2 -16 32.6053 4.14896   2
  -2   2 -16 22.8771 2.87707   3
  -3  -2 -16 0.52257 0.46448   3
   3  -2  16 0.40631 0.47640   3
   3  -2  16 -0.4291 0.63212   2
  -3  -2 -16 -0.2432 0.52885   2
   3   2  16 -0.3580 0.50987   2
  -3   2 -16 0.98947 0.71981   2
   3   2  16 -0.2567 0.47855   3
  -4  -2 -16 2.37344 0.83016   2
   4  -2  16 2.12733 0.64312   3
  -4  -2 -16 0.95672 0.46994   3
   4  -2  16 2.65948 0.82588   2
   4   2  16 1.20107 0.56371   3
   4   2  16 3.10996 0.88126   2
  -4   2 -16 1.26951 0.72733   2
  -4   2 -16 0.58399 0.56807   3
  -5  -2 -16 32.4132 4.17434   2
   5  -2  16 17.8121 2.88003   2
   5  -2  16 23.8427 2.99576   3
  -5  -2 -16 30.3969 3.36694   3
  -5   2 -16 27.2929 3.24346   3
   5   2  16 28.8339 3.27312   3
   5   2  16 27.4960 3.69454   2
  -5   2 -16 33.5624 4.30604   2
  -6  -2 -16 5.64516 1.17250   2
   6   2  16 4.42031 1.06694   2
  -6   2 -16 5.74040 1.32710   2
   6   2  16 5.17235 0.91938   3
   7  -2  16 7.19989 1.38808   2
  -7  -2 -16 6.35735 0.98158   3
  -7  -2 -16 5.97829 1.29089   2
   7   2  16 5.43940 1.24166   2
   7   2  16 6.19203 0.99220   3
  -7   2 -16 8.30274 1.44154   2
   8  -2  16 29.3903 3.88933   2
  -8  -2 -16 39.1773 4.83188   2
  -8  -2 -16 24.9317 2.95428   3
  -8   2 -16 20.4366 3.02937   2
   8   2  16 23.5125 3.36138   2
  -9  -2 -16 9.33996 1.73270   2
   9  -2  16 21.0718 2.84236   2
   9   2  16 15.7296 2.30365   2
  -9   2 -16 13.0125 1.97893   2
 -10  -2 -16 3.33318 1.01561   2
 -10   2 -16 3.75342 0.96588   2
 -11   2 -16 4.60623 1.06962   2
  19  -3 -16 1.01145 0.71649   2
 -19   3  16 -1.0000 0.63911   2
  18  -3 -16 1.04816 0.72200   2
 -18   3  16 1.45081 0.74778   2
  17  -3 -16 12.4360 1.96122   2
 -17   3  16 16.9065 2.37201   2
  16  -3 -16 31.0874 4.17981   2
 -16   3  16 29.6372 4.07252   2
  15  -3 -16 81.1132 10.1531   2
 -15  -3  16 75.0077 8.56588   3
 -15   3  16 76.7072 9.73272   2
  15   3 -16 71.8002 8.38158   3
  14  -3 -16 27.3157 3.68207   2
 -14  -3  16 23.2898 2.99118   3
 -14   3  16 29.7159 3.88128   2
  14   3 -16 24.0576 3.40315   2
 -13  -3  16 26.7189 3.43063   3
 -13  -3  16 35.7556 4.61869   2
  13  -3 -16 27.4325 3.83894   2
  13   3 -16 32.9163 3.91249   3
  13   3 -16 33.3058 4.37016   2
 -13   3  16 34.3056 4.44647   2
 -12  -3  16 29.0426 4.05047   2
  12  -3 -16 40.1328 5.05499   2
 -12  -3  16 36.2498 4.14825   3
  12   3 -16 25.6480 3.73567   2
 -12   3  16 42.6285 5.30353   2
  12   3 -16 32.1841 3.88937   3
  11  -3 -16 0.10051 0.54316   2
 -11  -3  16 0.01975 0.58454   3
 -11  -3  16 0.14959 0.57157   2
  11   3 -16 0.00000 0.66846   3
  11   3 -16 0.57284 0.57892   2
 -11   3  16 0.55746 0.54776   2
 -10  -3  16 83.5876 9.08319   3
 -10  -3  16 72.1972 9.26482   2
  10  -3 -16 74.2928 8.26627   3
  10  -3 -16 89.6356 10.8705   2
  10   3 -16 83.7713 9.10139   3
 -10   3  16 75.1695 8.33666   3
  10   3 -16 58.1696 8.06317   2
 -10   3  16 73.7827 9.39234   2
  -9  -3  16 15.9527 2.40746   2
   9  -3 -16 18.2324 2.19539   3
   9  -3 -16 22.8081 3.00141   2
  -9  -3  16 22.4884 2.69020   3
   9   3 -16 22.5535 2.99818   2
  -9   3  16 21.8085 2.92383   2
  -9   3  16 17.8742 2.18719   3
   8  -3 -16 86.4912 9.88730   3
  -8  -3  16 87.8338 11.3068   2
   8  -3 -16 90.7362 11.5710   2
  -8  -3  16 106.118 11.4301   3
  -8   3  16 84.9569 11.0756   2
   8   3 -16 99.6682 10.9792   3
   8   3 -16 105.032 12.8647   2
  -8   3  16 100.536 10.8897   3
  -7  -3  16 0.54043 0.56210   3
   7  -3 -16 0.14704 0.47671   3
   7  -3 -16 -0.1662 0.48984   2
  -7   3  16 -0.0356 0.46839   3
   7   3 -16 0.78872 0.63921   3
  -7   3  16 0.51874 0.54236   2
   7   3 -16 -0.4174 0.51243   2
  -6  -3  16 65.4597 7.33040   3
   6  -3 -16 59.4717 6.78467   3
   6  -3 -16 67.8406 8.52306   2
  -6   3  16 63.2553 7.07025   3
   6   3 -16 58.2602 7.62259   2
   6   3 -16 72.6015 7.88177   3
  -6   3  16 60.4519 7.83528   2
   5  -3 -16 54.5684 5.67471   3
  -5  -3  16 43.0398 5.56877   2
  -5  -3  16 38.5430 4.62609   3
   5  -3 -16 39.7425 5.27900   2
   5   3 -16 40.9417 4.81855   3
   5   3 -16 43.7333 5.65017   2
  -5   3  16 37.9905 5.14375   2
  -5   3  16 46.1363 5.05268   3
   4  -3 -16 104.145 13.7644   2
  -4  -3  16 107.013 12.5471   3
  -4  -3  16 168.730 19.6780   2
   4   3 -16 141.572 15.0174   3
  -4   3  16 111.091 14.3734   2
  -4   3  16 140.117 14.7938   3
  -3  -3  16 8.12434 1.39920   2
  -3  -3  16 8.60885 1.23909   3
   3  -3 -16 6.91975 1.22444   2
   3  -3 -16 8.99364 1.13606   3
  -3   3  16 6.39214 1.01978   3
  -3   3  16 6.53656 1.23066   2
   2  -3 -16 16.4400 1.90972   3
  -2  -3  16 15.1842 2.19575   2
  -2  -3  16 13.6361 1.84565   3
   2  -3 -16 13.8748 2.08750   2
  -2   3  16 16.8065 1.96163   3
   2   3 -16 13.7971 1.89416   3
   2   3 -16 13.8798 2.14108   2
  -2   3  16 15.7924 2.28120   2
  -1  -3  16 236.922 28.4263   2
   1  -3 -16 211.789 26.1212   2
   1  -3 -16 214.232 23.1164   3
  -1  -3  16 160.950 19.5665   3
   1   3 -16 198.617 24.9233   2
  -1   3  16 204.473 22.4295   3
  -1   3  16 225.780 27.3816   2
   1   3 -16 200.537 22.2676   3
   0  -3  16 4.42735 1.00667   2
   0  -3 -16 3.69683 0.66401   3
   0  -3 -16 4.44774 0.98524   2
   0  -3  16 4.01335 0.83779   3
   0   3 -16 4.32390 0.92867   2
   0   3  16 3.24147 0.71084   3
   0   3 -16 3.50065 0.88159   3
  -1  -3 -16 0.63357 0.55495   2
   1  -3  16 -0.2785 0.53412   3
  -1  -3 -16 0.02601 0.40049   3
   1  -3  16 -0.6449 0.52775   2
   1   3  16 0.04309 0.48192   3
  -1   3 -16 0.03892 0.63872   3
  -1   3 -16 0.34670 0.61287   2
   2  -3  16 2.43783 0.85726   2
   2  -3  16 2.42964 0.72034   3
  -2   3 -16 4.24631 0.93997   3
   2   3  16 2.90611 0.86493   2
  -2   3 -16 2.42551 0.81831   2
   2   3  16 2.33565 0.57335   3
   3  -3  16 -0.1602 0.54281   3
  -3  -3 -16 0.34306 0.40414   3
   3  -3  16 0.66620 0.70649   2
   3   3  16 2.29757 0.94060   2
  -3   3 -16 0.22777 0.69881   3
  -3   3 -16 -0.0546 0.57220   2
   3   3  16 0.84429 0.51571   3
  -4  -3 -16 29.3484 3.83659   2
   4  -3  16 21.4205 3.10420   2
  -4  -3 -16 23.4062 2.76761   3
   4  -3  16 27.4740 3.19920   3
   4   3  16 17.6278 2.38774   3
  -4   3 -16 30.3997 3.93849   2
   4   3  16 26.4695 3.56164   2
  -4   3 -16 24.3671 3.02252   3
   5  -3  16 57.0770 7.09490   2
  -5  -3 -16 42.1826 5.77249   2
   5   3  16 43.7093 5.89982   2
  -5   3 -16 55.5869 6.98052   2
  -6  -3 -16 10.5781 1.71932   2
   6  -3  16 7.83825 1.46616   2
  -6  -3 -16 10.7425 1.36139   3
   6   3  16 6.02588 1.05657   3
   6   3  16 11.1096 1.76539   2
  -6   3 -16 10.5553 1.75266   2
   7  -3  16 90.1063 11.5134   2
  -7  -3 -16 114.059 13.7496   2
  -7  -3 -16 81.3718 9.52614   3
  -7   3 -16 93.7447 11.8660   2
   7   3  16 91.7190 11.6791   2
   7   3  16 90.0728 10.1206   3
   8  -3  16 3.46343 0.99353   2
  -8  -3 -16 4.66429 0.83745   3
   8   3  16 2.98557 0.72261   3
  -8   3 -16 3.77457 1.06687   2
   9  -3  16 -0.2545 0.64988   2
  -9   3 -16 -0.3704 0.72748   2
  17  -4 -16 5.34721 1.09463   2
  16  -4 -16 2.11579 0.72900   2
 -16   4  16 0.75753 0.67409   2
 -15  -4  16 12.0264 1.75833   3
  15   4 -16 11.9593 1.79004   3
 -15   4  16 13.2604 2.00685   2
  14   4 -16 1.21113 0.77269   3
 -14   4  16 -0.0155 0.62340   2
 -13  -4  16 1.55152 0.73245   3
  13   4 -16 0.87777 0.80134   3
 -13   4  16 1.52399 0.76159   2
 -12  -4  16 31.6940 3.80226   3
  12   4 -16 32.6311 3.87382   3
 -12   4  16 28.3492 3.91266   2
 -11  -4  16 27.2192 3.27905   3
  11   4 -16 23.9236 3.07675   3
 -11   4  16 26.6226 3.60003   2
  10  -4 -16 4.26432 1.08533   2
 -10  -4  16 2.88551 0.82187   3
 -10   4  16 2.74996 0.87725   2
  10   4 -16 3.82260 0.94660   3
   9  -4 -16 33.1370 4.04107   3
   9  -4 -16 44.2945 5.69256   2
   9   4 -16 43.8396 4.98750   3
  -9   4  16 46.9284 5.90558   2
  -9   4  16 37.7146 4.38320   3
   8  -4 -16 4.07484 0.72512   3
  -8  -4  16 6.25325 1.09083   3
   8  -4 -16 7.89625 1.46623   2
  -8   4  16 3.86122 0.97222   2
   8   4 -16 5.88046 1.12932   3
   7  -4 -16 128.275 15.4287   2
  -7  -4  16 99.5885 11.4402   3
   7  -4 -16 106.519 11.7865   3
  -7   4  16 119.148 14.5932   2
   7   4 -16 87.5113 10.6442   3
  -7   4  16 113.757 12.3159   3
   6  -4 -16 21.6269 3.10657   2
  -6  -4  16 25.7869 3.12801   3
   6  -4 -16 25.8511 2.97045   3
  -6   4  16 24.5463 3.37780   2
  -6   4  16 30.6452 3.33873   3
   6   4 -16 25.2710 3.14446   3
   5  -4 -16 1.52334 0.45690   3
   5  -4 -16 1.95424 0.81123   2
  -5  -4  16 1.86250 0.68229   3
  -5   4  16 2.21311 0.76532   2
   5   4 -16 1.26825 0.68404   3
  -5   4  16 1.53366 0.49525   3
   4  -4 -16 20.5846 2.47425   3
  -4  -4  16 23.2175 2.83273   3
   4  -4 -16 26.4279 3.44522   2
  -4   4  16 26.5442 2.92764   3
  -4   4  16 17.4251 2.64641   2
   3  -4 -16 3.74838 1.00648   2
  -3   4  16 3.41299 0.66867   3
   3   4 -16 4.44816 1.05764   3
  -3   4  16 4.27018 1.03093   2
  -2  -4  16 4.78178 0.96155   3
   2  -4 -16 3.13594 0.60172   3
  -2   4  16 4.26536 0.98508   2
   2   4 -16 3.17515 0.96890   3
  -2   4  16 1.70847 0.56337   3
  -1  -4  16 46.9537 5.21275   3
   1  -4 -16 41.9690 4.66594   3
   1   4 -16 34.2589 4.34501   3
  -1   4  16 39.0691 4.46941   3
   0  -4  16 5.81273 1.09819   3
   0  -4 -16 4.59451 0.76548   3
   0   4 -16 5.81998 1.14571   2
   0   4  16 3.47453 0.73454   3
   0   4 -16 6.24405 1.19951   3
   1  -4  16 20.7018 2.57513   3
   1  -4  16 16.8544 2.51957   2
  -1  -4 -16 20.5746 2.35334   3
  -1   4 -16 18.9181 2.68055   2
   1   4  16 16.5063 2.07148   3
  -1   4 -16 15.9926 2.25210   3
   2  -4  16 108.308 13.2857   2
  -2  -4 -16 98.2223 10.8093   3
  -2   4 -16 76.0981 10.4264   2
   2   4  16 96.0126 10.6574   3
  -2   4 -16 120.607 12.6898   3
  -3  -4 -16 3.83531 0.68839   3
   3  -4  16 3.30648 1.01303   2
   3  -4  16 3.39534 0.89560   3
  -3   4 -16 3.72649 0.98056   2
   3   4  16 4.23091 0.80627   3
  -3   4 -16 4.00263 0.98829   3
   4  -4  16 13.5854 2.11906   2
  -4  -4 -16 14.2677 1.77893   3
  -4   4 -16 14.8832 2.23895   2
   4   4  16 13.8989 1.78390   3
  -5  -4 -16 -0.0800 0.50395   3
   5  -4  16 -1.1542 0.69364   2
  -5   4 -16 0.85446 0.78670   2
   5   4  16 0.32323 0.53077   3
  -6  -4 -16 1.09235 0.53800   3
   6  -4  16 3.14691 0.96027   2
  -6   4 -16 3.24832 1.00259   2
   6   4  16 2.00990 0.66508   3
  -7  -4 -16 10.6128 1.39696   3
   7   4  16 9.54060 1.36002   3
 -14  -5  16 4.28386 0.92940   3
  14   5 -16 3.73002 0.97372   3
 -13  -5  16 0.58798 0.69361   3
  13   5 -16 0.20727 0.75234   3
 -12  -5  16 19.6672 2.57423   3
  12   5 -16 24.4333 2.97253   3
 -11  -5  16 2.76490 0.77659   3
  11   5 -16 1.98198 0.87916   3
 -10  -5  16 4.32901 0.94054   3
  10   5 -16 4.99222 1.11733   3
  -9  -5  16 11.0856 1.61138   3
   9   5 -16 11.3336 1.74830   3
   8  -5 -16 0.54811 0.43740   3
  -8  -5  16 0.00000 0.53655   3
  -8   5  16 0.40394 0.49901   3
   8   5 -16 0.38433 0.74008   3
  -7  -5  16 1.61126 0.74085   3
   7  -5 -16 1.46254 0.47058   3
   7   5 -16 1.83125 0.84472   3
  -7   5  16 1.30071 0.56092   3
   6  -5 -16 3.92725 0.66661   3
  -6  -5  16 2.50680 0.81825   3
  -6   5  16 2.24370 0.56527   3
   6   5 -16 3.13602 0.93283   3
  -5  -5  16 20.2359 2.65739   3
   5  -5 -16 22.8961 2.67963   3
  -5   5  16 23.7267 2.74432   3
   4  -5 -16 8.31089 1.14169   3
   4   5 -16 7.68271 1.40420   3
  -4   5  16 8.04995 1.15695   3
  -3  -5  16 19.8390 2.44406   3
   3  -5 -16 13.4252 1.76821   3
   3   5 -16 18.9282 2.45986   3
  -3   5  16 16.7959 2.02180   3
  -2  -5  16 0.86004 0.76313   3
  -2   5  16 3.63791 0.68240   3
   2   5 -16 3.04517 1.01297   3
   1  -5 -16 0.72252 0.42817   3
  -1  -5  16 0.38878 0.72117   3
  -1   5  16 1.15455 0.51216   3
   1   5 -16 1.18590 0.80025   3
   0  -5  16 3.90218 0.99652   3
   0  -5 -16 3.57794 0.68760   3
   0   5 -16 2.97536 1.01261   3
   0   5  16 3.50595 0.71197   3
   1  -5  16 12.6357 1.84647   3
  -1  -5 -16 11.0870 1.50689   3
  -1   5 -16 15.4250 2.17154   3
   1   5  16 15.3649 1.83662   3
   2  -5  16 15.5704 2.25596   3
  -2  -5 -16 18.9852 2.26909   3
  -2   5 -16 19.8976 2.65138   3
   2   5  16 19.7409 2.34458   3
  -3  -5 -16 7.68069 1.15895   3
   3   5  16 11.1750 1.41112   3
  -4  -5 -16 30.4645 3.52222   3
  -5  -5 -16 20.4347 2.44664   3
   5   5  16 20.5210 2.50035   3
  -6  -5 -16 1.07704 0.52270   3
   6   5  16 0.69572 0.57380   3
 -12  -6  16 0.20091 0.46431   3
  12   6 -16 0.32104 0.61515   3
 -11  -6  16 0.76075 0.67665   3
 -10  -6  16 11.5160 1.65171   3
  10   6 -16 9.23076 1.55885   3
  -9  -6  16 0.94350 0.66546   3
   9   6 -16 0.48545 0.69585   3
  -8  -6  16 14.6567 1.97019   3
   8   6 -16 14.1350 2.01190   3
  -7  -6  16 4.64098 0.97451   3
   7  -6 -16 3.03058 0.64411   3
   7   6 -16 3.82295 1.01315   3
  -6  -6  16 1.68437 0.72852   3
  -6   6  16 1.49180 0.60362   3
   6   6 -16 0.63809 0.85357   3
   5  -6 -16 0.82065 0.43520   3
  -5   6  16 1.07386 0.48263   3
   5   6 -16 1.05512 0.80401   3
   4  -6 -16 3.21116 0.63432   3
  -4  -6  16 1.55894 0.74831   3
   4   6 -16 3.07823 1.00353   3
  -4   6  16 3.58353 0.70919   3
  -3  -6  16 0.41259 0.56324   3
   3  -6 -16 0.70691 0.49057   3
   3   6 -16 -0.5045 0.66677   3
  -3   6  16 0.51531 0.53337   3
  -2  -6  16 16.6398 2.06850   3
   2  -6 -16 9.96446 1.35586   3
  -2   6  16 9.93097 1.36126   3
   2   6 -16 9.80748 1.61509   3
  -1  -6  16 7.67817 1.25161   3
  -1   6  16 6.18425 1.02776   3
   0  -6  16 5.98508 1.11693   3
   0  -6 -16 6.14424 0.94805   3
   0   6  16 5.22311 0.95657   3
  -1  -6 -16 1.55075 0.56375   3
   1   6  16 2.84037 0.65959   3
  -2  -6 -16 0.56569 0.50477   3
   2   6  16 0.83238 0.56979   3
  -3  -6 -16 16.9785 2.14088   3
   3   6  16 19.5699 2.36195   3
  21   0 -17 0.71959 0.69064   2
 -21   0  17 -0.7479 0.65638   2
  20   0 -17 0.50887 0.65604   2
 -20   0  17 -0.0948 0.62075   2
  19   0 -17 -0.2651 0.62787   2
  18   0 -17 0.96196 0.63833   2
 -17   0  17 -0.1432 0.67196   2
  17   0 -17 0.08144 0.68780   2
 -16   0  17 0.86539 0.67247   2
 -15   0  17 -0.6620 0.68353   2
 -14   0  17 -0.4445 0.62126   2
  14   0 -17 0.20377 0.86717   2
 -13   0  17 -0.4851 0.65715   2
  13   0 -17 0.00992 0.40192   3
 -13   0  17 -0.0368 0.47686   3
  13   0 -17 0.16568 0.53693   2
 -12   0  17 -0.1426 0.56022   2
  12   0 -17 0.15702 0.68539   2
 -12   0  17 0.41608 0.50211   3
 -11   0  17 0.71118 0.66437   2
  11   0 -17 0.68458 0.65592   2
  11   0 -17 -0.8955 0.48124   3
 -11   0  17 -0.1704 0.42128   3
 -10   0  17 0.14765 0.49981   2
 -10   0  17 0.28495 0.44244   3
  10   0 -17 0.52038 0.50931   3
  10   0 -17 0.26561 0.57091   2
   9   0 -17 -0.4355 0.42370   3
  -9   0  17 0.57798 0.46223   3
  -9   0  17 0.18817 0.50416   2
   9   0 -17 0.50032 0.52425   2
  -8   0  17 -0.0684 0.39439   3
  -8   0  17 -0.3202 0.59404   2
   8   0 -17 0.63346 0.53582   2
   8   0 -17 0.42496 0.45711   3
  -7   0  17 0.29949 0.30243   3
   7   0 -17 0.50813 0.61991   2
  -7   0  17 0.35436 0.66161   2
   6   0 -17 -0.0939 0.35263   3
  -6   0  17 0.57974 0.53586   2
   6   0 -17 -0.4668 0.47539   2
  -5   0  17 -0.4835 0.32993   3
  -5   0  17 -0.6359 0.49958   2
   5   0 -17 -0.0651 0.35584   3
   5   0 -17 -0.2859 0.52637   2
  -4   0  17 -0.0177 0.60784   2
   4   0 -17 1.17679 0.64611   2
   4   0 -17 0.16825 0.42245   3
  -4   0  17 0.08671 0.40096   3
   3   0 -17 0.44054 0.53649   2
  -3   0  17 0.28582 0.37903   3
  -3   0  17 -0.5931 0.60013   2
   3   0 -17 -0.3814 0.39279   3
  -2   0  17 0.61573 0.41473   3
  -2   0  17 -0.0861 0.57496   2
   2   0 -17 0.08456 0.48171   2
   2   0 -17 -0.1099 0.38810   3
   1   0 -17 0.64012 0.61148   2
  -1   0  17 -0.0346 0.41455   3
  -1   0  17 0.61370 0.67185   2
   1   0 -17 0.20079 0.40099   3
   0   0  17 -0.4634 0.61260   2
   0   0 -17 -0.9875 0.47640   2
   0   0 -17 0.33785 0.38580   3
  -1   0 -17 -0.1919 0.49700   2
   1   0  17 -0.0179 0.54628   2
  -1   0 -17 0.83055 0.40519   3
   1   0  17 -0.1040 0.41447   3
  -2   0 -17 1.57523 0.76561   2
   2   0  17 -0.0733 0.73907   2
  -2   0 -17 0.65378 0.49352   3
   2   0  17 0.37522 0.51064   3
   3   0  17 0.23000 0.59076   2
   3   0  17 -0.3098 0.39454   3
  -3   0 -17 -0.6930 0.57312   2
  -3   0 -17 0.32530 0.45008   3
   4   0  17 0.28436 0.47530   3
  -4   0 -17 -0.1097 0.59270   2
  -4   0 -17 -0.8625 0.47477   3
   4   0  17 -0.3186 0.59109   2
  -5   0 -17 0.12432 0.51291   3
   5   0  17 1.96372 0.82803   2
  -5   0 -17 0.72767 0.76985   2
  -6   0 -17 -0.0850 0.45456   3
  -6   0 -17 0.83619 0.73385   2
   6   0  17 -0.0173 0.66245   2
   6   0  17 -0.4657 0.43546   3
  -7   0 -17 -0.3047 0.72164   2
   7   0  17 -1.3060 0.70278   2
  -8   0 -17 -0.3101 0.78834   2
   8   0  17 -0.8334 0.64435   2
   9   0  17 -0.5413 0.80594   2
  -9   0 -17 0.31822 0.81602   2
 -10   0 -17 0.15583 0.73123   2
 -11   0 -17 -0.9257 0.67344   2
  21  -1 -17 10.7764 1.78881   2
 -21   1  17 14.6078 2.13431   2
 -20  -1  17 21.2929 2.90257   2
  20  -1 -17 21.0640 2.86148   2
 -20   1  17 13.9777 2.24738   2
  20   1 -17 17.1273 2.52036   2
 -19  -1  17 10.5714 1.68398   2
  19  -1 -17 10.6828 1.63650   2
 -19   1  17 6.39695 1.28052   2
  19   1 -17 8.72884 1.50074   2
 -18  -1  17 9.25650 1.58763   2
  18  -1 -17 8.62745 1.50863   2
 -18   1  17 11.8760 1.84549   2
  18   1 -17 7.94221 1.46137   2
  17  -1 -17 8.42528 1.42812   2
 -17  -1  17 7.05688 1.31115   2
  17   1 -17 7.68776 1.36126   2
 -17   1  17 9.00021 1.47684   2
 -16  -1  17 47.3508 6.18063   2
  16  -1 -17 51.2304 6.55770   2
  16   1 -17 45.1938 6.00593   2
 -16   1  17 48.0458 6.23934   2
  15  -1 -17 44.9275 5.87003   2
 -15  -1  17 40.6352 5.46750   2
 -15   1  17 44.4190 5.80906   2
  15   1 -17 51.5717 6.47089   2
 -14  -1  17 0.78346 0.58881   3
  14  -1 -17 0.00000 0.65172   2
 -14  -1  17 1.19324 0.63868   2
 -14   1  17 0.82854 0.71631   2
  14   1 -17 1.32652 0.71598   3
  14   1 -17 1.31028 0.69522   2
 -13  -1  17 0.87785 0.69094   2
  13  -1 -17 1.41116 0.74958   2
 -13  -1  17 1.92793 0.65442   3
 -13   1  17 1.70671 0.73256   2
  13   1 -17 2.11001 0.88712   2
  13   1 -17 1.86581 0.74235   3
  12  -1 -17 -0.0169 0.61407   2
 -12  -1  17 0.77915 0.60988   2
  12   1 -17 0.78433 0.65126   2
 -12   1  17 1.28419 0.72139   2
  12   1 -17 0.78514 0.60450   3
 -12   1  17 -0.1309 0.44523   3
 -11  -1  17 8.81753 1.35045   3
 -11  -1  17 9.83392 1.60938   2
  11  -1 -17 12.0144 1.81764   2
 -11   1  17 13.9966 1.97148   2
  11   1 -17 9.47840 1.57256   2
 -11   1  17 12.0458 1.48350   3
  11   1 -17 10.6481 1.48541   3
  10  -1 -17 29.2550 3.95218   2
 -10  -1  17 27.2265 3.33972   3
  10  -1 -17 33.5425 3.73334   3
 -10  -1  17 28.8472 3.88634   2
 -10   1  17 30.4517 4.04513   2
  10   1 -17 33.9948 3.84772   3
  10   1 -17 37.1913 4.68402   2
 -10   1  17 27.8246 3.30593   3
   9  -1 -17 54.0971 6.50021   3
  -9  -1  17 68.9124 7.59245   3
   9  -1 -17 57.8952 7.66184   2
  -9  -1  17 72.6091 8.96042   2
  -9   1  17 66.5508 7.34774   3
  -9   1  17 76.4971 9.32885   2
   9   1 -17 73.0024 7.90915   3
   9   1 -17 61.0630 7.92728   2
   8  -1 -17 68.9259 7.38213   3
  -8  -1  17 55.2334 6.45153   3
   8  -1 -17 55.2388 7.28512   2
  -8  -1  17 65.6035 8.19094   2
   8   1 -17 64.5996 7.13935   3
   8   1 -17 73.1410 8.92136   2
  -8   1  17 54.5585 7.20962   2
  -8   1  17 57.7657 6.57427   3
   7  -1 -17 69.3402 8.05040   3
   7  -1 -17 79.2616 9.99747   2
  -7   1  17 91.2643 11.0996   2
   7   1 -17 78.2069 8.73158   3
  -7   1  17 81.0855 8.87627   3
   7   1 -17 73.4673 9.48354   2
  -6  -1  17 148.669 16.1694   3
   6  -1 -17 150.348 18.5253   2
  -6   1  17 133.777 15.0749   3
   6   1 -17 134.364 15.1763   3
  -6   1  17 151.195 18.6025   2
   6   1 -17 137.192 17.3537   2
  -5  -1  17 36.9918 4.05894   3
   5  -1 -17 28.0564 3.36551   3
   5  -1 -17 31.5437 4.21229   2
   5   1 -17 30.7368 4.12408   2
   5   1 -17 34.1678 3.87935   3
  -5   1  17 34.3852 4.44195   2
   4  -1 -17 1.78292 0.48389   3
  -4  -1  17 2.53042 0.59639   3
   4  -1 -17 4.80279 0.99354   2
  -4  -1  17 1.22557 0.69593   2
  -4   1  17 2.01367 0.52466   3
   4   1 -17 3.39830 0.68234   3
   4   1 -17 1.49378 0.69025   2
  -4   1  17 2.88189 0.80454   2
  -3  -1  17 29.4890 3.86124   2
   3  -1 -17 31.8212 4.05400   2
   3  -1 -17 23.6238 2.86825   3
  -3  -1  17 27.3340 3.16493   3
  -3   1  17 23.9222 3.34746   2
  -3   1  17 30.1386 3.34150   3
   3   1 -17 26.3289 3.10765   3
  -2  -1  17 -0.4418 0.52070   2
   2  -1 -17 -0.5334 0.36130   3
   2  -1 -17 0.17566 0.56931   2
  -2  -1  17 0.91142 0.45640   3
   2   1 -17 1.04673 0.46331   3
  -2   1  17 -0.1982 0.41204   3
   1  -1 -17 15.1567 1.88285   3
  -1  -1  17 15.7116 2.30977   2
   1  -1 -17 17.9492 2.48452   2
   1   1 -17 20.1972 2.30243   3
  -1   1  17 15.8256 1.95176   3
   0  -1 -17 1.72545 0.73195   2
   0  -1  17 1.62902 0.53343   3
   0  -1  17 1.47173 0.67994   2
   0   1 -17 1.55323 0.55951   3
   0   1 -17 1.78589 0.65627   2
   0   1  17 1.91011 0.54326   3
   1  -1  17 66.0900 7.47589   3
   1  -1  17 74.1675 9.23954   2
  -1  -1 -17 69.0860 8.77000   2
  -1  -1 -17 63.8432 7.27586   3
  -1   1 -17 71.4375 8.97984   2
  -1   1 -17 64.7902 7.39598   3
   1   1  17 66.4387 8.53919   2
  -2  -1 -17 112.306 12.0088   3
   2  -1  17 110.747 11.9344   3
   2  -1  17 97.0012 12.4061   2
  -2   1 -17 87.6450 11.5908   2
   2   1  17 106.931 13.3036   2
   2   1  17 87.6177 10.2782   3
  -2   1 -17 123.388 12.8799   3
   3  -1  17 -0.0228 0.45622   3
  -3  -1 -17 0.27301 0.47506   3
   3  -1  17 -0.4071 0.55629   2
   3   1  17 1.31464 0.73522   2
  -3   1 -17 -0.3495 0.57819   2
   3   1  17 0.52148 0.42264   3
  -3   1 -17 -0.3206 0.48636   3
  -4  -1 -17 30.3854 3.33936   3
   4  -1  17 21.2952 3.14950   2
   4  -1  17 36.1054 3.88598   3
  -4  -1 -17 22.5193 3.29132   2
  -4   1 -17 25.8980 3.07205   3
   4   1  17 29.5284 3.29104   3
   4   1  17 28.3623 3.77380   2
  -4   1 -17 22.4651 3.25133   2
  -5  -1 -17 63.4239 7.14363   3
   5  -1  17 64.5285 8.27616   2
  -5  -1 -17 60.3790 7.92891   2
   5  -1  17 66.1363 7.38712   3
  -5   1 -17 78.9924 9.60749   2
  -5   1 -17 61.8033 7.08530   3
   5   1  17 60.9607 7.96370   2
   5   1  17 64.2125 7.21526   3
   6  -1  17 13.0947 2.07797   2
  -6  -1 -17 15.4758 1.84867   3
  -6  -1 -17 15.1817 2.25876   2
  -6   1 -17 12.8853 2.04242   2
   6   1  17 13.3031 1.72729   3
   6   1  17 13.4661 2.09759   2
   7  -1  17 30.4827 4.15285   2
  -7  -1 -17 32.7145 4.35090   2
  -7  -1 -17 29.5741 3.46389   3
  -7   1 -17 31.0241 4.19338   2
   7   1  17 28.3733 3.96578   2
   7   1  17 33.2838 3.76823   3
   8  -1  17 0.10480 0.63476   2
  -8  -1 -17 -0.1762 0.57112   2
   8   1  17 1.36438 0.80403   2
  -8   1 -17 -0.1407 0.67366   2
  -9  -1 -17 20.9002 3.02892   2
   9  -1  17 23.3908 3.24650   2
   9   1  17 19.3900 2.91219   2
  -9   1 -17 26.4644 3.52109   2
  10  -1  17 5.65267 1.20719   2
 -10  -1 -17 5.23260 1.15240   2
  10   1  17 5.02479 1.16902   2
 -10   1 -17 5.97754 1.23927   2
  11  -1  17 1.23252 0.81331   2
 -11   1 -17 0.10042 0.67493   2
  20  -2 -17 16.2934 2.43252   2
 -20   2  17 18.1853 2.57251   2
  19  -2 -17 19.2672 2.80855   2
 -19  -2  17 21.5155 3.04123   2
 -19   2  17 23.5626 3.15873   2
 -18  -2  17 0.67066 0.65889   2
  18  -2 -17 0.25207 0.68100   2
 -18   2  17 1.01476 0.71207   2
  18   2 -17 -0.3679 0.52720   2
  17  -2 -17 17.9885 2.50324   2
  17   2 -17 12.3639 1.98170   2
  16  -2 -17 1.88128 0.84437   2
 -16  -2  17 3.35210 0.95708   2
  15  -2 -17 43.1953 5.61600   2
 -15  -2  17 39.1709 4.69424   3
 -15  -2  17 41.4109 5.45267   2
 -14  -2  17 39.7058 5.34541   2
  14  -2 -17 40.3815 5.39312   2
 -14  -2  17 44.7254 5.14162   3
  14   2 -17 43.0556 5.65802   2
 -14   2  17 47.0693 6.08946   2
  14   2 -17 44.5747 5.17113   3
 -13  -2  17 7.12459 1.26821   2
  13   2 -17 7.77915 1.42148   2
 -13   2  17 4.66895 1.06538   2
  13   2 -17 5.42034 1.08239   3
 -12  -2  17 89.1294 9.79932   3
 -12  -2  17 70.4716 9.43183   2
  12   2 -17 87.6418 9.72074   3
  12   2 -17 88.5088 11.0476   2
 -12   2  17 85.5136 10.7510   2
 -11  -2  17 130.503 14.3416   3
 -11  -2  17 102.305 13.7626   2
  11  -2 -17 128.008 14.0635   3
 -11   2  17 128.089 15.9976   2
 -11   2  17 147.622 15.4931   3
  11   2 -17 126.384 15.8580   2
  11   2 -17 135.093 14.7052   3
 -10  -2  17 11.7697 1.74555   2
 -10  -2  17 10.0177 1.46129   3
  10  -2 -17 10.7172 1.35243   3
 -10   2  17 12.1615 1.48599   3
  10   2 -17 8.66242 1.38596   3
  10   2 -17 11.7070 1.76414   2
 -10   2  17 10.2305 1.59718   2
   9  -2 -17 0.00000 0.35352   3
  -9  -2  17 1.16691 0.55589   3
   9  -2 -17 0.98536 0.60733   2
  -9  -2  17 0.15227 0.49904   2
  -9   2  17 -0.0653 0.57756   2
   9   2 -17 0.76006 0.53601   2
   9   2 -17 0.04829 0.53275   3
  -9   2  17 0.37292 0.37492   3
   8  -2 -17 42.4628 5.46482   2
   8  -2 -17 41.0719 4.63604   3
  -8  -2  17 32.5130 4.60512   2
  -8  -2  17 45.0356 5.02016   3
   8   2 -17 39.6739 5.22779   2
   8   2 -17 42.8488 4.87028   3
  -8   2  17 45.9981 5.79613   2
  -8   2  17 43.0698 4.77798   3
   7  -2 -17 20.2016 2.63442   3
   7  -2 -17 28.0765 3.71666   2
  -7  -2  17 28.0018 3.70930   2
  -7  -2  17 30.3348 3.43685   3
   7   2 -17 30.2147 3.44665   3
   7   2 -17 28.5957 3.76676   2
  -7   2  17 25.6046 3.51180   2
  -7   2  17 29.7904 3.30514   3
   6  -2 -17 44.4812 4.72336   3
  -6  -2  17 30.7043 4.25898   2
  -6  -2  17 33.5026 4.00281   3
   6  -2 -17 32.7908 4.44748   2
  -6   2  17 47.8521 5.84650   2
  -6   2  17 37.8088 4.23054   3
   6   2 -17 41.3309 5.22842   2
   6   2 -17 33.8172 4.04672   3
  -5  -2  17 33.2761 4.19382   2
   5  -2 -17 23.6104 3.24386   2
  -5  -2  17 19.5328 2.59317   3
   5   2 -17 26.7223 3.55197   2
  -5   2  17 26.1430 3.52095   2
   5   2 -17 25.4832 3.03006   3
  -5   2  17 27.0532 3.04005   3
   4  -2 -17 1.82029 0.45427   3
  -4  -2  17 0.72647 0.61363   2
  -4  -2  17 1.22614 0.53611   3
   4  -2 -17 0.61404 0.59104   2
  -4   2  17 0.91040 0.73824   2
   4   2 -17 1.82835 0.69854   2
  -4   2  17 0.60052 0.41012   3
   4   2 -17 2.04008 0.63002   3
  -3  -2  17 89.4126 10.1500   3
   3  -2 -17 96.3985 12.0746   2
  -3  -2  17 88.9318 11.4097   2
   3  -2 -17 98.4468 10.7170   3
   3   2 -17 96.7818 12.1098   2
   3   2 -17 103.482 11.1688   3
  -3   2  17 84.7253 9.75118   3
  -3   2  17 94.9721 11.9587   2
   2  -2 -17 381.900 48.6717   2
  -2  -2  17 446.487 47.9469   3
   2  -2 -17 395.728 44.2704   3
  -2  -2  17 434.461 53.3285   2
   2   2 -17 401.146 50.3460   2
  -2   2  17 451.364 48.2159   3
   2   2 -17 416.845 45.8247   3
  -2   2  17 434.745 53.3619   2
   1  -2 -17 22.8778 3.09629   2
  -1  -2  17 25.2190 2.87427   3
  -1  -2  17 14.8252 2.40454   2
   1  -2 -17 21.9536 2.54484   3
   1   2 -17 26.8111 3.46687   2
  -1   2  17 23.2373 2.66984   3
  -1   2  17 21.1959 2.95550   2
   1   2 -17 22.1732 2.67999   3
   0  -2  17 2.92562 0.85241   2
   0  -2  17 3.26446 0.68507   3
   0  -2 -17 2.96171 0.77187   2
   0  -2 -17 3.41952 0.62369   3
   0   2  17 2.09919 0.71859   2
   0   2 -17 4.62984 0.98569   2
   0   2  17 1.93607 0.56121   3
   0   2 -17 3.54135 0.77819   3
   1  -2  17 204.909 21.5554   3
  -1  -2 -17 206.770 24.7980   2
   1  -2  17 184.511 22.7701   2
   1   2  17 179.414 19.6292   3
   1   2  17 162.617 20.8011   2
  -1   2 -17 175.960 22.0133   2
  -1   2 -17 144.783 17.3193   3
  -2  -2 -17 25.8713 2.95112   3
   2  -2  17 27.7797 3.17243   3
   2  -2  17 26.2765 3.52497   2
  -2  -2 -17 27.7078 3.65563   2
  -2   2 -17 17.7950 2.77791   2
   2   2  17 21.5645 2.66296   3
   2   2  17 26.6609 3.54773   2
  -2   2 -17 25.4039 3.01833   3
   3  -2  17 1.42776 0.72925   2
  -3  -2 -17 1.20523 0.50208   3
   3  -2  17 0.50731 0.59104   3
  -3  -2 -17 0.75959 0.68051   2
  -3   2 -17 -0.1645 0.68464   2
   3   2  17 0.99320 0.73799   2
   3   2  17 1.24100 0.52374   3
  -4  -2 -17 -0.3996 0.66555   2
  -4  -2 -17 -0.2187 0.42543   3
   4  -2  17 1.03207 0.73406   2
   4  -2  17 -0.6996 0.53075   3
  -4   2 -17 0.76746 0.71791   2
  -4   2 -17 0.37669 0.64978   3
   4   2  17 0.21475 0.70309   2
   4   2  17 0.79572 0.48378   3
   5  -2  17 42.4820 5.67044   2
  -5  -2 -17 46.9942 6.10944   2
  -5  -2 -17 49.8100 5.45964   3
   5   2  17 43.4731 5.00354   3
  -5   2 -17 48.5548 6.24840   2
   5   2  17 41.7957 5.62875   2
  -6  -2 -17 17.9625 2.69306   2
   6  -2  17 17.2184 2.59408   2
  -6   2 -17 18.3757 2.68166   2
   6   2  17 24.8567 3.30762   2
  -7  -2 -17 1.28900 0.72229   2
   7  -2  17 -0.1956 0.68269   2
  -7  -2 -17 1.23283 0.51876   3
   7   2  17 0.76122 0.53990   3
   7   2  17 0.57059 0.64687   2
  -7   2 -17 0.51023 0.66371   2
  -8  -2 -17 19.0862 2.77236   2
   8  -2  17 24.4363 3.24861   2
  -8   2 -17 17.9805 2.63034   2
   8   2  17 16.5039 2.50586   2
  -9  -2 -17 18.4766 2.70965   2
   9  -2  17 15.9697 2.50116   2
  -9   2 -17 27.4026 3.53833   2
  10  -2  17 16.6465 2.57460   2
 -10   2 -17 16.0331 2.36398   2
  19  -3 -17 1.79425 0.80295   2
 -19   3  17 0.17246 0.69517   2
  18  -3 -17 -0.2058 0.63729   2
 -18   3  17 0.15546 0.61068   2
  17  -3 -17 3.97027 0.93015   2
 -17   3  17 4.85276 1.01286   2
  16  -3 -17 0.85476 0.69055   2
 -16   3  17 0.83957 0.65888   2
 -15  -3  17 13.1635 1.84316   3
  15  -3 -17 11.3780 1.79493   2
 -15   3  17 10.3720 1.73244   2
  15   3 -17 10.5283 1.71336   3
 -14  -3  17 13.6098 1.89441   3
  14  -3 -17 16.2652 2.31539   2
 -14   3  17 11.9688 1.92744   2
 -13  -3  17 5.61987 1.16017   2
 -13  -3  17 4.48771 0.95786   3
  13  -3 -17 5.09464 1.10587   2
  13   3 -17 5.40767 1.07291   3
  13   3 -17 4.26127 0.99858   2
 -13   3  17 5.43232 1.09941   2
 -12  -3  17 1.14019 0.69672   2
 -12  -3  17 1.34766 0.69475   3
  12  -3 -17 1.21179 0.80696   2
 -12   3  17 1.07571 0.72373   2
  12   3 -17 0.75855 0.71527   2
  12   3 -17 0.19122 0.66354   3
  11  -3 -17 -0.2495 0.75130   2
 -11  -3  17 -0.4136 0.54686   2
 -11  -3  17 -0.4543 0.62666   3
  11   3 -17 0.73487 0.57203   3
 -11   3  17 0.28300 0.65397   2
  11   3 -17 0.44016 0.66504   2
  10  -3 -17 7.87348 1.46225   2
 -10  -3  17 3.16915 0.88569   3
 -10  -3  17 4.01642 0.95548   2
  10  -3 -17 3.63165 0.69237   3
 -10   3  17 3.79839 0.91881   2
  10   3 -17 2.89166 0.85218   3
  10   3 -17 3.90175 0.98522   2
 -10   3  17 3.38732 0.66479   3
  -9  -3  17 22.7962 3.02339   2
   9  -3 -17 15.3029 2.31131   2
   9  -3 -17 19.9466 2.30531   3
  -9  -3  17 14.3164 2.07446   3
  -9   3  17 21.1251 2.85035   2
   9   3 -17 21.0142 2.84554   2
   8  -3 -17 59.5706 6.74521   3
  -8  -3  17 60.5945 6.95565   3
   8  -3 -17 55.9651 7.38980   2
  -8  -3  17 57.9660 7.58478   2
  -8   3  17 58.5375 6.67710   3
   8   3 -17 63.3969 8.05550   2
   8   3 -17 78.3899 8.30467   3
  -8   3  17 71.0077 8.74355   2
  -7  -3  17 8.22044 1.25426   3
   7  -3 -17 6.32977 1.26876   2
   7  -3 -17 8.57852 1.13326   3
   7   3 -17 6.73357 1.24181   2
  -7   3  17 9.55882 1.56242   2
  -7   3  17 9.79938 1.24598   3
   7   3 -17 8.83966 1.35779   3
  -6  -3  17 0.41651 0.56258   3
   6  -3 -17 -0.0337 0.57898   2
   6  -3 -17 -0.0773 0.38993   3
  -6   3  17 0.15266 0.63301   2
   6   3 -17 -0.2542 0.51600   2
   6   3 -17 0.90957 0.64201   3
  -6   3  17 -0.0532 0.46720   3
  -5  -3  17 63.4348 7.72666   2
   5  -3 -17 43.2654 5.09590   3
   5  -3 -17 46.3392 6.10331   2
  -5  -3  17 48.3689 5.57483   3
   5   3 -17 46.4087 6.11432   2
   5   3 -17 52.8166 5.90902   3
  -5   3  17 46.9426 5.36481   3
  -5   3  17 50.2979 6.45617   2
  -4  -3  17 1.25439 0.66621   3
   4  -3 -17 2.78209 0.83347   2
  -4  -3  17 5.02386 1.04325   2
   4   3 -17 1.96921 0.72113   3
  -4   3  17 2.17327 0.56805   3
  -4   3  17 1.92568 0.75455   2
   3  -3 -17 32.7121 4.21226   2
   3  -3 -17 33.4570 3.61851   3
  -3  -3  17 39.5458 4.86887   2
  -3  -3  17 26.5706 3.24081   3
  -3   3  17 19.3516 2.64686   3
  -3   3  17 29.2947 3.87487   2
  -2  -3  17 12.1278 1.86781   2
  -2  -3  17 15.0535 1.87380   3
   2  -3 -17 12.7957 1.94233   2
   2  -3 -17 11.8647 1.52548   3
   2   3 -17 11.9996 1.72430   3
  -2   3  17 13.7774 2.05131   2
  -2   3  17 11.2763 1.50900   3
  -1  -3  17 15.4912 2.13941   2
  -1  -3  17 10.5121 1.48949   3
   1  -3 -17 7.46909 1.48359   2
   1  -3 -17 13.1828 1.57249   3
  -1   3  17 10.6765 1.38684   3
   1   3 -17 8.20402 1.43600   2
   1   3 -17 10.5851 1.56202   3
   0  -3  17 3.96310 0.87951   3
   0  -3  17 6.64447 1.23308   2
   0  -3 -17 4.22721 0.79158   3
   0  -3 -17 5.70547 1.12934   2
   0   3  17 5.16188 0.86975   3
   0   3 -17 3.88178 1.01394   3
   0   3 -17 5.25658 1.10378   2
   1  -3  17 7.49616 1.17982   3
  -1  -3 -17 6.80382 1.25777   2
   1  -3  17 4.23439 1.10588   2
  -1  -3 -17 8.51752 1.12102   3
   1   3  17 8.20833 1.14870   3
   1   3  17 9.06680 1.49961   2
  -1   3 -17 5.71020 1.21202   2
  -1   3 -17 7.80507 1.32672   3
  -2  -3 -17 2.13993 0.60649   3
   2  -3  17 2.26008 0.70779   3
   2  -3  17 2.58165 0.87578   2
   2   3  17 2.00670 0.66500   3
  -2   3 -17 1.50173 0.78626   2
   2   3  17 3.71698 0.87495   2
   3  -3  17 3.70321 0.83535   3
  -3  -3 -17 3.15679 0.65932   3
   3  -3  17 2.57542 0.98615   2
  -3   3 -17 3.47083 0.90951   2
  -3   3 -17 3.06550 0.87763   3
   3   3  17 3.02055 0.89666   2
   3   3  17 2.52432 0.64490   3
  -4  -3 -17 7.87431 1.50493   2
  -4  -3 -17 9.53657 1.28223   3
   4  -3  17 8.86473 1.55779   2
  -4   3 -17 11.9780 1.86223   2
  -4   3 -17 8.24651 1.40288   3
   4   3  17 9.91015 1.33305   3
   4   3  17 8.46169 1.52061   2
   5  -3  17 6.37752 1.30700   2
  -5  -3 -17 6.10827 0.99513   3
  -5  -3 -17 8.02278 1.48575   2
   5   3  17 6.17397 1.03152   3
  -5   3 -17 8.22265 1.47424   2
   5   3  17 8.37571 1.53201   2
  -6  -3 -17 10.9509 1.35990   3
  -6  -3 -17 8.55528 1.53903   2
   6  -3  17 9.26409 1.60667   2
   6   3  17 10.4129 1.32919   3
  -6   3 -17 6.87693 1.39027   2
   6   3  17 4.63692 1.18075   2
   7  -3  17 13.7913 2.06747   2
  -7  -3 -17 10.1303 1.45519   3
  -7   3 -17 15.1015 2.26708   2
   8  -3  17 0.42266 0.72714   2
  -8   3 -17 0.58214 0.72836   2
 -16   4  17 1.11661 0.73468   2
 -15  -4  17 10.5692 1.58137   3
 -15   4  17 9.65258 1.64123   2
  15   4 -17 12.1919 1.77759   3
  14   4 -17 3.01860 0.94362   3
 -14   4  17 2.87450 0.87417   2
 -13  -4  17 0.24286 0.56617   3
  13   4 -17 -0.0872 0.70741   3
 -13   4  17 1.59051 0.74953   2
 -12  -4  17 20.1969 2.53896   3
  12   4 -17 21.6995 2.69773   3
 -12   4  17 16.7509 2.50061   2
 -11  -4  17 34.7361 4.14371   3
  11  -4 -17 34.8719 4.67941   2
  11   4 -17 38.4391 4.45586   3
 -11   4  17 32.9944 4.50342   2
  10  -4 -17 1.64418 0.86202   2
 -10  -4  17 1.44537 0.71379   3
 -10   4  17 3.48017 0.86741   2
 -10   4  17 2.51854 0.59787   3
  -8  -4  17 3.91488 0.88099   3
   8  -4 -17 3.00388 0.64841   3
   8  -4 -17 4.32883 0.92754   2
  -8   4  17 4.08140 0.88352   2
   8   4 -17 5.79725 1.11940   3
  -7  -4  17 0.63722 0.54763   3
   7  -4 -17 0.64907 0.45190   3
  -7   4  17 0.36540 0.56475   2
   7   4 -17 -0.6098 0.71871   3
  -7   4  17 0.76524 0.50899   3
   6  -4 -17 64.1696 6.85664   3
  -6  -4  17 56.0125 6.38980   3
   6  -4 -17 54.8966 7.06288   2
  -6   4  17 60.0389 6.54307   3
   6   4 -17 64.7062 7.05808   3
  -6   4  17 41.7891 5.93143   2
  -5  -4  17 29.1796 3.82475   3
   5  -4 -17 33.8827 3.99304   3
   5  -4 -17 38.4253 5.03343   2
  -5   4  17 44.7580 4.80118   3
  -5   4  17 40.7784 5.24109   2
   5   4 -17 43.4184 4.87558   3
  -4  -4  17 6.79365 1.28119   3
   4  -4 -17 11.6416 1.76569   2
   4  -4 -17 10.3114 1.29097   3
  -4   4  17 11.4962 1.73477   2
  -4   4  17 8.08131 1.16078   3
   3  -4 -17 39.8234 4.55115   3
  -3  -4  17 43.1537 4.95610   3
   3  -4 -17 41.8044 5.48280   2
   3   4 -17 36.3835 4.52187   3
  -3   4  17 42.6848 4.77676   3
  -3   4  17 41.4838 5.44581   2
   2  -4 -17 46.1232 5.38049   3
  -2  -4  17 50.2089 5.82966   3
   2   4 -17 50.1592 5.86716   3
  -2   4  17 59.5762 6.36345   3
   1  -4 -17 17.5273 2.09050   3
  -1  -4  17 16.3886 2.17519   3
   1   4 -17 15.3567 2.15534   3
  -1   4  17 17.3506 2.09276   3
   0  -4  17 0.70844 0.65281   3
   0  -4 -17 -0.2241 0.46492   3
   0   4  17 0.10313 0.52936   3
   0   4 -17 1.77610 0.80243   3
   0   4 -17 -0.4249 0.58431   2
   1  -4  17 12.3143 1.75777   3
   1  -4  17 13.1083 2.10485   2
  -1  -4 -17 11.5122 1.52746   3
   1   4  17 10.2430 1.46373   3
  -1   4 -17 16.4125 2.30419   2
   2  -4  17 0.01717 0.64066   2
   2  -4  17 0.23979 0.68824   3
  -2  -4 -17 -0.8089 0.45383   3
  -2   4 -17 -0.4657 0.72121   3
  -2   4 -17 1.23682 0.63229   2
   2   4  17 0.04251 0.46852   3
  -3  -4 -17 1.25286 0.54167   3
   3  -4  17 0.56241 0.78046   2
  -3   4 -17 1.47503 0.76451   3
  -3   4 -17 1.41388 0.72341   2
  -4  -4 -17 2.97855 0.67512   3
   4  -4  17 0.85498 0.83006   2
  -4   4 -17 1.96092 0.84056   2
   4   4  17 1.29599 0.61289   3
   5  -4  17 1.81554 0.83398   2
  -5  -4 -17 0.98501 0.53515   3
   5   4  17 0.13998 0.54883   3
  -6  -4 -17 4.83216 0.89588   3
   6   4  17 8.37486 1.18587   3
 -14  -5  17 2.80466 0.89985   3
  14   5 -17 2.27881 0.80133   3
 -13  -5  17 0.87501 0.59220   3
  13   5 -17 0.85868 0.65034   3
 -12  -5  17 5.88948 1.11469   3
  12   5 -17 7.89367 1.32952   3
 -11  -5  17 0.77031 0.65131   3
  11   5 -17 0.99147 0.79045   3
  10   5 -17 1.20551 0.79152   3
  -9  -5  17 16.3363 2.19125   3
   9   5 -17 18.2293 2.42473   3
  -8  -5  17 14.5714 1.91024   3
   8   5 -17 11.4780 1.76631   3
   7  -5 -17 1.61170 0.49678   3
  -7  -5  17 0.23983 0.65179   3
   7   5 -17 1.04076 0.78534   3
  -6  -5  17 27.8787 3.42854   3
   6  -5 -17 26.8599 3.18356   3
   6   5 -17 29.2779 3.58032   3
  -6   5  17 30.3187 3.44362   3
   5  -5 -17 26.5032 2.92868   3
  -5  -5  17 26.2037 3.05215   3
  -5   5  17 16.0152 2.14235   3
   4  -5 -17 6.07184 0.88767   3
  -4  -5  17 5.02977 0.99084   3
   4   5 -17 6.47566 1.24304   3
  -4   5  17 4.88259 0.82381   3
  -3  -5  17 5.89270 1.15458   3
   3  -5 -17 6.59662 0.98191   3
   3   5 -17 6.03344 1.18229   3
  -3   5  17 6.02065 0.96131   3
  -2  -5  17 2.34183 0.85433   3
   2  -5 -17 2.00340 0.56874   3
   2   5 -17 2.75421 0.90679   3
  -2   5  17 1.56219 0.56195   3
  -1  -5  17 8.68729 1.43382   3
   1  -5 -17 8.65351 1.20093   3
   1   5 -17 9.11725 1.48219   3
  -1   5  17 9.52260 1.29623   3
   0  -5  17 8.87581 1.51384   3
   0  -5 -17 9.56453 1.26181   3
   0   5  17 8.50240 1.22814   3
  -1  -5 -17 36.1047 4.38288   3
   1  -5  17 50.5887 5.65358   3
   1   5  17 42.0882 4.81130   3
  -1   5 -17 47.4897 5.44254   3
  -2  -5 -17 12.8347 1.62332   3
   2   5  17 12.3424 1.60217   3
   3   5  17 12.4663 1.61188   3
  -4  -5 -17 10.7158 1.42812   3
   4   5  17 10.0265 1.42808   3
  -5  -5 -17 8.46565 1.25533   3
   5   5  17 10.1144 1.40956   3
 -12  -6  17 4.06164 0.91914   3
  12   6 -17 4.21857 1.02988   3
 -11  -6  17 7.54141 1.24296   3
 -10  -6  17 7.41623 1.24592   3
  10   6 -17 7.41868 1.29447   3
  -9  -6  17 6.48088 1.12195   3
   9   6 -17 4.20491 1.03603   3
  -8  -6  17 -0.4313 0.56895   3
   8   6 -17 0.44913 0.72795   3
  -7  -6  17 -0.3383 0.55636   3
   7   6 -17 -0.1136 0.72106   3
  -6  -6  17 -0.0781 0.62562   3
  -6   6  17 0.54200 0.54933   3
   5  -6 -17 0.75731 0.51948   3
  -5  -6  17 0.69595 0.64797   3
   5   6 -17 0.83883 0.67558   3
  -5   6  17 1.83697 0.61957   3
   4  -6 -17 4.55266 0.84361   3
  -4  -6  17 5.34468 1.03450   3
  -4   6  17 5.46032 0.92987   3
   4   6 -17 5.53084 1.15879   3
  -3  -6  17 8.15905 1.36976   3
   3  -6 -17 8.33232 1.15929   3
   3   6 -17 8.54042 1.45212   3
  -3   6  17 10.0914 1.31348   3
  -2  -6  17 0.10269 0.54111   3
   2  -6 -17 -0.1381 0.48501   3
   2   6 -17 0.28672 0.74217   3
  -2   6  17 0.78377 0.57111   3
  -1  -6  17 1.26282 0.71433   3
   1  -6 -17 2.13584 0.63959   3
  -1   6  17 1.89621 0.64108   3
   0  -6 -17 1.81577 0.54914   3
   0   6  17 1.67679 0.62313   3
  -1  -6 -17 3.02283 0.69594   3
   1   6  17 3.02985 0.79648   3
  -2  -6 -17 12.6758 1.61185   3
   2   6  17 11.2129 1.53446   3
 -21   0  18 6.09305 1.21811   2
  21   0 -18 5.85732 1.20528   2
 -20   0  18 0.51311 0.67353   2
  20   0 -18 0.95044 0.70164   2
  19   0 -18 14.2427 2.13073   2
  18   0 -18 6.60147 1.28352   2
 -17   0  18 23.1982 3.18173   2
  17   0 -18 19.4171 2.84389   2
 -16   0  18 118.702 14.9511   2
 -15   0  18 9.06956 1.54589   2
  14   0 -18 9.51727 1.57643   2
 -14   0  18 8.07017 1.43796   2
  13   0 -18 24.6482 3.38178   2
 -13   0  18 25.7273 3.46490   2
  13   0 -18 24.6679 2.97379   3
 -13   0  18 23.8121 2.90953   3
  12   0 -18 107.389 12.9029   2
 -12   0  18 118.989 12.1349   3
 -12   0  18 67.0419 9.28995   2
  11   0 -18 -0.5278 0.53508   2
 -11   0  18 -0.1939 0.55391   2
 -11   0  18 -0.1748 0.44523   3
  11   0 -18 0.44600 0.54968   3
 -10   0  18 37.9255 4.11230   3
  10   0 -18 36.1801 4.61051   2
 -10   0  18 23.3592 3.46808   2
  10   0 -18 36.3269 4.03140   3
  -9   0  18 160.679 17.5609   3
  -9   0  18 151.302 19.1121   2
   9   0 -18 155.798 19.5196   2
   9   0 -18 156.797 17.3114   3
  -8   0  18 106.224 13.0551   2
   8   0 -18 87.3592 10.0833   3
   8   0 -18 99.5127 12.4480   2
  -8   0  18 95.0221 10.5996   3
  -7   0  18 243.994 27.1017   3
   7   0 -18 278.949 33.7838   2
  -7   0  18 237.175 30.0209   2
  -6   0  18 44.1234 5.75324   2
   6   0 -18 44.5331 5.07048   3
   6   0 -18 47.0078 6.02545   2
   5   0 -18 61.7043 7.80353   2
  -5   0  18 56.4664 7.32563   2
  -5   0  18 54.3802 6.28636   3
   5   0 -18 65.2190 7.06056   3
  -4   0  18 144.920 15.4883   3
  -4   0  18 137.761 17.0559   2
   4   0 -18 135.206 16.8338   2
   4   0 -18 114.720 13.3690   3
   3   0 -18 398.341 42.2369   3
  -3   0  18 318.967 36.6472   3
   3   0 -18 422.869 50.4071   2
  -3   0  18 332.972 42.3021   2
   2   0 -18 6.01069 0.92928   3
   2   0 -18 7.34752 1.30210   2
  -2   0  18 7.41194 1.30928   2
  -2   0  18 6.34638 0.95462   3
  -1   0  18 9.82905 1.57882   2
  -1   0  18 9.90195 1.30631   3
   1   0 -18 10.5481 1.63018   2
   0   0 -18 -0.6064 0.57799   2
   0   0  18 0.08850 0.64315   2
   0   0 -18 0.05589 0.45936   3
   1   0  18 86.0279 10.5847   2
  -1   0 -18 70.2217 9.15237   2
   1   0  18 71.1030 8.13404   3
  -1   0 -18 80.6527 8.81278   3
  -2   0 -18 4.56507 0.78551   3
   2   0  18 4.68736 0.77989   3
  -2   0 -18 4.00246 0.96671   2
   2   0  18 3.51308 0.97710   2
  -3   0 -18 43.2365 4.98252   3
   3   0  18 50.6675 5.51564   3
  -3   0 -18 47.9445 6.16241   2
   3   0  18 40.0828 5.44018   2
  -4   0 -18 55.5005 5.70543   3
   4   0  18 44.4754 5.60403   2
  -4   0 -18 29.4978 4.30515   2
   4   0  18 36.6959 4.26864   3
  -5   0 -18 15.4612 2.31168   2
  -5   0 -18 13.0171 1.73961   3
   5   0  18 14.8371 1.85534   3
   6   0  18 99.9466 13.0260   2
   6   0  18 109.151 12.1937   3
  -6   0 -18 133.633 14.0252   3
  -6   0 -18 108.886 13.8322   2
   7   0  18 -0.1543 0.60633   2
  -7   0 -18 -0.5921 0.61675   2
   8   0  18 22.3668 3.15741   2
  -8   0 -18 22.7908 3.20127   2
   9   0  18 94.7665 12.3470   2
  -9   0 -18 115.918 14.2498   2
 -10   0 -18 23.7719 3.32651   2
  21  -1 -18 8.80076 1.48722   2
 -21   1  18 4.84400 1.07190   2
  20  -1 -18 3.62775 0.91668   2
 -20  -1  18 4.78298 1.08738   2
 -20   1  18 3.15812 0.86516   2
  20   1 -18 5.13875 1.10908   2
  19  -1 -18 18.2954 2.59165   2
 -19  -1  18 18.5586 2.64083   2
 -19   1  18 15.7559 2.36800   2
  19   1 -18 16.1804 2.41825   2
 -18  -1  18 0.54368 0.56556   2
  18  -1 -18 -0.2915 0.69123   2
  18   1 -18 1.87657 0.72129   2
 -18   1  18 0.26487 0.58254   2
  17  -1 -18 19.9872 2.91069   2
 -17  -1  18 20.7702 2.99580   2
  17   1 -18 24.1248 3.25306   2
 -17   1  18 23.4072 3.20788   2
  16  -1 -18 0.38905 0.71439   2
 -16  -1  18 -0.5685 0.65691   2
 -16   1  18 0.26848 0.65925   2
  16   1 -18 0.61954 0.69074   2
 -15  -1  18 -0.7035 0.67409   2
  15   1 -18 0.13158 0.56533   2
  14  -1 -18 -0.3105 0.55912   2
 -14  -1  18 -0.4861 0.59093   3
 -14  -1  18 0.76807 0.59035   2
 -14   1  18 -0.2568 0.60518   2
  14   1 -18 0.74091 0.65266   3
  14   1 -18 0.22474 0.83195   2
  13  -1 -18 41.9968 5.65378   2
 -13  -1  18 50.3318 5.63981   3
 -13  -1  18 37.8390 5.28307   2
  13   1 -18 62.1335 7.51181   2
 -13   1  18 51.4814 6.49479   2
  12  -1 -18 22.7315 2.78106   3
 -12  -1  18 22.1222 2.76849   3
  12  -1 -18 20.4623 2.99857   2
  12   1 -18 26.1166 3.08338   3
 -12   1  18 24.1149 2.84094   3
  12   1 -18 28.4809 3.70396   2
 -12   1  18 24.1452 3.29108   2
  11  -1 -18 91.1604 9.60161   3
  11  -1 -18 64.9652 8.66938   2
 -11  -1  18 80.0804 8.80077   3
 -11  -1  18 72.5089 9.32710   2
 -11   1  18 80.2032 8.77243   3
  11   1 -18 79.5417 8.77049   3
 -11   1  18 69.4763 9.05942   2
  11   1 -18 73.8405 9.45187   2
 -10  -1  18 4.28440 0.83973   3
 -10  -1  18 4.74690 1.01763   2
  10  -1 -18 6.16941 1.10930   2
  10  -1 -18 5.45835 0.85356   3
 -10   1  18 5.58461 0.82728   3
 -10   1  18 2.58001 0.86055   2
  10   1 -18 5.51392 1.09265   2
  10   1 -18 5.34439 0.93116   3
  -9  -1  18 67.0800 8.26240   2
  -9  -1  18 56.8339 6.47898   3
   9  -1 -18 48.7405 6.62062   2
   9  -1 -18 58.5819 6.54122   3
   9   1 -18 58.8643 6.63734   3
   9   1 -18 64.0408 7.98212   2
  -9   1  18 56.8978 6.40693   3
  -9   1  18 58.1308 7.43538   2
  -8  -1  18 26.2599 3.07434   3
   8  -1 -18 20.7380 3.07116   2
   8  -1 -18 25.3429 2.97627   3
  -8  -1  18 27.4865 3.66965   2
   8   1 -18 29.2776 3.80256   2
  -8   1  18 30.5504 3.34825   3
  -8   1  18 26.8203 3.58917   2
   8   1 -18 26.2067 3.15489   3
   7  -1 -18 34.8244 4.00580   3
   7  -1 -18 40.5287 5.15447   2
   7   1 -18 42.6866 5.35974   2
   7   1 -18 33.1086 3.95209   3
  -7   1  18 31.9345 4.38862   2
  -7   1  18 37.2781 4.18182   3
   6  -1 -18 65.1015 8.57286   2
  -6  -1  18 76.4983 8.40784   3
   6   1 -18 80.0428 9.90912   2
   6   1 -18 81.9008 8.82603   3
  -6   1  18 69.8617 7.89591   3
  -6   1  18 69.3201 8.94606   2
   5  -1 -18 3.74900 0.88883   2
  -5  -1  18 3.22958 0.64524   3
   5  -1 -18 3.53713 0.62634   3
  -5   1  18 1.94765 0.73972   2
  -5   1  18 2.18458 0.55313   3
   5   1 -18 2.82535 0.63893   3
   5   1 -18 2.46663 0.75759   2
  -4  -1  18 11.9394 1.82262   2
   4  -1 -18 12.2788 1.52115   3
  -4  -1  18 13.7463 1.67685   3
   4  -1 -18 20.3015 2.65093   2
   4   1 -18 11.0322 1.50881   3
  -4   1  18 11.9110 1.82537   2
  -4   1  18 12.0794 1.51389   3
   4   1 -18 10.6598 1.70473   2
   3  -1 -18 6.59031 1.21029   2
   3  -1 -18 6.39516 0.90602   3
  -3  -1  18 7.54982 1.05236   3
  -3  -1  18 6.98152 1.24211   2
  -3   1  18 6.28098 0.92670   3
  -3   1  18 6.24357 1.21310   2
   3   1 -18 7.01552 1.04280   3
  -2  -1  18 5.92447 1.13678   2
  -2  -1  18 4.90055 0.80124   3
   2  -1 -18 4.78862 0.74985   3
   2  -1 -18 4.60870 1.04134   2
   2   1 -18 5.41796 0.94832   3
  -2   1  18 4.10148 0.73601   3
   1  -1 -18 19.5608 2.32972   3
  -1  -1  18 20.8888 2.90057   2
   1  -1 -18 19.6810 2.77603   2
   1   1 -18 21.7436 2.54716   3
  -1   1  18 19.6485 2.35480   3
   0  -1 -18 109.848 13.7643   2
   0  -1  18 127.849 13.4226   3
   0  -1  18 97.7443 12.6872   2
   0   1 -18 111.971 12.2571   3
   0   1  18 105.439 11.7638   3
   0   1 -18 100.150 12.8829   2
   1  -1  18 30.8326 4.17380   2
   1  -1  18 35.1795 3.93479   3
  -1  -1 -18 31.4116 4.23380   2
  -1  -1 -18 31.5304 3.62931   3
   1   1  18 32.9463 4.37034   2
  -1   1 -18 30.8436 4.17101   2
   1   1  18 30.8459 3.59714   3
  -1   1 -18 31.4210 3.67766   3
   2  -1  18 17.0474 2.06990   3
   2  -1  18 13.0031 2.07273   2
  -2  -1 -18 14.9526 1.86767   3
   2   1  18 15.0660 1.89324   3
  -2   1 -18 16.0448 1.99960   3
  -2   1 -18 17.2055 2.44692   2
   2   1  18 18.0992 2.53122   2
  -3  -1 -18 66.6638 7.24478   3
   3  -1  18 50.8859 6.96805   2
   3  -1  18 59.3062 6.76702   3
  -3   1 -18 67.8489 7.38651   3
   3   1  18 57.3528 6.59092   3
   3   1  18 73.3178 8.98900   2
  -3   1 -18 61.1485 7.86413   2
  -4  -1 -18 2.48115 0.58657   3
   4  -1  18 3.90986 0.95661   2
  -4  -1 -18 4.31670 1.07981   2
  -4   1 -18 2.78613 0.87095   2
   4   1  18 3.53036 0.98696   2
   4   1  18 3.38308 0.71082   3
  -4   1 -18 2.82172 0.73073   3
   5  -1  18 8.65852 1.52171   2
   5  -1  18 7.50945 1.15894   3
  -5  -1 -18 8.38669 1.47177   2
   5   1  18 7.38815 1.33448   2
   5   1  18 8.60317 1.19128   3
  -5   1 -18 6.59115 1.11437   3
  -5   1 -18 5.61985 1.24405   2
  -6  -1 -18 24.3341 2.99359   3
  -6  -1 -18 27.5973 3.80054   2
   6  -1  18 28.3550 3.86188   2
  -6   1 -18 29.9715 3.99413   2
   6   1  18 29.2946 3.94657   2
   6   1  18 28.2698 3.31919   3
  -7  -1 -18 16.4763 2.55018   2
   7  -1  18 22.1762 3.02250   2
  -7   1 -18 23.3795 3.13713   2
   7   1  18 16.3884 2.52275   2
   8  -1  18 13.3083 2.10405   2
  -8  -1 -18 11.6877 1.96099   2
   8   1  18 14.1096 2.15985   2
  -8   1 -18 13.9211 2.13790   2
  -9  -1 -18 6.10996 1.29328   2
   9  -1  18 8.01664 1.46081   2
  -9   1 -18 6.10293 1.24808   2
   9   1  18 3.32822 0.96688   2
  10  -1  18 15.9482 2.52118   2
 -10   1 -18 24.3567 3.24900   2
  20  -2 -18 9.87531 1.63797   2
 -20   2  18 10.8529 1.74045   2
  19  -2 -18 -0.7057 0.52367   2
 -19   2  18 0.43496 0.58537   2
  18  -2 -18 2.30840 0.86829   2
 -18  -2  18 2.42912 0.86864   2
  18   2 -18 4.64292 0.99632   2
  17  -2 -18 12.9918 2.02101   2
  17   2 -18 13.0427 2.02734   2
  16  -2 -18 3.10549 0.89519   2
 -16  -2  18 3.90744 1.04445   2
 -15  -2  18 9.47623 1.59361   2
 -15  -2  18 6.77605 1.23552   3
  15  -2 -18 9.70838 1.57689   2
 -14  -2  18 0.44058 0.61580   2
  14  -2 -18 0.19677 0.75690   2
 -14  -2  18 -0.4676 0.58492   3
 -14   2  18 0.62568 0.69754   2
  14   2 -18 -0.0200 0.63902   3
  14   2 -18 -0.1171 0.60786   2
 -13  -2  18 20.0543 2.90246   2
  13   2 -18 24.2613 2.97221   3
 -13   2  18 22.8762 3.13430   2
  13   2 -18 21.5866 3.06953   2
 -12  -2  18 6.61701 1.22240   2
 -12  -2  18 4.21968 0.87416   3
 -12   2  18 4.20746 0.75773   3
 -12   2  18 5.05311 1.09495   2
  12   2 -18 3.94478 1.00580   2
  12   2 -18 6.30950 1.13146   3
 -11  -2  18 29.9347 3.55476   3
  11  -2 -18 26.6846 3.20162   3
 -11  -2  18 27.4864 3.78834   2
  11   2 -18 32.8929 4.26057   2
  11   2 -18 26.2498 3.33891   3
 -11   2  18 32.5206 4.21438   2
 -11   2  18 31.0077 3.50100   3
  10  -2 -18 1.29667 0.44944   3
 -10  -2  18 2.70357 0.74864   3
 -10  -2  18 1.99696 0.75030   2
  10   2 -18 2.12471 0.77575   3
 -10   2  18 1.61336 0.73441   2
  10   2 -18 3.13381 0.82405   2
  -9  -2  18 0.61551 0.62941   2
  -9  -2  18 1.98550 0.64117   3
   9  -2 -18 2.41095 0.54623   3
   9  -2 -18 1.74309 0.65989   2
  -9   2  18 1.70519 0.66786   2
   9   2 -18 1.51110 0.69377   3
  -9   2  18 1.03136 0.46886   3
   9   2 -18 1.82595 0.72435   2
  -8  -2  18 -0.0893 0.57912   2
   8  -2 -18 0.52161 0.41640   3
   8  -2 -18 -0.3667 0.49107   2
   8   2 -18 -0.3139 0.54622   3
  -8   2  18 -0.0341 0.60309   2
  -8   2  18 1.03259 0.52117   3
   8   2 -18 -0.6500 0.48308   2
  -7  -2  18 135.992 16.7288   2
   7  -2 -18 118.791 13.4108   3
   7  -2 -18 130.260 16.2142   2
  -7  -2  18 137.140 14.7989   3
   7   2 -18 127.883 14.1386   3
   7   2 -18 117.791 15.1101   2
  -7   2  18 114.787 14.8436   2
  -7   2  18 133.344 14.4495   3
  -6  -2  18 8.80257 1.47092   2
  -6  -2  18 11.2240 1.48422   3
   6  -2 -18 10.1799 1.63218   2
   6  -2 -18 11.2642 1.38522   3
   6   2 -18 9.22848 1.52627   2
  -6   2  18 9.34913 1.27865   3
   6   2 -18 11.6446 1.54242   3
  -6   2  18 9.50567 1.58228   2
  -5  -2  18 35.2564 4.44496   2
  -5  -2  18 25.6510 3.11403   3
   5  -2 -18 24.9965 3.45456   2
   5   2 -18 27.4010 3.26007   3
  -5   2  18 27.6685 3.71072   2
  -5   2  18 26.6469 3.10039   3
   5   2 -18 27.3584 3.73101   2
  -4  -2  18 137.062 17.0957   2
   4  -2 -18 140.249 17.3819   2
  -4  -2  18 136.013 15.0152   3
   4  -2 -18 139.144 15.1582   3
   4   2 -18 124.766 14.2398   3
  -4   2  18 133.618 16.7936   2
  -4   2  18 127.035 14.3116   3
   4   2 -18 138.130 17.1875   2
   3  -2 -18 52.5067 6.65128   2
  -3  -2  18 47.4888 6.20266   2
  -3  -2  18 48.5392 5.53565   3
   3  -2 -18 51.4305 5.65530   3
  -3   2  18 51.7930 6.59111   2
   3   2 -18 43.5911 5.84885   2
   3   2 -18 46.8028 5.41849   3
  -3   2  18 46.5819 5.31741   3
   2  -2 -18 -0.0860 0.52380   2
   2  -2 -18 0.10928 0.38864   3
  -2  -2  18 1.20605 0.71752   2
   2   2 -18 -0.0913 0.56978   3
  -2   2  18 -0.0850 0.40006   3
   2   2 -18 0.82677 0.66302   2
  -2   2  18 0.47781 0.53901   2
   1  -2 -18 20.1171 2.93350   2
  -1  -2  18 21.9437 3.07643   2
   1  -2 -18 23.6713 2.75307   3
  -1  -2  18 25.1189 2.94905   3
  -1   2  18 23.5003 2.73624   3
   1   2 -18 24.5018 3.31222   2
   1   2 -18 27.0323 3.10849   3
  -1   2  18 23.8480 3.26921   2
   0  -2  18 16.2855 1.98898   3
   0  -2  18 12.2117 1.95628   2
   0  -2 -18 12.5683 1.65229   3
   0  -2 -18 16.4165 2.36243   2
   0   2 -18 15.7275 1.99894   3
   0   2  18 12.0613 1.62025   3
   0   2 -18 16.1608 2.28935   2
   0   2  18 14.2228 2.16178   2
   1  -2  18 11.6714 1.59132   3
  -1  -2 -18 12.3659 1.56666   3
   1  -2  18 10.5131 1.73424   2
  -1  -2 -18 12.8042 1.91437   2
  -1   2 -18 11.9425 1.66814   3
  -1   2 -18 12.9086 1.96354   2
   1   2  18 11.1318 1.48182   3
   1   2  18 11.7505 1.86221   2
  -2  -2 -18 3.04262 0.64602   3
   2  -2  18 3.43413 0.76823   3
  -2  -2 -18 3.53723 0.93597   2
   2  -2  18 3.32217 0.95835   2
   2   2  18 2.28439 0.61643   3
   2   2  18 4.95955 1.07976   2
  -2   2 -18 3.06821 0.77361   3
  -2   2 -18 1.12569 0.76612   2
  -3  -2 -18 7.56366 1.34880   2
  -3  -2 -18 8.04745 1.10383   3
   3  -2  18 5.75950 1.23081   2
  -3   2 -18 5.85100 1.08729   3
  -3   2 -18 5.49833 1.22313   2
   3   2  18 7.41139 1.09233   3
  -4  -2 -18 0.15444 0.67448   2
   4  -2  18 0.77152 0.72359   2
  -4  -2 -18 0.07429 0.40195   3
   4  -2  18 -0.2341 0.54778   3
  -4   2 -18 0.10927 0.76938   2
   4   2  18 0.85373 0.78741   2
  -4   2 -18 0.85156 0.61118   3
   4   2  18 0.55269 0.48974   3
  -5  -2 -18 12.4616 1.59545   3
   5  -2  18 13.7615 2.06271   2
  -5  -2 -18 14.4178 2.16112   2
   5   2  18 9.83708 1.78528   2
   5   2  18 14.2573 1.77195   3
  -5   2 -18 14.9188 2.20092   2
  -6  -2 -18 18.3675 2.31454   3
  -6  -2 -18 25.2178 3.39108   2
   6  -2  18 20.9449 2.98531   2
  -6   2 -18 21.5458 3.02669   2
   6   2  18 19.1927 2.86284   2
   7  -2  18 0.76778 0.75408   2
  -7  -2 -18 0.98324 0.46720   3
  -7  -2 -18 0.42887 0.64939   2
   7   2  18 -0.1613 0.59846   2
   7   2  18 -0.4935 0.43577   3
  -7   2 -18 -0.4073 0.67838   2
  -8  -2 -18 0.78366 0.71715   2
   8  -2  18 -0.1721 0.70971   2
   8   2  18 -0.5079 0.61924   2
  -8   2 -18 0.31623 0.72467   2
   9  -2  18 3.85379 0.99974   2
  -9   2 -18 2.42039 0.81592   2
  19  -3 -18 0.31959 0.58102   2
  18  -3 -18 22.0151 3.06736   2
 -18   3  18 21.4104 3.02513   2
  17  -3 -18 0.54273 0.64630   2
 -17   3  18 -0.0953 0.73306   2
  16  -3 -18 1.42307 0.65182   2
 -16   3  18 0.20565 0.57686   2
  15  -3 -18 -0.5103 0.65148   2
 -15  -3  18 -1.2889 0.60564   3
  15   3 -18 0.40949 0.70517   3
 -15   3  18 -0.0501 0.65596   2
  14  -3 -18 3.61152 0.96804   2
 -14  -3  18 4.65793 1.07954   3
 -14   3  18 4.60931 0.98769   2
 -13  -3  18 7.48236 1.34693   2
  13  -3 -18 6.90030 1.32086   2
 -13  -3  18 4.12559 0.94666   3
  13   3 -18 3.60407 0.92814   3
  13   3 -18 6.68513 1.34161   2
 -13   3  18 5.62497 1.15169   2
  12  -3 -18 52.4695 6.81165   2
 -12  -3  18 50.3859 6.61368   2
 -12  -3  18 57.4150 6.40811   3
  12   3 -18 55.1698 7.06649   2
 -12   3  18 50.5334 6.60521   2
  12   3 -18 50.5705 5.94232   3
  11  -3 -18 11.6131 1.85491   2
 -11  -3  18 10.9728 1.59673   3
 -11  -3  18 15.9484 2.21510   2
 -11   3  18 10.7617 1.70996   2
  11   3 -18 8.93692 1.47379   3
 -11   3  18 10.7959 1.40645   3
  11   3 -18 11.2005 1.79219   2
 -10  -3  18 35.7088 4.05811   3
  10  -3 -18 36.0665 3.93778   3
 -10  -3  18 30.1206 4.09793   2
  10  -3 -18 26.4934 3.73149   2
 -10   3  18 33.9163 4.38403   2
  10   3 -18 27.8887 3.87927   2
  10   3 -18 30.0906 3.65525   3
 -10   3  18 30.0176 3.49654   3
   9  -3 -18 41.2270 4.63920   3
  -9  -3  18 45.1883 5.07755   3
  -9  -3  18 35.1682 4.83527   2
   9   3 -18 39.0735 4.65058   3
   9   3 -18 34.3214 4.74780   2
  -9   3  18 62.7461 7.42610   2
  -8  -3  18 46.5660 5.17091   3
   8  -3 -18 39.6453 4.54210   3
   8  -3 -18 41.4145 5.37991   2
  -8  -3  18 37.9449 5.11426   2
   8   3 -18 38.4999 4.63118   3
  -8   3  18 48.3980 6.04090   2
  -8   3  18 37.6095 4.40216   3
   8   3 -18 40.2641 5.29742   2
   7  -3 -18 18.1689 2.56420   2
   7  -3 -18 17.2819 2.05217   3
  -7  -3  18 13.3962 1.92174   3
   7   3 -18 18.5686 2.33321   3
  -7   3  18 19.2418 2.66887   2
   7   3 -18 14.3430 2.19207   2
  -7   3  18 17.9802 2.11254   3
   6  -3 -18 1.56034 0.72393   2
  -6  -3  18 1.14491 0.58181   3
   6  -3 -18 0.43476 0.38974   3
  -6   3  18 0.15230 0.58262   2
  -6   3  18 0.44819 0.43863   3
   6   3 -18 -0.2671 0.55760   3
   6   3 -18 0.57182 0.59556   2
   5  -3 -18 66.6969 9.48018   2
  -5  -3  18 107.397 11.4318   3
   5  -3 -18 110.450 11.5453   3
  -5   3  18 89.1200 11.3914   2
   5   3 -18 95.7555 10.5881   3
  -5   3  18 102.762 10.9836   3
   5   3 -18 98.5700 12.2387   2
  -4  -3  18 65.6268 7.96202   3
  -4  -3  18 80.2298 10.1893   2
   4  -3 -18 84.3859 9.16358   3
   4  -3 -18 95.4520 11.5681   2
  -4   3  18 85.6741 9.29899   3
   4   3 -18 75.0401 8.64620   3
  -4   3  18 76.5836 9.83399   2
   3  -3 -18 131.471 16.4638   2
  -3  -3  18 137.021 16.9811   2
   3  -3 -18 142.355 15.2314   3
  -3   3  18 118.157 15.2718   2
  -3   3  18 132.248 14.5124   3
   3   3 -18 121.983 13.9191   3
   2  -3 -18 26.4465 2.94214   3
   2  -3 -18 22.3602 3.14055   2
  -2  -3  18 21.4944 2.71088   3
  -2  -3  18 25.8970 3.45528   2
   2   3 -18 24.0319 2.94860   3
  -2   3  18 23.0818 2.71395   3
  -2   3  18 19.6553 2.92325   2
   1  -3 -18 86.8812 11.1154   2
   1  -3 -18 107.508 11.2388   3
  -1  -3  18 93.6537 10.3244   3
  -1  -3  18 88.0491 11.2060   2
   1   3 -18 74.8475 9.05508   3
  -1   3  18 95.4279 10.3568   3
   1   3 -18 86.0306 11.0167   2
   0  -3 -18 68.1555 8.33861   2
   0  -3  18 41.4105 5.95640   2
   0  -3 -18 62.8426 6.76827   3
   0  -3  18 61.0004 6.74980   3
   0   3 -18 61.1230 7.68422   2
   0   3  18 52.9484 6.06321   3
   0   3 -18 55.0368 6.35283   3
  -1  -3 -18 23.2502 2.65306   3
   1  -3  18 17.8674 2.67806   2
   1  -3  18 19.1728 2.47467   3
  -1   3 -18 20.5773 2.64099   3
   1   3  18 21.0678 2.50546   3
   1   3  18 19.7870 2.84954   2
  -1   3 -18 23.1907 3.12567   2
  -2  -3 -18 78.0058 8.82167   3
   2  -3  18 77.7026 9.00137   3
   2  -3  18 83.0927 10.5222   2
  -2   3 -18 90.6651 11.2088   2
   2   3  18 91.7419 11.3579   2
  -2   3 -18 71.4221 8.51355   3
   3  -3  18 0.62919 0.63561   2
  -3  -3 -18 -0.0879 0.45570   3
   3  -3  18 -0.0377 0.56553   3
  -3  -3 -18 0.44519 0.57178   2
   3   3  18 0.03502 0.63628   2
  -3   3 -18 0.05963 0.69269   3
  -3   3 -18 -0.4060 0.55478   2
   3   3  18 0.36513 0.54957   3
   4  -3  18 7.22425 1.37991   2
  -4  -3 -18 5.29177 1.20506   2
  -4  -3 -18 8.04621 1.15949   3
  -4   3 -18 10.0196 1.61040   2
   4   3  18 9.42136 1.26318   3
   4   3  18 11.6608 1.76246   2
  -5  -3 -18 11.5423 1.83761   2
  -5  -3 -18 6.47849 1.05486   3
   5  -3  18 6.74043 1.36736   2
  -5   3 -18 7.88770 1.49533   2
   5   3  18 8.42118 1.47515   2
   5   3  18 11.1591 1.42225   3
   6  -3  18 3.32466 0.96795   2
   6   3  18 2.93273 0.77259   3
  -6   3 -18 6.18184 1.20507   2
   7  -3  18 9.09633 1.59334   2
  -7   3 -18 9.44231 1.64554   2
 -15  -4  18 33.8108 3.99941   3
  15   4 -18 32.8889 3.96533   3
 -15   4  18 27.1133 3.80946   2
 -14  -4  18 3.25786 0.87900   3
 -14   4  18 1.80851 0.74883   2
  14   4 -18 2.50518 0.97973   3
 -13  -4  18 7.25823 1.26264   3
  13   4 -18 6.32691 1.28423   3
 -13   4  18 7.24302 1.35673   2
  12  -4 -18 20.7041 2.84755   2
 -12  -4  18 17.7067 2.26243   3
 -12   4  18 14.2790 2.21950   2
  12   4 -18 14.2257 2.05217   3
 -11  -4  18 3.43439 0.85987   3
  11  -4 -18 4.70351 1.08611   2
  11   4 -18 3.49204 0.93824   3
 -11   4  18 3.16306 0.96518   2
 -10  -4  18 -0.1217 0.59177   3
  10  -4 -18 -1.0603 0.85950   2
  10  -4 -18 -0.7369 0.39813   3
 -10   4  18 0.00000 0.57844   2
 -10   4  18 -0.2000 0.43463   3
   9  -4 -18 11.3694 1.87587   2
   9  -4 -18 11.5072 1.49524   3
  -9  -4  18 8.79389 1.43460   3
  -9   4  18 12.9881 1.95680   2
   9   4 -18 11.9451 1.69085   3
  -9   4  18 13.3418 1.62228   3
   8  -4 -18 0.62404 0.63576   2
  -8  -4  18 1.73243 0.68865   3
   8  -4 -18 2.36746 0.60577   3
  -8   4  18 0.62838 0.67314   2
   8   4 -18 2.60449 0.86140   3
   7  -4 -18 58.6988 6.44726   3
   7  -4 -18 52.1636 6.86701   2
  -7   4  18 58.9399 7.48811   2
  -7   4  18 52.6356 6.03509   3
   6  -4 -18 29.6830 3.67346   3
  -6  -4  18 41.1832 4.66657   3
   6   4 -18 42.8764 4.81331   3
  -6   4  18 41.4826 4.52999   3
  -6   4  18 32.9785 4.53344   2
   5  -4 -18 2.30513 0.56456   3
   5  -4 -18 1.74574 0.80553   2
  -5  -4  18 1.14952 0.76508   3
  -5   4  18 1.27311 0.78908   2
  -5   4  18 0.72134 0.55640   3
   5   4 -18 1.25370 0.84145   3
  -4  -4  18 33.0963 4.04181   3
   4  -4 -18 36.7951 4.86410   2
   4  -4 -18 33.6873 3.92829   3
   4   4 -18 39.0228 4.53589   3
  -4   4  18 39.2372 5.05794   2
  -4   4  18 32.6155 3.86580   3
   3  -4 -18 16.1056 1.99823   3
  -3  -4  18 14.4299 2.00270   3
  -3   4  18 15.7039 2.35477   2
   3   4 -18 17.8986 2.31936   3
   2  -4 -18 55.7717 6.16379   3
  -2  -4  18 47.2096 5.71855   3
   2   4 -18 55.0165 6.30675   3
  -2   4  18 56.4832 6.23907   3
   1  -4 -18 0.05235 0.43940   3
  -1   4  18 0.96366 0.48099   3
   0  -4  18 15.3083 2.11341   3
   0  -4 -18 15.8525 1.94502   3
   0   4 -18 15.2281 2.15128   3
   0   4  18 18.4438 2.15896   3
  -1  -4 -18 12.1961 1.61093   3
   1  -4  18 15.6238 2.09506   3
   1   4  18 12.6646 1.66169   3
  -1   4 -18 16.2585 2.15097   3
   2  -4  18 0.38793 0.72550   3
  -2   4 -18 0.30168 0.78403   3
   2   4  18 0.62498 0.59211   3
  -2   4 -18 -0.6997 0.67040   2
  -3  -4 -18 1.07758 0.47312   3
   3   4  18 1.40933 0.60573   3
  -3   4 -18 1.88220 0.82993   2
  -4  -4 -18 5.49830 0.86770   3
   4   4  18 4.35268 0.86169   3
  -5  -4 -18 38.9221 4.51697   3
   5   4  18 41.3911 4.69873   3
   6   4  18 10.0903 1.44443   3
  14   5 -18 1.30956 0.65194   3
 -13  -5  18 1.05354 0.62889   3
  13   5 -18 0.03931 0.66214   3
 -12  -5  18 1.17653 0.70361   3
  12   5 -18 0.70715 0.75904   3
 -11  -5  18 5.87003 1.11358   3
  11   5 -18 6.38082 1.28767   3
  10   5 -18 10.6060 1.70363   3
  -9  -5  18 -0.0200 0.53545   3
   9   5 -18 0.31719 0.80239   3
  -9   5  18 0.26454 0.42892   3
  -8  -5  18 13.4415 1.81245   3
   8  -5 -18 9.76318 1.40955   3
  -8   5  18 14.9201 1.77586   3
   8   5 -18 12.4038 1.81727   3
  -7  -5  18 19.7663 2.54146   3
   7   5 -18 19.6347 2.58479   3
   6  -5 -18 3.64863 0.67917   3
  -6  -5  18 2.52996 0.82232   3
  -6   5  18 2.44511 0.68315   3
   6   5 -18 3.12846 0.97092   3
  -5  -5  18 0.62034 0.67555   3
   5  -5 -18 -0.1175 0.44692   3
  -5   5  18 0.03605 0.50401   3
  -4  -5  18 0.45858 0.57724   3
   4  -5 -18 -0.1914 0.45791   3
   4   5 -18 -0.6347 0.70348   3
  -4   5  18 0.52180 0.51607   3
   3  -5 -18 3.07584 0.63637   3
  -3  -5  18 3.15100 0.97444   3
  -3   5  18 3.25066 0.65237   3
   3   5 -18 4.17046 1.03487   3
  -2  -5  18 3.11922 0.96142   3
   2  -5 -18 3.67826 0.74265   3
   2   5 -18 4.65668 1.01199   3
  -1  -5  18 1.93826 0.74611   3
   1  -5 -18 1.14314 0.52320   3
  -1   5  18 1.58239 0.54370   3
   1   5 -18 1.30838 0.74893   3
   0  -5 -18 2.80010 0.63739   3
   0   5  18 1.65414 0.55784   3
   0   5 -18 2.00685 0.90976   3
  -1  -5 -18 7.29669 1.11299   3
   1  -5  18 14.1091 1.90391   3
   1   5  18 7.32604 1.14343   3
  -2  -5 -18 3.72562 0.71988   3
   2   5  18 2.86762 0.66426   3
   3   5  18 1.94182 0.69105   3
  -4  -5 -18 6.84178 1.04836   3
   4   5  18 7.57988 1.13613   3
 -11  -6  18 1.14502 0.77104   3
  11   6 -18 0.53105 0.78439   3
 -10  -6  18 7.37830 1.21356   3
  10   6 -18 6.16680 1.17775   3
  -9  -6  18 3.17525 0.77152   3
   9   6 -18 2.69264 0.90315   3
  -8  -6  18 8.07220 1.28494   3
   8   6 -18 7.42660 1.31258   3
  -7  -6  18 12.4661 1.73143   3
   7   6 -18 11.8647 1.77350   3
  -6  -6  18 0.05939 0.57752   3
   5  -6 -18 1.96778 0.53590   3
  -5  -6  18 1.78554 0.73570   3
  -5   6  18 2.72856 0.63364   3
   5   6 -18 1.43433 0.80566   3
  -4  -6  18 1.75150 0.71126   3
   4  -6 -18 1.91116 0.62482   3
  -4   6  18 2.59268 0.63647   3
   4   6 -18 2.33812 0.85120   3
   3  -6 -18 5.61827 0.90015   3
  -3  -6  18 3.34251 0.89209   3
   3   6 -18 2.99712 0.95880   3
  -3   6  18 6.21012 0.98656   3
  -2  -6  18 0.13357 0.62512   3
   2  -6 -18 0.48472 0.44559   3
  -2   6  18 0.56530 0.50901   3
   1  -6 -18 2.64044 0.64324   3
   0  -6 -18 -0.4166 0.46242   3
   0   6  18 -1.0312 0.50990   3
 -20   0  19 -0.4854 0.65150   2
  20   0 -19 0.47034 0.55431   2
 -19   0  19 0.06359 0.73380   2
  19   0 -19 0.06614 0.64955   2
  18   0 -19 0.67388 0.71159   2
  17   0 -19 0.43317 0.63031   2
 -17   0  19 0.48291 0.63849   2
 -16   0  19 0.15204 0.58076   2
 -15   0  19 0.81481 0.73544   2
 -14   0  19 -0.7220 0.62852   2
  14   0 -19 0.03373 0.54654   2
 -13   0  19 -0.5502 0.54036   2
  13   0 -19 0.00000 0.61444   2
  13   0 -19 -0.0203 0.50881   3
 -13   0  19 -0.6506 0.43816   3
  12   0 -19 0.16945 0.51588   2
  12   0 -19 0.33054 0.59876   3
 -12   0  19 -0.4947 0.51938   2
 -12   0  19 0.07234 0.52031   3
 -11   0  19 0.78925 0.50652   3
 -11   0  19 0.11646 0.53936   2
  11   0 -19 -0.0554 0.56838   3
  11   0 -19 -0.0168 0.54467   2
  10   0 -19 -0.1171 0.62410   2
  10   0 -19 -0.4552 0.56418   3
 -10   0  19 0.36598 0.46795   3
 -10   0  19 -0.0672 0.62692   2
   9   0 -19 -0.1222 0.50999   3
  -9   0  19 0.23738 0.56683   2
   9   0 -19 0.77986 0.55474   2
  -9   0  19 0.78894 0.53247   3
   8   0 -19 0.53853 0.49014   3
  -8   0  19 0.09167 0.47052   3
  -8   0  19 -0.8749 0.54358   2
   8   0 -19 0.42872 0.58945   2
  -7   0  19 0.39125 0.33151   3
  -7   0  19 0.17563 0.62094   2
   7   0 -19 -0.7317 0.58176   2
  -6   0  19 0.08403 0.62739   2
  -6   0  19 0.42074 0.34874   3
   6   0 -19 0.44043 0.44119   3
   6   0 -19 -0.2255 0.61345   2
  -5   0  19 -0.1084 0.63901   2
  -5   0  19 -0.2298 0.37247   3
   5   0 -19 0.04258 0.46244   3
   5   0 -19 -0.3386 0.52498   2
  -4   0  19 0.13913 0.44405   3
   4   0 -19 0.31851 0.66043   2
   4   0 -19 0.08232 0.44707   3
  -4   0  19 0.07084 0.62623   2
  -3   0  19 0.64259 0.71892   2
  -3   0  19 0.13616 0.43480   3
   3   0 -19 0.06519 0.44933   3
   3   0 -19 0.39859 0.64696   2
  -2   0  19 0.28721 0.61403   2
   2   0 -19 0.20615 0.60749   2
   2   0 -19 0.34090 0.38828   3
  -2   0  19 -0.0687 0.41068   3
  -1   0  19 0.20112 0.45353   3
   1   0 -19 -0.0345 0.50854   2
  -1   0  19 -0.3714 0.55582   2
   0   0  19 0.64752 0.60169   2
   0   0 -19 -0.0081 0.43956   3
   0   0 -19 0.21624 0.54875   2
   0   0  19 0.04400 0.44238   3
   1   0  19 -0.9962 0.66389   2
   1   0  19 0.27401 0.45844   3
  -1   0 -19 0.00000 0.63276   2
  -1   0 -19 0.09774 0.42242   3
   2   0  19 -1.0918 0.67446   2
   2   0  19 -0.3081 0.44224   3
  -2   0 -19 0.86443 0.54708   3
  -2   0 -19 0.03447 0.62623   2
  -3   0 -19 -0.2616 0.61670   2
   3   0  19 0.44882 0.67011   2
  -3   0 -19 -0.0084 0.41979   3
   3   0  19 0.68099 0.47422   3
   4   0  19 0.23677 0.59027   2
   4   0  19 -0.3497 0.46759   3
  -4   0 -19 -0.8890 0.69492   2
   5   0  19 0.00000 0.71382   2
  -5   0 -19 0.67164 0.73107   2
  -5   0 -19 1.17025 0.73777   3
   5   0  19 -0.2788 0.47469   3
  -6   0 -19 -0.8342 0.69459   2
   6   0  19 0.12192 0.70128   2
  -7   0 -19 -0.0722 0.72702   2
   7   0  19 -0.0347 0.69917   2
  -8   0 -19 0.75410 0.79394   2
   8   0  19 0.06945 0.78481   2
   9   0  19 0.20829 0.64882   2
  -9   0 -19 0.96617 0.68627   2
 -20  -1  19 0.84737 0.71193   2
  20  -1 -19 1.39974 0.66739   2
 -20   1  19 0.80051 0.60107   2
 -19  -1  19 5.94385 1.17599   2
  19  -1 -19 4.36276 1.07980   2
 -19   1  19 6.95102 1.37473   2
  19   1 -19 5.26727 1.11201   2
  18  -1 -19 0.87187 0.79207   2
 -18  -1  19 0.69251 0.66665   2
  18   1 -19 0.96863 0.72350   2
 -18   1  19 0.66410 0.74716   2
  17  -1 -19 26.5083 3.68105   2
 -17  -1  19 28.7381 3.92369   2
 -17   1  19 28.3770 3.83714   2
  17   1 -19 28.7282 3.90121   2
 -16  -1  19 13.5453 2.06280   2
  16  -1 -19 12.8137 1.98762   2
 -16   1  19 15.0415 2.17329   2
  16   1 -19 13.2808 2.06361   2
  15  -1 -19 1.77316 0.72869   2
 -15  -1  19 0.75865 0.73159   2
  15   1 -19 1.65444 0.99340   2
 -15   1  19 0.32145 0.68455   2
  14  -1 -19 55.3851 7.11198   2
 -14  -1  19 51.1126 5.98457   3
 -14  -1  19 49.9955 6.60641   2
 -14   1  19 58.3953 7.35476   2
  14   1 -19 51.4804 6.05196   3
  14   1 -19 57.4986 7.31717   2
  13  -1 -19 83.7852 10.7923   2
 -13  -1  19 85.6674 10.9557   2
 -13  -1  19 107.658 11.3598   3
  13   1 -19 82.8678 10.7309   2
 -13   1  19 93.8834 11.6905   2
 -13   1  19 84.4286 9.59746   3
  12  -1 -19 3.21152 0.80678   3
 -12  -1  19 3.67917 0.82842   3
  12  -1 -19 4.90486 1.05951   2
 -12  -1  19 4.31725 0.95350   2
 -12   1  19 3.02126 0.70079   3
  12   1 -19 5.04928 0.96425   3
  12   1 -19 3.03461 0.88352   2
 -12   1  19 3.76139 0.93195   2
 -11  -1  19 6.77712 1.30581   2
  11  -1 -19 8.95433 1.29058   3
 -11  -1  19 10.5512 1.44092   3
  11  -1 -19 10.8180 1.68804   2
  11   1 -19 10.1394 1.40027   3
  11   1 -19 8.88406 1.48535   2
 -11   1  19 11.7526 1.79454   2
 -10  -1  19 157.809 17.5033   3
 -10  -1  19 164.957 20.4019   2
  10  -1 -19 160.819 17.6633   3
  10  -1 -19 150.432 19.1122   2
 -10   1  19 146.366 18.7468   2
  10   1 -19 166.602 18.1387   3
  10   1 -19 155.682 19.5860   2
 -10   1  19 169.331 18.2539   3
  -9  -1  19 16.0200 2.23919   2
   9  -1 -19 14.6051 1.77793   3
  -9  -1  19 10.1673 1.53521   3
   9  -1 -19 13.3618 1.98087   2
   9   1 -19 14.6494 1.86190   3
  -9   1  19 10.6487 1.73520   2
   9   1 -19 16.1998 2.23639   2
  -9   1  19 13.8175 1.69159   3
   8  -1 -19 92.9390 10.0227   3
   8  -1 -19 85.0932 10.7844   2
  -8  -1  19 85.0259 10.7844   2
  -8  -1  19 92.6208 10.0515   3
   8   1 -19 85.9595 10.8645   2
  -8   1  19 80.1027 10.3404   2
  -8   1  19 77.0580 8.89296   3
   7  -1 -19 38.6585 4.38060   3
   7   1 -19 41.7025 4.66261   3
  -7   1  19 39.5535 4.44278   3
  -7   1  19 35.0037 4.75216   2
   7   1 -19 37.3803 4.94519   2
   6  -1 -19 0.54389 0.41520   3
  -6  -1  19 0.20209 0.40980   3
   6  -1 -19 -0.1183 0.58099   2
   6   1 -19 -0.3470 0.47831   3
  -6   1  19 0.56418 0.41472   3
  -6   1  19 0.83082 0.64619   2
   6   1 -19 0.13761 0.59151   2
   5  -1 -19 114.667 13.9242   2
  -5  -1  19 79.1209 9.62996   3
   5  -1 -19 122.765 12.6953   3
  -5   1  19 107.890 11.5889   3
   5   1 -19 90.3361 10.3939   3
   5   1 -19 104.962 13.0296   2
  -5   1  19 93.1465 11.9484   2
   4  -1 -19 37.1653 4.90703   2
   4  -1 -19 37.1004 4.20091   3
  -4  -1  19 35.3602 4.71966   2
  -4  -1  19 32.1993 3.90521   3
  -4   1  19 34.4972 4.63197   2
  -4   1  19 36.4141 4.16248   3
   4   1 -19 43.3253 4.71582   3
   4   1 -19 43.4736 5.45403   2
  -3  -1  19 76.7189 9.76146   2
  -3  -1  19 79.2964 8.74031   3
   3  -1 -19 86.9320 10.6599   2
   3  -1 -19 71.7834 8.16063   3
   3   1 -19 70.5943 8.13682   3
  -3   1  19 71.6023 9.28465   2
  -3   1  19 80.9519 8.82548   3
   2  -1 -19 48.5673 6.10221   2
   2  -1 -19 38.3686 4.46763   3
  -2  -1  19 43.4109 5.59597   2
  -2  -1  19 48.8175 5.28143   3
  -2   1  19 35.3798 4.27919   3
   1  -1 -19 2.47743 0.87474   2
  -1  -1  19 1.28709 0.66872   2
  -1  -1  19 2.46884 0.66154   3
   1  -1 -19 2.20543 0.52692   3
  -1   1  19 1.18034 0.51987   3
   1   1 -19 1.89841 0.62817   3
   0  -1 -19 44.5345 5.17425   3
   0  -1 -19 51.2434 6.52794   2
   0  -1  19 48.6411 5.51025   3
   0  -1  19 53.0035 6.69875   2
   0   1 -19 52.4960 5.80954   3
   0   1 -19 46.4086 6.10888   2
   0   1  19 44.1672 5.17074   3
   1  -1  19 24.5613 3.55856   2
  -1  -1 -19 30.3364 3.46841   3
   1  -1  19 28.5498 3.38909   3
   1   1  19 28.5445 3.35811   3
  -1   1 -19 30.9065 4.09633   2
  -1   1 -19 32.2937 3.67896   3
   1   1  19 37.1635 4.69551   2
   2  -1  19 2.67192 0.66881   3
  -2  -1 -19 1.58172 0.53884   3
   2  -1  19 1.92055 0.81993   2
   2   1  19 2.74878 0.63821   3
   2   1  19 0.99391 0.77652   2
  -2   1 -19 1.43913 0.62289   3
  -2   1 -19 1.90788 0.71520   2
   3  -1  19 0.07758 0.49134   3
   3  -1  19 0.45486 0.62616   2
  -3  -1 -19 0.65861 0.46728   3
   3   1  19 0.82305 0.75734   2
  -3   1 -19 0.48307 0.68596   2
   3   1  19 0.46501 0.49644   3
   4  -1  19 16.1816 2.34851   2
  -4  -1 -19 18.3578 2.60129   2
  -4  -1 -19 14.6850 1.82242   3
   4  -1  19 12.6316 1.76959   3
   4   1  19 13.2464 2.11886   2
  -4   1 -19 15.6487 1.97561   3
  -4   1 -19 15.4299 2.31136   2
   4   1  19 16.2617 1.98250   3
  -5  -1 -19 52.8044 5.80572   3
   5  -1  19 50.2915 6.51515   2
  -5  -1 -19 44.6930 6.01104   2
  -5   1 -19 46.1743 6.11951   2
   5   1  19 49.9486 6.47819   2
  -6  -1 -19 -0.2888 0.74460   2
  -6  -1 -19 0.71272 0.51795   3
   6  -1  19 0.75020 0.78824   2
  -6   1 -19 -0.5985 0.67698   2
   6   1  19 0.26869 0.50819   3
   6   1  19 0.10771 0.77583   2
   7  -1  19 0.68189 0.77269   2
  -7  -1 -19 -0.1974 0.70487   2
  -7   1 -19 0.88543 0.76309   2
   7   1  19 -1.4852 0.72073   2
  -8  -1 -19 85.0908 10.6257   2
   8  -1  19 83.1302 10.4370   2
   8   1  19 70.1777 9.26470   2
  -8   1 -19 76.2428 9.81874   2
   9  -1  19 11.4194 1.85796   2
  -9  -1 -19 11.0666 1.85835   2
  -9   1 -19 12.4139 1.96037   2
  20  -2 -19 4.91685 1.14570   2
 -20   2  19 8.42438 1.39242   2
  19  -2 -19 7.59606 1.38318   2
 -19   2  19 9.34374 1.57346   2
  18  -2 -19 11.4179 1.77551   2
 -18  -2  19 9.44069 1.59399   2
  18   2 -19 8.35736 1.56417   2
  17  -2 -19 23.0057 3.18050   2
  17   2 -19 22.5990 3.16618   2
  16  -2 -19 13.9732 2.09837   2
 -16  -2  19 13.2227 2.08009   2
  16   2 -19 12.6409 1.98944   2
 -15  -2  19 1.88365 0.80964   3
  15  -2 -19 4.69774 1.05199   2
 -15  -2  19 2.63334 0.91242   2
  15   2 -19 3.54158 0.93616   3
 -14  -2  19 18.4093 2.64992   2
  14  -2 -19 16.7258 2.48105   2
 -14  -2  19 17.6836 2.33258   3
  14   2 -19 19.1924 2.80543   2
 -14   2  19 18.8346 2.66674   2
  14   2 -19 20.6079 2.59122   3
 -13  -2  19 0.84445 0.65248   2
 -13   2  19 1.73651 0.68109   2
  13   2 -19 1.93094 0.78933   2
  13   2 -19 0.78182 0.66478   3
  12  -2 -19 30.8260 3.69688   3
 -12  -2  19 38.5263 4.33986   3
 -12  -2  19 40.0227 5.06972   2
 -12   2  19 29.9540 4.14153   2
  12   2 -19 37.4034 4.84613   2
  12   2 -19 34.4048 4.08679   3
 -12   2  19 30.8353 3.67659   3
  11  -2 -19 11.6755 1.45330   3
 -11  -2  19 11.6457 1.58415   3
 -11  -2  19 8.90057 1.52586   2
  11   2 -19 9.28055 1.59216   2
  11   2 -19 11.0418 1.56935   3
 -11   2  19 10.1012 1.33153   3
 -11   2  19 8.71991 1.51887   2
  10  -2 -19 19.8200 2.35087   3
 -10  -2  19 19.6868 2.76999   2
  10  -2 -19 15.3790 2.39292   2
 -10  -2  19 25.8488 2.92970   3
 -10   2  19 21.3831 2.93643   2
  10   2 -19 19.4219 2.46322   3
  10   2 -19 20.6319 2.85158   2
  -9  -2  19 56.5491 6.55433   3
   9  -2 -19 60.2489 7.68733   2
   9  -2 -19 62.1960 6.83854   3
  -9  -2  19 56.9195 7.41000   2
   9   2 -19 63.4235 7.07556   3
  -9   2  19 59.0281 7.59735   2
  -9   2  19 58.7724 6.60461   3
   9   2 -19 58.1843 7.50608   2
   8  -2 -19 66.2883 7.12251   3
  -8  -2  19 53.9593 7.13962   2
   8  -2 -19 59.4792 7.63853   2
   8   2 -19 57.2784 6.58249   3
   8   2 -19 59.1317 7.59326   2
  -8   2  19 60.2491 7.70866   2
  -8   2  19 57.7442 6.51491   3
  -7  -2  19 125.885 16.6267   2
   7  -2 -19 126.390 16.6695   2
  -7  -2  19 165.558 17.6869   3
   7  -2 -19 154.355 16.7843   3
   7   2 -19 160.983 17.3596   3
  -7   2  19 193.053 19.6757   3
   7   2 -19 138.420 17.7052   2
  -7   2  19 161.389 19.7792   2
   6  -2 -19 58.1317 6.31507   3
  -6  -2  19 50.2162 5.82535   3
  -6  -2  19 53.9926 6.91246   2
   6  -2 -19 51.0029 6.65962   2
  -6   2  19 54.9576 6.09665   3
  -6   2  19 53.1651 6.85716   2
   6   2 -19 53.4260 6.87605   2
   6   2 -19 49.4766 5.79891   3
  -5  -2  19 11.3131 1.78270   2
  -5  -2  19 10.6194 1.42520   3
   5  -2 -19 7.70572 1.10290   3
   5  -2 -19 11.8276 1.76069   2
   5   2 -19 9.44484 1.37635   3
  -5   2  19 12.0333 1.79658   2
   5   2 -19 7.22286 1.42429   2
   4  -2 -19 8.44310 1.13497   3
   4  -2 -19 9.10971 1.50212   2
  -4  -2  19 10.7751 1.61907   2
  -4  -2  19 7.30243 1.14786   3
  -4   2  19 6.71160 1.04499   3
   4   2 -19 8.02734 1.40966   2
  -4   2  19 8.46500 1.53612   2
   4   2 -19 7.99562 1.23305   3
  -3  -2  19 14.5928 2.18170   2
   3  -2 -19 12.5713 1.96690   2
   3  -2 -19 14.3265 1.73034   3
  -3  -2  19 14.0232 1.82134   3
   3   2 -19 13.5437 2.03936   2
  -3   2  19 14.0487 2.12104   2
  -3   2  19 14.4584 1.75092   3
  -2  -2  19 16.4278 2.33963   2
   2  -2 -19 15.4477 1.86237   3
   2  -2 -19 15.8641 2.29761   2
  -2   2  19 13.1379 2.05346   2
   2   2 -19 14.3557 2.18714   2
   2   2 -19 16.8540 2.10481   3
  -2   2  19 14.4445 1.80698   3
  -1  -2  19 4.10392 0.84406   3
   1  -2 -19 2.03306 0.83744   2
   1  -2 -19 3.91363 0.70380   3
  -1  -2  19 3.22537 0.98199   2
   1   2 -19 4.69789 1.03293   2
  -1   2  19 5.60864 1.14822   2
   1   2 -19 3.28697 0.83177   3
  -1   2  19 3.84856 0.70284   3
   0  -2 -19 34.2599 3.87385   3
   0  -2  19 34.2311 3.96229   3
   0  -2 -19 38.3873 4.90535   2
   0  -2  19 31.7102 4.31312   2
   0   2 -19 36.8194 4.17517   3
   0   2 -19 32.7042 4.39645   2
   0   2  19 30.4107 4.18522   2
   0   2  19 29.4787 3.54410   3
  -1  -2 -19 81.8824 9.50442   3
   1  -2  19 97.2826 12.1366   2
  -1  -2 -19 95.1727 11.9349   2
   1  -2  19 114.362 11.9484   3
  -1   2 -19 108.546 11.5184   3
  -1   2 -19 76.9671 10.3268   2
   1   2  19 87.5933 11.2495   2
  -2  -2 -19 1.42271 0.77930   2
   2  -2  19 1.26265 0.78897   2
   2  -2  19 1.41679 0.61010   3
  -2  -2 -19 0.67739 0.43921   3
   2   2  19 2.22883 0.58267   3
   2   2  19 1.60809 0.79266   2
  -2   2 -19 -0.5719 0.68430   2
  -2   2 -19 1.09870 0.67899   3
  -3  -2 -19 3.80952 0.68715   3
  -3  -2 -19 3.13670 0.89965   2
   3  -2  19 4.86830 1.12726   2
   3  -2  19 4.02031 0.86233   3
   3   2  19 4.26103 1.07697   2
  -3   2 -19 3.97056 0.87586   3
   3   2  19 4.29137 0.75833   3
  -3   2 -19 3.48493 0.98914   2
   4  -2  19 77.4045 9.04553   3
  -4  -2 -19 80.8227 9.17143   3
   4  -2  19 100.674 12.2643   2
  -4  -2 -19 74.7691 9.91746   2
  -4   2 -19 90.3086 9.98104   3
  -4   2 -19 98.0175 12.0097   2
   4   2  19 93.1396 11.5933   2
   4   2  19 78.4274 9.02166   3
   5  -2  19 79.1714 10.0667   2
  -5  -2 -19 63.5578 8.70509   2
  -5  -2 -19 93.3816 9.83026   3
   5   2  19 62.0106 8.59382   2
   5   2  19 98.3309 10.2179   3
  -5   2 -19 108.817 12.8483   2
  -6  -2 -19 2.27891 0.87395   2
   6  -2  19 2.90126 0.86891   2
  -6   2 -19 3.98198 1.00903   2
   6   2  19 2.31518 0.62128   3
   6   2  19 1.56195 0.91133   2
   7  -2  19 -0.2604 0.61379   2
  -7  -2 -19 0.80313 0.65450   2
   7   2  19 0.01755 0.62039   2
  -7   2 -19 -0.3236 0.68868   2
   8  -2  19 3.69730 0.99101   2
  -8   2 -19 6.36636 1.23653   2
  18  -3 -19 -0.2224 0.56159   2
 -18   3  19 0.11218 0.55083   2
  17  -3 -19 -0.0687 0.65768   2
 -17   3  19 0.43549 0.64166   2
  16  -3 -19 4.19674 1.01035   2
 -16   3  19 3.99315 1.01607   2
 -15  -3  19 6.29396 1.22278   3
  15  -3 -19 6.41461 1.23739   2
  15   3 -19 8.57657 1.43586   3
 -15   3  19 6.96519 1.29706   2
  14  -3 -19 1.67861 0.76762   2
 -14   3  19 0.27221 0.65355   2
  14   3 -19 0.49187 0.70334   3
 -13  -3  19 0.87733 0.65160   3
  13  -3 -19 2.06993 0.75026   2
  13   3 -19 1.12174 0.73555   3
 -13   3  19 1.12593 0.69398   2
  13   3 -19 3.02684 1.04997   2
 -12  -3  19 4.89424 0.97277   3
  12  -3 -19 4.60404 1.07774   2
 -12  -3  19 3.87802 0.93860   2
  12   3 -19 4.68378 1.07465   2
 -12   3  19 4.10956 0.93998   2
  12   3 -19 3.11515 0.81883   3
  11  -3 -19 2.19549 0.57531   3
 -11  -3  19 3.14770 0.91241   2
 -11  -3  19 4.44371 0.98501   3
  11  -3 -19 3.26891 1.07577   2
 -11   3  19 3.17418 0.66481   3
  11   3 -19 2.64736 0.82247   3
 -11   3  19 2.60838 0.84245   2
  11   3 -19 2.92684 0.85868   2
  -9  -3  19 0.75070 0.55760   2
   9  -3 -19 0.37385 0.53463   2
   9  -3 -19 0.01709 0.47860   3
  -9   3  19 -0.1407 0.57063   2
   9   3 -19 1.34604 0.73483   2
   9   3 -19 0.23209 0.72825   3
  -8  -3  19 1.81697 0.78510   2
   8  -3 -19 1.92805 0.80815   2
  -8  -3  19 2.19993 0.74103   3
   8  -3 -19 2.94878 0.62565   3
  -8   3  19 1.95092 0.71779   2
   8   3 -19 1.24816 0.62369   2
   8   3 -19 1.51836 0.78066   3
  -8   3  19 1.04977 0.55949   3
  -7  -3  19 2.01884 0.64321   3
   7  -3 -19 -0.2833 0.62261   2
   7  -3 -19 0.26498 0.43749   3
  -7  -3  19 0.91447 0.77544   2
   7   3 -19 0.66015 0.72727   3
   7   3 -19 0.17277 0.61162   2
  -7   3  19 0.75440 0.54032   3
  -7   3  19 0.15308 0.70227   2
   6  -3 -19 4.92341 1.10489   2
   6  -3 -19 6.15944 0.89583   3
  -6  -3  19 5.62716 1.05665   3
   6   3 -19 5.73107 1.09842   3
  -6   3  19 6.34630 0.90891   3
   6   3 -19 4.95884 1.07407   2
  -6   3  19 6.48714 1.24051   2
   5  -3 -19 2.97688 0.66719   3
   5  -3 -19 3.41242 0.92059   2
  -5  -3  19 3.37200 0.83719   3
   5   3 -19 5.26968 1.13087   2
  -5   3  19 5.07558 1.12160   2
   5   3 -19 2.39754 0.86009   3
  -5   3  19 4.11845 0.76919   3
   4  -3 -19 23.3896 3.16795   2
  -4  -3  19 22.4409 2.72089   3
   4  -3 -19 20.3132 2.44282   3
  -4  -3  19 20.0588 2.92065   2
  -4   3  19 22.0248 3.06161   2
   4   3 -19 19.6352 2.90572   2
   4   3 -19 22.0456 2.75305   3
  -3  -3  19 13.6004 2.07305   2
   3  -3 -19 16.6613 2.31552   2
   3  -3 -19 13.6273 1.64253   3
  -3   3  19 9.66604 1.66637   2
  -3   3  19 12.3946 1.59068   3
   3   3 -19 11.8154 1.72664   3
   2  -3 -19 0.55808 0.43942   3
   2  -3 -19 -0.3342 0.58801   2
  -2  -3  19 0.42630 0.61117   2
  -2  -3  19 0.00000 0.55981   3
  -2   3  19 0.72974 0.51278   3
  -2   3  19 1.17370 0.73403   2
   2   3 -19 0.70581 0.68847   3
   1  -3 -19 18.9725 2.32162   3
   1  -3 -19 30.7309 3.87386   2
  -1  -3  19 22.4863 3.07875   2
  -1  -3  19 14.7438 2.14816   3
  -1   3  19 22.1921 2.56344   3
   1   3 -19 17.3590 2.41168   3
   1   3 -19 23.8929 3.22036   2
   0  -3  19 3.48686 0.82734   3
   0  -3  19 4.94665 1.14363   2
   0  -3 -19 6.34413 1.17894   2
   0  -3 -19 2.88348 0.65190   3
   0   3  19 4.39687 1.02407   2
   0   3 -19 5.65655 1.11979   3
   0   3 -19 4.20970 0.99724   2
   0   3  19 3.61351 0.74306   3
   1  -3  19 7.18055 1.17621   3
   1  -3  19 6.98366 1.33300   2
   1   3  19 8.58403 1.43807   2
   1   3  19 6.48220 1.00641   3
  -1   3 -19 4.58263 1.14484   2
  -1   3 -19 4.24367 1.03106   3
  -2  -3 -19 34.9772 4.07527   3
   2  -3  19 45.4220 5.69256   2
  -2   3 -19 35.6706 4.38477   3
  -2   3 -19 35.6361 4.78530   2
   2   3  19 34.7186 4.72574   2
   3  -3  19 11.7122 1.80778   3
  -3  -3 -19 17.5072 2.08095   3
  -3  -3 -19 16.2096 2.39010   2
   3  -3  19 13.4953 2.16862   2
  -3   3 -19 18.6135 2.37217   3
   3   3  19 17.1319 2.53536   2
  -3   3 -19 18.7104 2.58550   2
   3   3  19 15.6231 1.96198   3
  -4  -3 -19 15.1697 1.84929   3
  -4  -3 -19 10.8992 1.89851   2
   4  -3  19 16.9886 2.41355   2
   4   3  19 15.4448 2.27726   2
  -4   3 -19 13.3708 2.07812   2
   4   3  19 11.6605 1.60804   3
  -5  -3 -19 5.03910 0.89142   3
  -5  -3 -19 4.40065 1.08696   2
   5  -3  19 5.14151 1.17719   2
  -5   3 -19 3.10323 1.06349   2
   5   3  19 5.07134 0.89728   3
   6  -3  19 0.22482 0.76574   2
   6   3  19 1.58150 0.60416   3
  -6   3 -19 0.30314 0.75451   2
  15   4 -19 0.11525 0.75499   3
 -15   4  19 -0.0791 0.68332   2
 -14  -4  19 2.80313 0.92223   3
  14   4 -19 4.93106 1.11166   3
 -14   4  19 2.91168 0.90830   2
  13  -4 -19 7.17601 1.32711   2
 -13  -4  19 9.41355 1.42978   3
 -13   4  19 7.34059 1.35975   2
  13   4 -19 8.31582 1.40907   3
 -12  -4  19 25.3199 3.09292   3
  12  -4 -19 27.1977 3.64764   2
 -12   4  19 26.7580 3.61416   2
  12   4 -19 20.1726 2.77324   3
  11  -4 -19 -0.5530 0.78065   2
 -11  -4  19 0.47901 0.59847   3
  11   4 -19 -0.3498 0.63597   3
 -11   4  19 0.46587 0.68629   2
  10  -4 -19 -0.0621 0.38830   3
 -10  -4  19 -0.3855 0.49321   3
  10  -4 -19 -0.0663 0.74823   2
 -10   4  19 0.06513 0.40718   3
 -10   4  19 -0.0673 0.66080   2
  -9  -4  19 24.1209 2.93239   3
   9  -4 -19 19.4491 2.40751   3
   9   4 -19 18.8951 2.57031   3
  -9   4  19 24.9342 3.32775   2
  -9   4  19 22.7610 2.64903   3
   8  -4 -19 -0.5878 0.52782   2
   8  -4 -19 -0.0919 0.46914   3
  -8  -4  19 0.29889 0.68131   3
  -8   4  19 0.86839 0.66894   2
   8   4 -19 1.63697 0.85121   3
   7  -4 -19 0.23465 0.62615   2
  -7  -4  19 0.28515 0.57072   3
   7  -4 -19 0.53654 0.48554   3
   7   4 -19 2.07880 0.74596   3
  -7   4  19 0.11567 0.61732   2
  -7   4  19 0.16804 0.53789   3
   6  -4 -19 20.1124 2.82342   2
  -6  -4  19 16.2895 2.25662   3
   6  -4 -19 19.7961 2.33080   3
  -6   4  19 20.4056 2.41023   3
   6   4 -19 19.0991 2.50222   3
  -6   4  19 20.2145 2.85110   2
  -5  -4  19 0.48604 0.62558   3
   5  -4 -19 0.54494 0.68113   2
   5  -4 -19 0.08270 0.37235   3
   5   4 -19 -0.1270 0.75975   3
  -5   4  19 -0.4416 0.63382   2
  -5   4  19 -0.2663 0.43166   3
   4  -4 -19 0.57509 0.43671   3
  -4   4  19 0.17357 0.63154   2
   4   4 -19 -0.2675 0.63502   3
  -4   4  19 1.14436 0.48722   3
   3  -4 -19 10.2400 1.35537   3
  -3  -4  19 9.48050 1.51898   3
   3   4 -19 13.7917 1.87003   3
   2  -4 -19 5.27289 0.84634   3
  -2  -4  19 3.29299 0.94312   3
  -2   4  19 5.04107 0.82843   3
   2   4 -19 5.73898 1.13922   3
   1  -4 -19 1.04330 0.50906   3
  -1  -4  19 0.35954 0.60904   3
   1   4 -19 1.06831 0.75249   3
  -1   4  19 1.01369 0.57646   3
   0  -4  19 -0.5874 0.65848   3
   0  -4 -19 -0.5511 0.45383   3
   0   4  19 0.57467 0.57156   3
   0   4 -19 -0.4106 0.73205   3
  -1  -4 -19 63.8808 7.61050   3
   1   4  19 79.3681 8.68839   3
  -1   4 -19 89.6595 9.65687   3
   2  -4  19 1.46039 0.79513   3
  -2   4 -19 2.08652 0.87638   3
   2   4  19 1.27421 0.60329   3
  -3  -4 -19 6.29361 0.98848   3
   3   4  19 6.61468 1.02916   3
  -4  -4 -19 64.4956 7.09023   3
   4   4  19 56.3978 6.52090   3
   5   4  19 0.76253 0.61995   3
 -13  -5  19 5.83496 1.06950   3
  13   5 -19 4.80738 0.99069   3
 -12  -5  19 4.45272 0.91136   3
  12   5 -19 5.02446 1.09488   3
 -11  -5  19 20.2141 2.57511   3
 -10  -5  19 18.6325 2.48051   3
  10   5 -19 18.1403 2.45450   3
  -9  -5  19 0.21087 0.57776   3
   9   5 -19 -0.2193 0.71859   3
  -8  -5  19 13.2618 1.79595   3
   8  -5 -19 10.6677 1.44073   3
   8   5 -19 12.6737 1.84965   3
  -8   5  19 13.7413 1.68919   3
  -7  -5  19 0.66527 0.57228   3
   7  -5 -19 0.72897 0.49912   3
   7   5 -19 0.28269 0.77234   3
  -6  -5  19 0.17360 0.56359   3
   6  -5 -19 0.92369 0.45768   3
   6   5 -19 -0.1298 0.75221   3
  -6   5  19 0.45727 0.48275   3
   5  -5 -19 42.5841 4.53874   3
   5   5 -19 26.6453 3.53947   3
  -5   5  19 34.0214 3.87107   3
   4  -5 -19 16.3938 1.96157   3
  -4  -5  19 16.7688 2.18676   3
   4   5 -19 17.2095 2.25040   3
  -4   5  19 12.6307 1.70627   3
   3  -5 -19 18.8165 2.23900   3
  -3  -5  19 22.1175 2.71268   3
  -3   5  19 17.8316 2.19938   3
   3   5 -19 15.8766 2.26430   3
  -2  -5  19 13.0769 1.87536   3
   2  -5 -19 13.4711 1.67925   3
   2   5 -19 12.7085 1.91316   3
   1  -5 -19 6.45494 0.94760   3
  -1  -5  19 6.37643 1.19020   3
   1   5 -19 5.01523 1.15752   3
  -1   5  19 4.48102 0.81959   3
   0  -5 -19 1.36972 0.54320   3
   0  -5  19 1.86335 0.77420   3
   0   5  19 1.59531 0.56628   3
  -1  -5 -19 20.0734 2.40224   3
   1   5  19 19.4525 2.37853   3
  -2  -5 -19 -0.1568 0.50118   3
   2   5  19 0.56402 0.62139   3
  -3  -5 -19 0.12201 0.43794   3
 -10  -6  19 -0.0604 0.59600   3
  10   6 -19 0.10514 0.68163   3
  -9  -6  19 9.20870 1.40047   3
   9   6 -19 8.08547 1.35275   3
  -8  -6  19 12.2584 1.68285   3
   8   6 -19 11.1552 1.69222   3
  -7  -6  19 7.91077 1.24333   3
   7   6 -19 8.33316 1.34888   3
   6   6 -19 0.05409 0.71594   3
  -5  -6  19 -0.4320 0.53736   3
   5   6 -19 0.18312 0.69004   3
  -4  -6  19 2.37307 0.71673   3
   4  -6 -19 1.84020 0.65335   3
   3  -6 -19 11.1526 1.47424   3
   2  -6 -19 5.03543 0.92070   3
 -20   0  20 19.8486 2.80635   2
  20   0 -20 19.0737 2.72593   2
  19   0 -20 16.2080 2.37693   2
 -19   0  20 14.3719 2.19192   2
  18   0 -20 1.98798 0.77899   2
  17   0 -20 0.25352 0.69756   2
 -17   0  20 0.57068 0.89047   2
 -16   0  20 -0.0346 0.68012   2
 -15   0  20 2.01955 0.76773   2
  14   0 -20 76.3850 9.42074   2
 -14   0  20 58.9325 7.79954   2
 -13   0  20 5.27433 1.05486   2
  13   0 -20 2.25381 0.78891   2
 -13   0  20 3.88414 0.85491   3
  13   0 -20 3.65813 0.85167   3
  12   0 -20 96.0360 12.0539   2
  12   0 -20 103.183 11.1959   3
 -12   0  20 85.1665 11.1035   2
 -11   0  20 291.355 31.7937   3
  11   0 -20 297.437 32.2551   3
 -11   0  20 287.191 35.6228   2
  11   0 -20 265.819 33.7428   2
 -10   0  20 10.2215 1.69464   2
  10   0 -20 12.9567 1.92586   2
  10   0 -20 12.6486 1.65877   3
 -10   0  20 10.9207 1.49343   3
  -9   0  20 4.23288 0.81883   3
   9   0 -20 4.42841 0.85098   3
  -9   0  20 3.77119 0.97306   2
   9   0 -20 5.31531 1.07927   2
   8   0 -20 136.404 14.9549   3
  -8   0  20 136.000 16.9508   2
   8   0 -20 131.067 16.4998   2
  -8   0  20 126.462 14.2363   3
   7   0 -20 4.96717 1.07619   2
  -7   0  20 5.43724 0.87223   3
  -7   0  20 4.86452 0.78435   3
  -7   0  20 5.24326 1.09869   2
  -6   0  20 4.05669 0.66575   3
  -6   0  20 2.45151 0.80462   2
   6   0 -20 3.69409 0.92824   2
   6   0 -20 3.14241 0.67568   3
   5   0 -20 -0.6028 0.60943   2
  -5   0  20 0.17492 0.37305   3
   5   0 -20 0.41408 0.44043   3
  -5   0  20 -0.0898 0.52942   2
  -4   0  20 199.205 24.8933   2
   4   0 -20 212.854 26.1379   2
   4   0 -20 186.891 21.1206   3
  -4   0  20 203.640 22.2864   3
  -3   0  20 0.59181 0.45997   3
   3   0 -20 0.70733 0.67897   2
  -3   0  20 -0.4273 0.73551   2
   3   0 -20 1.25933 0.47180   3
   2   0 -20 36.1098 4.08874   3
  -2   0  20 28.1232 4.01356   2
   2   0 -20 34.0696 4.52684   2
  -2   0  20 45.7521 4.78752   3
   1   0 -20 261.807 28.9806   3
  -1   0  20 243.636 31.1719   2
   1   0 -20 316.999 37.7736   2
  -1   0  20 260.334 28.8693   3
   0   0 -20 35.7334 4.75610   2
   0   0  20 38.0509 4.27653   3
   0   0  20 33.5011 4.55922   2
   0   0 -20 38.4614 4.34153   3
   1   0  20 28.0314 3.22763   3
  -1   0 -20 24.9213 3.50946   2
   1   0  20 26.0297 3.59434   2
  -1   0 -20 30.9605 3.47075   3
   2   0  20 21.2821 3.08292   2
  -2   0 -20 26.8006 3.57262   2
  -2   0 -20 21.4969 2.68319   3
   2   0  20 29.2725 3.22018   3
  -3   0 -20 0.28976 0.59396   3
   3   0  20 -1.0736 0.65679   2
   3   0  20 0.88106 0.50790   3
  -3   0 -20 -0.9298 0.65948   2
  -4   0 -20 29.6928 4.01982   2
   4   0  20 26.5983 3.75253   2
  -4   0 -20 35.0225 3.90717   3
  -5   0 -20 0.24992 0.75387   2
   5   0  20 -0.0361 0.67379   2
   5   0  20 0.34363 0.47959   3
  -5   0 -20 -0.6578 0.54039   3
  -6   0 -20 2.70909 0.94237   2
   6   0  20 3.24042 0.96892   2
   7   0  20 50.9750 6.51236   2
  -7   0 -20 42.7447 5.76948   2
   8   0  20 48.1143 6.28520   2
  -8   0 -20 47.7649 6.26261   2
  20  -1 -20 0.75568 0.58970   2
 -20   1  20 0.79730 0.64118   2
 -19  -1  20 9.62560 1.59213   2
  19  -1 -20 9.38444 1.61091   2
  19   1 -20 7.92243 1.47895   2
 -19   1  20 8.48309 1.50465   2
 -18  -1  20 6.70936 1.26327   2
  18  -1 -20 7.60788 1.35511   2
 -18   1  20 7.74207 1.35556   2
  18   1 -20 5.70255 1.17272   2
  17  -1 -20 8.39616 1.55842   2
 -17  -1  20 9.58013 1.61719   2
 -17   1  20 10.4162 1.72396   2
  17   1 -20 9.79670 1.61018   2
  16  -1 -20 -0.3229 0.66777   2
 -16  -1  20 0.82379 0.75854   2
  16   1 -20 0.11820 0.59709   2
 -16   1  20 0.18684 0.68402   2
  15  -1 -20 22.7260 3.16091   2
 -15  -1  20 21.9101 3.10777   2
 -15   1  20 21.3281 3.04687   2
  15   1 -20 25.1199 3.43514   2
  14  -1 -20 12.9707 1.96793   2
 -14  -1  20 11.7765 1.68692   3
 -14  -1  20 15.5878 2.31403   2
  14   1 -20 14.2674 2.29748   2
  14   1 -20 11.9442 1.77862   3
 -14   1  20 10.5667 1.71790   2
  13  -1 -20 31.9278 4.24722   2
 -13  -1  20 26.7300 3.38897   3
  13  -1 -20 34.2880 3.91021   3
 -13  -1  20 32.8486 4.34003   2
 -13   1  20 29.1042 3.95372   2
  13   1 -20 32.0826 4.28366   2
 -13   1  20 29.0788 3.47442   3
  12  -1 -20 20.5393 2.77060   2
 -12  -1  20 16.5014 2.13680   3
  12  -1 -20 17.4041 2.19779   3
 -12  -1  20 19.4151 2.69466   2
 -12   1  20 11.7279 2.00200   2
  12   1 -20 20.0743 2.74825   2
  12   1 -20 17.4844 2.23218   3
 -12   1  20 17.4658 2.14220   3
  11  -1 -20 15.3778 2.22966   2
  11  -1 -20 16.1221 1.99287   3
 -11  -1  20 15.4077 2.22528   2
 -11  -1  20 13.3755 1.80802   3
  11   1 -20 10.9839 1.67675   3
 -11   1  20 19.2392 2.59959   2
  11   1 -20 14.0014 2.10707   2
 -10  -1  20 1.61878 0.74247   2
 -10  -1  20 2.81250 0.76156   3
  10  -1 -20 2.69253 0.86068   2
  10  -1 -20 2.35554 0.61870   3
 -10   1  20 2.18108 0.57884   3
  10   1 -20 1.88219 0.62507   3
 -10   1  20 2.84817 0.87362   2
  10   1 -20 1.68321 0.71807   2
   9  -1 -20 0.89727 0.52564   3
   9  -1 -20 1.51189 0.73360   2
  -9  -1  20 2.72507 0.77161   2
  -9  -1  20 1.30050 0.63099   3
  -9   1  20 1.42540 0.79006   2
  -9   1  20 1.18998 0.48944   3
   9   1 -20 2.46555 0.69905   3
   9   1 -20 1.90296 0.69358   2
  -8  -1  20 43.4863 5.66215   2
  -8  -1  20 41.8025 4.82307   3
   8  -1 -20 39.9503 4.64474   3
   8  -1 -20 44.3203 5.71949   2
  -8   1  20 40.8848 5.41604   2
  -8   1  20 45.6545 5.03455   3
   8   1 -20 41.0861 5.42631   2
   7  -1 -20 12.6692 1.89640   2
   7  -1 -20 9.96101 1.36099   3
  -7  -1  20 13.2436 1.62777   3
   7   1 -20 7.76813 1.45347   2
  -7   1  20 14.1453 2.05343   2
   7   1 -20 12.6259 1.61602   3
  -7   1  20 11.7313 1.48610   3
  -6  -1  20 0.27933 0.47349   3
   6  -1 -20 -0.0677 0.59960   2
   6  -1 -20 1.05129 0.46663   3
   6   1 -20 0.96371 0.67735   2
  -6   1  20 1.29691 0.69756   2
   6   1 -20 0.60044 0.45331   3
   5  -1 -20 104.595 12.5347   2
  -5  -1  20 76.0541 8.75752   3
   5  -1 -20 88.0330 9.56048   3
   5   1 -20 78.0277 8.90508   3
  -5   1  20 78.4832 10.1063   2
  -5   1  20 71.8647 8.43532   3
   5   1 -20 92.9923 11.4331   2
  -4  -1  20 55.1429 6.40148   3
   4  -1 -20 66.7182 7.19027   3
  -4  -1  20 68.1992 8.45303   2
   4  -1 -20 48.9431 6.74616   2
  -4   1  20 64.7924 7.05541   3
  -4   1  20 47.6932 6.62741   2
   4   1 -20 75.3661 7.95371   3
   4   1 -20 75.0071 9.09414   2
   3  -1 -20 -0.1308 0.41815   3
  -3  -1  20 0.70840 0.50735   3
  -3  -1  20 1.00043 0.77226   2
   3  -1 -20 0.60833 0.59781   2
  -3   1  20 -0.0779 0.46322   3
   3   1 -20 0.16901 0.47302   3
  -3   1  20 0.52909 0.57197   2
  -2  -1  20 60.1620 7.87517   2
  -2  -1  20 66.9797 7.43401   3
   2  -1 -20 60.2096 6.90268   3
   2  -1 -20 73.3191 9.06499   2
  -2   1  20 64.7143 7.23337   3
  -1  -1  20 26.9352 3.84144   2
  -1  -1  20 32.9105 3.79616   3
   1  -1 -20 38.1271 4.84886   2
   1  -1 -20 33.5499 3.79122   3
   1   1 -20 34.0168 3.90667   3
  -1   1  20 30.8369 3.61631   3
   0  -1  20 49.0597 6.23708   2
   0  -1 -20 39.2715 5.31929   2
   0  -1  20 44.0602 5.04151   3
   0  -1 -20 42.9458 4.91010   3
   0   1 -20 47.3799 6.06122   2
   0   1 -20 41.2432 4.86527   3
   0   1  20 48.0539 6.14494   2
   1  -1  20 36.6136 4.18990   3
   1  -1  20 31.8696 4.41520   2
  -1  -1 -20 40.1503 4.39167   3
   1   1  20 34.5637 4.63688   2
  -1   1 -20 32.2251 4.41310   2
   1   1  20 37.4791 4.21637   3
  -1   1 -20 36.4823 4.20086   3
   2  -1  20 32.0804 4.18924   2
  -2  -1 -20 24.3317 3.04187   3
   2  -1  20 32.6494 3.66268   3
   2   1  20 23.4386 3.40973   2
  -2   1 -20 26.0366 3.62748   2
  -2   1 -20 34.5320 3.81391   3
   2   1  20 30.5281 3.49382   3
  -3  -1 -20 14.5100 2.19467   2
   3  -1  20 15.2974 2.27524   2
  -3  -1 -20 14.5360 1.81266   3
   3  -1  20 17.1785 2.09147   3
   3   1  20 15.0292 2.23502   2
   3   1  20 14.5245 1.82382   3
  -3   1 -20 11.0893 1.87678   2
   4  -1  20 26.2978 3.75310   2
  -4  -1 -20 36.9100 4.69382   2
  -4  -1 -20 26.6144 3.25121   3
   4  -1  20 32.9318 3.78379   3
   4   1  20 29.8519 3.47932   3
   4   1  20 27.4097 3.84890   2
  -4   1 -20 35.7664 4.58431   2
   5  -1  20 -0.3255 0.60419   2
  -5  -1 -20 0.76308 0.66465   2
  -5  -1 -20 0.52277 0.53669   3
   5   1  20 0.80823 0.58267   3
  -5   1 -20 0.41691 0.73024   2
   5   1  20 0.15989 0.64596   2
  -6  -1 -20 12.3743 1.92256   2
   6  -1  20 8.96760 1.62967   2
   6   1  20 10.9862 1.78422   2
  -6   1 -20 9.59539 1.66460   2
  -7  -1 -20 32.2206 4.31035   2
   7  -1  20 32.4330 4.32501   2
  -7   1 -20 32.8671 4.37062   2
   7   1  20 27.1013 3.87258   2
   8  -1  20 1.54636 0.76353   2
  -8  -1 -20 0.90690 0.77256   2
  -8   1 -20 1.22249 0.69320   2
  19  -2 -20 7.32117 1.35112   2
 -19   2  20 8.81567 1.60156   2
  18  -2 -20 3.76709 0.98109   2
  17  -2 -20 8.24803 1.44499   2
  17   2 -20 5.69771 1.18605   2
  16  -2 -20 11.0645 1.73762   2
 -16  -2  20 8.38279 1.55661   2
  16   2 -20 8.46111 1.47972   2
 -15  -2  20 13.5824 2.12475   2
  15  -2 -20 15.5408 2.25137   2
 -14  -2  20 4.16927 0.97238   3
  14  -2 -20 1.67843 0.92181   2
 -14  -2  20 3.36151 0.91867   2
  14   2 -20 3.01723 0.79717   3
  14   2 -20 3.41191 1.00490   2
 -14   2  20 2.95555 0.91693   2
 -13  -2  20 5.59737 1.11796   2
 -13  -2  20 3.58036 0.90896   3
  13   2 -20 5.37307 1.15207   2
 -13   2  20 2.82970 0.82119   2
  13   2 -20 4.16020 0.95897   3
 -12  -2  20 4.79017 0.90824   3
 -12  -2  20 3.70640 0.98401   2
  12  -2 -20 3.97325 0.78075   3
 -12   2  20 4.34474 0.96857   2
  12   2 -20 7.11548 1.28208   2
 -12   2  20 5.34954 0.85681   3
  12   2 -20 4.96527 1.03965   3
  11  -2 -20 3.25340 0.66661   3
 -11  -2  20 1.45482 0.70561   3
 -11  -2  20 2.67708 0.76697   2
  11   2 -20 2.73927 0.79010   3
 -11   2  20 1.42264 0.50369   3
  11   2 -20 0.73750 0.70348   2
 -11   2  20 2.62993 0.81547   2
  10  -2 -20 0.93827 0.48067   3
 -10  -2  20 0.80488 0.64311   2
  10  -2 -20 -0.1347 0.59616   2
 -10  -2  20 0.93700 0.62490   3
  10   2 -20 -0.1164 0.64542   3
 -10   2  20 1.22892 0.69276   2
  10   2 -20 0.03342 0.59171   2
  -9  -2  20 0.52540 0.73317   2
   9  -2 -20 0.42176 0.44363   3
  -9  -2  20 0.92193 0.58290   3
   9  -2 -20 0.51763 0.70596   2
  -9   2  20 0.03640 0.47319   3
   9   2 -20 0.86356 0.65327   2
  -9   2  20 0.68671 0.79029   2
   8  -2 -20 4.51103 1.04407   2
  -8  -2  20 5.97718 1.20907   2
   8  -2 -20 5.78805 0.87197   3
  -8   2  20 5.27415 0.87805   3
   8   2 -20 5.22276 1.03412   3
  -8   2  20 5.07624 1.07327   2
   8   2 -20 6.23933 1.13362   2
   7  -2 -20 -0.0849 0.44471   3
   7  -2 -20 0.34920 0.66913   2
  -7  -2  20 -0.8763 0.55355   3
  -7  -2  20 -0.1232 0.65736   2
   7   2 -20 0.71812 0.67124   2
   7   2 -20 1.90350 0.67527   3
  -7   2  20 0.60202 0.50991   3
  -7   2  20 1.06981 0.68330   2
   6  -2 -20 3.46125 0.66478   3
  -6  -2  20 3.14301 0.79369   3
   6  -2 -20 3.79649 0.86199   2
  -6  -2  20 3.57713 0.89255   2
   6   2 -20 3.07421 0.86351   2
  -6   2  20 3.12523 0.94431   2
  -6   2  20 3.22407 0.66551   3
   6   2 -20 3.12940 0.83859   3
  -5  -2  20 2.37463 0.89037   2
   5  -2 -20 0.60425 0.54810   3
   5  -2 -20 2.03448 0.74105   2
  -5  -2  20 1.76755 0.64111   3
  -5   2  20 1.99219 0.75683   2
   5   2 -20 2.61417 0.89766   2
   5   2 -20 1.30757 0.69291   3
   4  -2 -20 14.7750 1.83674   3
   4  -2 -20 15.9953 2.36797   2
  -4  -2  20 16.4306 2.35338   2
  -4  -2  20 14.1251 1.88279   3
   4   2 -20 13.5395 1.89608   3
   4   2 -20 17.4412 2.46721   2
  -4   2  20 15.9531 1.94652   3
   3  -2 -20 8.10383 1.38099   2
  -3  -2  20 6.44773 1.32568   2
  -3  -2  20 8.09708 1.21815   3
   3  -2 -20 4.49462 0.79027   3
  -3   2  20 6.94263 1.00130   3
   3   2 -20 6.90366 1.29153   2
  -3   2  20 6.03864 1.33043   2
   2  -2 -20 0.44147 0.72838   2
  -2  -2  20 0.40339 0.53557   3
  -2  -2  20 0.05169 0.55838   2
   2  -2 -20 -0.2484 0.47633   3
  -2   2  20 0.51209 0.52948   3
   2   2 -20 -0.1668 0.58580   3
  -2   2  20 -0.2478 0.66048   2
   2   2 -20 -0.4007 0.61594   2
   1  -2 -20 18.1276 2.17584   3
  -1  -2  20 19.1340 2.73360   2
   1  -2 -20 18.0595 2.62736   2
  -1  -2  20 17.9921 2.27727   3
  -1   2  20 16.1901 2.45684   2
   1   2 -20 20.4804 2.81213   2
  -1   2  20 17.1374 2.12958   3
   1   2 -20 20.4308 2.47776   3
   0  -2  20 58.8552 7.28417   2
   0  -2 -20 46.5465 6.16788   2
   0  -2  20 59.9666 6.43159   3
   0   2 -20 47.4499 5.53055   3
   0   2 -20 39.4717 5.53763   2
   0   2  20 50.3635 6.49415   2
   1  -2  20 48.1492 5.61364   3
   1  -2  20 49.6895 6.48951   2
  -1  -2 -20 46.7272 5.41180   3
  -1   2 -20 52.8674 6.78217   2
  -1   2 -20 53.9045 6.03988   3
   2  -2  20 10.5125 1.65887   2
  -2  -2 -20 7.15788 1.36433   2
  -2  -2 -20 9.65818 1.27601   3
   2  -2  20 6.52675 1.32851   3
   2   2  20 11.4195 1.75382   2
   2   2  20 8.76829 1.24848   3
  -2   2 -20 9.17838 1.52235   2
  -3  -2 -20 15.2367 1.83109   3
   3  -2  20 15.8546 2.01969   3
   3  -2  20 10.9643 1.91099   2
  -3  -2 -20 12.4191 2.01364   2
  -3   2 -20 13.2010 1.99932   2
   3   2  20 12.3311 1.97051   2
  -3   2 -20 12.2220 1.75667   3
   3   2  20 14.6179 1.79215   3
  -4  -2 -20 107.074 10.9319   3
   4  -2  20 71.1442 9.37450   2
  -4  -2 -20 71.0532 9.38079   2
   4   2  20 77.3579 8.68458   3
   4   2  20 75.8611 9.79340   2
  -4   2 -20 82.1106 10.3342   2
   5  -2  20 14.0823 2.18322   2
  -5  -2 -20 13.4137 2.12243   2
   5   2  20 14.9716 2.30042   2
  -5   2 -20 18.0024 2.53564   2
   5   2  20 16.2638 1.99643   3
   6  -2  20 1.67481 0.76609   2
  -6  -2 -20 0.81754 0.72380   2
   6   2  20 1.80181 0.89685   2
  -6   2 -20 0.88149 0.76400   2
   7  -2  20 9.82756 1.68187   2
  -7   2 -20 11.3883 1.83370   2
  18  -3 -20 34.0232 4.58949   2
  17  -3 -20 0.33687 0.69581   2
 -17   3  20 0.86853 0.72992   2
  16  -3 -20 11.5644 1.86193   2
 -16   3  20 12.9243 1.97764   2
  15  -3 -20 96.1209 11.8507   2
 -15  -3  20 70.8640 8.67513   3
 -15   3  20 94.5492 11.7090   2
  15   3 -20 85.6253 9.72218   3
  14  -3 -20 -0.1817 0.55148   2
 -14   3  20 0.17124 0.67268   2
  14   3 -20 0.03020 0.71798   3
 -13  -3  20 1.26583 0.75220   3
  13  -3 -20 3.11381 0.98146   2
  13   3 -20 2.57305 0.86204   3
 -13   3  20 3.01353 0.92832   2
  12  -3 -20 5.90060 1.26691   2
 -12  -3  20 6.06422 1.11417   3
 -12  -3  20 5.70791 1.18244   2
 -12   3  20 6.07027 1.17459   2
  12   3 -20 7.27298 1.17123   3
  12   3 -20 6.36640 1.29787   2
  11  -3 -20 6.68002 1.43913   2
 -11  -3  20 4.85623 1.13317   2
  11  -3 -20 3.52844 0.71353   3
 -11  -3  20 3.70768 0.96802   3
  11   3 -20 6.34568 1.22152   2
  11   3 -20 3.12598 0.90151   3
 -11   3  20 4.40573 0.79273   3
 -10  -3  20 9.64988 1.51091   3
 -10  -3  20 8.56892 1.52587   2
  10  -3 -20 11.9911 1.82561   2
  10  -3 -20 10.6381 1.38234   3
  10   3 -20 11.2068 1.64445   3
  10   3 -20 10.8953 1.72451   2
 -10   3  20 10.2049 1.38457   3
 -10   3  20 12.2100 1.82314   2
  -9  -3  20 38.6996 5.14863   2
   9  -3 -20 44.3853 5.65397   2
   9  -3 -20 32.4751 4.03925   3
  -9   3  20 42.5353 5.48773   2
   9   3 -20 43.6009 5.61283   2
   9   3 -20 43.8700 5.01178   3
  -9   3  20 39.8479 4.57084   3
   8  -3 -20 40.2322 5.56580   2
   8  -3 -20 47.9299 5.40289   3
  -8  -3  20 43.7764 5.26013   3
  -8  -3  20 46.1423 6.07469   2
  -8   3  20 49.8174 5.53888   3
   8   3 -20 51.4934 6.57271   2
   8   3 -20 56.4498 6.21919   3
  -8   3  20 50.2068 6.43741   2
  -7  -3  20 21.0753 2.89304   2
   7  -3 -20 19.0489 2.20847   3
  -7  -3  20 16.4982 2.16496   3
   7  -3 -20 12.9342 2.09995   2
   7   3 -20 16.4513 2.19146   3
  -7   3  20 18.4356 2.61462   2
  -7   3  20 16.6134 2.04772   3
   7   3 -20 16.9228 2.44478   2
   6  -3 -20 5.33895 0.84892   3
  -6  -3  20 6.01315 1.09427   3
   6  -3 -20 5.73704 1.18470   2
  -6   3  20 5.91716 0.90614   3
   6   3 -20 7.40521 1.19981   3
   6   3 -20 6.84865 1.25723   2
  -6   3  20 7.69872 1.37266   2
   5  -3 -20 31.9891 3.72068   3
  -5  -3  20 31.1386 3.78917   3
   5  -3 -20 35.1595 4.62384   2
   5   3 -20 34.0309 4.02245   3
   5   3 -20 34.3390 4.61031   2
  -5   3  20 40.4553 5.12785   2
  -5   3  20 29.2335 3.53703   3
  -4  -3  20 17.9527 2.63701   2
  -4  -3  20 16.4766 2.14527   3
   4  -3 -20 15.8648 1.96142   3
   4  -3 -20 15.7111 2.34522   2
  -4   3  20 17.9241 2.55745   2
   4   3 -20 16.2256 2.47404   2
  -3  -3  20 12.6338 1.98766   2
   3  -3 -20 10.5111 1.76480   2
   3  -3 -20 13.9510 1.67274   3
   3   3 -20 14.7772 2.03256   3
  -3   3  20 10.1784 1.40763   3
  -2  -3  20 3.94170 0.87984   3
   2  -3 -20 4.07583 0.77879   3
  -2  -3  20 4.28938 1.01402   2
   2  -3 -20 3.81067 0.96408   2
   2   3 -20 4.61454 1.00336   3
  -2   3  20 3.87012 0.77688   3
   1  -3 -20 0.83883 0.50104   3
  -1  -3  20 -1.0979 0.66990   2
  -1  -3  20 1.16962 0.62956   3
   1  -3 -20 -0.0916 0.68406   2
   1   3 -20 0.68330 0.67864   3
  -1   3  20 -0.1065 0.53981   3
   0  -3  20 42.5379 5.06647   3
   0  -3 -20 43.2258 4.99888   3
   0  -3  20 52.5110 6.61030   2
   0   3  20 52.5773 6.65193   2
   0   3 -20 41.6119 5.03530   3
   0   3  20 47.5216 5.31553   3
   0   3 -20 42.2500 5.68255   2
   1  -3  20 6.57438 1.34167   2
   1  -3  20 4.92184 1.01743   3
  -1   3 -20 4.88809 1.12538   2
   1   3  20 5.50687 0.96133   3
   1   3  20 6.53679 1.32118   2
  -2  -3 -20 30.5556 3.75138   3
   2  -3  20 34.8918 4.18194   3
   2  -3  20 40.3639 5.21465   2
  -2  -3 -20 35.6026 4.77219   2
   2   3  20 31.1872 4.39822   2
   2   3  20 36.4694 4.15957   3
  -2   3 -20 44.9583 5.62177   2
  -2   3 -20 37.9177 4.44942   3
  -3  -3 -20 165.230 18.3908   3
  -3  -3 -20 170.160 21.3181   2
   3  -3  20 208.640 24.8339   2
   3   3  20 172.181 21.4604   2
   3   3  20 172.471 18.9052   3
  -3   3 -20 145.423 19.1337   2
   4  -3  20 14.8011 2.32306   2
  -4  -3 -20 17.7214 2.13163   3
  -4  -3 -20 26.7084 3.41176   2
   4   3  20 15.2180 1.97627   3
  -4   3 -20 13.1996 2.13362   2
   5  -3  20 4.70557 1.10087   2
  -5  -3 -20 6.33485 0.97061   3
  -5   3 -20 3.27667 1.04678   2
   5   3  20 5.17918 0.96279   3
 -14  -4  20 1.85418 0.77407   3
  14  -4 -20 1.24378 0.69262   2
  14   4 -20 1.47000 0.86428   3
 -13  -4  20 4.53173 0.98972   3
  13  -4 -20 4.65810 1.11523   2
  13   4 -20 4.83097 1.09729   3
 -13   4  20 5.56774 1.15197   2
 -12  -4  20 45.7739 5.46043   3
  12  -4 -20 51.1654 6.59950   2
  12   4 -20 44.8520 5.41935   3
 -12   4  20 55.9202 7.03949   2
  11  -4 -20 7.14089 1.35183   2
 -11  -4  20 6.30762 1.14287   3
 -11   4  20 5.60210 1.15480   2
  11   4 -20 7.47615 1.28040   3
 -10  -4  20 0.21001 0.54355   3
  10  -4 -20 -0.0335 0.80536   2
  10  -4 -20 0.85596 0.52976   3
  10   4 -20 -0.0583 0.58292   3
 -10   4  20 1.41816 0.76309   2
 -10   4  20 -0.0374 0.51594   3
   9  -4 -20 3.52637 0.74020   3
  -9  -4  20 2.97797 0.79982   3
   9  -4 -20 4.81572 1.05712   2
  -9   4  20 3.32451 0.72050   3
  -9   4  20 3.43260 0.83983   2
   9   4 -20 3.33147 0.95393   3
   8  -4 -20 24.1954 3.34222   2
  -8  -4  20 26.8080 3.13680   3
   8  -4 -20 24.3135 2.81538   3
   8   4 -20 18.8178 2.63140   3
  -8   4  20 23.6453 3.27118   2
  -8   4  20 22.5631 2.70204   3
  -7  -4  20 14.2308 1.98305   3
   7  -4 -20 16.5326 1.95363   3
   7  -4 -20 10.4599 1.78617   2
   7   4 -20 15.8525 2.12380   3
  -7   4  20 15.0146 1.84700   3
  -7   4  20 16.9310 2.37425   2
   6  -4 -20 -0.1246 0.39655   3
  -6  -4  20 0.04790 0.69103   3
   6  -4 -20 0.90099 0.68821   2
  -6   4  20 -0.1170 0.67304   2
   6   4 -20 -1.4861 0.73510   3
  -6   4  20 0.33754 0.44071   3
  -5  -4  20 7.43907 1.27060   3
   5  -4 -20 7.23458 1.05035   3
  -5   4  20 6.56370 1.29453   2
  -5   4  20 4.91694 0.85124   3
   4   4 -20 2.33659 0.85254   3
  -4   4  20 2.43860 0.59189   3
  -3  -4  20 8.01198 1.36458   3
   3  -4 -20 8.60922 1.19242   3
   3   4 -20 10.2209 1.55507   3
  -2  -4  20 1.40019 0.68169   3
   2  -4 -20 0.45870 0.42414   3
   2   4 -20 -0.2022 0.77903   3
  -2   4  20 0.44832 0.51705   3
  -1  -4  20 0.37955 0.59993   3
   1  -4 -20 0.65680 0.46004   3
  -1   4  20 -0.0807 0.49473   3
   1   4 -20 0.73375 0.73546   3
   0  -4  20 76.7136 9.24759   3
   0  -4 -20 116.484 11.9548   3
   0   4  20 88.2315 9.88039   3
   1  -4  20 10.1854 1.64739   3
  -1  -4 -20 13.6107 1.66701   3
   1   4  20 10.6154 1.46767   3
  -1   4 -20 12.2419 1.84179   3
  -2  -4 -20 2.20295 0.60984   3
  -3  -4 -20 0.31107 0.56262   3
   3   4  20 1.44748 0.64832   3
  -4  -4 -20 -0.2965 0.50152   3
   4   4  20 1.22480 0.66193   3
  13   5 -20 7.92291 1.30507   3
 -12  -5  20 7.30591 1.17836   3
  12   5 -20 7.66052 1.33333   3
 -11  -5  20 6.96645 1.19272   3
 -10  -5  20 12.4425 1.77926   3
  10   5 -20 15.9612 2.10061   3
  -9  -5  20 6.58072 1.18131   3
   9   5 -20 7.86349 1.32948   3
  -8  -5  20 1.23937 0.60582   3
   8  -5 -20 -0.1173 0.40208   3
   8   5 -20 -0.6947 0.62465   3
  -8   5  20 -0.1348 0.45263   3
  -7  -5  20 2.85172 0.76100   3
   7  -5 -20 2.96678 0.70631   3
   7   5 -20 2.37085 0.87448   3
   6  -5 -20 3.78040 0.69352   3
  -6  -5  20 3.80314 0.85372   3
  -6   5  20 3.84729 0.75788   3
   6   5 -20 2.60923 0.87871   3
   5  -5 -20 0.61288 0.47941   3
   5   5 -20 2.88821 0.87629   3
  -5   5  20 1.21855 0.56719   3
   4  -5 -20 0.75314 0.52976   3
  -4  -5  20 1.03905 0.63966   3
  -4   5  20 2.96496 0.66048   3
   4   5 -20 2.26354 0.85096   3
  -3  -5  20 24.4779 3.14115   3
   3   5 -20 26.5727 3.30429   3
  -3   5  20 26.9471 3.12193   3
  -2  -5  20 17.6023 2.33975   3
   2  -5 -20 16.0147 2.03307   3
   2   5 -20 17.1696 2.32890   3
   1  -5 -20 1.11457 0.54340   3
  -1  -5  20 0.76851 0.77329   3
  -1   5  20 -0.1298 0.61119   3
   0  -5 -20 21.8226 2.55506   3
   0   5  20 18.4665 2.35404   3
  -1  -5 -20 2.85264 0.69837   3
   1   5  20 3.02373 0.80669   3
   2   5  20 1.95852 0.67703   3
 -20   0  21 -0.3980 0.67227   2
 -19   0  21 0.18965 0.73038   2
  19   0 -21 0.91088 0.71326   2
  18   0 -21 0.91475 0.66812   2
  17   0 -21 -0.6778 0.54915   2
 -16   0  21 0.78097 0.76867   2
 -15   0  21 -0.4307 0.63442   2
 -14   0  21 -0.6164 0.58902   3
 -14   0  21 1.03396 0.66586   2
  14   0 -21 -0.8208 0.64158   2
 -13   0  21 -0.6678 0.64359   3
  13   0 -21 0.24848 0.55578   3
 -13   0  21 0.41259 0.52989   2
  13   0 -21 -0.0878 0.56889   2
  12   0 -21 0.21699 0.57377   2
  12   0 -21 0.27068 0.63462   3
 -12   0  21 -0.0870 0.56403   2
  11   0 -21 0.42478 0.55377   3
  11   0 -21 -0.0832 0.52274   2
 -11   0  21 -0.2609 0.54440   2
 -11   0  21 -0.0328 0.47883   3
 -10   0  21 -0.3200 0.56231   2
  10   0 -21 -0.2608 0.55391   3
 -10   0  21 0.17040 0.49977   3
  10   0 -21 -0.0994 0.58572   2
  -9   0  21 -0.2417 0.53066   3
   9   0 -21 -0.3661 0.63344   2
  -9   0  21 -0.4725 0.61319   2
   9   0 -21 0.39417 0.53238   3
  -8   0  21 0.13848 0.53019   3
  -8   0  21 -0.3402 0.58049   2
   8   0 -21 0.97172 0.61368   2
   8   0 -21 0.24773 0.53328   3
  -7   0  21 -1.1873 0.65159   2
   7   0 -21 -0.5887 0.64621   2
   7   0 -21 -0.3596 0.53644   3
   6   0 -21 -0.3661 0.43560   3
   6   0 -21 0.46796 0.61344   2
  -6   0  21 1.77606 0.73148   2
  -6   0  21 0.52360 0.41094   3
   5   0 -21 -0.2994 0.63986   2
  -5   0  21 -0.5684 0.61056   2
   5   0 -21 0.64301 0.49293   3
  -5   0  21 0.20887 0.45629   3
  -4   0  21 1.24574 0.78648   2
   4   0 -21 0.18200 0.69710   2
  -4   0  21 -0.7997 0.46185   3
   4   0 -21 0.10373 0.46934   3
  -3   0  21 -0.2129 0.78428   2
   3   0 -21 0.12056 0.64314   2
  -3   0  21 0.34498 0.48408   3
   3   0 -21 0.91691 0.53321   3
  -2   0  21 0.91559 0.67014   2
  -2   0  21 -0.0914 0.52604   3
   2   0 -21 0.94520 0.62813   3
   2   0 -21 -0.4971 0.59301   2
   1   0 -21 -0.1098 0.54115   3
   1   0 -21 0.45937 0.70192   2
  -1   0  21 0.36865 0.74068   2
   0   0  21 0.37087 0.60707   2
   0   0  21 0.10889 0.44860   3
   0   0 -21 0.15582 0.56114   2
   0   0 -21 -0.2969 0.51567   3
   1   0  21 -0.1195 0.49925   3
  -1   0 -21 0.14277 0.63099   2
   1   0  21 0.01748 0.66933   2
  -1   0 -21 0.28240 0.56175   3
   2   0  21 0.17946 0.46827   3
   2   0  21 0.40543 0.71066   2
  -2   0 -21 0.83652 0.73499   2
  -2   0 -21 0.96935 0.57434   3
   3   0  21 0.63414 0.53779   3
  -3   0 -21 0.20726 0.67919   2
   3   0  21 0.68520 0.74258   2
  -3   0 -21 0.37330 0.56266   3
  -4   0 -21 0.29170 0.69090   2
   4   0  21 -0.0658 0.51043   3
   4   0  21 0.20915 0.70179   2
  -4   0 -21 -0.2782 0.52356   3
  -5   0 -21 -0.8324 0.66423   2
   5   0  21 0.12424 0.69724   2
   6   0  21 0.17703 0.71281   2
  -6   0 -21 -0.4514 0.68197   2
   7   0  21 -0.4451 0.71692   2
  -7   0 -21 -0.5638 0.67484   2
  19  -1 -21 1.18536 0.67958   2
 -19  -1  21 2.59987 0.88037   2
 -19   1  21 0.61311 0.60741   2
  18  -1 -21 0.81344 0.76633   2
 -18  -1  21 0.62077 0.75800   2
 -18   1  21 -0.8069 0.72651   2
  18   1 -21 0.09978 0.68602   2
 -17  -1  21 16.2732 2.29054   2
  17  -1 -21 11.3532 1.86320   2
  17   1 -21 10.8876 1.82383   2
 -17   1  21 12.4901 1.95231   2
  16  -1 -21 5.21910 1.14986   2
 -16  -1  21 7.80998 1.37260   2
 -16   1  21 5.95215 1.23476   2
  16   1 -21 4.14140 0.98609   2
  15  -1 -21 1.69539 0.72187   2
 -15  -1  21 1.99786 0.76000   2
 -15   1  21 1.85152 0.79161   2
  15   1 -21 1.19398 0.73884   2
  13  -1 -21 31.6499 4.26965   2
  13  -1 -21 29.2257 3.55320   3
 -13  -1  21 34.7266 4.48423   2
 -13  -1  21 35.1613 4.02347   3
  13   1 -21 34.9757 4.09928   3
 -13   1  21 30.1190 3.57340   3
  13   1 -21 24.5187 3.62743   2
 -13   1  21 32.0313 4.23094   2
 -12  -1  21 9.96415 1.61647   2
  12  -1 -21 11.3069 1.55007   3
  12  -1 -21 11.1143 1.73683   2
 -12  -1  21 9.55656 1.39198   3
  12   1 -21 8.35734 1.31243   3
 -12   1  21 11.6421 1.52069   3
 -12   1  21 8.21517 1.48015   2
  12   1 -21 8.85639 1.53325   2
 -11  -1  21 -0.1143 0.51340   2
  11  -1 -21 0.81335 0.55403   3
  11  -1 -21 -0.2017 0.66031   2
 -11  -1  21 -0.5153 0.53797   3
 -11   1  21 0.00000 0.63009   2
  11   1 -21 0.96437 0.66956   2
  11   1 -21 0.31899 0.58760   3
 -10  -1  21 54.7457 7.24329   2
 -10  -1  21 61.6696 6.96256   3
  10  -1 -21 60.1321 7.71769   2
  10  -1 -21 57.6993 6.60463   3
  10   1 -21 62.5801 7.01790   3
  10   1 -21 66.2092 8.27152   2
 -10   1  21 61.1023 7.80456   2
 -10   1  21 59.3355 6.69584   3
  -9  -1  21 55.8562 7.05769   2
   9  -1 -21 54.2240 6.02897   3
  -9  -1  21 61.8117 6.64294   3
   9  -1 -21 63.2727 7.76552   2
  -9   1  21 41.8605 5.14890   3
   9   1 -21 48.2940 5.66226   3
   9   1 -21 43.5248 5.97358   2
  -9   1  21 57.9974 7.26193   2
  -8  -1  21 4.98276 1.12060   2
  -8  -1  21 6.72482 1.04002   3
   8  -1 -21 6.05649 1.16177   2
   8  -1 -21 5.02832 0.85862   3
  -8   1  21 5.55922 1.14096   2
   8   1 -21 6.66517 1.25040   2
  -8   1  21 4.92887 0.81686   3
   7  -1 -21 76.3871 10.1908   2
  -7  -1  21 98.5819 10.6522   3
   7  -1 -21 104.688 11.0571   3
  -7   1  21 95.6774 11.9025   2
   7   1 -21 95.9437 10.4728   3
  -7   1  21 126.162 12.6904   3
   7   1 -21 67.8741 9.46314   2
   6  -1 -21 6.30898 1.17981   2
  -6  -1  21 4.45520 0.84508   3
   6  -1 -21 4.14517 0.74621   3
   6   1 -21 3.40544 0.94663   2
  -6   1  21 3.03923 0.90902   2
   6   1 -21 5.68528 0.91981   3
  -5  -1  21 102.440 11.4985   3
   5  -1 -21 92.5668 10.7699   3
   5  -1 -21 111.363 13.8878   2
  -5   1  21 116.147 14.2927   2
   5   1 -21 99.4387 11.2985   3
   5   1 -21 119.835 14.6091   2
  -5   1  21 100.671 11.3294   3
  -4  -1  21 38.6232 5.47736   2
   4  -1 -21 48.6416 6.34862   2
   4  -1 -21 53.7008 5.86076   3
  -4  -1  21 46.6738 5.41008   3
  -4   1  21 53.1064 6.73356   2
   4   1 -21 54.6557 6.87709   2
   4   1 -21 47.7053 5.49439   3
  -4   1  21 56.0314 6.04347   3
  -3  -1  21 37.6396 4.90552   2
   3  -1 -21 29.7099 3.62597   3
  -3  -1  21 37.2813 4.21859   3
   3  -1 -21 32.8580 4.46167   2
  -3   1  21 39.0894 4.30081   3
   2  -1 -21 192.791 23.4143   2
   2  -1 -21 145.294 17.1279   3
  -2  -1  21 187.410 22.9326   2
   2   1 -21 170.090 18.8916   3
  -2   1  21 178.589 19.4387   3
   1  -1 -21 33.9177 4.61186   2
  -1  -1  21 31.5358 4.38985   2
  -1  -1  21 39.6248 4.42868   3
  -1   1  21 37.1967 4.21649   3
   1   1 -21 39.2886 4.43091   3
   0  -1  21 2.90332 0.86524   2
   0  -1 -21 2.28415 0.84966   2
   0  -1  21 2.74952 0.66784   3
   0  -1 -21 2.84308 0.61667   3
   0   1 -21 2.43479 0.73066   3
   0   1  21 3.41271 1.00168   2
   0   1 -21 2.63654 0.82535   2
   1  -1  21 19.0312 2.31901   3
   1  -1  21 15.8551 2.42645   2
  -1  -1 -21 18.6482 2.21705   3
  -1   1 -21 15.9149 2.11351   3
   1   1  21 19.4491 2.29086   3
   1   1  21 19.0108 2.67220   2
  -1   1 -21 18.0823 2.61112   2
   2  -1  21 19.0885 2.70509   2
   2  -1  21 18.8187 2.27191   3
  -2  -1 -21 19.3584 2.25556   3
   2   1  21 15.5462 2.34710   2
  -2   1 -21 18.6209 2.61030   2
   2   1  21 13.3201 1.83917   3
  -3  -1 -21 7.11182 1.37647   2
   3  -1  21 8.14140 1.48308   2
  -3  -1 -21 8.73056 1.21100   3
  -3   1 -21 7.51776 1.36590   2
   3   1  21 6.08276 1.04067   3
  -3   1 -21 7.62379 1.31018   3
   3   1  21 8.91837 1.52524   2
   4  -1  21 10.5004 1.78248   2
   4  -1  21 14.4771 1.84713   3
  -4  -1 -21 14.3112 2.12046   2
  -4   1 -21 10.5402 1.55815   3
  -4   1 -21 9.21205 1.66096   2
   4   1  21 10.7799 1.81947   2
   4   1  21 13.3859 1.69055   3
   5  -1  21 4.69929 1.05042   2
  -5  -1 -21 3.21234 0.90399   2
  -5   1 -21 4.03985 1.02806   2
   5   1  21 2.35207 0.82194   2
   5   1  21 3.17493 0.76884   3
  -6  -1 -21 -0.4756 0.65051   2
   6  -1  21 -0.2685 0.73829   2
  -6   1 -21 -0.5854 0.64460   2
   6   1  21 0.90007 0.74795   2
   7  -1  21 1.16211 0.72227   2
  -7   1 -21 0.60955 0.75935   2
  19  -2 -21 0.96170 0.74826   2
  18  -2 -21 1.88620 0.81472   2
 -17  -2  21 24.2653 3.46448   2
  17  -2 -21 23.4186 3.32998   2
  17   2 -21 26.8967 3.75054   2
  16  -2 -21 64.9847 8.56000   2
  16   2 -21 79.6424 9.91797   2
 -15  -2  21 3.45312 0.91478   3
  15  -2 -21 2.58016 0.79880   2
 -15  -2  21 3.22791 0.98710   2
  15   2 -21 2.69544 0.84000   3
 -15   2  21 3.23394 0.89364   2
 -14  -2  21 0.60857 0.69471   2
 -14  -2  21 -0.0506 0.58189   3
 -14   2  21 0.04935 0.71093   2
 -13  -2  21 46.0958 6.10702   2
 -13  -2  21 39.0586 4.96010   3
 -13   2  21 53.9577 6.81111   2
  13   2 -21 59.9724 7.42072   2
  13   2 -21 52.5086 5.95280   3
 -12  -2  21 40.0713 5.33952   2
  12  -2 -21 39.9757 4.64821   3
 -12  -2  21 52.2995 5.74785   3
 -12   2  21 44.0053 5.63392   2
 -12   2  21 37.4518 4.45197   3
  12   2 -21 40.3969 5.36394   2
  12   2 -21 41.4068 4.96771   3
  11  -2 -21 0.73145 0.48409   3
  11  -2 -21 2.08730 0.82324   2
 -11  -2  21 0.66848 0.70835   2
 -11  -2  21 0.84884 0.56418   3
  11   2 -21 2.09329 0.70017   2
  11   2 -21 1.09383 0.68046   3
 -11   2  21 2.24155 0.79926   2
 -11   2  21 0.50480 0.42294   3
  10  -2 -21 -0.0772 0.46687   3
 -10  -2  21 0.31872 0.57749   2
  10  -2 -21 1.25974 0.72652   2
 -10  -2  21 0.00926 0.62336   3
 -10   2  21 0.58418 0.57462   2
  10   2 -21 0.30079 0.63774   3
  10   2 -21 0.48653 0.65984   2
 -10   2  21 1.12588 0.49119   3
   9  -2 -21 9.21471 1.67380   2
   9  -2 -21 8.82181 1.31164   3
  -9  -2  21 15.1557 1.89208   3
  -9  -2  21 15.5965 2.20097   2
   9   2 -21 14.9245 2.14160   2
  -9   2  21 13.9300 2.05881   2
  -9   2  21 11.8205 1.51309   3
   8  -2 -21 0.09932 0.58860   2
  -8  -2  21 1.18605 0.71473   3
   8  -2 -21 2.17437 0.53625   3
  -8  -2  21 1.12530 0.77438   2
  -8   2  21 1.16541 0.74906   2
  -8   2  21 1.26561 0.49138   3
   8   2 -21 0.70082 0.70525   3
   8   2 -21 0.15520 0.66343   2
   7  -2 -21 15.8190 1.89778   3
   7  -2 -21 14.2797 2.18037   2
  -7  -2  21 15.5958 2.29456   2
  -7  -2  21 14.7246 1.94716   3
  -7   2  21 16.3188 1.95633   3
   7   2 -21 15.7328 2.30341   2
  -7   2  21 14.1542 2.19234   2
   7   2 -21 14.5379 1.94582   3
  -6  -2  21 30.4726 4.56678   2
   6  -2 -21 42.6665 5.60214   2
   6  -2 -21 44.2278 4.98937   3
  -6  -2  21 48.5790 5.38771   3
   6   2 -21 42.3721 5.58919   2
   6   2 -21 53.6395 5.79155   3
  -6   2  21 48.3367 5.28108   3
  -6   2  21 54.6827 6.73636   2
   5  -2 -21 59.6680 7.46348   2
   5  -2 -21 54.3902 6.05094   3
  -5  -2  21 44.6215 5.47047   3
  -5  -2  21 53.2920 6.90893   2
   5   2 -21 49.2062 5.80554   3
   5   2 -21 61.5631 7.65163   2
  -5   2  21 53.4068 6.89934   2
   4  -2 -21 20.7917 2.49109   3
  -4  -2  21 22.0531 3.07552   2
   4  -2 -21 26.8628 3.52606   2
  -4  -2  21 17.9666 2.38735   3
   4   2 -21 23.8712 2.86774   3
  -4   2  21 20.4277 2.48424   3
   4   2 -21 19.8668 2.90776   2
  -4   2  21 22.0537 3.08100   2
  -3  -2  21 77.1304 9.62718   2
  -3  -2  21 72.9420 8.14815   3
   3  -2 -21 66.1892 7.61345   3
   3  -2 -21 71.9848 9.17216   2
  -3   2  21 74.5203 8.19692   3
   3   2 -21 72.9580 9.25341   2
   3   2 -21 67.3412 7.83505   3
  -3   2  21 65.4410 8.58130   2
   2  -2 -21 1.14081 0.55127   3
  -2  -2  21 0.84083 0.67245   2
  -2  -2  21 0.57702 0.76496   3
   2  -2 -21 1.80180 0.73721   2
  -2   2  21 1.42131 0.61338   3
   2   2 -21 1.91917 0.88372   3
  -2   2  21 1.26305 0.65138   2
   2   2 -21 1.10049 0.75386   2
  -1  -2  21 5.37272 0.94825   3
   1  -2 -21 4.53086 0.84257   3
   1  -2 -21 6.94226 1.31948   2
  -1  -2  21 7.40321 1.28305   2
  -1   2  21 5.46507 0.90304   3
  -1   2  21 6.43077 1.28724   2
   1   2 -21 3.83079 0.91892   3
   1   2 -21 6.14320 1.26295   2
   0  -2 -21 117.639 15.0081   2
   0  -2  21 142.387 17.2598   2
   0  -2  21 126.242 13.9125   3
   0   2  21 132.595 16.3572   2
   0   2 -21 114.561 14.7290   2
   0   2  21 137.346 14.6407   3
   0   2 -21 102.478 12.2779   3
  -1  -2 -21 0.50851 0.55169   3
   1  -2  21 0.88718 0.66629   2
   1  -2  21 -0.0526 0.58229   3
  -1  -2 -21 -0.1037 0.66170   2
   1   2  21 0.28785 0.69843   2
  -1   2 -21 -0.8266 0.58240   2
  -1   2 -21 -0.1054 0.68338   3
   1   2  21 0.18528 0.56487   3
  -2  -2 -21 39.1051 4.43161   3
   2  -2  21 40.1274 5.27414   2
  -2   2 -21 34.4492 4.73060   2
   2   2  21 45.6131 5.75517   2
  -2   2 -21 37.9995 4.49186   3
   2   2  21 35.8800 4.21224   3
  -3  -2 -21 11.6279 1.78196   2
  -3  -2 -21 6.82709 1.09854   3
   3  -2  21 9.00827 1.56380   2
   3  -2  21 8.61741 1.35798   3
   3   2  21 9.08365 1.59134   2
  -3   2 -21 9.96410 1.62061   2
   3   2  21 7.39159 1.16639   3
  -3   2 -21 7.46782 1.34463   3
  -4  -2 -21 1.72449 0.82028   2
  -4  -2 -21 1.36887 0.56325   3
   4  -2  21 3.10369 0.95406   2
   4   2  21 1.45785 0.63040   3
  -4   2 -21 2.16678 0.85218   2
   4   2  21 1.43337 0.73824   2
   5  -2  21 6.14915 1.22718   2
  -5  -2 -21 5.45526 1.21686   2
   5   2  21 5.57717 1.26285   2
  -5   2 -21 7.01568 1.29667   2
   6  -2  21 12.6229 1.95278   2
  -6   2 -21 9.83407 1.71032   2
  17  -3 -21 2.45259 0.79763   2
 -17   3  21 4.26202 0.99697   2
  16  -3 -21 3.01001 0.86850   2
 -16   3  21 2.50803 0.93121   2
 -15  -3  21 18.2670 2.42754   3
  15  -3 -21 17.3507 2.58047   2
 -15   3  21 19.0467 2.71159   2
  15   3 -21 18.3703 2.44289   3
  14  -3 -21 0.96991 0.64998   2
  14   3 -21 1.75168 0.79934   3
 -14   3  21 0.97150 0.76028   2
 -13  -3  21 1.50917 0.69650   3
  13  -3 -21 1.24610 0.80651   2
 -13   3  21 -0.1482 0.66527   2
  13   3 -21 1.36481 0.74736   3
 -12  -3  21 0.27038 0.62504   3
  12  -3 -21 0.87001 0.87096   2
  12   3 -21 -0.0693 0.66390   2
 -12   3  21 -0.2030 0.61489   2
  12   3 -21 0.66359 0.64863   3
 -11  -3  21 0.82533 0.79430   2
 -11  -3  21 0.00000 0.61007   3
  11  -3 -21 1.19062 0.80881   2
  11  -3 -21 0.72781 0.46601   3
 -11   3  21 0.22120 0.65249   2
  11   3 -21 0.41331 0.68267   2
  11   3 -21 0.14194 0.62525   3
 -11   3  21 0.47853 0.49529   3
 -10  -3  21 -0.6654 0.59236   3
 -10  -3  21 -0.0972 0.54077   2
  10  -3 -21 0.00000 0.57566   2
  10   3 -21 -1.2430 0.67975   3
 -10   3  21 -0.2906 0.52034   2
 -10   3  21 0.11935 0.44641   3
  10   3 -21 0.08242 0.59895   2
   9  -3 -21 46.0891 5.10142   3
   9  -3 -21 43.0913 5.63980   2
  -9  -3  21 38.6724 5.26161   2
  -9   3  21 40.4966 4.70039   3
  -9   3  21 45.5993 5.86785   2
   9   3 -21 43.4309 5.67947   2
   9   3 -21 44.2343 5.15144   3
  -8  -3  21 21.1622 3.00368   2
   8  -3 -21 20.1848 2.94154   2
  -8  -3  21 20.9486 2.62162   3
   8  -3 -21 20.0768 2.47974   3
  -8   3  21 23.5059 3.22645   2
   8   3 -21 21.4021 2.72760   3
   8   3 -21 23.7423 3.23809   2
  -7  -3  21 0.98626 0.72425   2
   7  -3 -21 0.56520 0.48907   3
  -7  -3  21 1.06578 0.67082   3
   7  -3 -21 2.02169 0.82518   2
   7   3 -21 0.25974 0.61846   3
  -7   3  21 1.69628 0.81824   2
   7   3 -21 0.63803 0.57855   2
  -7   3  21 0.58383 0.48372   3
   6  -3 -21 5.91745 1.20928   2
   6  -3 -21 8.27527 1.07829   3
  -6  -3  21 6.84542 1.28932   2
  -6  -3  21 8.35895 1.24082   3
  -6   3  21 7.92469 1.36864   2
  -6   3  21 7.21224 1.01343   3
   6   3 -21 4.32173 1.06427   2
   6   3 -21 5.48752 1.05850   3
  -5  -3  21 -0.1767 0.48681   3
   5  -3 -21 0.15671 0.68404   2
  -5   3  21 -0.6260 0.50737   3
  -5   3  21 0.48538 0.70622   2
   5   3 -21 0.94503 0.77896   2
   5   3 -21 0.26517 0.60765   3
   4  -3 -21 -0.1620 0.42856   3
   4  -3 -21 0.60739 0.69885   2
  -4  -3  21 0.08932 0.64432   3
  -4   3  21 -0.1569 0.66768   2
   4   3 -21 0.94036 0.81702   2
  -3  -3  21 0.56238 0.76169   2
  -3  -3  21 0.29872 0.53874   3
   3  -3 -21 0.82233 0.44590   3
   3   3 -21 1.51245 0.75774   3
  -3   3  21 1.68427 0.56305   3
   3   3 -21 0.83239 0.75165   2
   2  -3 -21 0.94799 0.48624   3
  -2  -3  21 1.10031 0.64380   3
  -2  -3  21 0.49547 0.64566   2
   2  -3 -21 1.82849 0.69704   2
  -2   3  21 0.62596 0.50374   3
   2   3 -21 0.44026 0.67732   3
   1  -3 -21 4.73676 0.83770   3
   1  -3 -21 6.59668 1.26960   2
  -1  -3  21 4.25617 0.93519   3
  -1  -3  21 5.00736 1.08889   2
  -1   3  21 3.68701 1.16012   2
   1   3 -21 4.42567 1.01696   3
  -1   3  21 4.77086 0.91447   3
   0  -3 -21 17.6151 2.10534   3
   0  -3  21 16.0820 2.44275   2
   0  -3  21 15.7475 2.09656   3
   0   3  21 15.6699 1.96364   3
   0   3 -21 15.1229 2.10587   3
  -1  -3 -21 14.6539 1.90293   3
   1  -3  21 16.0504 2.39760   2
   1  -3  21 14.1749 1.99850   3
  -1  -3 -21 14.9611 2.32886   2
   1   3  21 18.3223 2.19863   3
  -1   3 -21 20.0322 2.79431   2
  -1   3 -21 15.7907 2.20634   3
   1   3  21 19.0200 2.69170   2
   2  -3  21 2.74318 0.92916   2
  -2  -3 -21 3.29949 0.73558   3
  -2  -3 -21 1.40025 0.83083   2
   2  -3  21 2.00593 0.79925   3
   2   3  21 4.04506 0.85072   3
  -2   3 -21 0.75406 0.83330   3
   2   3  21 3.57430 1.03797   2
  -2   3 -21 2.45631 0.95772   2
   3  -3  21 22.9725 3.26015   2
  -3  -3 -21 25.8155 2.96760   3
   3   3  21 24.7158 2.90138   3
  -3   3 -21 22.5134 3.24365   2
  -4  -3 -21 0.51768 0.45600   3
   4  -3  21 0.75495 0.64181   2
   4   3  21 0.79296 0.53729   3
 -14  -4  21 0.51189 0.63501   3
  14   4 -21 -0.3282 0.69315   3
 -13  -4  21 22.3368 2.79101   3
  13  -4 -21 22.7693 3.16987   2
  13   4 -21 20.1702 2.69379   3
 -12  -4  21 1.69094 0.71041   3
  12  -4 -21 1.66059 0.88160   2
 -12   4  21 1.29400 0.81060   2
  12   4 -21 2.46769 0.76227   3
 -11  -4  21 8.22301 1.32892   3
  11  -4 -21 13.5701 2.15733   2
 -11   4  21 8.09918 1.51041   2
  11   4 -21 9.93733 1.55107   3
  10  -4 -21 4.33080 1.14363   2
  10  -4 -21 2.72787 0.69646   3
 -10   4  21 3.54761 0.76723   3
  10   4 -21 2.94302 0.93369   3
 -10   4  21 2.55554 0.90890   2
   9  -4 -21 31.3718 4.12723   2
   9  -4 -21 30.2717 3.47533   3
  -9  -4  21 27.7255 3.39137   3
  -9   4  21 27.9835 3.26312   3
  -9   4  21 24.9516 3.53569   2
   9   4 -21 25.9148 3.31164   3
  -8  -4  21 2.98493 0.83924   3
   8  -4 -21 3.93963 0.76095   3
  -8   4  21 2.82817 0.65564   3
   8   4 -21 5.26758 1.03349   3
  -8   4  21 2.59100 0.84727   2
   7  -4 -21 1.52385 0.75019   2
   7  -4 -21 2.26204 0.63251   3
  -7  -4  21 1.40120 0.70002   3
  -7   4  21 2.02759 0.82168   2
   7   4 -21 2.33363 0.80571   3
  -7   4  21 1.88546 0.61777   3
  -6  -4  21 42.2114 4.99663   3
   6  -4 -21 37.3343 4.48123   3
   6   4 -21 51.2676 5.70493   3
  -6   4  21 45.7772 5.07684   3
  -6   4  21 41.6961 5.55759   2
   5  -4 -21 4.12044 0.78845   3
  -5  -4  21 5.19829 1.00074   3
  -5   4  21 4.86533 0.84733   3
  -4  -4  21 3.36578 0.90421   3
  -4   4  21 1.67294 0.64356   3
   4   4 -21 3.68672 0.98316   3
  -3  -4  21 3.97829 0.92581   3
   3  -4 -21 5.53731 0.85198   3
   3   4 -21 4.62093 1.06099   3
  -3   4  21 4.19918 0.85269   3
   2  -4 -21 2.96677 0.66505   3
  -2  -4  21 2.76201 0.80641   3
  -2   4  21 2.90471 0.74883   3
   2   4 -21 3.47132 0.96300   3
  -1  -4  21 13.2508 1.91213   3
   1  -4 -21 15.6982 1.89792   3
   1   4 -21 15.0876 2.12990   3
  -1   4  21 13.9129 1.80237   3
   0  -4 -21 0.90711 0.55115   3
   0  -4  21 0.89009 0.73172   3
   0   4  21 0.66895 0.63288   3
   0   4 -21 1.45231 0.84520   3
  -1  -4 -21 3.78136 0.76954   3
   1   4  21 5.97525 0.97150   3
  -2  -4 -21 25.5247 3.00889   3
   3   4  21 0.91316 0.61955   3
 -12  -5  21 1.97761 0.76918   3
  12   5 -21 3.30219 0.94917   3
 -11  -5  21 2.42903 0.76981   3
 -10  -5  21 18.5909 2.38646   3
  10   5 -21 18.9797 2.44494   3
  -9  -5  21 3.80608 0.83615   3
   9   5 -21 3.98293 0.97417   3
  -8  -5  21 3.25975 0.83401   3
   8   5 -21 2.81662 0.92420   3
  -7  -5  21 10.5964 1.59690   3
   7  -5 -21 13.7378 1.70475   3
   7   5 -21 13.3105 1.86865   3
  -6  -5  21 2.83779 0.85865   3
   6  -5 -21 5.02177 0.87749   3
  -6   5  21 5.29887 0.93666   3
   5  -5 -21 -1.0647 0.48579   3
  -5  -5  21 0.73458 0.57921   3
   5   5 -21 -0.1584 0.64944   3
  -5   5  21 0.34009 0.60199   3
   4  -5 -21 7.09788 1.04772   3
  -4  -5  21 5.94453 1.15806   3
   4   5 -21 8.53459 1.38634   3
  -4   5  21 6.17822 1.05066   3
  -3  -5  21 5.82633 1.20489   3
  -3   5  21 7.14271 1.12400   3
   3   5 -21 7.35217 1.25909   3
   2  -5 -21 3.66790 0.74640   3
  -2   5  21 4.39763 0.88866   3
   1  -5 -21 38.9768 4.55014   3
  -1   5  21 44.1559 4.94977   3
   0  -5 -21 0.37368 0.50976   3
   0   5  21 -0.0723 0.57139   3
 -19   0  22 2.25588 0.87226   2
  19   0 -22 1.52282 0.71741   2
  18   0 -22 26.0434 3.61576   2
  17   0 -22 12.2786 1.93643   2
 -16   0  22 53.7843 7.00433   2
 -15   0  22 4.81503 1.09153   2
 -14   0  22 22.8680 3.18442   2
  14   0 -22 23.7127 3.34884   2
 -14   0  22 21.3576 2.71371   3
  13   0 -22 54.3106 6.44977   3
 -13   0  22 74.4606 7.94004   3
 -13   0  22 53.3045 7.10832   2
  13   0 -22 64.5331 8.11384   2
  12   0 -22 4.26651 0.95607   2
  12   0 -22 4.56223 0.95795   3
 -12   0  22 4.05925 1.05146   2
 -11   0  22 4.40753 1.02576   2
 -11   0  22 3.14012 0.77267   3
  11   0 -22 3.29653 0.82263   3
  11   0 -22 5.03326 1.05855   2
 -10   0  22 3.75148 0.75081   3
  10   0 -22 4.73016 1.01318   2
 -10   0  22 3.94749 0.99671   2
  10   0 -22 3.93984 0.80101   3
  -9   0  22 50.5763 6.47809   2
   9   0 -22 46.1855 5.35256   3
  -9   0  22 52.3815 5.80100   3
   9   0 -22 44.1209 5.89542   2
   8   0 -22 32.3490 4.34041   2
  -8   0  22 33.9021 3.90837   3
   8   0 -22 37.0837 4.15322   3
  -8   0  22 29.6542 4.09982   2
   7   0 -22 49.5819 5.37253   3
   7   0 -22 35.7474 4.97243   2
  -7   0  22 45.0226 5.78974   2
   6   0 -22 37.0101 4.93525   2
  -6   0  22 36.8632 4.30899   3
  -6   0  22 38.9563 5.12602   2
   6   0 -22 41.8613 4.67557   3
  -5   0  22 295.561 36.4998   2
   5   0 -22 290.743 31.8467   3
   5   0 -22 264.096 33.7068   2
  -5   0  22 305.585 32.8857   3
   4   0 -22 190.913 21.6545   3
  -4   0  22 219.818 26.9687   2
  -4   0  22 196.737 22.0363   3
   4   0 -22 220.583 27.0455   2
   3   0 -22 293.028 31.6289   3
  -3   0  22 261.656 29.3759   3
  -2   0  22 16.7683 2.44516   2
   2   0 -22 13.1639 2.08794   2
  -2   0  22 15.3268 1.91248   3
  -1   0  22 3.01524 0.83924   2
   1   0 -22 1.12223 0.75178   2
   1   0 -22 2.04875 0.64897   3
   0   0  22 29.8624 4.03288   2
   0   0 -22 32.7212 4.26709   2
   0   0  22 27.0548 3.27270   3
   0   0 -22 29.6760 3.48432   3
  -1   0 -22 3.38105 0.86314   2
   1   0  22 2.31253 0.63574   3
   1   0  22 4.79738 1.05539   2
  -1   0 -22 2.85978 0.72117   3
   2   0  22 90.9326 11.3145   2
  -2   0 -22 92.2774 11.4466   2
   2   0  22 78.6861 9.00766   3
  -2   0 -22 76.5246 8.88015   3
   3   0  22 12.2005 1.90532   2
  -3   0 -22 8.98744 1.64110   2
   3   0  22 11.4508 1.51014   3
  -4   0 -22 8.55571 1.47211   2
   4   0  22 5.65778 1.22277   2
   4   0  22 6.84847 1.05557   3
   5   0  22 6.16481 1.22950   2
  -5   0 -22 3.22840 0.93642   2
  -6   0 -22 -0.6117 0.65080   2
   6   0  22 0.36314 0.71328   2
  19  -1 -22 7.88067 1.43764   2
 -19   1  22 10.3512 1.63314   2
 -18  -1  22 7.57124 1.45865   2
  18  -1 -22 10.0015 1.66134   2
 -18   1  22 7.90722 1.46190   2
  18   1 -22 6.04309 1.24154   2
 -17  -1  22 -1.8770 0.76391   2
  17  -1 -22 0.35674 0.71738   2
 -17   1  22 0.35639 0.70002   2
  17   1 -22 0.34073 0.73618   2
 -16  -1  22 7.89048 1.51648   2
  16  -1 -22 11.4613 1.79746   2
 -16   1  22 10.8716 1.79240   2
  16   1 -22 13.7289 2.10244   2
  15  -1 -22 14.8297 2.31050   2
 -15  -1  22 16.2674 2.41181   2
  15   1 -22 16.8324 2.47865   2
 -15   1  22 16.6259 2.42911   2
  14  -1 -22 2.02359 0.74660   2
 -14  -1  22 1.47251 0.70607   2
 -14  -1  22 1.26072 0.67632   3
  14   1 -22 1.52818 0.76015   3
  14   1 -22 2.26890 0.84838   2
 -14   1  22 1.31798 0.67213   2
  13  -1 -22 46.3242 5.20190   3
 -13  -1  22 36.1074 4.99498   2
  13  -1 -22 38.1193 5.18649   2
 -13   1  22 36.7035 5.03348   2
 -13   1  22 46.8676 5.20335   3
  13   1 -22 53.1891 6.57523   2
  13   1 -22 48.1929 5.40368   3
  12  -1 -22 28.0458 3.86680   2
  12  -1 -22 34.3642 3.89660   3
 -12  -1  22 31.5429 4.20513   2
 -12  -1  22 26.9134 3.36112   3
  12   1 -22 27.2616 3.81297   2
  12   1 -22 28.1154 3.46084   3
 -12   1  22 37.1673 4.07311   3
 -12   1  22 32.1212 4.23385   2
  11  -1 -22 1.08943 0.63169   3
 -11  -1  22 2.97804 0.88749   2
 -11  -1  22 1.21154 0.64078   3
  11  -1 -22 1.16462 0.73377   2
 -11   1  22 0.37223 0.56208   2
  11   1 -22 1.97647 0.70340   3
 -11   1  22 1.29474 0.60769   3
  11   1 -22 1.14804 0.69099   2
 -10  -1  22 34.9006 4.46243   2
 -10  -1  22 28.9541 3.49293   3
  10  -1 -22 27.8770 3.83453   2
  10  -1 -22 29.6346 3.45957   3
  10   1 -22 28.8259 3.46639   3
 -10   1  22 30.6552 4.07537   2
 -10   1  22 26.5939 3.21518   3
  10   1 -22 30.3618 4.06570   2
  -9  -1  22 7.01891 1.29251   2
  -9  -1  22 6.62225 1.10422   3
   9  -1 -22 5.91321 0.99354   3
   9  -1 -22 5.78435 1.18810   2
  -9   1  22 6.50994 0.97313   3
   9   1 -22 7.75537 1.18941   3
  -9   1  22 5.94008 1.24746   2
   9   1 -22 5.84471 1.21719   2
   8  -1 -22 44.3715 5.02778   3
  -8  -1  22 44.3442 5.77892   2
   8  -1 -22 47.6007 6.07167   2
   8   1 -22 44.0433 5.74628   2
   8   1 -22 46.7603 5.25037   3
  -8   1  22 41.2490 4.78424   3
  -8   1  22 37.1578 5.15209   2
  -7  -1  22 -0.0867 0.66434   2
   7  -1 -22 0.11828 0.56159   3
   7  -1 -22 0.64103 0.73176   2
  -7  -1  22 0.12041 0.52062   3
  -7   1  22 0.12329 0.49261   3
   7   1 -22 0.25715 0.65676   2
  -7   1  22 0.14189 0.67946   2
   7   1 -22 0.55871 0.65010   3
   6  -1 -22 145.112 17.8359   2
   6  -1 -22 138.547 15.1457   3
  -6  -1  22 138.946 15.2128   3
   6   1 -22 125.980 14.3127   3
   6   1 -22 135.121 16.9413   2
  -6   1  22 124.194 15.9693   2
  -5  -1  22 27.0241 3.16011   3
   5  -1 -22 26.7519 3.08965   3
   5  -1 -22 25.6409 3.51963   2
   5   1 -22 21.9807 2.82181   3
  -5   1  22 26.2103 3.04407   3
   5   1 -22 26.4098 3.60755   2
  -5   1  22 25.7929 3.47884   2
  -4  -1  22 40.7694 5.19575   2
  -4  -1  22 37.1116 4.15003   3
   4  -1 -22 30.0232 4.12137   2
   4   1 -22 29.2943 4.06507   2
   4   1 -22 30.1520 3.66171   3
  -4   1  22 28.4242 3.45399   3
  -4   1  22 30.6121 4.16597   2
  -3  -1  22 1.21426 0.61006   3
   3  -1 -22 2.22264 0.89765   2
   3  -1 -22 0.85248 0.54097   3
  -3  -1  22 0.63796 0.80397   2
  -3   1  22 1.17940 0.58677   3
   3   1 -22 1.05216 0.61450   3
  -2  -1  22 -0.2151 0.75688   2
   2  -1 -22 0.17253 0.67776   2
   2  -1 -22 0.36215 0.47216   3
   2   1 -22 0.72110 0.66690   3
  -2   1  22 -0.4317 0.49268   3
  -1  -1  22 101.607 11.3241   3
   1  -1 -22 90.8811 11.9155   2
  -1  -1  22 101.240 12.8073   2
   1   1 -22 131.129 13.5982   3
  -1   1  22 96.1463 10.9029   3
   0  -1  22 11.9330 1.60610   3
   0  -1 -22 13.6362 1.63873   3
   0  -1  22 10.8462 1.81002   2
   0   1 -22 9.27312 1.67068   2
   0   1  22 11.2536 1.82589   2
   0   1 -22 16.8646 2.09963   3
   0   1  22 9.31116 1.36447   3
   1  -1  22 9.11452 1.34054   3
   1  -1  22 9.74449 1.66204   2
  -1  -1 -22 8.80204 1.22629   3
   1   1  22 11.1231 1.40481   3
   1   1  22 6.87018 1.38216   2
  -1   1 -22 7.24803 1.35276   2
  -1   1 -22 9.23890 1.40245   3
  -2  -1 -22 7.53242 1.09683   3
  -2  -1 -22 7.54699 1.44814   2
   2  -1  22 9.13648 1.28620   3
   2  -1  22 5.79404 1.27740   2
   2   1  22 5.15070 0.95075   3
  -2   1 -22 5.81421 1.22993   2
   2   1  22 6.59100 1.33104   2
  -2   1 -22 8.45832 1.28986   3
  -3  -1 -22 0.02487 0.52457   3
   3  -1  22 1.13012 0.62188   3
   3  -1  22 -0.1586 0.71002   2
  -3  -1 -22 0.19501 0.66199   2
   3   1  22 0.13879 0.69891   2
  -3   1 -22 0.73222 0.68524   2
   3   1  22 0.68450 0.54060   3
  -3   1 -22 0.11775 0.66835   3
   4  -1  22 15.0685 2.28373   2
  -4  -1 -22 13.8452 2.15544   2
  -4  -1 -22 17.6390 2.15683   3
   4   1  22 14.0846 2.16441   2
  -4   1 -22 16.1957 2.35049   2
  -5  -1 -22 3.70188 0.95882   2
   5  -1  22 0.95361 0.75303   2
   5   1  22 2.21780 0.84376   2
  -5   1 -22 -0.1192 0.57379   2
   6  -1  22 9.69873 1.64085   2
  -6   1 -22 6.96448 1.31024   2
  18  -2 -22 3.16520 0.87391   2
  17  -2 -22 3.43384 0.99380   2
  16  -2 -22 1.01822 0.78335   2
  16   2 -22 -0.6272 0.71322   2
 -15  -2  22 8.33937 1.51712   2
  15  -2 -22 10.4653 1.69003   2
 -15  -2  22 8.52847 1.41474   3
 -15   2  22 8.65147 1.53391   2
  15   2 -22 8.37319 1.47583   3
 -14  -2  22 -0.3065 0.62124   3
 -14  -2  22 1.02538 0.77610   2
 -14   2  22 0.17972 0.65810   2
 -13  -2  22 2.68769 0.81728   3
 -13  -2  22 2.22358 0.87921   2
  13   2 -22 2.06323 0.93842   2
 -13   2  22 2.08785 0.79045   2
  13   2 -22 2.08303 0.83538   3
  12  -2 -22 21.2262 2.60986   3
 -12  -2  22 20.7185 2.64425   3
 -12  -2  22 25.1723 3.40798   2
  12   2 -22 20.6488 2.68727   3
  12   2 -22 24.0960 3.28297   2
 -12   2  22 21.0002 2.55973   3
 -12   2  22 22.1457 3.07833   2
 -11  -2  22 67.5194 7.77139   3
  11  -2 -22 88.4355 10.6954   2
 -11  -2  22 68.7478 8.84947   2
  11   2 -22 80.2670 9.91970   2
 -11   2  22 79.4750 8.54986   3
  11   2 -22 71.7430 8.08643   3
 -11   2  22 53.9077 7.58514   2
 -10  -2  22 -0.2864 0.65224   3
  10  -2 -22 1.00420 0.53420   3
  10  -2 -22 0.18283 0.58857   2
 -10   2  22 0.37367 0.57534   2
 -10   2  22 1.56814 0.56408   3
  10   2 -22 -0.1068 0.70092   3
   9  -2 -22 9.74513 1.61608   2
   9  -2 -22 8.99632 1.25844   3
  -9  -2  22 11.1616 1.74182   2
  -9  -2  22 8.32951 1.32273   3
   9   2 -22 7.55080 1.45580   2
  -9   2  22 8.00716 1.46915   2
  -9   2  22 9.57149 1.29080   3
   8  -2 -22 155.875 19.5383   2
  -8  -2  22 158.687 19.8080   2
   8  -2 -22 165.217 17.8921   3
  -8  -2  22 144.292 16.5096   3
   8   2 -22 149.518 18.9817   2
  -8   2  22 153.175 19.3006   2
  -8   2  22 194.386 20.0426   3
   8   2 -22 142.898 16.4013   3
  -7  -2  22 43.0028 5.56218   2
  -7  -2  22 31.4182 4.06730   3
   7  -2 -22 45.3686 4.95472   3
   7  -2 -22 37.2798 5.04996   2
   7   2 -22 36.6308 4.99042   2
  -7   2  22 46.2180 5.04333   3
  -7   2  22 47.6419 5.99815   2
   7   2 -22 43.1198 4.89568   3
   6  -2 -22 1.50963 0.66692   2
  -6  -2  22 1.08405 0.62772   2
  -6  -2  22 0.32597 0.59864   3
   6   2 -22 0.74651 0.63764   3
  -6   2  22 1.28958 0.76537   2
   6   2 -22 0.93547 0.69974   2
  -6   2  22 0.19488 0.49843   3
   5  -2 -22 27.9937 3.19677   3
   5  -2 -22 26.6954 3.63130   2
  -5  -2  22 29.5570 3.42645   3
  -5  -2  22 23.0331 3.34816   2
   5   2 -22 31.0336 4.08633   2
   5   2 -22 24.0657 3.05276   3
  -5   2  22 27.0784 3.67111   2
  -4  -2  22 14.2358 2.22097   2
  -4  -2  22 15.5634 1.99772   3
   4  -2 -22 13.2518 1.71593   3
   4  -2 -22 15.7116 2.28306   2
   4   2 -22 18.1359 2.56964   2
  -4   2  22 13.0025 1.71712   3
   4   2 -22 14.0885 1.93403   3
  -4   2  22 16.2037 2.29813   2
  -3  -2  22 0.93512 0.67899   2
   3  -2 -22 0.84864 0.64582   2
   3  -2 -22 1.95187 0.56435   3
   3   2 -22 1.28601 0.67801   3
   3   2 -22 1.06890 0.76477   2
  -3   2  22 0.66170 0.68814   2
  -3   2  22 0.64674 0.45711   3
  -2  -2  22 18.1759 2.32362   3
  -2  -2  22 18.9156 2.72368   2
   2  -2 -22 16.8563 2.55157   2
   2  -2 -22 19.1638 2.28924   3
   2   2 -22 18.2197 2.34099   3
  -2   2  22 17.1585 2.17786   3
   2   2 -22 23.6727 3.17685   2
  -2   2  22 19.5426 2.78067   2
   1  -2 -22 12.2570 1.58547   3
  -1  -2  22 13.9019 1.82035   3
   1  -2 -22 10.9048 1.84121   2
  -1  -2  22 13.9472 2.11052   2
  -1   2  22 11.1520 1.86525   2
  -1   2  22 13.9200 1.72257   3
   1   2 -22 11.9728 1.70227   3
   1   2 -22 12.8466 1.95559   2
   0  -2  22 0.61804 0.60520   3
   0  -2 -22 -0.0866 0.56159   2
   0  -2 -22 -0.3454 0.48353   3
   0  -2  22 0.03486 0.65042   2
   0   2 -22 -0.2462 0.62169   3
   0   2 -22 0.03404 0.56829   2
   0   2  22 -0.2241 0.52293   3
   0   2  22 -0.6391 0.66255   2
   1  -2  22 11.7191 1.88225   2
   1  -2  22 13.3990 1.79327   3
  -1  -2 -22 12.2077 1.57632   3
  -1  -2 -22 11.5666 1.87494   2
   1   2  22 13.5085 1.69852   3
   1   2  22 12.7144 2.00311   2
  -1   2 -22 13.1624 1.81184   3
  -1   2 -22 11.9503 1.91379   2
   2  -2  22 6.83392 1.34733   2
  -2  -2 -22 7.07256 1.31116   2
   2  -2  22 7.36976 1.25698   3
  -2  -2 -22 7.61696 1.09804   3
  -2   2 -22 8.60316 1.41416   3
  -2   2 -22 7.04825 1.38749   2
   2   2  22 7.74734 1.10534   3
   2   2  22 6.63406 1.28344   2
  -3  -2 -22 6.92496 1.07197   3
  -3  -2 -22 7.92333 1.39469   2
   3  -2  22 7.80563 1.45685   2
   3   2  22 8.29253 1.20712   3
  -3   2 -22 9.35599 1.54711   2
   3   2  22 8.16041 1.44381   2
   4  -2  22 -0.9199 0.71592   2
  -4  -2 -22 0.82372 0.67413   2
   4   2  22 -0.1216 0.76746   2
   4   2  22 -0.9047 0.56946   3
  -4   2 -22 0.11999 0.67340   2
   5  -2  22 0.46429 0.79430   2
  16  -3 -22 2.27474 0.82419   2
 -16   3  22 1.18853 0.74783   2
  15  -3 -22 0.57723 0.77668   2
 -15   3  22 3.96401 0.98092   2
  14  -3 -22 39.9863 5.29331   2
  14   3 -22 38.8865 4.69653   3
 -14   3  22 41.1243 5.41748   2
 -13  -3  22 -1.0116 0.60699   3
  13  -3 -22 -0.6910 0.76139   2
  13   3 -22 0.52707 0.61697   3
 -13   3  22 0.31049 0.65800   2
 -12  -3  22 45.0747 5.09871   3
  12  -3 -22 41.7809 5.46819   2
  12   3 -22 41.3567 4.84849   3
 -12   3  22 32.2531 4.61626   2
  12   3 -22 47.2451 6.03648   2
 -11  -3  22 27.0833 3.18449   3
  11  -3 -22 22.9753 2.73025   3
  11  -3 -22 21.2941 3.02855   2
 -11  -3  22 28.7478 3.82765   2
  11   3 -22 17.6396 2.51780   3
 -11   3  22 19.1745 2.46912   3
  11   3 -22 27.1885 3.60132   2
 -11   3  22 27.4007 3.58992   2
  10  -3 -22 67.5975 9.09224   2
 -10  -3  22 85.8628 10.7290   2
 -10  -3  22 83.6470 9.23964   3
 -10   3  22 76.1624 9.82715   2
 -10   3  22 80.6185 8.90471   3
  10   3 -22 79.6406 10.1110   2
  -9  -3  22 100.200 11.1593   3
  -9  -3  22 89.7259 11.6760   2
   9  -3 -22 117.326 12.2717   3
   9  -3 -22 90.1532 11.6796   2
  -9   3  22 100.065 12.5769   2
   9   3 -22 98.5429 11.0501   3
   9   3 -22 84.8501 11.2323   2
  -9   3  22 110.539 11.7681   3
  -8  -3  22 25.6772 3.19377   3
  -8  -3  22 36.3598 4.63957   2
   8  -3 -22 23.1871 3.36898   2
   8  -3 -22 27.8834 3.20516   3
   8   3 -22 25.5601 3.22547   3
  -8   3  22 30.9402 3.45452   3
   8   3 -22 29.6176 3.97160   2
  -8   3  22 23.0914 3.38171   2
  -7  -3  22 36.7604 4.82869   3
  -7  -3  22 49.6555 6.50436   2
   7  -3 -22 52.6775 5.80632   3
   7  -3 -22 52.6511 6.75516   2
  -7   3  22 52.7001 6.74316   2
   7   3 -22 63.7966 7.80207   2
   7   3 -22 49.0232 5.68463   3
  -7   3  22 48.8589 5.53785   3
   6  -3 -22 3.13711 0.85743   2
  -6  -3  22 0.50929 0.56699   3
   6  -3 -22 0.80308 0.56183   3
  -6  -3  22 1.42699 0.79844   2
   6   3 -22 2.14115 0.79960   2
   6   3 -22 1.96650 0.70790   3
  -6   3  22 1.32226 0.70604   2
  -6   3  22 0.60426 0.56961   3
  -5  -3  22 31.3535 3.70981   3
   5  -3 -22 28.8473 3.97453   2
  -5   3  22 34.9847 4.57787   2
  -5   3  22 33.2764 3.73431   3
   5   3 -22 29.3645 3.59718   3
   5   3 -22 27.3682 3.85780   2
   4  -3 -22 -0.3684 0.60294   2
   4  -3 -22 -0.2205 0.41239   3
  -4   3  22 -0.6128 0.67061   2
   4   3 -22 0.03562 0.73459   2
   4   3 -22 -1.4269 0.68019   3
  -4   3  22 0.69046 0.50065   3
   3  -3 -22 9.75270 1.29694   3
   3  -3 -22 8.27041 1.47953   2
  -3  -3  22 9.98933 1.42355   3
   3   3 -22 7.36527 1.49294   2
  -3   3  22 8.96976 1.26556   3
   3   3 -22 8.52001 1.36124   3
   2  -3 -22 50.5165 6.49724   2
  -2  -3  22 40.3230 5.50904   2
  -2  -3  22 44.2027 5.14506   3
   2  -3 -22 52.7229 5.64496   3
   2   3 -22 40.4378 5.51126   2
   2   3 -22 42.9728 5.09263   3
  -1  -3  22 8.64102 1.55810   2
   1  -3 -22 11.1906 1.41263   3
  -1  -3  22 9.67706 1.45584   3
  -1   3  22 11.6400 1.93368   2
   1   3 -22 8.71700 1.48319   3
  -1   3  22 10.8299 1.41848   3
   0  -3  22 36.0807 4.18103   3
   0  -3  22 30.1101 4.20240   2
   0  -3 -22 33.3927 3.84873   3
   0   3 -22 32.2952 3.96164   3
   0   3  22 34.7998 3.96398   3
   0   3  22 34.8964 4.64329   2
  -1  -3 -22 1.85241 0.87688   2
  -1  -3 -22 2.75682 0.61704   3
   1  -3  22 1.89117 0.89561   2
  -1   3 -22 0.95512 0.83172   3
  -2  -3 -22 0.15997 0.40941   3
   2  -3  22 0.06906 0.79697   2
   2   3  22 -0.0983 0.52865   3
  -3  -3 -22 1.04480 0.58351   3
   3   3  22 0.77225 0.65020   3
 -13  -4  22 0.34936 0.60717   3
  13   4 -22 0.39490 0.64050   3
 -12  -4  22 17.6905 2.32241   3
  12   4 -22 20.7123 2.58990   3
  11  -4 -22 6.46261 1.36019   2
 -11  -4  22 5.16243 1.01315   3
  11   4 -22 4.08346 1.02553   3
  10  -4 -22 24.4354 3.46109   2
  -9  -4  22 9.67801 1.43060   3
   9  -4 -22 6.34620 1.32415   2
  -9   4  22 10.4271 1.36205   3
   9   4 -22 9.95054 1.51052   3
  -8  -4  22 39.1193 4.57050   3
   8  -4 -22 37.5292 4.32060   3
   8   4 -22 40.2357 4.66404   3
  -8   4  22 35.9346 4.21929   3
   7  -4 -22 22.0269 2.58449   3
  -7  -4  22 17.1795 2.38165   3
   7   4 -22 21.1682 2.71768   3
  -7   4  22 24.0276 2.74036   3
  -6  -4  22 18.7228 2.49716   3
   6  -4 -22 21.5322 2.53125   3
  -6   4  22 20.6395 2.48684   3
   6   4 -22 22.0960 2.82630   3
  -5  -4  22 45.7291 5.41013   3
   5  -4 -22 50.1030 5.57339   3
   5   4 -22 48.3220 5.65637   3
  -5   4  22 47.5705 5.39250   3
  -4  -4  22 0.66290 0.67558   3
  -4   4  22 0.09746 0.41683   3
   4   4 -22 0.32921 0.74399   3
   3  -4 -22 4.99190 0.82856   3
  -3  -4  22 3.01334 0.89562   3
   3   4 -22 1.67016 0.86018   3
  -3   4  22 3.57816 0.75061   3
   2  -4 -22 18.5890 2.30649   3
  -2  -4  22 20.0084 2.55956   3
  -2   4  22 24.4905 2.73612   3
   2   4 -22 17.2619 2.45243   3
  -1  -4  22 3.50234 0.85247   3
   1  -4 -22 3.83397 0.76257   3
  -1   4  22 2.71084 0.68224   3
   1   4 -22 2.45411 0.88551   3
   0  -4 -22 3.68250 0.76534   3
   0   4  22 4.45101 0.83226   3
   1   4  22 5.85210 1.01571   3
 -10  -5  22 1.17205 0.62833   3
  10   5 -22 -0.5198 0.66675   3
  -9  -5  22 -0.2945 0.49319   3
   9   5 -22 -0.0570 0.61600   3
  -8  -5  22 1.65976 0.61566   3
   8   5 -22 1.58229 0.74249   3
  -7  -5  22 12.9955 1.77971   3
   7   5 -22 13.4334 1.84410   3
  -6  -5  22 1.18390 0.65192   3
   6   5 -22 0.25922 0.66193   3
  -5  -5  22 30.3949 3.59450   3
   5  -5 -22 34.5920 3.79929   3
   5   5 -22 29.3343 3.53971   3
  -5   5  22 24.2353 3.13288   3
   4  -5 -22 39.7342 4.51189   3
  -4  -5  22 34.8921 4.30415   3
  -4   5  22 42.8317 4.77979   3
  -3   5  22 2.45030 0.79705   3
  18   0 -23 -1.1200 0.69996   2
  17   0 -23 0.67697 0.68289   2
 -16   0  23 1.14297 0.80761   2
 -15   0  23 -0.3287 0.66185   2
 -14   0  23 -0.0496 0.53571   2
 -14   0  23 1.06452 0.67701   3
  13   0 -23 0.12916 0.62804   3
 -13   0  23 -0.3566 0.70039   2
 -13   0  23 -0.2705 0.63582   3
  13   0 -23 -0.0508 0.64879   2
 -12   0  23 -0.2601 0.64720   2
  12   0 -23 0.31970 0.60453   3
  12   0 -23 -0.1357 0.61616   2
 -11   0  23 -0.5715 0.56130   2
 -11   0  23 0.36753 0.56185   3
  11   0 -23 0.66471 0.63731   3
  11   0 -23 -0.1163 0.52230   2
  10   0 -23 0.19953 0.62062   2
 -10   0  23 0.03380 0.68063   2
  10   0 -23 0.72666 0.60372   3
 -10   0  23 -0.0808 0.49139   3
   9   0 -23 -0.0879 0.56978   2
   9   0 -23 -0.4900 0.55307   3
  -9   0  23 -0.0786 0.52223   3
  -9   0  23 0.32167 0.71494   2
   8   0 -23 -0.4987 0.56726   3
  -8   0  23 0.94709 0.66688   2
   8   0 -23 -0.4516 0.54583   2
  -8   0  23 -0.7163 0.52373   3
  -7   0  23 -0.0527 0.68990   2
   7   0 -23 -0.2226 0.51353   3
   7   0 -23 -0.0352 0.69057   2
  -6   0  23 0.70659 0.71085   2
  -6   0  23 0.49392 0.51112   3
   6   0 -23 -0.4295 0.47520   3
   6   0 -23 -0.6376 0.67696   2
   5   0 -23 -0.2771 0.64630   2
  -5   0  23 0.29307 0.50556   3
  -5   0  23 0.69320 0.64845   2
   5   0 -23 -0.0327 0.48318   3
  -4   0  23 -0.3466 0.45370   3
  -4   0  23 -0.7774 0.60367   2
   4   0 -23 -0.7172 0.66823   2
  -4   0  23 -0.5069 0.54150   3
   4   0 -23 0.17002 0.56491   3
  -3   0  23 -0.6015 0.76441   2
   3   0 -23 -0.2245 0.58080   3
   3   0 -23 -0.3366 0.55673   2
  -3   0  23 0.63568 0.50064   3
   2   0 -23 0.58856 0.68037   2
  -2   0  23 -0.1173 0.48311   3
  -2   0  23 0.80005 0.76857   2
   1   0 -23 0.32167 0.59671   2
   1   0 -23 -0.8433 0.49120   3
  -1   0  23 -1.0244 0.48487   3
  -1   0  23 0.82553 0.68737   2
   0   0 -23 1.38881 0.67371   2
   0   0  23 -0.1003 0.57503   2
   0   0 -23 0.28161 0.50658   3
   0   0  23 -0.1907 0.41231   3
   1   0  23 -0.5232 0.63383   2
  -1   0 -23 0.21079 0.53396   3
   1   0  23 0.04532 0.49966   3
  -1   0 -23 0.92300 0.60442   2
  -2   0 -23 -0.0698 0.55189   3
   2   0  23 -0.3076 0.41053   3
   2   0  23 -0.1924 0.60136   2
  -2   0 -23 -0.4706 0.54781   2
   3   0  23 0.22523 0.73164   2
  -3   0 -23 -0.1783 0.61300   2
  -4   0 -23 0.10738 0.58014   2
   4   0  23 0.27745 0.69832   2
  -5   0 -23 -1.6663 0.68187   2
   5   0  23 0.54083 0.73674   2
  18  -1 -23 3.87883 1.09991   2
 -18   1  23 4.97177 1.15046   2
  17  -1 -23 33.6138 4.58646   2
 -17  -1  23 34.1393 4.65850   2
  17   1 -23 39.3959 5.12578   2
 -17   1  23 36.5704 4.86096   2
  16  -1 -23 1.95423 0.87229   2
 -16  -1  23 1.10845 0.69032   2
 -16   1  23 0.40578 0.76712   2
  16   1 -23 1.08939 1.02220   2
 -15  -1  23 2.50248 0.80548   2
  15  -1 -23 2.85740 0.90766   2
 -15   1  23 1.53558 0.78887   2
  15   1 -23 4.64746 1.09230   2
 -14  -1  23 55.6071 6.38818   3
  14  -1 -23 50.4161 6.72439   2
 -14  -1  23 55.4001 7.15540   2
  14   1 -23 54.8720 6.35610   3
  14   1 -23 58.7682 7.48274   2
 -14   1  23 57.5676 7.35305   2
  13  -1 -23 22.8190 3.19710   2
  13  -1 -23 19.8233 2.59862   3
 -13  -1  23 24.0894 3.31147   2
 -13   1  23 19.0765 2.50976   3
  13   1 -23 22.1635 2.79793   3
  13   1 -23 24.4372 3.31986   2
 -13   1  23 27.2355 3.54429   2
 -12  -1  23 7.43608 1.22347   3
 -12  -1  23 6.13187 1.31276   2
  12  -1 -23 8.85484 1.48679   2
 -12   1  23 8.99761 1.36384   3
  12   1 -23 8.49419 1.44630   2
 -12   1  23 10.4465 1.63155   2
  12   1 -23 7.04005 1.21675   3
  11  -1 -23 1.65538 0.65621   3
 -11  -1  23 1.55922 0.66708   3
  11  -1 -23 0.50195 0.69353   2
 -11  -1  23 2.06623 0.79210   2
 -11   1  23 0.20877 0.55735   3
  11   1 -23 1.62879 0.68697   3
 -11   1  23 0.48581 0.67146   2
  11   1 -23 1.08235 0.70652   2
 -10  -1  23 2.42353 0.72419   3
  10  -1 -23 1.81203 0.78483   2
 -10  -1  23 1.95291 0.74477   2
  10  -1 -23 2.71818 0.70468   3
 -10   1  23 1.06900 0.68450   2
 -10   1  23 1.87313 0.64154   3
  10   1 -23 2.23703 0.81338   2
  10   1 -23 2.05261 0.64706   3
  -9  -1  23 18.8130 2.39606   3
  -9  -1  23 21.4663 2.96743   2
   9  -1 -23 19.4478 2.38456   3
   9  -1 -23 19.6982 2.78954   2
   9   1 -23 18.8162 2.40866   3
  -9   1  23 21.3494 2.48205   3
  -9   1  23 19.0931 2.76146   2
   9   1 -23 18.3883 2.69914   2
   8  -1 -23 4.78643 0.85328   3
  -8  -1  23 3.04995 0.93471   2
   8  -1 -23 5.74313 1.16373   2
   8   1 -23 4.94932 1.09188   2
   8   1 -23 2.20496 0.80789   3
  -8   1  23 3.84241 0.76835   3
  -8   1  23 4.05179 0.99379   2
  -7  -1  23 1.50265 0.66350   3
  -7  -1  23 1.46092 0.70807   2
   7  -1 -23 1.73329 0.82374   2
   7   1 -23 1.87531 0.71200   3
  -7   1  23 1.35059 0.51365   3
   7   1 -23 1.53451 0.68535   2
  -7   1  23 2.08315 0.81112   2
   6  -1 -23 98.5675 10.6321   3
   6  -1 -23 97.4801 12.0795   2
  -6  -1  23 88.2026 9.91729   3
  -6   1  23 90.0635 11.4039   2
   6   1 -23 75.1388 10.1048   2
   6   1 -23 95.1404 10.4363   3
   5  -1 -23 15.5654 1.89533   3
   5  -1 -23 12.4775 1.98768   2
  -5  -1  23 17.0603 2.05764   3
   5   1 -23 19.7002 2.69392   2
  -5   1  23 14.6054 2.13335   2
   5   1 -23 13.9668 1.86220   3
  -5   1  23 10.6210 1.54465   3
   4  -1 -23 1.90132 0.81309   2
  -4  -1  23 0.98001 0.62465   3
   4  -1 -23 0.23949 0.43592   3
   4   1 -23 -0.4401 0.79286   2
   4   1 -23 0.64858 0.61149   3
  -4   1  23 -0.0175 0.58616   2
  -4   1  23 0.37909 0.45438   3
   3  -1 -23 11.1381 1.54631   3
   3  -1 -23 12.3616 2.00701   2
  -3  -1  23 12.9189 1.72042   3
  -3  -1  23 13.4447 2.10422   2
  -3   1  23 14.4848 1.78142   3
   3   1 -23 15.5989 2.26740   2
  -2  -1  23 10.9411 1.77394   2
  -2  -1  23 12.3113 1.63451   3
   2  -1 -23 10.7015 1.43328   3
   2  -1 -23 13.8374 2.04268   2
  -2   1  23 10.5961 1.40990   3
   2   1 -23 8.36142 1.37703   3
   1  -1 -23 6.73259 1.00326   3
   1  -1 -23 4.28443 1.01592   2
  -1  -1  23 4.71845 0.97147   3
  -1  -1  23 6.39376 1.32011   2
   1   1 -23 5.94315 1.03401   3
  -1   1  23 6.09877 0.98489   3
  -1   1  23 4.35426 1.05443   2
   0  -1  23 3.46780 0.81451   3
   0  -1 -23 1.83440 0.61268   3
   0  -1  23 2.92295 0.84855   2
   0   1  23 2.02540 0.59319   3
   0   1  23 1.35738 0.75027   2
   0   1 -23 2.23430 0.74369   3
   1  -1  23 9.25059 1.62464   2
  -1  -1 -23 12.7513 1.58173   3
   1  -1  23 10.9472 1.52890   3
   1   1  23 11.3932 1.77988   2
   1   1  23 8.66272 1.29651   3
  -1   1 -23 10.8279 1.56098   3
  -1   1 -23 12.6345 1.88172   2
   2  -1  23 8.94903 1.35587   3
  -2  -1 -23 8.48711 1.26496   3
  -2  -1 -23 8.42154 1.44967   2
   2  -1  23 7.20647 1.38649   2
  -2   1 -23 8.81351 1.48065   2
   2   1  23 10.6403 1.38018   3
   2   1  23 9.12354 1.52928   2
  -3  -1 -23 0.08640 0.66190   2
   3  -1  23 -0.1734 0.73239   2
  -3  -1 -23 0.16087 0.56271   3
  -3   1 -23 0.08973 0.66975   2
   3   1  23 0.08724 0.70258   2
   3   1  23 0.45190 0.54207   3
   4  -1  23 8.12896 1.46921   2
  -4  -1 -23 8.43330 1.42425   2
   4   1  23 6.47273 1.27777   2
  -4   1 -23 6.48818 1.31139   2
  17  -2 -23 18.1898 2.64171   2
  16  -2 -23 6.49953 1.28593   2
 -16   2  23 7.06677 1.36989   2
 -15  -2  23 2.02344 0.90638   2
  15   2 -23 3.91833 1.23437   2
 -15   2  23 2.82709 0.85517   2
 -14  -2  23 0.97827 0.73693   2
 -14  -2  23 2.06457 0.82358   3
 -14   2  23 2.25921 0.81704   2
 -13  -2  23 54.8728 6.16839   3
 -13  -2  23 58.9888 7.35833   2
  13   2 -23 50.3104 5.88397   3
 -13   2  23 48.5966 6.38248   2
  13   2 -23 45.1281 6.14672   2
 -12  -2  23 0.91759 0.72514   3
 -12  -2  23 1.65103 0.80669   2
  12  -2 -23 0.28835 0.57917   3
 -12   2  23 1.11323 0.55570   3
  12   2 -23 1.79284 0.77807   2
  12   2 -23 1.45369 0.78184   3
 -12   2  23 2.16941 0.75384   2
  11  -2 -23 2.43578 0.75526   2
 -11  -2  23 0.87721 0.65319   3
 -11  -2  23 2.21191 0.75840   2
  11   2 -23 2.09306 0.77429   2
 -11   2  23 1.72132 0.62221   3
 -11   2  23 1.22190 0.74498   2
  11   2 -23 0.87175 0.67670   3
 -10  -2  23 111.060 11.8521   3
  10  -2 -23 93.1603 10.4671   3
  10  -2 -23 91.7935 11.7611   2
 -10  -2  23 80.6097 10.8017   2
  10   2 -23 91.3327 10.4349   3
 -10   2  23 103.519 11.1898   3
 -10   2  23 94.1735 11.9662   2
  10   2 -23 109.093 13.3523   2
   9  -2 -23 102.535 11.3446   3
  -9  -2  23 110.482 12.0060   3
  -9  -2  23 103.922 13.0563   2
   9  -2 -23 87.7666 11.6211   2
  -9   2  23 114.401 12.1942   3
  -9   2  23 110.374 13.6421   2
   9   2 -23 104.635 13.1287   2
   9   2 -23 87.0197 10.3586   3
  -8  -2  23 1.99575 0.86204   2
   8  -2 -23 1.76764 0.75851   2
   8  -2 -23 1.28311 0.50741   3
  -8  -2  23 0.83813 0.61411   3
  -8   2  23 1.01477 0.56763   3
  -8   2  23 0.33693 0.70046   2
   8   2 -23 2.52956 0.83070   3
   8   2 -23 2.31637 0.88719   2
  -7  -2  23 3.31654 0.91525   2
  -7  -2  23 3.38526 0.83991   3
   7  -2 -23 3.55834 0.70891   3
   7  -2 -23 4.60331 1.07151   2
   7   2 -23 2.99636 0.83675   3
  -7   2  23 4.60264 1.10806   2
  -7   2  23 3.39391 0.70359   3
   7   2 -23 4.00296 1.01983   2
  -6  -2  23 16.2007 2.13431   3
   6  -2 -23 18.1553 2.60507   2
  -6  -2  23 18.1020 2.59480   2
  -6   2  23 17.7305 2.12859   3
  -6   2  23 17.2405 2.54591   2
   6   2 -23 16.0929 2.15230   3
   6   2 -23 16.9181 2.48105   2
  -5  -2  23 4.57083 1.09705   2
   5  -2 -23 6.21767 1.20742   2
   5  -2 -23 3.36885 0.69885   3
  -5  -2  23 4.27096 0.91957   3
   5   2 -23 4.23541 1.00264   2
  -5   2  23 6.00495 1.19242   2
  -5   2  23 5.62894 0.87010   3
   5   2 -23 5.00937 1.01469   3
   4  -2 -23 4.35158 1.07131   2
  -4  -2  23 6.86595 1.12587   3
  -4  -2  23 6.22707 1.32641   2
   4  -2 -23 5.37598 0.86137   3
  -4   2  23 5.73669 1.16440   2
   4   2 -23 5.34010 1.29904   2
  -4   2  23 5.64509 0.90326   3
  -3  -2  23 25.8402 3.45775   2
   3  -2 -23 24.8775 3.35834   2
   3  -2 -23 23.5327 2.70357   3
  -3   2  23 18.0484 2.32285   3
   3   2 -23 21.2360 2.69200   3
  -3   2  23 26.3857 3.49475   2
   3   2 -23 18.3874 2.79185   2
  -2  -2  23 20.1506 2.52748   3
   2  -2 -23 18.8617 2.31908   3
   2  -2 -23 17.8422 2.67794   2
  -2  -2  23 22.2204 3.11313   2
  -2   2  23 22.1933 3.08942   2
   2   2 -23 22.3155 3.06576   2
  -2   2  23 18.2295 2.28916   3
   2   2 -23 21.4056 2.65070   3
  -1  -2  23 10.6480 1.69963   2
   1  -2 -23 9.48158 1.26377   3
   1  -2 -23 6.23538 1.35144   2
  -1  -2  23 10.4423 1.47564   3
  -1   2  23 7.74452 1.46412   2
  -1   2  23 8.55245 1.21263   3
   1   2 -23 8.59148 1.37564   3
   1   2 -23 8.21525 1.53326   2
   0  -2  23 7.98492 1.26549   3
   0  -2 -23 6.78523 1.03320   3
   0  -2 -23 7.51167 1.43521   2
   0  -2  23 6.52962 1.31640   2
   0   2  23 6.07478 1.30438   2
   0   2 -23 9.74211 1.63523   2
   0   2 -23 8.10508 1.32119   3
   1  -2  23 3.05476 1.03481   2
   1  -2  23 3.28787 0.85791   3
  -1  -2 -23 3.80868 0.93126   2
  -1  -2 -23 3.01160 0.65396   3
   1   2  23 3.53710 0.70032   3
  -1   2 -23 2.68810 0.90131   2
   1   2  23 4.57933 1.11973   2
  -2  -2 -23 3.04956 0.93857   2
  -2  -2 -23 3.08950 0.68757   3
   2  -2  23 2.46795 0.95935   2
  -2   2 -23 2.93703 0.88092   2
   2   2  23 2.37282 0.73225   3
   2   2  23 4.96894 1.13038   2
  -3  -2 -23 17.9710 2.56473   2
   3  -2  23 16.2149 2.43027   2
   3   2  23 14.7000 1.94342   3
  -3   2 -23 15.0687 2.31460   2
  15  -3 -23 2.66143 0.91439   2
 -15   3  23 2.55565 0.89225   2
  14  -3 -23 2.06930 0.78393   2
 -14   3  23 1.63494 0.79097   2
  14   3 -23 0.21268 0.68683   3
  13  -3 -23 -0.7244 0.82724   2
 -13  -3  23 0.53129 0.63786   3
  13   3 -23 0.91441 0.68643   3
 -13   3  23 -0.9351 0.58002   2
 -12  -3  23 17.4013 2.33179   3
  12  -3 -23 21.4522 3.00808   2
  12   3 -23 17.7009 2.38512   3
 -12   3  23 18.3400 2.67770   2
  11  -3 -23 5.76149 1.12263   2
  11  -3 -23 5.63448 0.95826   3
 -11  -3  23 6.10955 1.12506   3
  11   3 -23 5.29859 1.14831   3
 -11   3  23 4.45089 1.02588   2
 -11   3  23 4.30349 0.87297   3
 -10  -3  23 19.4621 2.55075   3
 -10   3  23 24.8750 3.35710   2
  10   3 -23 19.0374 2.79881   2
 -10   3  23 20.8899 2.51992   3
   9  -3 -23 16.8109 1.99753   3
  -9  -3  23 18.4982 2.26333   3
   9  -3 -23 16.2666 2.34512   2
  -9  -3  23 16.9587 2.45060   2
  -9   3  23 9.85457 1.80301   2
   9   3 -23 13.8083 2.14408   2
   9   3 -23 16.6341 2.18459   3
  -9   3  23 14.4031 1.83163   3
   8  -3 -23 4.24122 1.03410   2
   8  -3 -23 3.70347 0.75265   3
  -8  -3  23 4.19282 0.94839   3
  -8  -3  23 4.52202 1.09072   2
  -8   3  23 4.82966 0.84046   3
  -8   3  23 6.85060 1.34794   2
   8   3 -23 6.39314 1.19857   2
   8   3 -23 4.37350 1.04248   3
   7  -3 -23 5.33178 0.84564   3
   7  -3 -23 4.91185 1.12063   2
  -7  -3  23 3.36664 0.84034   3
  -7  -3  23 4.82455 1.18164   2
   7   3 -23 5.35958 1.03557   3
  -7   3  23 4.36156 1.10643   2
  -7   3  23 4.83100 0.80995   3
   7   3 -23 5.18133 1.07967   2
  -6  -3  23 4.16245 1.06902   2
   6  -3 -23 3.38939 0.96520   2
   6  -3 -23 3.62620 0.73148   3
  -6  -3  23 3.19315 0.78402   3
  -6   3  23 3.24153 0.97714   2
   6   3 -23 2.40155 0.76796   3
  -6   3  23 3.67926 0.76661   3
   6   3 -23 2.86814 0.87664   2
  -5  -3  23 1.16867 0.66871   3
  -5  -3  23 0.76654 0.70710   2
   5  -3 -23 0.47170 0.68977   2
   5   3 -23 0.25850 0.75137   3
  -5   3  23 1.46301 0.57123   3
   5   3 -23 2.04511 0.75210   2
  -5   3  23 1.09170 0.75893   2
   4  -3 -23 0.81643 0.61400   2
   4  -3 -23 1.54525 0.53252   3
  -4   3  23 1.08702 0.53597   3
   4   3 -23 1.47320 0.89832   2
   4   3 -23 0.31446 0.69305   3
  -3  -3  23 2.40154 0.75693   3
   3  -3 -23 1.52277 0.59772   3
   3  -3 -23 2.39870 0.84339   2
   3   3 -23 2.50661 0.85558   3
  -3   3  23 1.57313 0.63729   3
   3   3 -23 0.48922 0.95024   2
  -2  -3  23 11.3679 1.63031   3
   2  -3 -23 10.9509 1.45372   3
   2   3 -23 12.9761 1.78490   3
  -2   3  23 9.90460 1.65670   2
  -2   3  23 11.7959 1.52116   3
   2   3 -23 11.8851 1.88547   2
  -1  -3  23 3.02910 0.82865   3
  -1  -3  23 1.62329 0.88082   2
   1  -3 -23 1.95907 0.58972   3
  -1   3  23 2.69181 1.00185   2
   1   3 -23 2.79055 0.81872   3
   1   3 -23 2.34774 0.91243   2
  -1   3  23 3.02335 0.67419   3
   0  -3  23 1.52515 0.68832   3
   0  -3  23 2.94946 0.87550   2
   0   3  23 2.15274 0.64252   3
  -1  -3 -23 1.08495 0.59790   3
   1   3  23 0.63575 0.63940   3
   2   3  23 3.88898 0.81221   3
 -12  -4  23 2.32838 0.73621   3
  12   4 -23 1.55895 0.75943   3
 -11  -4  23 19.7452 2.44634   3
  11   4 -23 17.6201 2.32987   3
  10   4 -23 38.0990 4.52984   3
  -9  -4  23 5.04330 0.95900   3
   9   4 -23 4.54257 0.98644   3
   8  -4 -23 34.0201 3.84351   3
  -8  -4  23 31.5355 3.79438   3
   8   4 -23 29.4826 3.67233   3
  -8   4  23 31.6608 3.69600   3
   7  -4 -23 4.43181 0.86670   3
  -7  -4  23 5.64057 1.11566   3
   7   4 -23 4.83783 1.09405   3
  -7   4  23 5.78974 0.98987   3
  -6  -4  23 1.67443 0.70549   3
   6  -4 -23 3.16305 0.70060   3
  -6   4  23 2.12758 0.70958   3
   6   4 -23 1.90949 0.91655   3
   5  -4 -23 3.21848 0.75992   3
  -5   4  23 4.02470 0.81486   3
   5   4 -23 3.95632 0.93147   3
  -4  -4  23 0.62427 0.65978   3
  -4   4  23 0.13489 0.47448   3
   4   4 -23 0.84944 0.72939   3
  -3  -4  23 1.78735 0.73874   3
   3  -4 -23 0.80566 0.53880   3
   3   4 -23 1.01680 0.72904   3
  -3   4  23 0.65337 0.66863   3
  -2  -4  23 0.31765 0.64827   3
   2  -4 -23 1.12229 0.49028   3
  -2   4  23 -0.1044 0.52984   3
   1  -4 -23 1.03160 0.50022   3
  -1   4  23 1.66436 0.65153   3
   0  -4 -23 11.8234 1.57320   3
   0   4  23 11.5419 1.61088   3
  17   0 -24 2.06404 0.75798   2
 -16   0  24 44.5163 5.94296   2
  16   0 -24 49.8926 6.45850   2
 -15   0  24 139.764 17.5628   2
 -14   0  24 24.8524 3.44003   2
 -13   0  24 4.50904 1.00125   2
  13   0 -24 3.61390 0.89307   3
 -13   0  24 3.92611 0.97588   3
  13   0 -24 4.11535 0.93641   2
 -12   0  24 15.6385 2.28873   2
 -12   0  24 16.0398 2.04812   3
  12   0 -24 14.2600 2.11345   2
  12   0 -24 11.5451 1.71848   3
 -11   0  24 0.97632 0.59869   3
  11   0 -24 -0.0665 0.65348   2
  11   0 -24 0.06639 0.59194   3
 -11   0  24 -0.1308 0.67456   2
  10   0 -24 52.8439 6.72825   2
 -10   0  24 44.5294 6.01464   2
  10   0 -24 53.9672 5.99083   3
 -10   0  24 48.4250 5.57655   3
   9   0 -24 2.85823 0.72725   3
  -9   0  24 2.06346 0.79048   2
   9   0 -24 0.96744 0.65108   2
  -9   0  24 2.35070 0.65342   3
  -8   0  24 21.8465 2.74000   3
   8   0 -24 26.0753 3.51756   2
  -8   0  24 25.2093 3.46028   2
  -7   0  24 20.5882 2.82376   2
   7   0 -24 16.0559 2.10194   3
   7   0 -24 15.7664 2.36874   2
   6   0 -24 11.3301 1.47214   3
   6   0 -24 7.58631 1.35462   2
  -6   0  24 9.26279 1.30273   3
  -6   0  24 6.70478 1.30829   2
   5   0 -24 20.8724 2.53645   3
   5   0 -24 20.4015 2.97293   2
  -5   0  24 20.8685 2.98160   2
  -5   0  24 20.0459 2.47579   3
  -4   0  24 3.99778 0.85171   3
  -4   0  24 5.44842 1.15585   2
   4   0 -24 5.30058 1.13440   2
   4   0 -24 3.37089 0.80985   3
   3   0 -24 2.96727 0.70723   3
  -3   0  24 2.13740 0.64734   3
   3   0 -24 3.94529 1.00269   2
  -3   0  24 2.34746 0.92566   2
  -2   0  24 42.7834 4.99673   3
   2   0 -24 46.0562 5.96761   2
  -2   0  24 42.1889 5.64228   2
  -2   0  24 47.4483 5.35542   3
   2   0 -24 44.6941 5.12930   3
  -1   0  24 9.41403 1.33263   3
  -1   0  24 9.73003 1.34526   3
   1   0 -24 8.04759 1.50008   2
  -1   0  24 10.1752 1.73727   2
   1   0 -24 9.58177 1.37571   3
   0   0 -24 1.02847 0.56398   3
   0   0  24 0.53195 0.51317   3
   0   0  24 0.66681 0.77663   2
   0   0  24 0.54015 0.47657   3
   0   0 -24 0.53241 0.64623   2
  -1   0 -24 0.69655 0.73447   2
  -1   0 -24 0.82915 0.57160   3
   1   0  24 0.58331 0.76960   2
   1   0  24 -0.2520 0.44616   3
  -2   0 -24 16.0325 2.36717   2
   2   0  24 18.9499 2.69269   2
   2   0  24 17.7412 2.19977   3
   3   0  24 2.38662 0.91359   2
  -3   0 -24 1.36853 0.65604   2
  17  -1 -24 14.3993 2.12067   2
 -17  -1  24 13.1358 2.09403   2
 -17   1  24 9.86089 1.71113   2
 -16  -1  24 16.9038 2.56544   2
  16  -1 -24 18.6325 2.71194   2
 -16   1  24 20.9394 2.94734   2
  16   1 -24 20.6368 2.91542   2
  15  -1 -24 2.92492 0.88164   2
 -15  -1  24 3.19744 0.96520   2
 -15   1  24 2.49406 0.85135   2
  15   1 -24 2.39091 0.93039   2
 -14  -1  24 19.0182 2.75307   2
  14  -1 -24 25.1642 3.33822   2
 -14  -1  24 19.6183 2.55372   3
  14   1 -24 20.0245 2.57540   3
  14   1 -24 16.9083 2.62421   2
 -14   1  24 20.3794 2.86228   2
 -13  -1  24 50.1750 6.45832   2
  13  -1 -24 51.7802 6.58460   2
  13  -1 -24 46.8508 5.45322   3
  13   1 -24 50.6863 5.75589   3
 -13   1  24 48.5143 5.53839   3
 -13   1  24 38.8391 5.41785   2
  13   1 -24 50.8628 6.50603   2
 -12  -1  24 5.27513 1.02666   3
  12  -1 -24 7.43025 1.32598   2
 -12  -1  24 6.27737 1.28543   2
  12   1 -24 3.87661 0.93655   2
 -12   1  24 4.60920 0.91455   3
  12   1 -24 4.16219 0.95588   3
 -12   1  24 5.21350 1.14042   2
  11  -1 -24 15.2325 1.97348   3
 -11  -1  24 13.4973 1.84516   3
 -11  -1  24 9.34333 1.76305   2
  11  -1 -24 16.7457 2.34683   2
 -11   1  24 17.1531 2.38118   2
 -11   1  24 14.8722 1.90084   3
  11   1 -24 14.6642 1.93414   3
  11   1 -24 16.2311 2.33400   2
  10  -1 -24 4.37590 0.84603   3
  10  -1 -24 4.14977 1.00133   2
 -10  -1  24 3.51469 0.90249   2
 -10  -1  24 3.36854 0.81149   3
 -10   1  24 3.67236 0.98320   2
 -10   1  24 5.28574 0.93815   3
  10   1 -24 2.42392 0.78905   3
  10   1 -24 4.51880 0.96638   2
   9  -1 -24 -0.0529 0.48596   3
  -9  -1  24 0.21121 0.57054   3
  -9  -1  24 -0.1367 0.67137   2
   9  -1 -24 -0.7764 0.60028   2
  -9   1  24 0.14751 0.41091   3
   9   1 -24 0.74612 0.65891   3
  -9   1  24 0.50507 0.77709   2
   9   1 -24 -0.2474 0.62473   2
   8  -1 -24 2.74291 0.80158   2
  -8  -1  24 1.30726 0.79870   2
   8  -1 -24 1.18037 0.63714   3
   8   1 -24 1.23958 0.67731   2
  -8   1  24 1.67831 0.56059   3
  -8   1  24 2.40881 0.82460   2
   8   1 -24 1.25707 0.66528   3
  -7  -1  24 30.7952 3.44868   3
   7  -1 -24 26.1665 3.55668   2
  -7  -1  24 28.2581 3.75375   2
   7   1 -24 31.1547 3.49288   3
  -7   1  24 19.2952 2.94695   2
  -7   1  24 20.1273 2.60954   3
   7   1 -24 27.3962 3.65862   2
   6  -1 -24 13.1637 2.18485   2
   6  -1 -24 20.6460 2.46586   3
  -6  -1  24 20.7400 2.47564   3
   6   1 -24 18.7284 2.64524   2
  -6   1  24 19.9643 2.81016   2
  -6   1  24 20.0243 2.37684   3
   6   1 -24 19.1528 2.35813   3
   5  -1 -24 3.77051 0.71887   3
  -5  -1  24 2.99390 0.71596   3
   5  -1 -24 1.84161 0.75769   2
  -5   1  24 2.97600 0.66084   3
   5   1 -24 3.25204 0.88682   2
  -5   1  24 3.09720 0.90576   2
   5   1 -24 2.74323 0.72306   3
   4  -1 -24 0.62767 0.63579   2
   4  -1 -24 1.69397 0.57618   3
  -4  -1  24 0.89504 0.60157   3
   4   1 -24 1.13656 0.77597   2
  -4   1  24 0.40306 0.50698   3
   4   1 -24 0.35254 0.60233   3
   3  -1 -24 0.89803 0.75725   2
  -3  -1  24 0.93419 0.58210   3
   3  -1 -24 1.57038 0.53268   3
  -3  -1  24 0.88679 0.66337   2
   3   1 -24 0.05387 0.68921   2
  -3   1  24 -0.0352 0.47336   3
  -2  -1  24 5.24564 0.95232   3
   2  -1 -24 6.53408 1.24846   2
  -2  -1  24 4.13198 1.02411   2
   2  -1 -24 5.00084 0.89149   3
   2   1 -24 4.57287 0.96244   3
  -2   1  24 4.03998 0.81245   3
   1  -1 -24 -0.5357 0.69577   2
  -1  -1  24 1.08416 0.63667   3
   1  -1 -24 -0.5779 0.50909   3
  -1  -1  24 0.71495 0.75480   2
  -1   1  24 -0.0530 0.78096   2
   1   1 -24 -0.0889 0.63385   3
   0  -1  24 2.58021 0.71804   3
   0  -1  24 3.13776 0.95360   2
   0  -1 -24 2.24041 0.67760   3
   0   1  24 2.24144 0.94188   2
   0   1 -24 2.51273 0.82268   3
   0   1  24 3.16655 0.68524   3
   1  -1  24 18.9261 2.80826   2
  -1  -1 -24 22.0502 2.61031   3
   1  -1  24 20.4272 2.52257   3
  -1   1 -24 18.1503 2.71647   2
  -1   1 -24 19.9921 2.52555   3
   1   1  24 19.9111 2.88942   2
   1   1  24 27.8179 3.04272   3
  -2  -1 -24 3.07415 0.84442   3
   2  -1  24 3.23938 0.93643   2
  -2  -1 -24 4.15888 0.96174   2
   2   1  24 4.12634 0.82175   3
  -2   1 -24 3.10379 0.85719   2
   2   1  24 2.47445 0.82759   2
  -3  -1 -24 5.62528 1.10586   2
   3  -1  24 5.65317 1.24567   2
  -3   1 -24 5.33392 1.12447   2
   3   1  24 5.59168 1.19443   2
  17  -2 -24 0.69587 0.76809   2
  16  -2 -24 -0.1480 0.71038   2
 -16   2  24 0.13538 0.69799   2
 -15   2  24 0.24994 0.72020   2
 -14  -2  24 20.5380 2.67968   3
 -14  -2  24 22.4166 3.12898   2
 -14   2  24 21.7904 3.04204   2
 -13  -2  24 20.9790 2.57101   3
 -13  -2  24 15.5749 2.43300   2
  13   2 -24 19.6028 2.52501   3
 -13   2  24 18.6827 2.65973   2
  12  -2 -24 0.45988 0.56999   3
  12  -2 -24 -0.1862 0.51541   2
 -12  -2  24 0.20920 0.71908   2
 -12  -2  24 0.40625 0.62710   3
 -12   2  24 0.33059 0.57601   3
  12   2 -24 1.13445 0.74830   2
  12   2 -24 -1.6344 0.65007   3
 -12   2  24 0.27848 0.43579   3
 -12   2  24 -0.5077 0.53180   2
 -11  -2  24 20.1711 2.85009   2
 -11  -2  24 24.0215 2.83605   3
  11  -2 -24 16.3323 2.52735   2
 -11   2  24 20.2828 2.44570   3
 -11   2  24 21.1908 2.97401   2
  11   2 -24 22.7051 2.75833   3
  11   2 -24 20.5427 2.91328   2
 -10  -2  24 17.9689 2.33758   3
  10  -2 -24 17.9690 2.26044   3
  10  -2 -24 21.1738 2.90751   2
 -10  -2  24 17.4028 2.56307   2
 -10   2  24 19.1379 2.31489   3
  10   2 -24 17.4079 2.59262   2
  10   2 -24 16.8214 2.27475   3
 -10   2  24 17.4542 2.56816   2
  -9  -2  24 2.77850 0.90239   2
   9  -2 -24 2.31061 0.82648   2
   9  -2 -24 1.85783 0.58702   3
   9   2 -24 1.91963 0.84225   2
   9   2 -24 1.79133 0.76711   3
  -9   2  24 3.54535 0.65877   3
  -9   2  24 -0.1339 0.79974   2
  -8  -2  24 1.35064 0.78835   2
   8  -2 -24 0.76582 0.69009   2
  -8  -2  24 1.76338 0.65056   3
   8  -2 -24 0.90490 0.51647   3
   8   2 -24 0.82685 0.73064   2
   8   2 -24 0.46392 0.68764   3
  -8   2  24 1.21598 0.51961   3
  -8   2  24 1.12783 0.74705   2
   7  -2 -24 1.33416 0.51924   3
  -7  -2  24 0.82082 0.56751   3
   7  -2 -24 0.59645 0.74476   2
  -7  -2  24 1.51389 0.83335   2
   7   2 -24 1.89332 0.70831   3
   7   2 -24 0.77707 0.73247   2
  -7   2  24 1.40329 0.73668   2
  -7   2  24 1.26067 0.49073   3
  -6  -2  24 0.90219 0.61530   3
   6  -2 -24 -0.4861 0.61410   2
  -6  -2  24 0.58828 0.67999   2
   6   2 -24 0.10249 0.63782   2
   6   2 -24 0.35990 0.53882   3
  -6   2  24 0.62733 0.63401   2
  -6   2  24 0.30760 0.52093   3
  -5  -2  24 7.80559 1.39557   2
  -5  -2  24 6.84413 1.14995   3
   5  -2 -24 6.93564 1.27817   2
   5  -2 -24 6.41102 0.98190   3
   5   2 -24 6.11597 1.12677   3
   5   2 -24 6.08144 1.34475   2
  -5   2  24 8.97421 1.16689   3
  -5   2  24 6.31085 1.27027   2
  -4  -2  24 3.33154 1.02198   2
   4  -2 -24 1.88803 0.77661   2
  -4  -2  24 2.22445 0.73955   3
   4  -2 -24 1.52737 0.53635   3
   4   2 -24 1.24505 0.80811   2
  -4   2  24 2.00316 0.58236   3
  -4   2  24 2.64653 0.78732   2
   3  -2 -24 -0.1764 0.41588   3
   3  -2 -24 0.63458 0.69058   2
  -3  -2  24 -0.7519 0.57507   3
  -3  -2  24 -0.5146 0.73198   2
  -3   2  24 -0.2588 0.77823   2
  -3   2  24 0.42431 0.51579   3
   3   2 -24 0.98370 0.80506   2
   3   2 -24 0.05692 0.64575   3
  -2  -2  24 11.5698 1.84095   2
  -2  -2  24 12.5280 1.70043   3
   2  -2 -24 9.85585 1.69386   2
   2  -2 -24 11.5789 1.48897   3
  -2   2  24 10.2707 1.41616   3
   2   2 -24 11.8270 1.66022   3
   2   2 -24 10.1215 1.71315   2
  -2   2  24 10.6058 1.78375   2
  -1  -2  24 7.85863 1.51541   2
  -1  -2  24 7.62291 1.25340   3
   1  -2 -24 8.21357 1.44994   2
   1   2 -24 7.39166 1.24666   3
  -1   2  24 6.62979 1.29974   2
   1   2 -24 7.34104 1.42497   2
  -1   2  24 8.52471 1.20802   3
   0  -2  24 9.28803 1.60503   2
   0  -2 -24 8.77589 1.24193   3
   0  -2  24 8.99184 1.38215   3
   0  -2 -24 9.88642 1.66418   2
   0   2  24 8.80543 1.33571   3
   0   2  24 9.78939 1.67825   2
   0   2 -24 11.8812 1.83837   2
   0   2 -24 7.27063 1.29108   3
  -1  -2 -24 1.05067 0.82340   2
  -1  -2 -24 1.66996 0.55964   3
   1  -2  24 2.47160 0.84203   2
   1   2  24 2.48784 0.65785   3
   1   2  24 1.81697 0.82568   2
  -1   2 -24 4.08976 1.05027   2
   2  -2  24 0.92177 0.87316   2
  14  -3 -24 2.11551 0.92987   2
 -13  -3  24 0.39624 0.63064   3
  13  -3 -24 1.04495 0.73686   2
  13   3 -24 2.29890 0.75521   3
 -13   3  24 1.21591 0.70738   2
 -12  -3  24 12.5633 1.80037   3
  12  -3 -24 19.2813 2.67291   2
  12   3 -24 14.0528 1.95911   3
 -12   3  24 14.5444 2.19451   2
 -11  -3  24 84.9368 9.86519   3
  11  -3 -24 100.982 12.4944   2
 -11   3  24 94.5296 11.9182   2
  11   3 -24 89.9598 10.2479   3
 -10  -3  24 16.9997 2.24724   3
  10  -3 -24 13.2558 2.21907   2
 -10   3  24 22.4435 2.55847   3
 -10   3  24 27.0151 3.50050   2
   9  -3 -24 4.84773 1.08318   2
  -9  -3  24 4.52705 0.94152   3
   9  -3 -24 6.79984 0.99706   3
   9   3 -24 6.18797 1.19277   3
  -9   3  24 5.86592 0.95693   3
  -9   3  24 2.85237 0.97764   2
   8  -3 -24 23.2042 2.76747   3
  -8  -3  24 24.3757 2.98032   3
  -8  -3  24 26.0415 3.54920   2
   8  -3 -24 22.9779 3.24383   2
  -8   3  24 22.8257 2.74453   3
  -8   3  24 23.7396 3.34616   2
   8   3 -24 23.5167 2.97535   3
   7  -3 -24 9.94909 1.68254   2
  -7  -3  24 8.74477 1.61100   2
  -7  -3  24 7.82054 1.34553   3
   7  -3 -24 9.27857 1.27365   3
  -7   3  24 10.6964 1.77171   2
  -7   3  24 8.85942 1.28455   3
   7   3 -24 12.8926 1.96975   2
   7   3 -24 9.66765 1.47884   3
   6  -3 -24 9.09734 1.18911   3
   6  -3 -24 7.01588 1.33186   2
  -6  -3  24 7.18935 1.21804   3
  -6  -3  24 6.29297 1.36730   2
   6   3 -24 8.56813 1.37052   3
  -6   3  24 7.84989 1.11588   3
  -6   3  24 8.22934 1.47438   2
   6   3 -24 4.02841 1.07604   2
  -5  -3  24 3.28891 0.78897   3
   5  -3 -24 3.74654 1.00534   2
  -5  -3  24 2.38887 0.79297   2
   5   3 -24 3.17411 0.93355   2
  -5   3  24 2.21910 0.67472   3
  -4  -3  24 4.24431 1.02546   2
   4  -3 -24 2.64496 0.87880   2
  -4  -3  24 2.14560 0.74365   3
   4  -3 -24 2.39977 0.61816   3
   4   3 -24 2.54747 0.98669   2
  -4   3  24 2.63334 0.64709   3
   4   3 -24 3.46735 0.85104   3
   3  -3 -24 3.71729 0.76290   3
  -3  -3  24 3.15485 0.75189   3
   3   3 -24 2.17144 0.86738   3
  -3   3  24 4.59975 0.85935   3
  -2  -3  24 0.33156 0.47206   3
   2  -3 -24 -0.5901 0.50520   3
  -2   3  24 0.38163 0.59648   3
   2   3 -24 0.38594 0.70182   3
   1  -3 -24 5.23224 0.89574   3
  -1  -3  24 4.75988 0.90231   3
  -1   3  24 4.65978 0.90978   3
   0   3  24 1.95279 0.70350   3
 -11  -4  24 0.73959 0.68895   3
 -10  -4  24 5.26624 0.97178   3
  10   4 -24 3.83712 0.91141   3
  -9  -4  24 12.8755 1.77310   3
   9   4 -24 14.2852 1.93861   3
  -8  -4  24 5.89798 1.09125   3
   8   4 -24 5.13260 1.10027   3
   7  -4 -24 8.98599 1.28452   3
  -7  -4  24 7.92265 1.32952   3
   7   4 -24 9.53270 1.49489   3
  -7   4  24 9.26282 1.39777   3
   6  -4 -24 2.11955 0.64296   3
  -6  -4  24 0.80432 0.60617   3
  -6   4  24 1.73233 0.70879   3
   5  -4 -24 0.25142 0.42883   3
  -5  -4  24 0.44276 0.55750   3
   5   4 -24 0.58528 0.61918   3
  -5   4  24 -0.2452 0.51544   3
  -4  -4  24 3.74610 0.84877   3
   4  -4 -24 4.13193 0.76795   3
  -4   4  24 3.85106 0.80744   3
   4   4 -24 3.61038 0.94982   3
   3  -4 -24 3.53186 0.68617   3
  -3   4  24 2.03255 0.69638   3
  17   0 -25 0.44465 0.79303   2
  16   0 -25 0.57163 0.62962   2
 -16   0  25 -0.0826 0.60083   2
 -15   0  25 -0.7060 0.67685   2
 -14   0  25 0.18858 0.60202   2
 -13   0  25 0.13522 0.61419   3
  13   0 -25 0.38768 0.69573   2
 -13   0  25 0.79747 0.71700   2
  13   0 -25 0.20994 0.66484   3
  12   0 -25 -0.8559 0.54389   2
  12   0 -25 0.59872 0.62837   3
 -12   0  25 0.19969 0.58833   2
 -12   0  25 0.68190 0.63366   3
 -11   0  25 -0.2742 0.64571   3
  11   0 -25 -0.8953 0.60855   3
  11   0 -25 0.26625 0.63735   2
 -11   0  25 0.59057 0.70887   2
 -10   0  25 -0.1215 0.55802   3
  10   0 -25 -0.2111 0.60254   3
  10   0 -25 -0.7500 0.62201   2
 -10   0  25 -0.6922 0.72952   2
  -9   0  25 0.19349 0.49655   3
   9   0 -25 -0.2108 0.55201   2
  -9   0  25 -0.6887 0.61042   2
   9   0 -25 0.09056 0.50637   3
  -8   0  25 0.29907 0.56126   3
  -8   0  25 0.30219 0.73320   2
   8   0 -25 -0.6202 0.62606   2
  -7   0  25 -0.6122 0.60915   3
   7   0 -25 0.08797 0.70839   2
   7   0 -25 -0.6559 0.53866   3
  -7   0  25 0.66799 0.70781   2
  -6   0  25 -0.3624 0.67795   2
   6   0 -25 0.15305 0.60124   2
  -6   0  25 -0.6340 0.55762   3
   6   0 -25 0.37542 0.55895   3
  -5   0  25 -0.8211 0.56590   3
  -5   0  25 -0.2778 0.62578   2
   5   0 -25 -0.6395 0.57708   2
   5   0 -25 0.53407 0.56544   3
  -4   0  25 0.46128 0.64481   2
  -4   0  25 -0.0229 0.53246   3
   4   0 -25 0.12392 0.62600   2
   4   0 -25 0.23734 0.54282   3
   3   0 -25 0.27597 0.74080   2
   3   0 -25 -0.6377 0.53721   3
  -3   0  25 1.00380 0.80978   2
  -3   0  25 -0.6788 0.57479   3
  -2   0  25 -0.1763 0.58877   2
   2   0 -25 -0.6690 0.58789   2
   2   0 -25 0.19233 0.52858   3
   1   0 -25 0.48441 0.69674   2
  -1   0  25 0.22958 0.53972   3
  -1   0  25 0.92192 0.67919   2
   1   0 -25 -0.6712 0.53051   3
   0   0 -25 0.61489 0.70740   2
   0   0 -25 -0.1190 0.53718   3
   0   0  25 -0.2845 0.49230   3
   0   0  25 -0.5346 0.63003   2
  -1   0 -25 -0.6360 0.55522   2
   1   0  25 -0.5537 0.62870   2
   1   0  25 0.28661 0.55243   3
   2   0  25 0.18250 0.79857   2
  -2   0 -25 0.32247 0.68361   2
  16  -1 -25 29.0907 3.97189   2
 -16  -1  25 28.5081 3.92279   2
 -16   1  25 30.4928 4.10124   2
 -15  -1  25 11.9221 1.92175   2
  15  -1 -25 11.5257 1.87914   2
 -15   1  25 12.5401 1.96575   2
  15   1 -25 12.7993 1.99729   2
 -14  -1  25 5.69022 1.22599   2
  14  -1 -25 4.82595 1.05044   2
  14   1 -25 2.92233 0.90152   2
 -14   1  25 4.19397 0.94475   2
 -13  -1  25 0.84958 0.75619   2
  13  -1 -25 1.97779 0.71940   2
  13   1 -25 0.91036 0.75036   2
  13   1 -25 1.94098 0.70828   3
 -13   1  25 1.26819 0.65375   2
  12  -1 -25 12.5401 1.97982   2
 -12  -1  25 12.8599 2.02420   2
 -12  -1  25 10.5818 1.62036   3
  12   1 -25 14.5651 2.13978   2
 -12   1  25 13.4892 1.77593   3
  12   1 -25 13.4078 1.80807   3
 -12   1  25 14.2851 2.13934   2
  11  -1 -25 22.4986 3.08552   2
 -11  -1  25 18.8950 2.78509   2
 -11  -1  25 23.5206 2.79241   3
  11  -1 -25 21.6753 2.67168   3
 -11   1  25 17.8594 2.36390   3
  11   1 -25 21.1233 2.96581   2
  11   1 -25 21.1294 2.61157   3
 -11   1  25 21.9771 3.02623   2
  10  -1 -25 7.53337 1.39804   2
 -10  -1  25 6.34331 1.25861   2
  10  -1 -25 8.11341 1.22141   3
 -10  -1  25 6.90539 1.15455   3
 -10   1  25 7.76613 1.21800   3
  10   1 -25 8.57664 1.42733   2
 -10   1  25 7.62092 1.39325   2
  10   1 -25 5.97338 1.09918   3
  -9  -1  25 0.64651 0.59511   3
  -9  -1  25 0.71287 0.76706   2
   9  -1 -25 0.13195 0.69684   2
   9  -1 -25 0.33031 0.52893   3
  -9   1  25 0.45426 0.80990   2
  -9   1  25 -0.2735 0.54506   3
   9   1 -25 0.45918 0.69410   2
   8  -1 -25 8.63664 1.56415   2
  -8  -1  25 8.74754 1.58153   2
   8  -1 -25 8.83606 1.28438   3
   8   1 -25 10.9569 1.52559   3
   8   1 -25 9.80456 1.57979   2
  -8   1  25 6.09444 1.36918   2
  -8   1  25 10.3231 1.30863   3
   7  -1 -25 2.03428 0.75501   2
  -7  -1  25 1.39202 0.71340   2
  -7  -1  25 1.06251 0.62633   3
   7   1 -25 1.10447 0.69598   3
  -7   1  25 0.16130 0.76049   2
   7   1 -25 1.35346 0.68616   2
  -7   1  25 0.89411 0.53909   3
  -6  -1  25 9.21009 1.34150   3
  -6  -1  25 8.15812 1.49145   2
   6  -1 -25 8.03278 1.23456   3
   6  -1 -25 9.29633 1.59064   2
  -6   1  25 9.51561 1.29895   3
  -6   1  25 10.2179 1.68924   2
   6   1 -25 8.97540 1.39677   3
   6   1 -25 7.54826 1.36867   2
   5  -1 -25 1.51770 0.76437   2
  -5  -1  25 0.59091 0.57362   3
   5  -1 -25 1.08807 0.62842   3
   5   1 -25 1.63000 0.83574   2
  -5   1  25 1.44863 0.74744   2
   5   1 -25 0.38249 0.54916   3
  -5   1  25 0.14127 0.53737   3
  -4  -1  25 2.56115 0.73841   3
   4  -1 -25 3.40469 1.11842   2
   4  -1 -25 2.93652 0.75517   3
   4   1 -25 3.58941 0.96913   2
   4   1 -25 2.76910 0.79360   3
  -4   1  25 2.17150 0.62855   3
  -3  -1  25 29.3025 4.11347   2
   3  -1 -25 31.9719 3.74342   3
   3  -1 -25 37.2505 4.82107   2
  -3   1  25 34.9367 3.93547   3
   3   1 -25 30.1414 3.65570   3
   3   1 -25 30.9380 4.21968   2
  -2  -1  25 7.46888 1.49393   2
  -2  -1  25 8.58295 1.25324   3
   2  -1 -25 7.44840 1.44405   2
   2   1 -25 7.51004 1.23793   3
  -2   1  25 8.30237 1.19281   3
  -2   1  25 8.42586 1.57169   2
  -1  -1  25 -0.4791 0.78424   2
  -1  -1  25 0.15814 0.53828   3
   1  -1 -25 0.35030 0.54008   3
  -1   1  25 0.03515 0.65580   2
   1   1 -25 0.63945 0.54742   3
  -1   1  25 -0.4721 0.52698   3
   0  -1  25 3.53907 0.96500   2
   0  -1 -25 2.59523 0.73974   3
   0  -1  25 2.30819 0.69700   3
   0   1 -25 2.21637 0.76515   3
   0   1  25 3.28910 0.78070   3
   0   1  25 2.90047 0.88707   2
  -1  -1 -25 9.22856 1.56899   2
   1  -1  25 8.10354 1.51890   2
  -1   1 -25 8.25166 1.45955   2
   1   1  25 7.43262 1.18251   3
   1   1  25 8.62471 1.52747   2
 -15   2  25 5.83188 1.20686   2
 -14   2  25 37.3432 4.97112   2
 -13  -2  25 -0.9142 0.69840   2
 -13  -2  25 0.75303 0.63326   3
  13  -2 -25 0.26106 0.83762   2
 -13   2  25 0.00000 0.60354   2
  13   2 -25 1.71431 0.77472   3
 -12  -2  25 17.0579 2.31717   3
 -12  -2  25 17.4214 2.61839   2
  12  -2 -25 23.0012 3.10134   2
 -12   2  25 22.1155 3.01214   2
  12   2 -25 19.9359 2.86569   2
  12   2 -25 21.0265 2.64344   3
 -11  -2  25 0.82384 0.63603   3
 -11  -2  25 1.43102 0.77108   2
  11  -2 -25 1.57626 0.75366   2
 -11   2  25 1.11647 0.74688   2
  11   2 -25 1.26202 0.64366   3
 -11   2  25 0.82630 0.49549   3
  11   2 -25 2.34444 0.82070   2
 -10  -2  25 0.10156 0.59858   3
  10  -2 -25 -0.5847 0.50389   3
  10  -2 -25 1.17968 0.73429   2
 -10  -2  25 0.11744 0.54374   2
  10   2 -25 -0.1752 0.67831   3
  10   2 -25 0.09940 0.69963   2
 -10   2  25 -0.0698 0.42854   3
 -10   2  25 -0.8771 0.63803   2
   9  -2 -25 7.08527 1.30292   2
  -9  -2  25 5.65349 1.19128   2
   9  -2 -25 5.96002 0.98337   3
  -9   2  25 5.85407 1.24711   2
   9   2 -25 6.03432 1.13278   3
   9   2 -25 5.21582 1.16792   2
  -9   2  25 6.88203 1.00114   3
  -8  -2  25 0.88724 0.71803   2
  -8  -2  25 1.49788 0.66720   3
   8  -2 -25 1.46279 0.75430   2
   8  -2 -25 1.11866 0.49009   3
   8   2 -25 0.89338 0.64509   2
   8   2 -25 1.05942 0.74897   3
  -8   2  25 0.79861 0.47402   3
  -8   2  25 1.39644 0.81275   2
   7  -2 -25 19.8097 2.55184   3
   7  -2 -25 23.0621 3.24154   2
  -7  -2  25 26.3068 3.56843   2
  -7  -2  25 26.0590 3.11552   3
  -7   2  25 25.3149 3.46897   2
   7   2 -25 27.2885 3.64622   2
  -7   2  25 25.7511 2.96194   3
   7   2 -25 21.7719 2.78927   3
  -6  -2  25 13.5831 2.06370   2
   6  -2 -25 12.8113 1.64491   3
   6  -2 -25 12.5741 1.98999   2
  -6  -2  25 13.4652 1.79104   3
  -6   2  25 11.2708 1.87806   2
   6   2 -25 12.0550 1.93354   2
   6   2 -25 12.6215 1.75434   3
  -6   2  25 12.7204 1.64427   3
   5  -2 -25 1.20103 0.53650   3
   5  -2 -25 0.98390 0.72705   2
  -5  -2  25 1.14071 0.57815   3
  -5  -2  25 0.77024 0.69452   2
  -5   2  25 0.06989 0.68885   2
  -5   2  25 1.12060 0.57149   3
   5   2 -25 0.88019 0.73115   2
   5   2 -25 1.01153 0.71683   3
   4  -2 -25 1.74572 0.73869   2
  -4  -2  25 2.67044 0.77969   3
  -4  -2  25 2.77991 0.96850   2
   4  -2 -25 2.13530 0.59455   3
   4   2 -25 3.11569 0.85287   3
  -4   2  25 2.29455 0.63126   3
   4   2 -25 2.65506 0.91672   2
  -4   2  25 2.14583 0.76319   2
   3  -2 -25 5.67862 0.91988   3
  -3  -2  25 7.37275 1.45955   2
  -3  -2  25 5.01410 0.95605   3
   3  -2 -25 4.27711 1.09890   2
   3   2 -25 5.16089 1.01285   3
  -3   2  25 4.91919 0.90196   3
   3   2 -25 7.25167 1.40777   2
  -3   2  25 3.78379 1.02180   2
  -2  -2  25 13.6771 1.79932   3
   2  -2 -25 12.9437 1.65471   3
  -2  -2  25 11.1381 1.85331   2
   2  -2 -25 10.7220 1.78367   2
   2   2 -25 10.0912 1.59466   3
  -2   2  25 14.1852 2.19573   2
  -2   2  25 13.7122 1.74241   3
   2   2 -25 13.6650 2.06227   2
   1  -2 -25 0.23970 0.61669   2
  -1  -2  25 0.77512 0.61537   3
  -1  -2  25 1.06009 0.83363   2
   1   2 -25 0.05770 0.74126   3
  -1   2  25 0.76129 0.58898   3
   1   2 -25 0.24171 0.67916   2
  -1   2  25 0.79078 0.72453   2
   0  -2 -25 3.20809 0.71439   3
   0  -2  25 4.61973 1.17451   2
   0   2  25 3.24325 0.80337   3
 -12  -3  25 0.52505 0.64612   3
  12   3 -25 -0.6687 0.68973   3
  11  -3 -25 6.59449 1.24693   2
 -11  -3  25 5.59879 1.02072   3
  11   3 -25 6.12616 1.14490   3
 -10  -3  25 6.66587 1.16130   3
  10  -3 -25 9.62620 1.57039   2
 -10   3  25 7.47172 1.46697   2
  10   3 -25 9.75489 1.51817   3
   9  -3 -25 0.27811 0.47179   3
  -9  -3  25 0.69241 0.54720   3
   9  -3 -25 -0.4850 0.64090   2
  -9   3  25 0.51561 0.54747   3
  -9   3  25 1.27964 0.77980   2
   9   3 -25 -0.0300 0.72148   3
   8  -3 -25 1.06101 0.52356   3
   8  -3 -25 1.59386 0.79590   2
  -8  -3  25 0.84763 0.61951   3
  -8   3  25 3.06802 1.00287   2
  -8   3  25 1.44269 0.65810   3
   8   3 -25 1.04353 0.70635   3
   7  -3 -25 1.24181 0.53259   3
  -7  -3  25 1.05296 0.69330   3
   7  -3 -25 0.82504 0.70143   2
  -7   3  25 1.70705 0.88338   2
  -7   3  25 1.65082 0.61870   3
   7   3 -25 0.98714 0.74885   3
   6  -3 -25 0.19028 0.47567   3
   6  -3 -25 0.42365 0.71090   2
  -6  -3  25 0.08343 0.52605   3
   6   3 -25 0.45791 0.66502   3
  -6   3  25 0.06325 0.52739   3
   5  -3 -25 1.48840 0.56118   3
  -5  -3  25 1.64320 0.61004   3
   5  -3 -25 2.42321 0.91855   2
  -4  -3  25 5.46737 0.95328   3
   4  -3 -25 5.26697 0.86558   3
   4   3 -25 3.09217 0.86879   3
  -4   3  25 5.23809 0.90840   3
  -3  -3  25 2.03409 0.73560   3
   3  -3 -25 2.03575 0.60893   3
  -3   3  25 1.72842 0.59462   3
   3   3 -25 1.72242 0.78344   3
   2  -3 -25 -0.1715 0.49274   3
  -2   3  25 -0.4343 0.56746   3
 -15   0  26 11.2519 1.77921   2
 -14   0  26 -0.0314 0.57111   2
 -13   0  26 8.35196 1.49598   2
  13   0 -26 6.68534 1.25032   2
 -12   0  26 4.29715 1.01357   2
 -12   0  26 3.50511 0.85848   3
  12   0 -26 2.01023 0.80806   3
  12   0 -26 3.59497 0.94898   2
  11   0 -26 22.5402 2.72805   3
 -11   0  26 21.5635 2.61975   3
 -11   0  26 15.9947 2.50938   2
  11   0 -26 23.0738 3.14663   2
 -10   0  26 0.61231 0.58586   3
  10   0 -26 0.24254 0.62975   3
 -10   0  26 0.55607 0.76314   2
  10   0 -26 1.94806 0.77041   2
   9   0 -26 5.43474 0.95178   3
   9   0 -26 5.30391 1.11035   2
  -9   0  26 5.41899 0.92153   3
  -9   0  26 4.43424 1.06028   2
   8   0 -26 26.5797 3.62075   2
  -8   0  26 26.8329 3.18546   3
  -8   0  26 25.4079 3.55546   2
  -7   0  26 0.20322 0.56373   3
   7   0 -26 -0.4875 0.58133   2
  -7   0  26 -0.1058 0.62339   2
   7   0 -26 0.30521 0.58655   3
  -6   0  26 31.9892 3.70606   3
  -6   0  26 33.5860 4.42829   2
   6   0 -26 29.8664 4.05788   2
   6   0 -26 28.7289 3.49262   3
  -5   0  26 0.47308 0.57271   3
   5   0 -26 0.17448 0.63473   2
  -5   0  26 0.47461 0.71642   2
   5   0 -26 0.78892 0.59746   3
   4   0 -26 0.62973 0.56741   3
  -4   0  26 1.26775 0.59549   3
  -4   0  26 -0.1328 0.66848   2
   4   0 -26 -0.4546 0.72144   2
  -3   0  26 1.65093 0.64185   3
   3   0 -26 1.09473 0.80963   2
  -3   0  26 0.68855 0.71553   2
   2   0 -26 20.3423 2.52865   3
  -2   0  26 18.5792 2.38415   3
   2   0 -26 24.9649 3.36809   2
  -2   0  26 22.3508 3.14227   2
   1   0 -26 0.21924 0.54750   3
  -1   0  26 0.14725 0.52157   3
  -1   0  26 -0.0352 0.82920   2
   1   0 -26 0.73014 0.73433   2
   0   0  26 13.8353 2.17331   2
   0   0 -26 12.5371 1.98193   2
  15  -1 -26 4.55065 1.07099   2
 -15   1  26 5.09371 1.06436   2
  14  -1 -26 4.20414 1.00997   2
 -14  -1  26 6.63797 1.21786   2
 -14   1  26 4.93150 1.03637   2
  14   1 -26 4.55844 1.13203   2
  13  -1 -26 0.18612 0.64826   2
 -13  -1  26 0.37400 0.71809   2
 -13   1  26 0.38836 0.71325   2
  13   1 -26 0.30277 0.66099   2
  13   1 -26 0.01986 0.61992   3
 -12  -1  26 17.1854 2.05673   3
 -12  -1  26 13.3581 2.02193   2
  12  -1 -26 9.64518 1.66034   2
  12   1 -26 13.6207 1.78907   3
  12   1 -26 12.1804 1.90489   2
 -12   1  26 10.0015 1.72459   2
  11  -1 -26 3.31991 0.84917   2
 -11  -1  26 2.50555 0.92288   2
  11  -1 -26 3.30982 0.79375   3
 -11  -1  26 3.12916 0.77252   3
  11   1 -26 1.78452 0.77299   2
 -11   1  26 2.99212 0.78431   3
  11   1 -26 2.39494 0.69717   3
 -11   1  26 2.31485 0.76691   2
 -10  -1  26 3.46995 0.93098   2
 -10  -1  26 3.52246 0.83197   3
  10  -1 -26 4.04315 1.00294   2
  10  -1 -26 3.91678 0.85733   3
 -10   1  26 3.98014 0.99602   2
  10   1 -26 3.11707 0.86484   3
  10   1 -26 4.39550 1.01528   2
 -10   1  26 3.90825 0.86828   3
   9  -1 -26 12.6048 1.65954   3
  -9  -1  26 12.0873 1.88541   2
   9  -1 -26 9.08760 1.58247   2
  -9  -1  26 11.8627 1.61777   3
  -9   1  26 11.6287 1.56849   3
  -9   1  26 11.7221 1.85119   2
   9   1 -26 10.6232 1.73541   2
   8  -1 -26 17.3810 2.70929   2
   8  -1 -26 23.8302 2.81584   3
  -8  -1  26 24.6944 2.93889   3
  -8  -1  26 28.6630 3.75433   2
   8   1 -26 23.6783 2.89091   3
  -8   1  26 21.1726 2.62184   3
   8   1 -26 22.7601 3.17879   2
  -8   1  26 23.1035 3.22014   2
  -7  -1  26 7.68886 1.22225   3
  -7  -1  26 10.7589 1.70866   2
   7  -1 -26 7.59473 1.44027   2
   7  -1 -26 9.22106 1.31467   3
   7   1 -26 6.43331 1.19610   3
   7   1 -26 7.86028 1.44919   2
  -7   1  26 7.52329 1.13828   3
  -7   1  26 10.4367 1.71753   2
   6  -1 -26 0.58585 0.51408   3
  -6  -1  26 0.95277 0.59006   3
   6  -1 -26 1.74593 0.73679   2
  -6  -1  26 1.01658 0.76334   2
  -6   1  26 1.00284 0.65875   2
   6   1 -26 -0.0930 0.60546   3
   6   1 -26 0.68017 0.67012   2
  -6   1  26 0.78339 0.52422   3
   5  -1 -26 10.4390 1.65438   2
  -5  -1  26 10.1585 1.43485   3
   5  -1 -26 8.40877 1.28199   3
  -5   1  26 7.48922 1.18562   3
   5   1 -26 9.47673 1.39040   3
  -5   1  26 11.0663 1.76710   2
   5   1 -26 8.99209 1.52936   2
   4  -1 -26 -1.1444 0.59417   3
  -4  -1  26 0.79735 0.57957   3
   4  -1 -26 0.76358 0.61357   2
   4   1 -26 -0.3974 0.60669   3
  -4   1  26 -0.1516 0.53749   3
   4   1 -26 0.33486 0.69237   2
   3  -1 -26 10.9249 1.52996   3
   3  -1 -26 10.0127 1.71578   2
   3   1 -26 11.4055 1.60613   3
  -3   1  26 12.9547 1.66259   3
   3   1 -26 10.7641 1.77146   2
   2  -1 -26 2.38669 0.92695   2
  -2  -1  26 3.31541 0.93021   2
  -2  -1  26 2.15002 0.65560   3
  -2   1  26 1.13668 0.87609   2
   2   1 -26 0.93881 0.82396   2
  -2   1  26 1.07007 0.66082   3
   2   1 -26 1.97536 0.69070   3
  -1  -1  26 -0.4212 0.50861   3
  -1  -1  26 0.08809 0.60555   2
   1  -1 -26 0.00000 0.54466   3
  -1   1  26 0.47838 0.78302   2
  -1   1  26 -0.8306 0.56482   3
 -14   2  26 1.29417 0.69837   2
  13  -2 -26 0.73395 0.66934   2
 -13   2  26 -0.3761 0.56946   2
  12  -2 -26 15.4649 2.28191   2
 -12  -2  26 14.1915 1.94643   3
  12   2 -26 14.3982 1.98416   3
 -12   2  26 17.3477 2.46763   2
 -11  -2  26 1.33182 0.80153   2
  11  -2 -26 2.16712 0.78556   2
 -11  -2  26 0.36833 0.58753   3
 -11   2  26 0.90446 0.80842   2
  11   2 -26 1.61229 0.71576   3
  10  -2 -26 2.78396 0.72992   3
  10  -2 -26 2.99235 0.91434   2
 -10  -2  26 2.49424 0.88820   2
 -10  -2  26 1.21992 0.59473   3
 -10   2  26 3.40769 0.94024   2
 -10   2  26 2.69462 0.74034   3
  10   2 -26 2.59189 0.83140   3
  10   2 -26 4.21569 0.99307   2
  -9  -2  26 3.21188 0.96439   2
   9  -2 -26 4.89119 1.08427   2
   9  -2 -26 3.36687 0.73315   3
   9   2 -26 5.15704 1.11688   2
  -9   2  26 4.57436 1.13201   2
  -9   2  26 4.80268 0.88950   3
  -8  -2  26 -0.3213 0.45745   3
   8  -2 -26 -0.9073 0.49975   3
   8  -2 -26 0.21482 0.66543   2
  -8  -2  26 0.63858 0.74913   2
   8   2 -26 0.41701 0.68261   2
   8   2 -26 0.48440 0.61909   3
  -8   2  26 0.65916 0.48973   3
  -8   2  26 0.35322 0.79293   2
   7  -2 -26 3.33097 1.04038   2
  -7  -2  26 5.92562 1.25944   2
   7  -2 -26 6.41170 0.98102   3
  -7  -2  26 6.19098 1.06098   3
   7   2 -26 4.59068 1.12079   2
   7   2 -26 2.42889 0.83090   3
  -7   2  26 5.40972 0.89969   3
  -7   2  26 6.21990 1.27137   2
   6  -2 -26 8.56161 1.26448   3
  -6  -2  26 9.65582 1.39816   3
   6  -2 -26 8.67226 1.57556   2
  -6  -2  26 11.0646 1.79157   2
   6   2 -26 10.4289 1.70919   2
   6   2 -26 9.36322 1.42024   3
  -6   2  26 11.3742 1.79888   2
  -5  -2  26 0.32274 0.66731   2
   5  -2 -26 0.11879 0.51579   3
  -5  -2  26 -0.1268 0.58912   3
   5  -2 -26 1.15079 0.81723   2
   5   2 -26 -0.4179 0.63282   2
   5   2 -26 0.25866 0.63639   3
  -5   2  26 0.32048 0.54174   3
  -5   2  26 -0.3164 0.70771   2
   4  -2 -26 0.76433 0.61767   2
   4  -2 -26 0.18607 0.50095   3
  -4  -2  26 0.04966 0.68316   2
  -4   2  26 1.18689 0.69305   2
  -4   2  26 0.07245 0.46301   3
   4   2 -26 0.29754 0.59578   3
   4   2 -26 0.19182 0.68545   2
   3  -2 -26 7.70304 1.14594   3
  -3  -2  26 7.23519 1.17213   3
   3  -2 -26 9.00348 1.53371   2
  -3  -2  26 9.33160 1.73410   2
  -3   2  26 9.43107 1.31107   3
   3   2 -26 4.58320 1.05049   3
  -3   2  26 6.67888 1.34145   2
   2  -2 -26 1.02961 0.58531   3
  -2   2  26 0.41752 0.59035   3
  10   3 -26 6.05254 1.17118   3
  -9  -3  26 1.17368 0.57553   3
   9   3 -26 0.65165 0.69342   3
  -8  -3  26 0.79110 0.55726   3
   8   3 -26 1.65195 0.75339   3
  -7  -3  26 4.90946 0.93002   3
   7  -3 -26 6.08962 0.95565   3
   7   3 -26 5.52173 1.09815   3
   6  -3 -26 0.30130 0.51733   3
  -6  -3  26 0.04649 0.51428   3
  -6   3  26 1.16560 0.60671   3
   6   3 -26 1.80485 0.68554   3
   5  -3 -26 0.13143 0.46604   3
   5   3 -26 0.06695 0.68987   3
 -14   0  27 -1.1628 0.63269   2
 -13   0  27 -0.0509 0.58326   2
  13   0 -27 0.38599 0.57695   2
  12   0 -27 -1.1764 0.64370   2
 -12   0  27 0.16511 0.68102   2
 -11   0  27 -0.8496 0.70598   2
  11   0 -27 0.48297 0.67059   2
 -11   0  27 -0.0885 0.53780   3
  11   0 -27 -0.5612 0.55671   3
  10   0 -27 -0.1664 0.62081   2
  10   0 -27 -0.1049 0.59499   3
 -10   0  27 -0.3307 0.55653   3
 -10   0  27 -0.2014 0.74180   2
  -9   0  27 -0.9071 0.82489   2
   9   0 -27 0.53162 0.75788   2
   9   0 -27 -0.8276 0.49185   3
  -9   0  27 0.15356 0.50434   3
  -8   0  27 -0.2483 0.76650   2
   8   0 -27 0.31401 0.70247   2
  -8   0  27 0.20843 0.51979   3
   7   0 -27 1.05892 0.64834   3
  -7   0  27 0.55517 0.73964   2
   7   0 -27 0.52232 0.68499   2
  -7   0  27 0.29720 0.55458   3
  -6   0  27 -0.4276 0.53266   3
  -6   0  27 0.01734 0.64727   2
   6   0 -27 0.07044 0.54230   3
   6   0 -27 -0.6231 0.54391   2
   5   0 -27 0.31132 0.62904   2
   5   0 -27 0.35453 0.61724   3
  -5   0  27 0.60358 0.74568   2
  -5   0  27 0.41337 0.54038   3
   4   0 -27 0.23523 0.58600   3
  -4   0  27 0.04770 0.68701   2
  -4   0  27 -0.3236 0.51197   3
   4   0 -27 0.23827 0.75215   2
  -3   0  27 0.43395 0.52771   3
   3   0 -27 0.83547 0.66354   2
  -3   0  27 -0.6237 0.66522   2
  -2   0  27 0.16166 0.67034   2
   2   0 -27 -0.6097 0.61688   2
  13  -1 -27 3.14882 0.82648   2
 -13   1  27 3.50790 0.96824   2
  12  -1 -27 2.88303 0.85113   2
 -12  -1  27 5.40981 1.12765   2
 -12   1  27 3.65222 0.93694   2
  12   1 -27 3.62335 0.92585   2
 -11  -1  27 0.91936 0.57479   3
 -11  -1  27 -0.6394 0.67628   2
  11  -1 -27 0.11627 0.53835   2
 -11   1  27 -0.1293 0.61921   2
  11   1 -27 0.20018 0.60621   2
  11   1 -27 0.21965 0.58823   3
 -10  -1  27 0.63097 0.55351   3
  10  -1 -27 0.20057 0.55426   3
  10  -1 -27 -0.1848 0.62710   2
 -10  -1  27 0.20230 0.72858   2
  10   1 -27 0.19466 0.59169   3
 -10   1  27 0.62896 0.54905   3
 -10   1  27 -0.0998 0.58828   2
  10   1 -27 0.10009 0.65542   2
  -9  -1  27 10.2168 1.75823   2
  -9  -1  27 10.0734 1.45704   3
   9  -1 -27 10.7261 1.74992   2
   9  -1 -27 12.2818 1.61306   3
   9   1 -27 10.6449 1.71861   2
  -9   1  27 11.9206 1.55522   3
  -9   1  27 8.98899 1.61003   2
  -8  -1  27 12.6307 2.06676   2
  -8  -1  27 14.8607 1.89073   3
   8  -1 -27 11.8278 1.64939   3
   8  -1 -27 14.0553 2.11291   2
   8   1 -27 12.3721 1.73816   3
  -8   1  27 12.7743 1.69101   3
   8   1 -27 14.1959 2.11415   2
  -8   1  27 12.9605 2.03766   2
  -7  -1  27 0.57807 0.56985   3
   7  -1 -27 0.32928 0.55629   3
   7  -1 -27 1.07673 0.75196   2
  -7  -1  27 0.92125 0.78441   2
  -7   1  27 -0.0356 0.78712   2
   7   1 -27 1.23770 0.77189   2
   7   1 -27 1.21876 0.68071   3
   6  -1 -27 1.15603 0.74088   2
   6  -1 -27 1.45269 0.60772   3
  -6  -1  27 -0.3975 0.53394   3
  -6  -1  27 0.31072 0.76406   2
   6   1 -27 -0.0685 0.62329   2
  -6   1  27 1.42195 0.56184   3
   6   1 -27 1.69171 0.68677   3
  -6   1  27 0.68434 0.77662   2
  -6   1  27 0.38445 0.49140   3
   5  -1 -27 30.1029 3.39769   3
   5  -1 -27 20.7417 3.08506   2
  -5  -1  27 28.7835 3.89986   2
  -5  -1  27 27.4467 3.21374   3
   5   1 -27 24.0373 3.38449   2
  -5   1  27 23.5840 2.91260   3
   5   1 -27 30.5015 3.47126   3
   4  -1 -27 1.74285 0.70947   2
  -4  -1  27 0.85193 0.56343   3
   4  -1 -27 1.75993 0.67035   3
   4   1 -27 1.19060 0.76967   2
  -4   1  27 3.08023 0.74941   3
   3  -1 -27 7.50106 1.13643   3
  -3  -1  27 6.99103 1.11611   3
   3  -1 -27 9.84704 1.66180   2
   3   1 -27 5.11485 1.18425   2
   3   1 -27 7.87062 1.28301   3
  -3   1  27 5.91321 1.04802   3
  11  -2 -27 14.5006 2.12424   2
  11   2 -27 9.76837 1.61369   3
 -10  -2  27 5.17352 0.92467   3
  10  -2 -27 4.55721 1.05441   2
 -10   2  27 6.49612 1.24208   2
  -9  -2  27 0.06412 0.51234   3
   9  -2 -27 0.52024 0.69233   2
   9   2 -27 0.66937 0.65265   3
  -9   2  27 -0.2332 0.63810   2
   8  -2 -27 0.21261 0.59509   2
   8  -2 -27 0.27495 0.51343   3
  -8  -2  27 0.83616 0.50027   3
  -8   2  27 0.25483 0.53309   3
  -8   2  27 0.79047 0.67792   2
   8   2 -27 0.57096 0.65308   3
   7  -2 -27 -0.1064 0.62727   2
   7  -2 -27 0.10618 0.55224   3
  -7  -2  27 0.83483 0.58503   3
  -7   2  27 -0.4966 0.63914   2
  -7   2  27 -0.0744 0.51242   3
   7   2 -27 1.50145 0.71805   3
   6  -2 -27 0.04352 0.43034   3
  -6  -2  27 0.88168 0.61452   3
   6  -2 -27 0.41544 0.79903   2
   6   2 -27 -0.5228 0.52203   3
   5  -2 -27 9.79693 1.34034   3
  -5  -2  27 7.34396 1.28185   3
  -5   2  27 9.99420 1.37466   3
 -11   0  28 5.32884 1.14380   2
  11   0 -28 4.24740 1.09192   2
 -10   0  28 8.09797 1.43693   2
  10   0 -28 7.30172 1.32036   2
   9   0 -28 9.24616 1.35204   3
  -9   0  28 8.61988 1.26688   3
   9   0 -28 7.71638 1.42266   2
  -9   0  28 10.7884 1.73404   2
   8   0 -28 0.34826 0.63287   3
   8   0 -28 0.81329 0.64399   2
  -8   0  28 0.86249 0.83095   2
   7   0 -28 1.96067 0.73628   3
  -7   0  28 2.00373 0.86772   2
   7   0 -28 2.76160 0.89916   2
  -7   0  28 0.75938 0.53579   3
   6   0 -28 67.6230 8.18142   3
  -6   0  28 104.280 10.8075   3
   6   0 -28 107.025 12.7603   2
  -6   0  28 71.0803 9.48525   2
  10  -1 -28 -0.7380 0.60948   2
 -10   1  28 0.11631 0.70170   2
   9  -1 -28 4.87497 1.11085   2
  -9   1  28 5.56904 1.27191   2
   8  -1 -28 2.41747 0.77835   3
  -8  -1  28 2.28784 0.70141   3
   8  -1 -28 3.01536 0.84638   2
  -8   1  28 2.57999 0.87576   2
   8   1 -28 1.89819 0.72472   3
   7  -1 -28 4.91151 0.92961   3
   7  -1 -28 4.18751 0.99067   2
  -7  -1  28 4.09260 0.87292   3
  -7   1  28 5.61339 1.20035   2
   7   1 -28 3.69033 0.89449   3
   0   0   0    0.00    0.00   0
 _exptl_absorpt_process_details 'SADABS 2014/5'
 _exptl_absorpt_correction_type   multi-scan
 _exptl_absorpt_correction_T_max  0.8625
 _exptl_absorpt_correction_T_min  0.7284
 _exptl_special_details
)
 The following wavelength and cell were deduced by SADABS from the
 direction cosines etc. They are given here for emergency use only:
 CELL 0.61993   11.773    4.459   14.984   90.001  112.539   89.995
)
;
_shelx_hkl_checksum              83075
_shelx_res_file
;
TITL chloro - SHELXL
    chloro.res
    created by SHELXL-2018/3 at 16:13:46 on 21-Feb-2020
CELL  0.61992   11.785     4.4690    15.004  90.000 112.537  90.000
ZERR     4    0.004    0.0009    0.004    0.0000    0.006    0.0000
LATT   1
SYMM             - X ,    0.50000 + Y ,    0.50000 - Z
SFAC  C   H   CL  N   O
DISP  C     0.002     0.0012      8.7
DISP  H     0.000     0.000       0.7
DISP  Cl    0.1198   0.1215  449.9
DISP  N     0.0042   0.0024    14.3
DISP  O    0.0077   0.0045  22.9
UNIT   28   24   4   4   8
OMIT -2 60
TEMP  -173.
SIZE      0.12     0.10     0.04
ACTA
PLAN  -10
BOND $H
CONF
HTAB
L.S.     8
WGHT    0.053200    0.279200
EXTI    0.032847
FVAR       0.82180
CL1   3   -0.046631    0.104115    0.098610    11.00000    0.01498    0.02849 =
         0.02457    0.00488    0.00552    0.00112
O1    5    0.414715   -0.245509    0.514700    11.00000    0.03351    0.03518 =
         0.01593    0.00718    0.00937    0.00339
O2    5    0.284385    0.113456    0.493227    11.00000    0.03302    0.03706 =
         0.01915   -0.00959    0.01257    0.00143
N1    4    0.340362   -0.064189    0.463144    11.00000    0.02025    0.02318 =
         0.01342   -0.00269    0.00733   -0.00539
C1    1    0.096874    0.305633    0.134353    11.00000    0.01846    0.01753 =
         0.02393    0.00509    0.00488    0.00069
AFIX  23
H1A   2    0.113771    0.356893    0.076429    11.00000   -1.20000
H1B   2    0.090831    0.494388    0.166792    11.00000   -1.20000
AFIX   0
C2    1    0.199728    0.119711    0.201399    11.00000    0.01544    0.01400 =
         0.01564    0.00099    0.00546   -0.00134
C3    1    0.221938    0.113373    0.299396    11.00000    0.01676    0.01596 =
         0.01689   -0.00194    0.00749   -0.00062
AFIX  43
H3    2    0.172515    0.226726    0.324310    11.00000   -1.20000
AFIX   0
C4    1    0.317459   -0.061318    0.359913    11.00000    0.01651    0.01668 =
         0.01138   -0.00139    0.00601   -0.00294
C5    1    0.392008   -0.231430    0.327275    11.00000    0.01550    0.01867 =
         0.01388    0.00061    0.00576    0.00039
AFIX  43
H5    2    0.456646   -0.350058    0.370430    11.00000   -1.20000
AFIX   0
C6    1    0.369056   -0.222711    0.229272    11.00000    0.01735    0.02082 =
         0.01431   -0.00009    0.00754    0.00133
AFIX  43
H6    2    0.418777   -0.336314    0.204708    11.00000   -1.20000
AFIX   0
C7    1    0.273781   -0.048779    0.166916    11.00000    0.01736    0.01845 =
         0.01314    0.00065    0.00629   -0.00164
AFIX  43
H7    2    0.259027   -0.044798    0.100080    11.00000   -1.20000
REM HKLF  4 1 1 0 0 0 -1 0 -1 0 -1
AFIX   0
HKLF 4
REM  chloro - SHELXL
REM wR2 = 0.1220, GooF = S = 1.072, Restrained GooF = 1.072 for all data
REM R1 = 0.0431 for 2947 Fo > 4sig(Fo) and 0.0453 for all 3194 data
REM 101 parameters refined using 0 restraints
END
WGHT      0.0508      0.2884
REM Instructions for potential hydrogen bonds
EQIV $1 -x, y+1/2, -z+1/2
HTAB C3 Cl1_$1
EQIV $2 -x+1, -y-1, -z+1
HTAB C5 O1_$2
REM Highest difference peak  0.628,  deepest hole -0.480,  1-sigma level  0.081
Q1    1   0.3231 -0.1424  0.1973  11.00000  0.05    0.63
Q2    1   0.3596 -0.1493  0.3453  11.00000  0.05    0.63
Q3    1   0.2730  0.0281  0.3305  11.00000  0.05    0.52
Q4    1   0.2354  0.0403  0.1808  11.00000  0.05    0.50
Q5    1   0.3810 -0.3720  0.5002  11.00000  0.05    0.36
Q6    1   0.1432  0.1979  0.1661  11.00000  0.05    0.36
Q7    1   0.2041  0.1037  0.2459  11.00000  0.05    0.34
Q8    1   0.3796 -0.2509  0.2781  11.00000  0.05    0.34
Q9    1  -0.0646  0.2534  0.0843  11.00000  0.05    0.30
Q10   1  -0.0311 -0.0520  0.1020  11.00000  0.05    0.30
;
_shelx_res_checksum              53069
loop_
_space_group_symop_operation_xyz
'x, y, z'
'-x, y+1/2, -z+1/2'
'-x, -y, -z'
'x, -y-1/2, z-1/2'
loop_
_atom_site_type_symbol
_atom_site_label
_atom_site_fract_x
_atom_site_fract_y
_atom_site_fract_z
_atom_site_U_iso_or_equiv
_atom_site_adp_type
_atom_site_calc_flag
_atom_site_occupancy
_atom_site_disorder_assembly
_atom_site_disorder_group
Cl Cl1 -0.04663(2) 0.10411(6) 0.09861(2) 0.02329(9) Uani d 1 . .
O O1 0.41472(9) -0.2455(2) 0.51470(6) 0.02824(19) Uani d 1 . .
O O2 0.28438(9) 0.1135(2) 0.49323(6) 0.0290(2) Uani d 1 . .
N N1 0.34036(8) -0.0642(2) 0.46314(6) 0.01869(17) Uani d 1 . .
C C1 0.09687(10) 0.3056(2) 0.13435(8) 0.02094(19) Uani d 1 . .
H H1A 0.113771 0.356893 0.076429 0.025 Uiso calc 1 . .
H H1B 0.090831 0.494388 0.166792 0.025 Uiso calc 1 . .
C C2 0.19973(9) 0.1197(2) 0.20140(7) 0.01517(16) Uani d 1 . .
C C3 0.22194(9) 0.1134(2) 0.29940(7) 0.01622(17) Uani d 1 . .
H H3 0.172515 0.226726 0.324310 0.019 Uiso calc 1 . .
C C4 0.31746(9) -0.0613(2) 0.35991(6) 0.01466(16) Uani d 1 . .
C C5 0.39201(9) -0.2314(2) 0.32727(6) 0.01598(16) Uani d 1 . .
H H5 0.456646 -0.350058 0.370430 0.019 Uiso calc 1 . .
C C6 0.36906(9) -0.2227(2) 0.22927(6) 0.01705(17) Uani d 1 . .
H H6 0.418777 -0.336314 0.204708 0.020 Uiso calc 1 . .
C C7 0.27378(9) -0.0488(2) 0.16692(6) 0.01618(16) Uani d 1 . .
H H7 0.259027 -0.044798 0.100080 0.019 Uiso calc 1 . .
loop_
_atom_site_aniso_label
_atom_site_aniso_U_11
_atom_site_aniso_U_22
_atom_site_aniso_U_33
_atom_site_aniso_U_12
_atom_site_aniso_U_13
_atom_site_aniso_U_23
Cl1 0.01498(13) 0.02849(16) 0.02457(13) 0.00112(8) 0.00552(9) 0.00488(8)
O1 0.0335(5) 0.0352(5) 0.0159(3) 0.0034(4) 0.0094(3) 0.0072(3)
O2 0.0330(5) 0.0371(5) 0.0191(3) 0.0014(4) 0.0126(3) -0.0096(3)
N1 0.0202(4) 0.0232(4) 0.0134(3) -0.0054(3) 0.0073(3) -0.0027(3)
C1 0.0185(4) 0.0175(4) 0.0239(4) 0.0007(3) 0.0049(3) 0.0051(3)
C2 0.0154(4) 0.0140(4) 0.0156(3) -0.0013(3) 0.0055(3) 0.0010(3)
C3 0.0168(4) 0.0160(4) 0.0169(3) -0.0006(3) 0.0075(3) -0.0019(3)
C4 0.0165(4) 0.0167(4) 0.0114(3) -0.0029(3) 0.0060(3) -0.0014(2)
C5 0.0155(4) 0.0187(4) 0.0139(3) 0.0004(3) 0.0058(3) 0.0006(3)
C6 0.0174(4) 0.0208(4) 0.0143(3) 0.0013(3) 0.0075(3) -0.0001(3)
C7 0.0174(4) 0.0184(4) 0.0131(3) -0.0016(3) 0.0063(3) 0.0006(3)
loop_
_atom_type_symbol
_atom_type_description
_atom_type_scat_dispersion_real
_atom_type_scat_dispersion_imag
_atom_type_scat_source
C C 0.0020 0.0012 'International Tables Vol C Tables 4.2.6.8 and 6.1.1.4'
H H 0.0000 0.0000 'International Tables Vol C Tables 4.2.6.8 and 6.1.1.4'
Cl Cl 0.1198 0.1215 'International Tables Vol C Tables 4.2.6.8 and 6.1.1.4'
N N 0.0042 0.0024 'International Tables Vol C Tables 4.2.6.8 and 6.1.1.4'
O O 0.0077 0.0045 'International Tables Vol C Tables 4.2.6.8 and 6.1.1.4'
loop_
_geom_angle_atom_site_label_1
_geom_angle_atom_site_label_2
_geom_angle_atom_site_label_3
_geom_angle_site_symmetry_1
_geom_angle_site_symmetry_3
_geom_angle
_geom_angle_publ_flag
O2 N1 O1 . . 123.51(9) ?
O2 N1 C4 . . 118.47(9) ?
O1 N1 C4 . . 118.02(9) ?
C2 C1 Cl1 . . 110.36(7) ?
C2 C1 H1A . . 109.6 ?
Cl1 C1 H1A . . 109.6 ?
C2 C1 H1B . . 109.6 ?
Cl1 C1 H1B . . 109.6 ?
H1A C1 H1B . . 108.1 ?
C3 C2 C7 . . 119.36(9) ?
C3 C2 C1 . . 119.85(9) ?
C7 C2 C1 . . 120.79(9) ?
C4 C3 C2 . . 118.73(8) ?
C4 C3 H3 . . 120.6 ?
C2 C3 H3 . . 120.6 ?
C3 C4 C5 . . 122.95(8) ?
C3 C4 N1 . . 118.14(8) ?
C5 C4 N1 . . 118.91(8) ?
C4 C5 C6 . . 117.77(9) ?
C4 C5 H5 . . 121.1 ?
C6 C5 H5 . . 121.1 ?
C5 C6 C7 . . 120.45(9) ?
C5 C6 H6 . . 119.8 ?
C7 C6 H6 . . 119.8 ?
C6 C7 C2 . . 120.74(8) ?
C6 C7 H7 . . 119.6 ?
C2 C7 H7 . . 119.6 ?
loop_
_geom_bond_atom_site_label_1
_geom_bond_atom_site_label_2
_geom_bond_site_symmetry_2
_geom_bond_distance
_geom_bond_publ_flag
Cl1 C1 . 1.8065(12) ?
O1 N1 . 1.2261(13) ?
O2 N1 . 1.2237(12) ?
N1 C4 . 1.4668(12) ?
C1 C2 . 1.4956(14) ?
C1 H1A . 0.9900 ?
C1 H1B . 0.9900 ?
C2 C3 . 1.3915(14) ?
C2 C7 . 1.3937(14) ?
C3 C4 . 1.3848(14) ?
C3 H3 . 0.9500 ?
C4 C5 . 1.3854(13) ?
C5 C6 . 1.3900(13) ?
C5 H5 . 0.9500 ?
C6 C7 . 1.3910(14) ?
C6 H6 . 0.9500 ?
C7 H7 . 0.9500 ?
loop_
_geom_torsion_atom_site_label_1
_geom_torsion_atom_site_label_2
_geom_torsion_atom_site_label_3
_geom_torsion_atom_site_label_4
_geom_torsion_site_symmetry_1
_geom_torsion_site_symmetry_2
_geom_torsion_site_symmetry_3
_geom_torsion_site_symmetry_4
_geom_torsion
_geom_torsion_publ_flag
Cl1 C1 C2 C3 . . . . -83.36(10) ?
Cl1 C1 C2 C7 . . . . 96.46(10) ?
C7 C2 C3 C4 . . . . -0.03(14) ?
C1 C2 C3 C4 . . . . 179.78(9) ?
C2 C3 C4 C5 . . . . -0.20(14) ?
C2 C3 C4 N1 . . . . 179.57(8) ?
O2 N1 C4 C3 . . . . -8.58(13) ?
O1 N1 C4 C3 . . . . 171.32(9) ?
O2 N1 C4 C5 . . . . 171.20(10) ?
O1 N1 C4 C5 . . . . -8.90(14) ?
C3 C4 C5 C6 . . . . 0.33(14) ?
N1 C4 C5 C6 . . . . -179.44(9) ?
C4 C5 C6 C7 . . . . -0.24(15) ?
C5 C6 C7 C2 . . . . 0.02(15) ?
C3 C2 C7 C6 . . . . 0.11(14) ?
C1 C2 C7 C6 . . . . -179.70(9) ?

_cod_database_fobs_code 2022124
