#------------------------------------------------------------------------------
#$Date: 2020-04-10 08:15:02 +0300 (Fri, 10 Apr 2020) $
#$Revision: 250613 $
#$URL: file:///home/coder/svn-repositories/cod/cif/2/02/20/2022034.cif $
#------------------------------------------------------------------------------
#
# This file is available in the Crystallography Open Database (COD),
# http://www.crystallography.net/. The original data for this entry
# were provided by IUCr Journals, http://journals.iucr.org/.
#
# The file may be used within the scientific community so long as
# proper attribution is given to the journal article from which the
# data were obtained.
#
data_2022034
loop_
_publ_author_name
'Jha, Kunal Kumar'
'Gruza, Barbara'
'Kumar, Prashant'
'Chodkiewicz, Michal Leszek'
'Dominiak, Paulina Maria'
_publ_section_title
;
 TAAM: a reliable and user friendly tool for hydrogen-atom location using
 routine X-ray diffraction data
;
_journal_issue                   3
_journal_name_full
'Acta Crystallographica Section B Structural Science, Crystal Engineering and Materials'
_journal_paper_doi               10.1107/S2052520620002917
_journal_volume                  76
_journal_year                    2020
_chemical_absolute_configuration unk
_chemical_formula_moiety         'C3 H7 N O2'
_chemical_formula_sum            'C3 H7 N O2'
_chemical_formula_weight         89.09
_space_group_crystal_system      orthorhombic
_space_group_IT_number           19
_space_group_name_Hall           'P 2ac 2ab'
_space_group_name_H-M_alt        'P 21 21 21'
_symmetry_Int_Tables_number      19
_audit_creation_date             2019-09-27
_audit_creation_method
;
Olex2 1.2
(compiled 2018.05.29 svn.r3508 for OlexSys, GUI svn.r5506)
;
_cell_angle_alpha                90
_cell_angle_beta                 90
_cell_angle_gamma                90
_cell_formula_units_Z            4
_cell_length_a                   6.65580(10)
_cell_length_b                   7.89030(10)
_cell_length_c                   8.60690(10)
_cell_measurement_temperature    100
_cell_volume                     452.002(10)
_computing_molecular_graphics    'Olex2 (Dolomanov et al., 2009)'
_computing_publication_material  'Olex2 (Dolomanov et al., 2009)'
_computing_structure_refinement  'olex2.refine (Bourhis et al., 2015)'
_diffrn_ambient_temperature      100
_diffrn_measured_fraction_theta_full 0.9992
_diffrn_measured_fraction_theta_max 0.9992
_diffrn_measurement_device_type  'Oxford Diffraction Xcalibur S'
_diffrn_radiation_type           MoKa
_diffrn_radiation_wavelength     0.71073
_diffrn_reflns_av_R_equivalents  0.0000
_diffrn_reflns_av_unetI/netI     0.0158
_diffrn_reflns_limit_h_max       15
_diffrn_reflns_limit_h_min       0
_diffrn_reflns_limit_k_max       18
_diffrn_reflns_limit_k_min       0
_diffrn_reflns_limit_l_max       20
_diffrn_reflns_limit_l_min       0
_diffrn_reflns_number            3531
_diffrn_reflns_theta_full        57.3949
_diffrn_reflns_theta_max         57.39
_diffrn_reflns_theta_min         3.50
_exptl_absorpt_coefficient_mu    0.109
_exptl_crystal_density_diffrn    1.3091
_exptl_crystal_F_000             192.1231
_refine_diff_density_max         0.2760
_refine_diff_density_min         -0.1456
_refine_diff_density_rms         0.0366
_refine_ls_d_res_high            0.4218
_refine_ls_d_res_low             5.8162
_refine_ls_goodness_of_fit_ref   1.0182
_refine_ls_hydrogen_treatment    refall
_refine_ls_matrix_type           full
_refine_ls_number_constraints    0
_refine_ls_number_parameters     118
_refine_ls_number_reflns         3531
_refine_ls_number_restraints     0
_refine_ls_restrained_S_all      1.0182
_refine_ls_R_factor_all          0.0234
_refine_ls_R_factor_gt           0.0177
_refine_ls_shift/su_max          0.0008
_refine_ls_shift/su_mean         0.0001
_refine_ls_structure_factor_coef Fsqd
_refine_ls_weighting_details
'w=1/[\s^2^(Fo^2^)+(0.0229P)^2^+0.0067P] where P=(Fo^2^+2Fc^2^)/3'
_refine_ls_weighting_scheme      calc
_refine_ls_wR_factor_gt          0.0404
_refine_ls_wR_factor_ref         0.0482
_reflns_Friedel_coverage         0.0
_reflns_limit_h_max              15
_reflns_limit_h_min              0
_reflns_limit_k_max              18
_reflns_limit_k_min              0
_reflns_limit_l_max              20
_reflns_limit_l_min              0
_reflns_number_gt                3019
_reflns_number_total             3531
_reflns_threshold_expression     I>=2u(I)
_iucr_refine_instructions_details
;
TITL sarcosine
CELL 0.71073 6.6558 7.8903 8.6069 90 90 90
ZERR 4 0.0001 0.0001 0.0001 0 0 0
LATT -1
SYMM 0.5-X,-Y,0.5+Z
SYMM -X,0.5+Y,0.5-Z
SYMM 0.5+X,0.5-Y,-Z
SFAC C H N O
UNIT 12 28 4 8

ACTA 
BOND $H
WGHT 0.022938 0.006664
FVAR 1.002214
REM <olex2.extras>
REM <HklSrc "%.\\8969e5521935d67960de0f47db3b7ec8.hkl">
REM </olex2.extras>

O(1)  4     0.77988  0.18120  0.17251  11.00000  0.01725  0.01142  0.01326 =
 0.00371 -0.00342 -0.00183 
O(2)  4     0.76656 -0.09294  0.23729  11.00000  0.02503  0.00990  0.01803 =
 0.00061 -0.00876 -0.00140 
N(1)  3     1.01610 -0.06187  0.47967  11.00000  0.01302  0.00905  0.00962 =
 0.00001 -0.00101  0.00019 
C(1)  1     0.82270  0.05501  0.25760  11.00000  0.01343  0.00956  0.01007 =
 0.00089 -0.00074  0.00009 
C(2)  1     0.95493  0.09442  0.39759  11.00000  0.01522  0.00923  0.00995 =
 0.00038 -0.00115 -0.00025 
C(3)  1     1.18181 -0.03356  0.59156  11.00000  0.01918  0.01390  0.01764 =
 -0.00015 -0.00754  0.00007 
H(1a  2     0.89798 -0.10836  0.53913  11.00000  0.04100  0.01894  0.03568 =
 -0.00063 -0.01266  0.00567 
H(1b  2     1.06097 -0.15202  0.40314  11.00000  0.02499  0.03172  0.01971 =
 0.00782 -0.00965 -0.00111 
H(2a  2     0.87090  0.17163  0.48012  11.00000  0.04029  0.03038  0.03354 =
 -0.00546 -0.00163  0.01427 
H(2b  2     1.08880  0.16295  0.36099  11.00000  0.03490  0.02168  0.03089 =
 0.01057 -0.00260 -0.01118 
H(3a  2     1.31601  0.00345  0.52869  11.00000  0.02897  0.04582  0.05389 =
 -0.00290 -0.01027 -0.00774 
H(3b  2     1.14046  0.06444  0.67205  11.00000  0.05315  0.03871  0.03650 =
 -0.01435 -0.01790  0.00619 
H(3c  2     1.20945 -0.14964  0.65239  11.00000  0.04499  0.02386  0.04216 =
 0.00215 -0.02308 -0.00169 
HKLF 4

END
Q1 1 0.775 -0.020833 0.240741 11 0.05 0.28
Q2 1 0.825 0.145833 0.148148 11 0.05 0.23
Q3 1 0.85 0.0625 0.314815 11 0.05 0.17
Q4 1 0.975 0.041667 0.388889 11 0.05 0.17
Q5 1 0.95 -0.208333 0.388889 11 0.05 0.15
Q6 1 0.775 0.145833 0.574074 11 0.05 0.13
Q7 1 0.9 -0.1875 0.240741 11 0.05 0.13
Q8 1 1.225 -0.020833 0.648148 11 0.05 0.13
Q9 1 0.6 0.1875 0.166667 11 0.05 0.13
Q10 1 0.9 -0.0625 0.111111 11 0.05 0.12
Q11 1 0.8 0 0.518519 11 0.05 0.12
Q12 1 0.975 -0.083333 0.5 11 0.05 0.12
Q13 1 1.15 -0.166667 0.777778 11 0.05 0.12
Q14 1 1.2 -0.166667 0.555556 11 0.05 0.11
Q15 1 0.775 -0.145833 0.481481 11 0.05 0.11
Q16 1 1.025 -0.125 0.722222 11 0.05 0.11
Q17 1 1.1 0.1875 0.462963 11 0.05 0.11
Q18 1 0.8 -0.104167 0.592593 11 0.05 0.11
Q19 1 1.1 -0.229167 0.37037 11 0.05 0.1
Q20 1 0.75 0.291667 0.240741 11 0.05 0.1

  REM The information below was added by Olex2.
  REM
  REM R1 = 0.0177 for 3019 Fo > 4sig(Fo) and 0.0234 for all 3531 data
  REM 118 parameters refined using 0 restraints
  REM Highest difference peak 0.2760, deepest hole -0.1456
  REM Mean Shift 0.0001, Max Shift 0.0008.

  REM +++ Tabular Listing of Refinement Information +++
  REM R1_all = 0.0234
  REM R1_gt = 0.0177
  REM wR_ref = 0.0482
  REM GOOF = 1.0182
  REM Shift_max = 0.0008
  REM Shift_mean = 0.0001
  REM Reflections_all = 3531
  REM Reflections_gt = 3019
  REM Parameters = 118
  REM Hole = -0.1456
  REM Peak = 0.2760
  REM Flack = n/a

  
;
_cod_data_source_file            76_TAAM_ANIS_max.cif
_cod_data_source_block           76_TAAM_ANIS_max
_cod_original_sg_symbol_Hall     ' P 2ac 2ab'
_cod_database_code               2022034
_olex2_refinement_description
;
;
_iucr_refine_fcf_details
;
data_sarcosine
_computing_structure_refinement   'olex2.refine (Bourhis et al., 2015)'
_shelx_refln_list_code            4
loop_
  _space_group_symop_id
  _space_group_symop_operation_xyz
  1  x,y,z
  2  x+1/2,-y+1/2,-z
  3  -x,y+1/2,-z+1/2
  4  -x+1/2,-y,z+1/2

_space_group_crystal_system       orthorhombic
_space_group_IT_number            19
_space_group_name_H-M_alt         'P 21 21 21'
_space_group_name_Hall            ' P 2ac 2ab'
_symmetry_space_group_name_H-M    'P 21 21 21'
_symmetry_space_group_name_Hall   ' P 2ac 2ab'
_symmetry_Int_Tables_number       19
_cell_length_a                    6.65580(10)
_cell_length_b                    7.89030(10)
_cell_length_c                    8.60690(10)
_cell_angle_alpha                 90
_cell_angle_beta                  90
_cell_angle_gamma                 90
_cell_volume                      452.002(10)
loop_
  _refln_index_h
  _refln_index_k
  _refln_index_l
  _refln_F_squared_calc
  _refln_F_squared_meas
  _refln_F_squared_sigma
  _refln_F_squared_weight
  _refln_observed_status
0 0 2 438.373 459.573 3.345 0.024 o
0 0 4 287.585 280.795 2.977 0.054 o
0 0 6 100.642 103.929 0.936 0.412 o
0 0 8 130.362 130.392 1.264 0.253 o
0 0 10 0.604 0.319 0.219 56.008 o
0 0 12 145.049 144.768 1.125 0.217 o
0 0 14 103.470 104.995 1.085 0.382 o
0 0 16 3.469 3.485 0.528 9.367 o
0 0 18 0.906 0.707 0.757 4.986 o
0 0 20 0.060 -0.030 0.209 65.581 o
0 1 1 221.354 250.550 1.643 0.089 o
0 1 2 117.669 122.109 1.304 0.289 o
0 1 3 77.246 78.174 0.986 0.620 o
0 1 4 223.526 221.498 0.936 0.101 o
0 1 5 133.599 135.758 0.667 0.266 o
0 1 6 0.003 0.030 0.020 6044.970 o
0 1 7 50.258 50.795 0.488 1.508 o
0 1 8 20.751 20.549 0.448 5.117 o
0 1 9 94.022 95.039 0.667 0.501 o
0 1 10 72.793 72.031 0.508 0.822 o
0 1 11 27.844 27.637 0.339 4.088 o
0 1 12 27.025 27.199 0.378 4.065 o
0 1 13 0.822 0.707 0.269 37.072 o
0 1 14 2.072 1.872 0.269 32.875 o
0 1 15 0.154 0.020 0.020 2546.640 o
0 1 16 1.472 1.304 0.388 17.887 o
0 1 17 0.070 0.119 0.149 126.041 o
0 1 18 0.826 0.747 0.498 11.380 o
0 1 19 0.464 0.329 0.488 11.975 o
0 1 20 1.108 0.866 0.657 6.568 o
0 2 0 2381.090 2240.280 19.971 0.001 o
0 2 1 348.284 361.358 2.310 0.039 o
0 2 2 100.500 101.500 1.215 0.385 o
0 2 3 564.087 577.819 3.624 0.015 o
0 2 4 352.954 356.968 2.569 0.038 o
0 2 5 376.047 373.793 2.310 0.035 o
0 2 6 367.555 379.856 2.160 0.036 o
0 2 7 2.381 2.310 0.209 46.267 o
0 2 8 163.028 164.471 1.055 0.177 o
0 2 9 81.752 83.311 0.528 0.657 o
0 2 10 2.452 2.141 0.189 53.090 o
0 2 11 6.725 6.332 0.239 23.277 o
0 2 12 11.146 10.792 0.289 13.061 o
0 2 13 16.934 16.805 0.348 7.509 o
0 2 14 5.981 5.605 0.339 16.804 o
0 2 15 13.246 13.480 0.448 7.532 o
0 2 16 1.849 1.633 0.368 19.333 o
0 2 17 12.482 12.345 0.478 7.346 o
0 2 18 8.379 8.771 0.677 5.215 o
0 2 19 1.114 1.294 0.558 9.031 o
0 2 20 1.258 1.135 1.006 2.828 o
0 3 1 80.303 82.375 1.274 0.514 o
0 3 2 16.233 17.542 0.508 5.600 o
0 3 3 807.536 823.699 3.843 0.008 o
0 3 4 470.133 478.629 3.196 0.022 o
0 3 5 4.160 3.933 0.169 44.621 o
0 3 6 68.008 65.878 0.697 0.870 o
0 3 7 77.173 77.297 0.707 0.695 o
0 3 8 101.349 99.111 0.896 0.424 o
0 3 9 22.271 21.933 0.289 5.894 o
0 3 10 0.001 0.010 0.020 6808.570 o
0 3 11 10.267 9.797 0.269 14.913 o
0 3 12 0.236 0.159 0.139 138.319 o
0 3 13 3.770 3.604 0.279 26.287 o
0 3 14 5.113 5.008 0.309 20.218 o
0 3 15 21.422 21.236 0.538 4.296 o
0 3 16 4.818 5.167 0.368 15.902 o
0 3 17 23.354 24.491 0.607 3.503 o
0 3 18 10.605 10.922 0.587 6.050 o
0 3 19 0.283 0.259 0.378 19.892 o
0 3 20 0.187 0.169 0.269 39.251 o
0 4 0 380.135 385.691 3.933 0.030 o
0 4 1 169.879 175.413 0.876 0.166 o
0 4 2 124.819 124.488 0.667 0.305 o
0 4 3 119.395 119.441 0.647 0.331 o
0 4 4 4.375 3.753 0.189 39.679 o
0 4 5 20.553 20.320 0.329 6.203 o
0 4 6 6.524 5.466 0.259 22.505 o
0 4 7 425.978 425.773 1.971 0.028 o
0 4 8 17.482 16.766 0.329 7.604 o
0 4 9 34.840 35.602 0.348 2.875 o
0 4 10 0.603 0.368 0.139 125.042 o
0 4 11 1.786 1.643 0.219 47.171 o
0 4 12 0.064 0.119 0.209 65.158 o
0 4 13 3.022 2.509 0.279 28.562 o
0 4 14 3.924 3.594 0.309 22.477 o
0 4 15 5.528 5.466 0.329 17.960 o
0 4 16 0.317 0.339 0.368 20.915 o
0 4 17 2.888 2.638 0.428 13.995 o
0 4 18 2.340 2.330 0.587 7.935 o
0 4 19 16.814 19.026 0.787 3.213 o
0 5 1 115.948 113.149 0.727 0.349 o
0 5 2 366.650 374.122 1.842 0.037 o
0 5 3 341.529 350.248 1.364 0.043 o
0 5 4 5.853 5.695 0.209 28.824 o
0 5 5 7.716 8.492 0.269 18.156 o
0 5 6 21.379 21.176 0.398 5.346 o
0 5 7 4.981 5.416 0.229 28.723 o
0 5 8 1.514 1.663 0.159 77.788 o
0 5 9 9.918 9.797 0.229 17.008 o
0 5 10 26.193 25.885 0.339 4.461 o
0 5 11 13.049 12.734 0.309 10.696 o
0 5 12 79.816 79.866 0.607 0.678 o
0 5 13 4.071 3.604 0.279 25.783 o
0 5 14 6.218 6.133 0.329 17.032 o
0 5 15 3.567 2.967 0.339 20.172 o
0 5 16 1.625 1.493 0.348 21.642 o
0 5 17 18.969 19.852 0.667 3.753 o
0 5 18 0.858 0.498 0.518 10.557 o
0 5 19 0.101 0.070 1.065 2.540 o
0 6 0 201.503 198.550 1.513 0.116 o
0 6 1 230.937 227.004 1.125 0.094 o
0 6 2 6.131 5.794 0.239 24.809 o
0 6 3 80.347 76.123 0.627 0.687 o
0 6 4 211.437 214.310 1.045 0.110 o
0 6 5 14.632 14.058 0.339 8.999 o
0 6 6 160.799 161.474 0.687 0.190 o
0 6 7 50.570 49.411 0.348 1.620 o
0 6 8 160.006 158.677 0.657 0.194 o
0 6 9 4.392 4.062 0.209 35.222 o
0 6 10 0.389 0.129 0.050 634.870 o
0 6 11 64.500 64.922 0.528 0.992 o
0 6 12 0.007 0.020 0.080 449.193 o
0 6 13 5.804 5.625 0.329 17.633 o
0 6 14 6.329 5.934 0.348 15.768 o
0 6 15 11.617 11.300 0.408 9.214 o
0 6 16 0.182 0.129 0.119 187.519 o
0 6 17 0.047 0.000 0.050 1072.480 o
0 6 18 2.532 2.170 0.438 13.668 o
0 6 19 1.499 1.205 0.757 4.948 o
0 7 1 243.826 242.963 1.364 0.083 o
0 7 2 13.545 13.341 0.398 8.386 o
0 7 3 77.312 78.980 0.816 0.659 o
0 7 4 35.260 33.352 0.398 2.828 o
0 7 5 3.284 3.186 0.179 48.605 o
0 7 6 0.057 0.129 0.090 336.362 o
0 7 7 3.102 2.887 0.169 53.741 o
0 7 8 2.951 2.618 0.199 45.918 o
0 7 9 4.461 4.331 0.229 31.305 o
0 7 10 18.655 18.568 0.339 6.847 o
0 7 11 44.202 44.493 0.488 1.842 o
0 7 12 16.256 15.521 0.368 7.645 o
0 7 13 0.081 0.050 0.040 1402.350 o
0 7 14 13.095 13.411 0.408 8.330 o
0 7 15 27.900 29.927 0.558 3.098 o
0 7 16 0.950 0.697 0.368 20.333 o
0 7 17 0.079 0.000 0.020 3858.440 o
0 7 18 0.193 0.100 0.249 45.752 o
0 8 0 327.299 337.484 1.862 0.046 o
0 8 1 106.699 109.435 0.667 0.398 o
0 8 2 7.935 8.114 0.229 20.701 o
0 8 3 72.552 71.961 0.468 0.835 o
0 8 4 52.087 53.194 0.418 1.462 o
0 8 5 44.878 45.897 0.428 1.848 o
0 8 6 21.358 21.505 0.279 6.250 o
0 8 7 7.674 6.860 0.229 22.087 o
0 8 8 7.363 7.059 0.249 20.888 o
0 8 9 11.918 11.629 0.289 12.239 o
0 8 10 3.860 3.554 0.269 27.540 o
0 8 11 39.686 39.067 0.518 2.135 o
0 8 12 24.591 24.352 0.508 3.912 o
0 8 13 3.375 2.738 0.329 21.480 o
0 8 14 18.136 18.299 0.488 5.408 o
0 8 15 0.022 0.030 0.149 128.389 o
0 8 16 0.235 0.110 0.110 216.884 o
0 8 17 1.730 1.434 0.428 14.750 o
0 8 18 1.000 0.637 0.986 2.950 o
0 9 1 10.153 9.727 0.209 17.679 o
0 9 2 24.590 24.471 0.319 4.954 o
0 9 3 0.872 0.906 0.179 75.088 o
0 9 4 1.487 1.344 0.179 67.399 o
0 9 5 88.415 87.781 0.567 0.576 o
0 9 6 51.068 52.129 0.438 1.498 o
0 9 7 34.823 34.875 0.398 2.802 o
0 9 8 1.871 1.533 0.219 47.037 o
0 9 9 54.148 54.210 0.498 1.340 o
0 9 10 65.699 67.760 0.627 0.914 o
0 9 11 0.260 0.209 0.199 69.845 o
0 9 12 3.247 3.345 0.299 24.711 o
0 9 13 2.137 1.722 0.348 21.078 o
0 9 14 5.199 5.326 0.378 14.983 o
0 9 15 4.255 4.221 0.468 11.236 o
0 9 16 2.987 2.499 0.418 14.578 o
0 9 17 0.313 0.219 1.354 1.572 o
0 10 0 2.673 2.051 0.249 35.357 o
0 10 1 4.260 3.813 0.189 40.020 o
0 10 2 25.040 24.452 0.309 4.926 o
0 10 3 6.309 6.173 0.229 25.122 o
0 10 4 23.369 23.068 0.358 5.075 o
0 10 5 42.071 42.273 0.438 2.050 o
0 10 6 3.969 3.783 0.229 33.345 o
0 10 7 4.948 4.440 0.239 28.571 o
0 10 8 3.624 3.305 0.259 29.747 o
0 10 9 2.870 2.360 0.299 25.977 o
0 10 10 5.005 4.570 0.319 19.714 o
0 10 11 9.099 9.149 0.388 11.301 o
0 10 12 0.436 0.219 0.209 62.424 o
0 10 13 0.004 0.030 0.050 1126.420 o
0 10 14 1.594 1.553 0.408 16.162 o
0 10 15 7.670 8.423 0.647 5.716 o
0 10 16 0.034 -0.010 0.070 575.953 o
0 10 17 3.149 2.738 0.787 4.483 o
0 11 1 7.260 7.009 0.249 21.075 o
0 11 2 0.491 0.319 0.139 128.690 o
0 11 3 13.359 13.032 0.299 10.688 o
0 11 4 66.985 67.371 0.558 0.922 o
0 11 5 11.065 10.464 0.319 12.222 o
0 11 6 50.124 50.307 0.498 1.512 o
0 11 7 16.153 15.840 0.348 7.927 o
0 11 8 24.352 23.924 0.408 4.533 o
0 11 9 0.128 0.090 0.110 225.926 o
0 11 10 1.686 1.553 0.348 21.561 o
0 11 11 0.002 0.129 0.189 79.944 o
0 11 12 8.905 9.249 0.448 9.500 o
0 11 13 0.332 0.090 0.299 31.726 o
0 11 14 6.257 6.631 0.587 7.052 o
0 11 15 0.142 0.189 0.309 29.946 o
0 11 16 2.252 2.220 0.667 6.236 o
0 12 0 8.379 8.114 0.388 11.910 o
0 12 1 0.065 0.339 0.090 317.523 o
0 12 2 5.572 5.177 0.259 24.272 o
0 12 3 106.570 107.344 0.757 0.396 o
0 12 4 0.463 0.339 0.199 67.785 o
0 12 5 20.745 20.201 0.408 5.482 o
0 12 6 1.185 1.035 0.269 35.830 o
0 12 7 37.729 38.529 0.548 2.197 o
0 12 8 0.523 0.398 0.388 18.718 o
0 12 9 11.184 11.708 0.428 8.825 o
0 12 10 0.159 0.149 0.169 97.131 o
0 12 11 23.835 25.099 0.607 3.434 o
0 12 12 0.077 0.080 0.189 79.446 o
0 12 13 14.540 15.422 0.637 4.648 o
0 12 14 0.883 0.548 0.607 7.706 o
0 12 15 3.340 3.116 0.538 9.116 o
0 13 1 14.808 14.565 0.378 8.116 o
0 13 2 17.588 17.423 0.408 6.479 o
0 13 3 17.233 17.393 0.428 6.330 o
0 13 4 0.387 0.080 0.030 1018.390 o
0 13 5 0.152 0.060 0.030 1688.890 o
0 13 6 0.081 0.040 0.060 718.070 o
0 13 7 0.039 0.070 0.119 197.501 o
0 13 8 0.029 0.030 0.100 285.370 o
0 13 9 26.495 27.926 0.577 3.219 o
0 13 10 2.420 2.200 0.438 13.707 o
0 13 11 0.043 0.189 0.199 71.640 o
0 13 12 7.640 7.666 0.597 6.576 o
0 13 13 1.471 0.986 0.478 12.119 o
0 13 14 0.969 0.946 0.747 5.110 o
0 14 0 22.117 21.754 0.587 3.865 o
0 14 1 18.765 18.886 0.468 5.439 o
0 14 2 9.027 8.701 0.418 10.445 o
0 14 3 83.945 86.895 0.806 0.576 o
0 14 4 18.708 19.026 0.468 5.436 o
0 14 5 11.754 11.629 0.388 9.583 o
0 14 6 3.051 2.987 0.348 19.697 o
0 14 7 6.964 6.919 0.358 14.409 o
0 14 8 3.336 3.256 0.378 16.873 o
0 14 9 3.811 3.913 0.438 12.803 o
0 14 10 0.446 0.199 0.139 131.584 o
0 14 11 22.349 23.446 0.657 3.375 o
0 14 12 5.569 5.924 0.627 6.434 o
0 14 13 0.127 0.060 0.279 36.783 o
0 15 1 11.181 10.961 0.428 8.952 o
0 15 2 1.310 1.025 0.368 19.951 o
0 15 3 3.346 3.136 0.368 17.677 o
0 15 4 0.000 0.080 0.189 80.208 o
0 15 5 1.998 2.011 0.348 21.073 o
0 15 6 9.959 10.195 0.478 8.282 o
0 15 7 0.631 0.219 0.139 126.264 o
0 15 8 1.554 1.145 0.448 13.656 o
0 15 9 0.166 0.279 0.498 11.575 o
0 15 10 4.357 4.291 0.488 10.422 o
0 15 11 3.501 3.355 0.498 10.410 o
0 15 12 0.746 0.717 0.796 4.510 o
0 16 0 0.092 0.110 1.583 1.151 o
0 16 1 8.320 8.821 0.528 7.735 o
0 16 2 1.159 1.025 0.428 15.073 o
0 16 3 1.098 1.035 0.428 15.097 o
0 16 4 10.318 11.121 0.488 7.849 o
0 16 5 0.115 0.329 0.388 18.973 o
0 16 6 35.288 38.778 0.697 2.020 o
0 16 7 0.495 0.478 0.418 16.183 o
0 16 8 1.246 1.105 0.538 9.686 o
0 16 9 0.607 0.408 0.448 14.106 o
0 16 10 1.597 1.314 0.667 6.323 o
0 17 1 2.596 2.409 0.488 11.169 o
0 17 2 0.680 0.488 0.478 12.396 o
0 17 3 0.730 0.339 0.229 50.942 o
0 17 4 2.181 1.892 0.408 15.779 o
0 17 5 1.306 0.986 0.388 18.083 o
0 17 6 7.474 7.666 0.747 4.523 o
0 17 7 0.119 0.070 0.368 21.149 o
0 17 8 0.450 0.219 0.757 5.016 o
0 18 0 0.411 -0.030 0.080 351.301 o
0 18 1 2.631 2.101 0.548 9.032 o
0 18 2 0.223 0.110 0.249 45.636 o
0 18 3 14.705 15.541 0.548 5.570 o
0 18 4 5.546 5.575 0.468 10.596 o
0 18 5 0.322 0.299 0.717 5.590 o
1 0 1 804.799 865.743 5.914 0.007 o
1 0 2 6.157 6.780 0.339 16.176 o
1 0 3 81.017 80.941 1.155 0.542 o
1 0 4 857.768 861.054 3.694 0.007 o
1 0 5 89.460 90.738 0.558 0.559 o
1 0 6 85.894 88.199 0.607 0.589 o
1 0 7 0.014 0.020 0.010 13969.100 o
1 0 8 79.771 78.522 0.707 0.664 o
1 0 9 43.673 44.682 0.408 1.950 o
1 0 10 2.779 2.748 0.199 46.424 o
1 0 11 24.982 24.920 0.368 4.579 o
1 0 12 1.537 1.702 0.219 48.137 o
1 0 13 57.228 57.744 0.548 1.194 o
1 0 14 0.000 0.129 0.189 79.959 o
1 0 15 0.766 0.398 0.179 78.769 o
1 0 16 3.909 3.733 0.368 17.052 o
1 0 17 0.328 0.348 0.289 33.675 o
1 0 18 4.606 4.181 0.597 7.264 o
1 0 19 0.960 0.836 0.528 10.121 o
1 0 20 1.070 1.025 0.806 4.384 o
1 1 0 1003.700 1084.690 6.531 0.005 o
1 1 1 2155.870 2230.520 52.438 0.001 o
1 1 2 2310.970 2340.400 20.081 0.001 o
1 1 3 142.787 140.169 1.035 0.229 o
1 1 4 674.076 673.565 2.369 0.012 o
1 1 5 173.333 172.386 0.597 0.167 o
1 1 6 61.971 62.593 0.368 1.116 o
1 1 7 124.982 128.859 0.567 0.302 o
1 1 8 104.157 105.343 0.597 0.424 o
1 1 9 63.141 61.955 0.348 1.105 o
1 1 10 75.899 75.276 0.348 0.792 o
1 1 11 16.203 15.890 0.209 10.038 o
1 1 12 15.368 15.133 0.229 10.400 o
1 1 13 12.845 13.062 0.249 12.231 o
1 1 14 17.584 17.323 0.289 7.989 o
1 1 15 18.392 18.717 0.329 7.013 o
1 1 16 11.380 11.200 0.319 11.804 o
1 1 17 2.350 2.170 0.279 30.129 o
1 1 18 1.863 1.742 0.408 15.979 o
1 1 19 1.477 1.294 0.428 14.886 o
1 1 20 0.352 0.309 0.418 16.281 o
1 2 0 16.824 16.268 0.468 6.066 o
1 2 1 33.853 32.775 0.418 2.919 o
1 2 2 924.361 944.404 2.887 0.006 o
1 2 3 88.192 88.986 0.508 0.581 o
1 2 4 242.685 248.339 0.757 0.086 o
1 2 5 106.202 107.135 0.498 0.416 o
1 2 6 51.440 50.347 0.358 1.566 o
1 2 7 75.993 75.485 0.458 0.771 o
1 2 8 2.430 2.071 0.169 61.563 o
1 2 9 158.185 159.672 0.478 0.198 o
1 2 10 27.962 28.514 0.239 4.360 o
1 2 11 29.998 30.116 0.269 3.860 o
1 2 12 6.897 6.521 0.189 27.461 o
1 2 13 19.808 19.563 0.269 7.061 o
1 2 14 16.433 16.497 0.319 8.157 o
1 2 15 5.371 5.137 0.259 24.649 o
1 2 16 4.088 4.032 0.269 26.685 o
1 2 17 2.180 2.081 0.299 27.227 o
1 2 18 3.103 2.977 0.358 18.755 o
1 2 19 1.597 1.464 0.508 10.706 o
1 2 20 4.804 5.177 0.538 8.619 o
1 3 0 1026.370 1054.000 3.893 0.005 o
1 3 1 313.814 324.761 1.623 0.050 o
1 3 2 143.318 148.163 0.597 0.233 o
1 3 3 57.095 57.933 0.339 1.294 o
1 3 4 69.847 75.933 0.428 0.853 o
1 3 5 32.826 32.386 0.279 3.364 o
1 3 6 111.523 111.068 0.498 0.384 o
1 3 7 2.144 2.210 0.189 54.745 o
1 3 8 176.130 180.072 0.687 0.158 o
1 3 9 5.346 4.799 0.149 40.772 o
1 3 10 17.425 17.124 0.199 9.214 o
1 3 11 2.068 2.051 0.149 75.348 o
1 3 12 15.958 15.860 0.239 9.723 o
1 3 13 0.935 0.707 0.189 68.848 o
1 3 14 3.654 3.405 0.199 41.115 o
1 3 15 1.920 1.902 0.259 35.309 o
1 3 16 25.032 25.895 0.408 4.288 o
1 3 17 0.352 0.239 0.070 411.791 o
1 3 18 6.944 7.248 0.428 11.252 o
1 3 19 1.426 1.344 0.428 14.897 o
1 3 20 2.447 2.419 0.528 9.685 o
1 4 0 118.046 116.812 0.727 0.336 o
1 4 1 340.570 351.512 1.683 0.043 o
1 4 2 291.147 295.182 1.016 0.060 o
1 4 3 393.726 402.396 1.991 0.032 o
1 4 4 86.237 85.162 0.398 0.625 o
1 4 5 33.247 33.810 0.299 3.204 o
1 4 6 128.365 127.485 0.627 0.292 o
1 4 7 48.249 47.549 0.428 1.681 o
1 4 8 13.147 13.092 0.199 13.241 o
1 4 9 9.960 9.339 0.159 20.542 o
1 4 10 1.098 0.916 0.139 107.194 o
1 4 11 9.200 9.189 0.179 20.916 o
1 4 12 4.046 3.913 0.179 42.918 o
1 4 13 18.144 17.811 0.279 7.817 o
1 4 14 11.162 11.300 0.259 13.881 o
1 4 15 36.432 37.404 0.418 2.551 o
1 4 16 3.195 3.076 0.269 29.275 o
1 4 17 11.866 12.345 0.438 8.285 o
1 4 18 2.125 1.912 0.358 19.980 o
1 4 19 3.396 3.246 0.388 16.118 o
1 5 0 104.902 103.123 0.667 0.420 o
1 5 1 131.922 134.703 0.558 0.275 o
1 5 2 27.970 27.717 0.259 4.357 o
1 5 3 76.342 75.326 0.428 0.773 o
1 5 4 110.225 108.390 0.498 0.395 o
1 5 5 33.145 31.829 0.269 3.381 o
1 5 6 310.309 309.568 0.946 0.054 o
1 5 7 16.234 16.059 0.209 9.975 o
1 5 8 127.300 126.639 0.418 0.303 o
1 5 9 49.939 49.501 0.299 1.672 o
1 5 10 15.967 15.631 0.209 10.242 o
1 5 11 8.547 8.224 0.189 22.274 o
1 5 12 9.881 9.637 0.219 17.608 o
1 5 13 3.721 3.385 0.209 38.657 o
1 5 14 1.100 0.747 0.189 67.333 o
1 5 15 9.396 9.558 0.269 15.829 o
1 5 16 10.585 10.334 0.309 12.919 o
1 5 17 4.003 4.261 0.378 16.098 o
1 5 18 2.672 2.459 0.388 16.803 o
1 5 19 1.307 1.085 0.408 16.422 o
1 6 0 47.444 46.862 0.508 1.651 o
1 6 1 33.529 33.571 0.299 3.188 o
1 6 2 156.659 156.178 0.627 0.201 o
1 6 3 56.665 54.807 0.368 1.334 o
1 6 4 33.736 35.523 0.339 2.994 o
1 6 5 57.000 55.315 0.398 1.305 o
1 6 6 9.766 9.448 0.159 20.774 o
1 6 7 24.128 23.824 0.199 5.729 o
1 6 8 25.497 24.671 0.219 5.237 o
1 6 9 16.062 16.019 0.199 10.225 o
1 6 10 47.963 48.117 0.329 1.758 o
1 6 11 22.589 22.510 0.269 5.881 o
1 6 12 5.911 5.655 0.209 28.732 o
1 6 13 24.302 24.282 0.339 4.913 o
1 6 14 0.311 0.169 0.139 135.909 o
1 6 15 1.492 1.165 0.249 39.966 o
1 6 16 8.280 8.472 0.299 15.896 o
1 6 17 1.481 1.294 0.339 23.057 o
1 6 18 0.188 0.189 0.478 12.560 o
1 6 19 0.173 0.229 1.254 1.831 o
1 7 0 135.233 132.861 0.936 0.256 o
1 7 1 277.221 277.639 0.896 0.067 o
1 7 2 112.362 111.187 0.627 0.373 o
1 7 3 286.924 287.327 0.966 0.062 o
1 7 4 32.968 33.442 0.269 3.314 o
1 7 5 8.290 8.701 0.149 24.902 o
1 7 6 42.382 42.283 0.239 2.248 o
1 7 7 14.409 14.456 0.169 12.313 o
1 7 8 14.732 14.326 0.189 11.765 o
1 7 9 57.765 57.236 0.339 1.286 o
1 7 10 8.255 7.815 0.189 23.184 o
1 7 11 35.242 35.184 0.319 2.916 o
1 7 12 21.100 20.738 0.279 6.423 o
1 7 13 9.572 9.428 0.259 16.186 o
1 7 14 8.474 8.034 0.269 17.562 o
1 7 15 14.729 15.073 0.329 8.936 o
1 7 16 2.358 2.091 0.319 24.172 o
1 7 17 1.275 0.866 0.408 16.492 o
1 7 18 0.421 0.199 0.209 62.585 o
1 8 0 26.758 26.254 0.368 4.211 o
1 8 1 14.472 14.386 0.189 11.929 o
1 8 2 35.253 34.009 0.249 3.092 o
1 8 3 12.410 12.873 0.179 14.501 o
1 8 4 62.062 61.487 0.299 1.147 o
1 8 5 35.944 36.409 0.239 2.933 o
1 8 6 16.405 16.158 0.179 10.262 o
1 8 7 10.306 10.294 0.169 18.834 o
1 8 8 22.069 22.361 0.229 6.289 o
1 8 9 26.627 26.363 0.259 4.694 o
1 8 10 43.133 44.114 0.348 2.053 o
1 8 11 11.004 10.792 0.239 14.957 o
1 8 12 7.997 7.945 0.249 19.406 o
1 8 13 16.787 16.935 0.309 8.089 o
1 8 14 3.565 3.365 0.259 29.810 o
1 8 15 4.608 4.440 0.309 21.132 o
1 8 16 2.728 2.459 0.309 24.759 o
1 8 17 6.044 5.864 0.329 17.307 o
1 8 18 0.337 0.129 0.239 48.958 o
1 9 0 3.906 4.042 0.179 43.269 o
1 9 1 11.794 11.808 0.159 16.273 o
1 9 2 17.009 17.253 0.179 9.625 o
1 9 3 105.564 106.339 0.388 0.427 o
1 9 4 0.416 0.299 0.090 271.753 o
1 9 5 68.712 68.865 0.348 0.940 o
1 9 6 15.318 15.312 0.199 10.879 o
1 9 7 15.817 15.362 0.209 10.405 o
1 9 8 11.296 11.121 0.209 15.587 o
1 9 9 34.755 34.378 0.339 2.954 o
1 9 10 11.869 11.429 0.249 13.582 o
1 9 11 3.359 2.808 0.229 36.559 o
1 9 12 6.950 6.660 0.249 21.797 o
1 9 13 7.138 7.318 0.269 19.558 o
1 9 14 3.152 2.887 0.269 29.549 o
1 9 15 0.057 0.080 0.070 545.454 o
1 9 16 3.614 3.405 0.358 18.176 o
1 9 17 1.081 0.906 0.378 19.166 o
1 10 0 0.935 0.727 0.179 75.349 o
1 10 1 15.992 15.481 0.189 10.568 o
1 10 2 18.842 18.787 0.219 8.016 o
1 10 3 35.417 34.935 0.269 3.001 o
1 10 4 33.699 33.402 0.279 3.221 o
1 10 5 12.538 12.216 0.209 13.877 o
1 10 6 25.360 25.378 0.259 5.020 o
1 10 7 20.428 19.952 0.249 6.981 o
1 10 8 9.296 9.239 0.209 19.125 o
1 10 9 41.871 41.934 0.388 2.131 o
1 10 10 0.818 0.607 0.169 85.030 o
1 10 11 17.920 17.990 0.329 7.267 o
1 10 12 5.363 5.267 0.289 21.551 o
1 10 13 0.233 0.030 0.020 1908.310 o
1 10 14 5.786 6.392 0.358 15.406 o
1 10 15 2.011 1.991 0.378 18.186 o
1 10 16 4.351 4.858 0.398 14.460 o
1 10 17 6.901 7.357 0.587 6.897 o
1 11 0 91.740 92.600 0.567 0.535 o
1 11 1 15.868 15.571 0.219 10.160 o
1 11 2 15.261 14.993 0.229 10.502 o
1 11 3 2.779 2.409 0.169 57.627 o
1 11 4 13.713 13.689 0.229 11.890 o
1 11 5 30.966 30.594 0.309 3.600 o
1 11 6 1.817 1.513 0.169 69.293 o
1 11 7 8.481 8.243 0.219 20.441 o
1 11 8 5.177 5.028 0.219 30.053 o
1 11 9 3.677 3.335 0.229 34.810 o
1 11 10 5.424 5.247 0.269 23.421 o
1 11 11 3.979 3.982 0.269 26.927 o
1 11 12 16.860 17.174 0.358 7.341 o
1 11 13 5.099 5.187 0.319 19.292 o
1 11 14 7.512 8.024 0.408 11.590 o
1 11 15 0.221 0.090 0.100 259.676 o
1 11 16 2.819 2.837 0.438 13.420 o
1 12 0 22.117 21.953 0.358 5.426 o
1 12 1 2.841 2.499 0.169 56.856 o
1 12 2 39.852 40.371 0.339 2.356 o
1 12 3 16.556 16.208 0.249 9.194 o
1 12 4 1.675 1.473 0.189 60.270 o
1 12 5 16.349 16.119 0.269 9.013 o
1 12 6 10.408 10.314 0.239 15.771 o
1 12 7 6.569 6.352 0.229 24.458 o
1 12 8 2.759 2.698 0.249 34.278 o
1 12 9 12.623 12.803 0.319 10.657 o
1 12 10 8.132 8.194 0.299 16.159 o
1 12 11 2.277 2.111 0.289 28.626 o
1 12 12 2.092 2.131 0.358 19.918 o
1 12 13 1.050 1.135 0.299 29.734 o
1 12 14 7.607 7.945 0.428 10.841 o
1 12 15 0.324 0.060 0.100 250.542 o
1 13 0 0.060 0.119 0.159 111.327 o
1 13 1 16.175 16.139 0.259 9.240 o
1 13 2 15.491 15.352 0.269 9.592 o
1 13 3 31.268 31.122 0.348 3.424 o
1 13 4 14.519 14.366 0.299 9.752 o
1 13 5 57.601 58.481 0.448 1.227 o
1 13 6 11.967 11.768 0.269 12.758 o
1 13 7 33.765 34.786 0.368 2.958 o
1 13 8 1.894 1.712 0.259 35.614 o
1 13 9 13.005 13.291 0.319 10.335 o
1 13 10 6.700 6.611 0.319 17.031 o
1 13 11 1.934 2.031 0.329 23.435 o
1 13 12 14.446 15.023 0.478 6.575 o
1 13 13 0.425 0.050 0.050 637.560 o
1 13 14 4.011 4.162 0.458 11.750 o
1 14 0 8.804 8.403 0.358 12.775 o
1 14 1 1.143 0.976 0.209 55.923 o
1 14 2 18.400 18.408 0.319 7.169 o
1 14 3 2.328 2.061 0.239 38.637 o
1 14 4 20.312 20.579 0.348 6.055 o
1 14 5 2.977 2.638 0.239 35.833 o
1 14 6 3.457 3.056 0.269 28.782 o
1 14 7 3.358 3.246 0.259 30.383 o
1 14 8 5.810 5.545 0.279 21.676 o
1 14 9 2.657 2.529 0.309 24.808 o
1 14 10 7.266 7.108 0.339 15.179 o
1 14 11 1.706 1.623 0.378 18.514 o
1 14 12 0.742 0.747 0.368 20.465 o
1 14 13 0.500 0.418 0.468 12.979 o
1 15 0 1.038 0.727 0.398 17.452 o
1 15 1 30.169 31.252 0.398 3.384 o
1 15 2 5.266 4.938 0.279 22.880 o
1 15 3 22.549 23.725 0.388 4.968 o
1 15 4 2.174 2.011 0.249 36.773 o
1 15 5 22.199 23.018 0.339 5.442 o
1 15 6 0.402 0.478 0.269 38.355 o
1 15 7 3.006 2.937 0.299 25.352 o
1 15 8 1.219 1.125 0.329 24.737 o
1 15 9 2.863 2.340 0.319 23.409 o
1 15 10 1.622 1.274 0.408 16.218 o
1 15 11 7.733 7.616 0.418 11.211 o
1 15 12 2.522 2.310 0.478 11.636 o
1 16 0 0.498 0.368 0.269 38.255 o
1 16 1 0.092 0.030 0.050 976.019 o
1 16 2 7.114 6.979 0.348 14.806 o
1 16 3 1.786 1.653 0.279 31.727 o
1 16 4 0.510 0.567 0.249 43.951 o
1 16 5 3.328 3.126 0.309 23.530 o
1 16 6 1.539 1.284 0.259 37.070 o
1 16 7 8.086 8.154 0.368 12.858 o
1 16 8 1.287 1.045 0.319 26.148 o
1 16 9 6.787 6.810 0.388 13.091 o
1 16 10 8.012 8.224 0.458 9.680 o
1 17 0 2.220 1.991 0.468 12.239 o
1 17 1 1.869 1.573 0.358 20.326 o
1 17 2 2.292 2.250 0.319 24.155 o
1 17 3 6.189 6.123 0.329 17.062 o
1 17 4 2.554 2.429 0.319 23.727 o
1 17 5 9.603 10.075 0.358 11.839 o
1 17 6 0.992 0.667 0.358 21.403 o
1 17 7 1.440 1.105 0.388 17.966 o
1 17 8 1.536 1.374 0.438 14.214 o
1 18 0 3.453 3.425 0.558 8.483 o
1 18 1 2.592 2.399 0.358 19.401 o
1 18 2 3.131 3.166 0.348 19.547 o
1 18 3 4.609 4.490 0.398 14.420 o
1 18 4 1.489 1.264 0.388 17.889 o
1 18 5 2.065 1.862 0.508 10.557 o
2 0 0 1361.090 1402.180 11.469 0.003 o
2 0 1 105.196 104.805 1.185 0.365 o
2 0 2 3666.350 3596.440 71.862 0.000 o
2 0 3 144.019 134.076 0.787 0.241 o
2 0 4 57.392 57.804 0.438 1.245 o
2 0 5 2.107 1.663 0.149 77.178 o
2 0 6 80.244 80.722 0.548 0.681 o
2 0 7 0.679 0.548 0.169 87.165 o
2 0 8 5.525 4.998 0.269 23.458 o
2 0 9 8.135 8.443 0.229 20.166 o
2 0 10 98.390 98.752 0.597 0.471 o
2 0 11 8.516 8.283 0.289 16.290 o
2 0 12 67.457 68.009 0.647 0.880 o
2 0 13 0.342 0.110 0.060 537.511 o
2 0 14 3.678 3.166 0.299 24.227 o
2 0 15 0.006 0.119 0.110 234.742 o
2 0 16 10.819 10.583 0.448 8.662 o
2 0 17 1.391 1.264 0.448 13.692 o
2 0 18 0.154 0.000 0.020 2654.780 o
2 0 19 0.058 0.040 0.119 197.247 o
2 0 20 0.065 0.129 4.072 0.174 o
2 1 0 375.480 395.547 2.509 0.034 o
2 1 1 975.415 1018.660 3.046 0.005 o
2 1 2 1208.670 1234.210 3.295 0.004 o
2 1 3 535.782 547.055 1.862 0.018 o
2 1 4 50.178 49.998 0.269 1.669 o
2 1 5 34.654 34.348 0.259 3.117 o
2 1 6 20.512 20.748 0.249 6.831 o
2 1 7 123.776 123.702 0.528 0.315 o
2 1 8 2.114 2.210 0.169 63.573 o
2 1 9 34.377 34.627 0.259 3.130 o
2 1 10 8.435 8.293 0.159 24.385 o
2 1 11 48.998 49.361 0.339 1.685 o
2 1 12 52.883 52.776 0.388 1.462 o
2 1 13 28.233 28.325 0.358 3.913 o
2 1 14 45.773 46.136 0.428 1.806 o
2 1 15 4.241 4.152 0.259 27.629 o
2 1 16 0.126 0.239 0.279 36.596 o
2 1 17 1.530 1.284 0.299 28.854 o
2 1 18 0.286 0.149 0.219 58.145 o
2 1 19 4.196 4.112 0.428 13.099 o
2 1 20 0.876 0.667 0.448 13.972 o
2 2 0 28.160 26.005 0.587 3.121 o
2 2 1 30.493 29.559 0.458 3.240 o
2 2 2 194.933 202.433 0.737 0.129 o
2 2 3 107.322 109.355 0.468 0.408 o
2 2 4 45.320 45.737 0.279 1.965 o
2 2 5 89.004 90.250 0.378 0.583 o
2 2 6 366.628 370.747 1.105 0.038 o
2 2 7 270.687 273.787 0.886 0.070 o
2 2 8 29.733 30.515 0.269 3.869 o
2 2 9 3.119 3.007 0.139 64.153 o
2 2 10 33.871 33.959 0.259 3.213 o
2 2 11 3.499 3.126 0.159 53.560 o
2 2 12 1.957 1.653 0.169 67.359 o
2 2 13 8.947 9.020 0.239 18.116 o
2 2 14 4.048 3.923 0.239 31.273 o
2 2 15 3.936 3.475 0.249 30.465 o
2 2 16 2.808 2.509 0.279 28.954 o
2 2 17 9.814 10.125 0.348 12.055 o
2 2 18 1.350 1.135 0.408 16.389 o
2 2 19 2.955 2.917 0.418 14.493 o
2 2 20 2.989 2.837 0.508 10.230 o
2 3 0 222.645 233.913 1.115 0.097 o
2 3 1 50.023 49.670 0.339 1.641 o
2 3 2 136.975 136.445 0.508 0.262 o
2 3 3 49.136 49.680 0.348 1.667 o
2 3 4 298.796 298.626 0.906 0.058 o
2 3 5 518.555 524.535 2.459 0.019 o
2 3 6 66.996 66.117 0.438 0.969 o
2 3 7 58.912 58.989 0.478 1.178 o
2 3 8 27.226 26.552 0.249 4.611 o
2 3 9 0.613 0.548 0.119 156.782 o
2 3 10 16.306 15.770 0.199 10.157 o
2 3 11 29.225 29.340 0.269 4.018 o
2 3 12 9.829 9.637 0.209 18.146 o
2 3 13 12.776 12.574 0.249 12.453 o
2 3 14 10.114 10.026 0.259 15.365 o
2 3 15 2.124 1.892 0.249 37.079 o
2 3 16 17.245 17.821 0.368 7.003 o
2 3 17 3.819 3.783 0.348 18.679 o
2 3 18 1.924 1.981 0.388 17.407 o
2 3 19 16.879 18.110 0.478 5.759 o
2 4 0 0.239 0.219 0.110 212.539 o
2 4 1 339.427 347.201 1.533 0.044 o
2 4 2 232.211 231.832 0.677 0.095 o
2 4 3 68.140 66.465 0.378 0.963 o
2 4 4 167.527 166.920 0.538 0.179 o
2 4 5 149.864 145.684 0.518 0.224 o
2 4 6 15.006 14.993 0.239 10.470 o
2 4 7 1.776 1.722 0.149 80.916 o
2 4 8 4.098 3.724 0.129 55.967 o
2 4 9 35.724 35.483 0.249 2.980 o
2 4 10 38.490 37.653 0.289 2.607 o
2 4 11 27.980 28.135 0.269 4.289 o
2 4 12 0.280 0.070 0.040 958.990 o
2 4 13 1.361 1.175 0.199 58.638 o
2 4 14 6.688 6.402 0.239 23.281 o
2 4 15 18.860 18.737 0.339 6.765 o
2 4 16 7.223 7.288 0.319 16.260 o
2 4 17 16.411 17.712 0.468 6.003 o
2 4 18 2.390 2.379 0.348 20.555 o
2 4 19 0.824 0.787 0.428 15.259 o
2 5 0 91.965 90.399 0.607 0.536 o
2 5 1 75.043 74.570 0.438 0.792 o
2 5 2 1.456 1.364 0.129 105.594 o
2 5 3 4.944 4.868 0.159 40.690 o
2 5 4 51.418 50.755 0.358 1.560 o
2 5 5 180.656 181.506 0.667 0.153 o
2 5 6 64.953 65.211 0.508 0.989 o
2 5 7 53.843 53.841 0.299 1.462 o
2 5 8 65.040 64.484 0.309 1.052 o
2 5 9 0.915 0.777 0.129 125.739 o
2 5 10 71.324 72.329 0.388 0.866 o
2 5 11 4.099 3.654 0.169 45.653 o
2 5 12 6.771 6.601 0.199 26.680 o
2 5 13 1.804 1.434 0.199 55.114 o
2 5 14 8.523 8.453 0.259 17.843 o
2 5 15 6.280 5.884 0.279 20.816 o
2 5 16 0.145 0.080 0.040 1194.280 o
2 5 17 1.966 1.832 0.368 19.173 o
2 5 18 2.741 2.579 0.438 13.504 o
2 5 19 3.981 3.694 0.398 14.990 o
2 6 0 80.944 83.171 0.607 0.652 o
2 6 1 242.133 236.880 0.757 0.089 o
2 6 2 220.999 219.338 0.737 0.105 o
2 6 3 30.080 30.335 0.299 3.751 o
2 6 4 130.309 129.118 0.617 0.285 o
2 6 5 54.244 52.687 0.348 1.444 o
2 6 6 120.038 123.433 0.408 0.332 o
2 6 7 2.877 2.778 0.119 76.953 o
2 6 8 26.372 25.746 0.219 4.952 o
2 6 9 5.104 4.888 0.159 39.933 o
2 6 10 53.616 53.124 0.339 1.461 o
2 6 11 6.133 5.794 0.199 29.184 o
2 6 12 7.007 7.099 0.219 23.851 o
2 6 13 51.956 53.951 0.418 1.455 o
2 6 14 6.107 5.993 0.249 23.687 o
2 6 15 4.299 3.873 0.259 27.789 o
2 6 16 7.283 6.929 0.358 14.194 o
2 6 17 1.725 1.493 0.378 18.544 o
2 6 18 3.174 2.847 0.418 14.406 o
2 6 19 0.461 0.378 0.647 6.839 o
2 7 0 87.607 87.472 0.767 0.554 o
2 7 1 32.234 32.167 0.348 3.270 o
2 7 2 30.113 28.534 0.319 3.799 o
2 7 3 87.398 88.597 0.468 0.593 o
2 7 4 12.820 13.012 0.179 14.048 o
2 7 5 21.519 21.176 0.189 6.876 o
2 7 6 14.165 13.759 0.169 12.780 o
2 7 7 24.427 24.004 0.199 5.636 o
2 7 8 2.215 2.230 0.149 72.671 o
2 7 9 25.154 24.681 0.249 5.176 o
2 7 10 18.115 17.741 0.239 8.306 o
2 7 11 3.602 3.126 0.199 41.904 o
2 7 12 31.816 32.894 0.358 3.250 o
2 7 13 8.683 8.851 0.269 16.899 o
2 7 14 7.831 7.487 0.279 17.975 o
2 7 15 3.486 3.385 0.269 28.408 o
2 7 16 0.652 0.677 0.289 32.780 o
2 7 17 2.863 2.688 0.388 16.616 o
2 7 18 1.394 1.294 0.408 16.327 o
2 8 0 11.909 11.818 0.279 12.480 o
2 8 1 193.052 195.444 0.577 0.135 o
2 8 2 179.500 182.621 0.538 0.155 o
2 8 3 0.154 0.080 0.040 1175.110 o
2 8 4 25.758 25.945 0.219 5.053 o
2 8 5 25.934 25.049 0.229 5.068 o
2 8 6 9.354 9.030 0.159 21.856 o
2 8 7 74.402 74.589 0.348 0.816 o
2 8 8 25.765 25.378 0.259 4.942 o
2 8 9 4.326 3.903 0.189 39.573 o
2 8 10 8.398 7.845 0.219 20.870 o
2 8 11 7.540 7.308 0.239 21.189 o
2 8 12 17.054 16.796 0.299 8.153 o
2 8 13 26.425 26.582 0.358 4.281 o
2 8 14 9.178 9.130 0.289 15.295 o
2 8 15 0.317 0.119 0.050 689.279 o
2 8 16 3.863 3.435 0.368 17.192 o
2 8 17 2.097 1.882 0.358 20.014 o
2 8 18 2.920 2.827 0.468 11.889 o
2 9 0 0.005 0.020 0.050 1132.620 o
2 9 1 13.448 13.550 0.179 13.255 o
2 9 2 3.423 3.514 0.139 59.212 o
2 9 3 39.005 39.027 0.269 2.546 o
2 9 4 0.650 0.567 0.129 136.686 o
2 9 5 3.816 3.694 0.159 49.702 o
2 9 6 13.431 12.923 0.199 13.077 o
2 9 7 6.090 5.804 0.179 31.707 o
2 9 8 64.497 65.261 0.428 1.023 o
2 9 9 10.766 10.633 0.239 15.259 o
2 9 10 1.678 1.613 0.209 51.328 o
2 9 11 24.251 24.023 0.388 4.657 o
2 9 12 13.565 14.177 0.329 9.632 o
2 9 13 9.929 9.687 0.309 13.611 o
2 9 14 3.149 2.648 0.309 24.075 o
2 9 15 1.922 1.822 0.339 22.352 o
2 9 16 5.814 6.461 0.398 13.237 o
2 9 17 1.275 1.045 0.398 17.237 o
2 10 0 7.507 7.228 0.239 21.300 o
2 10 1 11.530 11.290 0.189 15.930 o
2 10 2 5.756 5.466 0.159 36.081 o
2 10 3 2.323 2.051 0.139 78.108 o
2 10 4 66.621 65.868 0.368 0.996 o
2 10 5 24.522 24.501 0.279 5.176 o
2 10 6 29.641 29.698 0.299 3.847 o
2 10 7 60.344 60.631 0.418 1.154 o
2 10 8 10.322 10.065 0.239 15.986 o
2 10 9 6.377 6.322 0.239 23.889 o
2 10 10 5.655 5.416 0.259 23.934 o
2 10 11 7.203 7.049 0.309 16.985 o
2 10 12 0.461 0.139 0.080 328.947 o
2 10 13 7.058 7.118 0.289 18.385 o
2 10 14 1.346 1.274 0.309 27.474 o
2 10 15 0.177 0.149 0.319 28.104 o
2 10 16 0.334 0.209 0.219 57.724 o
2 10 17 2.688 2.598 0.577 8.128 o
2 11 0 0.629 0.597 0.219 55.154 o
2 11 1 30.838 31.102 0.289 3.639 o
2 11 2 32.853 32.297 0.299 3.321 o
2 11 3 12.484 12.315 0.219 13.602 o
2 11 4 41.027 40.869 0.339 2.269 o
2 11 5 9.247 8.911 0.219 18.882 o
2 11 6 0.396 0.119 0.040 788.196 o
2 11 7 4.783 4.371 0.209 33.531 o
2 11 8 9.560 9.607 0.259 16.108 o
2 11 9 7.110 6.491 0.259 20.888 o
2 11 10 6.049 6.153 0.269 21.807 o
2 11 11 4.876 5.167 0.299 21.309 o
2 11 12 0.462 0.418 0.249 44.348 o
2 11 13 0.155 0.149 0.100 263.514 o
2 11 14 3.025 2.907 0.348 19.755 o
2 11 15 1.097 1.016 0.339 23.581 o
2 11 16 17.287 18.717 0.567 4.756 o
2 12 0 0.000 0.070 0.229 54.846 o
2 12 1 11.854 11.539 0.229 14.183 o
2 12 2 12.045 12.086 0.229 13.781 o
2 12 3 1.711 1.414 0.189 60.228 o
2 12 4 10.730 10.454 0.239 15.381 o
2 12 5 60.277 61.129 0.438 1.142 o
2 12 6 9.003 9.060 0.239 18.023 o
2 12 7 17.550 17.642 0.289 7.943 o
2 12 8 0.894 0.727 0.209 58.073 o
2 12 9 32.213 33.462 0.438 2.975 o
2 12 10 8.993 8.761 0.309 14.680 o
2 12 11 9.544 9.896 0.358 11.921 o
2 12 12 0.330 0.119 0.129 155.738 o
2 12 13 5.821 6.242 0.378 14.310 o
2 12 14 1.328 1.225 0.398 17.159 o
2 12 15 1.541 1.264 0.448 13.639 o
2 13 0 0.163 0.110 0.080 393.918 o
2 13 1 46.845 47.400 0.388 1.772 o
2 13 2 10.191 10.036 0.249 15.710 o
2 13 3 0.768 0.478 0.119 151.930 o
2 13 4 29.996 30.186 0.368 3.555 o
2 13 5 0.225 0.149 0.040 981.423 o
2 13 6 1.525 1.374 0.229 45.490 o
2 13 7 6.400 6.262 0.259 22.086 o
2 13 8 4.548 4.590 0.279 24.226 o
2 13 9 0.378 0.199 0.100 238.636 o
2 13 10 14.684 15.422 0.418 7.365 o
2 13 11 10.880 11.599 0.498 7.454 o
2 13 12 0.362 0.179 0.139 134.261 o
2 13 13 2.113 2.021 0.368 18.994 o
2 13 14 0.138 0.159 0.239 49.670 o
2 14 0 30.656 31.252 0.518 2.960 o
2 14 1 41.378 42.103 0.398 2.141 o
2 14 2 0.806 0.508 0.159 95.045 o
2 14 3 6.685 6.203 0.269 20.881 o
2 14 4 1.958 1.772 0.239 40.274 o
2 14 5 19.335 19.603 0.329 6.617 o
2 14 6 7.253 6.850 0.289 18.318 o
2 14 7 6.752 6.571 0.289 19.037 o
2 14 8 1.134 1.006 0.269 35.984 o
2 14 9 7.761 7.785 0.319 15.588 o
2 14 10 0.356 0.249 0.219 57.498 o
2 14 11 0.741 0.597 0.418 16.049 o
2 14 12 4.308 4.331 0.378 15.875 o
2 14 13 12.914 13.510 0.528 6.322 o
2 15 0 5.603 5.346 0.368 15.303 o
2 15 1 2.234 2.081 0.239 38.900 o
2 15 2 12.698 12.734 0.299 11.141 o
2 15 3 16.195 16.676 0.339 7.917 o
2 15 4 4.426 4.261 0.269 25.883 o
2 15 5 2.725 2.439 0.259 32.714 o
2 15 6 3.632 3.236 0.299 24.243 o
2 15 7 0.725 0.677 0.319 27.086 o
2 15 8 16.671 18.518 0.428 6.330 o
2 15 9 5.777 5.446 0.368 15.153 o
2 15 10 2.844 2.439 0.378 17.476 o
2 15 11 1.083 0.976 0.378 19.141 o
2 16 0 1.695 1.653 0.468 12.452 o
2 16 1 4.451 4.470 0.358 17.106 o
2 16 2 3.001 2.798 0.329 21.848 o
2 16 3 0.630 0.697 0.299 30.756 o
2 16 4 18.933 19.882 0.408 5.888 o
2 16 5 0.004 0.090 0.080 439.496 o
2 16 6 0.286 0.159 0.169 95.195 o
2 16 7 1.463 1.215 0.339 23.115 o
2 16 8 4.492 4.351 0.329 19.495 o
2 16 9 1.005 0.747 0.398 17.464 o
2 16 10 1.058 0.876 0.607 7.671 o
2 17 0 0.628 0.587 0.448 14.069 o
2 17 1 1.613 1.364 0.329 24.163 o
2 17 2 0.123 0.070 0.050 905.127 o
2 17 3 7.371 7.308 0.378 13.079 o
2 17 4 0.749 0.727 0.329 25.487 o
2 17 5 2.795 2.589 0.329 22.184 o
2 17 6 2.871 2.499 0.378 17.438 o
2 17 7 0.591 0.189 0.110 190.409 o
2 17 8 19.631 22.003 0.796 2.914 o
2 18 0 2.153 2.340 0.647 6.614 o
2 18 1 11.270 11.768 0.418 9.018 o
2 18 2 2.154 1.722 0.378 18.180 o
2 18 3 0.314 0.189 0.249 45.206 o
2 18 4 1.815 1.493 0.418 15.362 o
3 0 1 124.663 130.113 1.792 0.231 o
3 0 2 235.990 246.896 1.304 0.086 o
3 0 3 1230.540 1260.300 4.998 0.003 o
3 0 4 252.214 254.024 0.866 0.080 o
3 0 5 0.092 0.129 0.070 518.844 o
3 0 6 1.046 1.374 0.169 77.857 o
3 0 7 0.003 0.000 0.040 1801.590 o
3 0 8 7.875 8.204 0.239 20.052 o
3 0 9 20.958 20.688 0.279 6.469 o
3 0 10 3.809 3.743 0.209 37.706 o
3 0 11 131.483 131.388 0.787 0.272 o
3 0 12 1.149 1.085 0.239 44.185 o
3 0 13 9.445 9.169 0.388 11.131 o
3 0 14 3.647 3.405 0.368 17.360 o
3 0 15 28.928 29.151 0.607 2.871 o
3 0 16 26.149 27.389 0.587 3.229 o
3 0 17 0.140 0.030 0.050 909.787 o
3 0 18 0.051 0.149 0.348 23.646 o
3 0 19 0.001 0.119 1.384 1.506 o
3 1 0 279.016 280.108 1.822 0.062 o
3 1 1 138.364 142.399 0.717 0.246 o
3 1 2 462.299 467.438 1.981 0.024 o
3 1 3 73.037 73.654 0.339 0.842 o
3 1 4 298.338 304.391 0.747 0.058 o
3 1 5 264.943 262.755 0.687 0.074 o
3 1 6 20.508 19.952 0.219 7.198 o
3 1 7 144.425 143.394 0.577 0.236 o
3 1 8 13.553 13.401 0.179 13.230 o
3 1 9 6.661 6.929 0.149 31.604 o
3 1 10 62.839 63.598 0.339 1.097 o
3 1 11 6.126 5.934 0.189 30.199 o
3 1 12 5.941 5.675 0.219 27.471 o
3 1 13 6.672 6.342 0.239 23.360 o
3 1 14 2.926 2.459 0.259 32.226 o
3 1 15 1.495 1.384 0.259 37.056 o
3 1 16 5.506 5.097 0.309 19.727 o
3 1 17 0.584 0.468 0.209 60.720 o
3 1 18 1.619 1.424 0.398 16.945 o
3 1 19 1.559 1.394 0.428 14.831 o
3 1 20 2.048 2.290 1.205 1.965 o
3 2 0 81.207 82.674 0.727 0.629 o
3 2 1 136.393 141.901 0.597 0.255 o
3 2 2 35.695 34.069 0.269 3.015 o
3 2 3 419.916 429.238 1.872 0.029 o
3 2 4 159.964 159.165 0.538 0.195 o
3 2 5 25.148 25.139 0.229 5.219 o
3 2 6 112.665 115.249 0.488 0.371 o
3 2 7 52.303 51.930 0.398 1.488 o
3 2 8 21.002 21.047 0.209 6.931 o
3 2 9 28.218 28.484 0.209 4.411 o
3 2 10 40.840 40.282 0.289 2.357 o
3 2 11 71.918 71.792 0.408 0.857 o
3 2 12 7.885 7.726 0.219 21.778 o
3 2 13 27.952 28.404 0.358 3.944 o
3 2 14 2.232 2.101 0.249 36.487 o
3 2 15 15.121 15.312 0.348 8.387 o
3 2 16 2.742 2.519 0.289 27.502 o
3 2 17 0.874 0.767 0.378 19.347 o
3 2 18 3.665 3.614 0.388 15.842 o
3 2 19 3.298 3.176 0.388 16.200 o
3 3 0 187.950 188.505 0.946 0.139 o
3 3 1 497.312 513.992 2.021 0.021 o
3 3 2 102.829 100.853 0.438 0.453 o
3 3 3 189.471 189.480 0.597 0.141 o
3 3 4 19.081 18.886 0.209 7.996 o
3 3 5 67.816 65.958 0.388 0.970 o
3 3 6 103.918 105.692 0.508 0.430 o
3 3 7 43.274 41.914 0.339 2.114 o
3 3 8 24.628 25.109 0.249 5.240 o
3 3 9 0.724 0.757 0.129 131.521 o
3 3 10 23.220 23.346 0.239 5.806 o
3 3 11 8.301 8.024 0.199 22.221 o
3 3 12 10.242 9.986 0.239 16.110 o
3 3 13 26.526 26.393 0.339 4.370 o
3 3 14 30.274 30.764 0.428 3.302 o
3 3 15 8.552 8.443 0.309 15.169 o
3 3 16 1.174 0.936 0.289 31.597 o
3 3 17 1.850 1.842 0.309 26.375 o
3 3 18 11.248 11.997 0.478 7.701 o
3 3 19 0.019 0.010 0.119 200.575 o
3 4 0 0.043 0.070 0.080 431.164 o
3 4 1 5.162 4.799 0.149 41.643 o
3 4 2 49.186 50.317 0.348 1.654 o
3 4 3 121.075 118.813 0.508 0.332 o
3 4 4 341.127 336.210 0.856 0.045 o
3 4 5 58.748 57.933 0.388 1.233 o
3 4 6 5.198 4.908 0.189 34.555 o
3 4 7 7.765 7.178 0.159 27.221 o
3 4 8 77.120 78.472 0.368 0.755 o
3 4 9 18.776 18.598 0.209 8.177 o
3 4 10 28.810 28.314 0.269 4.151 o
3 4 11 0.846 0.737 0.159 92.700 o
3 4 12 0.150 0.070 0.030 1676.390 o
3 4 13 9.160 8.940 0.249 17.381 o
3 4 14 7.039 6.770 0.279 19.302 o
3 4 15 4.566 4.480 0.259 26.688 o
3 4 16 7.547 7.686 0.309 16.370 o
3 4 17 7.278 7.178 0.398 12.301 o
3 4 18 9.966 10.454 0.418 9.734 o
3 4 19 2.174 1.981 0.438 13.847 o
3 5 0 1.823 1.852 0.169 67.667 o
3 5 1 94.257 97.568 0.458 0.512 o
3 5 2 95.352 94.909 0.518 0.509 o
3 5 3 16.118 15.899 0.249 9.478 o
3 5 4 188.368 185.856 0.687 0.143 o
3 5 5 29.774 28.633 0.309 3.868 o
3 5 6 76.838 78.582 0.358 0.759 o
3 5 7 12.116 11.927 0.159 15.836 o
3 5 8 25.986 25.935 0.229 4.970 o
3 5 9 47.342 47.599 0.319 1.801 o
3 5 10 33.415 32.775 0.289 3.261 o
3 5 11 1.128 1.016 0.169 78.937 o
3 5 12 5.269 4.819 0.199 32.947 o
3 5 13 7.323 7.089 0.239 21.689 o
3 5 14 42.285 44.114 0.438 1.995 o
3 5 15 3.233 3.086 0.269 29.191 o
3 5 16 0.808 0.597 0.279 34.787 o
3 5 17 1.776 1.712 0.358 20.345 o
3 5 18 7.196 7.069 0.438 10.823 o
3 5 19 0.702 0.239 0.299 31.009 o
3 6 0 113.280 110.391 0.826 0.357 o
3 6 1 1.041 0.866 0.149 98.238 o
3 6 2 21.112 20.599 0.289 6.358 o
3 6 3 64.591 63.469 0.528 1.003 o
3 6 4 121.122 121.551 0.528 0.327 o
3 6 5 65.860 65.987 0.319 1.021 o
3 6 6 11.056 11.190 0.159 17.567 o
3 6 7 39.147 39.724 0.259 2.523 o
3 6 8 97.769 98.613 0.408 0.491 o
3 6 9 3.576 3.564 0.169 48.755 o
3 6 10 27.104 26.891 0.289 4.451 o
3 6 11 16.691 16.686 0.259 8.881 o
3 6 12 3.869 3.724 0.209 37.532 o
3 6 13 10.519 10.483 0.269 14.396 o
3 6 14 8.557 8.831 0.279 16.511 o
3 6 15 1.545 1.394 0.249 39.465 o
3 6 16 2.137 1.921 0.319 24.546 o
3 6 17 1.320 1.394 0.398 17.118 o
3 6 18 1.377 1.394 0.378 18.809 o
3 7 0 26.105 25.298 0.458 3.934 o
3 7 1 225.238 226.805 0.816 0.100 o
3 7 2 33.690 33.044 0.259 3.279 o
3 7 3 34.362 35.642 0.269 3.066 o
3 7 4 130.820 129.745 0.458 0.287 o
3 7 5 3.823 3.793 0.129 57.905 o
3 7 6 4.400 3.962 0.139 50.342 o
3 7 7 11.291 10.822 0.189 16.462 o
3 7 8 30.579 30.853 0.269 3.738 o
3 7 9 5.009 4.729 0.179 37.177 o
3 7 10 12.125 11.947 0.249 13.174 o
3 7 11 10.480 10.284 0.239 15.713 o
3 7 12 12.516 12.226 0.269 12.213 o
3 7 13 19.075 19.324 0.319 6.830 o
3 7 14 5.519 5.376 0.259 24.194 o
3 7 15 6.873 6.631 0.329 16.252 o
3 7 16 1.398 1.284 0.339 23.145 o
3 7 17 3.907 3.863 0.388 15.619 o
3 7 18 1.301 0.916 0.528 10.051 o
3 8 0 14.617 14.068 0.249 10.772 o
3 8 1 44.909 44.363 0.269 2.027 o
3 8 2 31.751 32.068 0.229 3.611 o
3 8 3 41.370 41.227 0.249 2.334 o
3 8 4 31.022 30.704 0.249 3.742 o
3 8 5 43.841 43.846 0.269 2.096 o
3 8 6 0.198 0.080 0.030 1471.550 o
3 8 7 17.838 17.483 0.219 8.707 o
3 8 8 11.402 11.499 0.209 15.286 o
3 8 9 2.672 2.499 0.179 54.284 o
3 8 10 17.652 18.239 0.279 7.919 o
3 8 11 51.121 51.342 0.448 1.502 o
3 8 12 0.278 0.259 0.139 135.558 o
3 8 13 5.125 5.008 0.259 25.189 o
3 8 14 2.974 2.618 0.279 28.549 o
3 8 15 13.992 14.536 0.398 8.040 o
3 8 16 2.708 2.399 0.348 20.262 o
3 8 17 2.632 2.310 0.418 14.790 o
3 8 18 0.926 0.747 1.464 1.343 o
3 9 0 18.848 18.637 0.309 7.106 o
3 9 1 12.804 12.475 0.179 14.315 o
3 9 2 45.908 44.343 0.289 1.963 o
3 9 3 18.509 18.548 0.209 8.297 o
3 9 4 12.013 11.887 0.189 15.104 o
3 9 5 50.616 50.327 0.329 1.614 o
3 9 6 24.376 24.790 0.269 5.227 o
3 9 7 73.118 73.216 0.408 0.831 o
3 9 8 11.576 11.658 0.229 14.379 o
3 9 9 20.746 20.360 0.289 6.490 o
3 9 10 14.523 14.964 0.299 9.608 o
3 9 11 3.661 3.385 0.259 29.586 o
3 9 12 7.363 7.228 0.289 17.993 o
3 9 13 1.652 1.483 0.269 34.243 o
3 9 14 3.328 3.345 0.348 19.296 o
3 9 15 0.892 0.956 0.329 25.198 o
3 9 16 2.421 2.250 0.368 18.682 o
3 9 17 2.036 1.951 0.428 14.511 o
3 10 0 65.171 65.689 0.538 0.971 o
3 10 1 19.019 18.906 0.239 7.730 o
3 10 2 31.669 31.689 0.269 3.555 o
3 10 3 12.437 12.226 0.209 13.962 o
3 10 4 1.902 1.762 0.159 72.927 o
3 10 5 0.472 0.110 0.020 1029.560 o
3 10 6 3.392 3.126 0.189 45.395 o
3 10 7 37.537 37.325 0.348 2.599 o
3 10 8 9.114 9.269 0.239 17.764 o
3 10 9 4.908 4.460 0.239 28.638 o
3 10 10 1.819 1.742 0.239 40.776 o
3 10 11 16.523 16.666 0.368 7.385 o
3 10 12 8.727 8.821 0.319 14.406 o
3 10 13 0.261 0.139 0.159 107.338 o
3 10 14 7.022 7.547 0.358 14.162 o
3 10 15 8.651 8.642 0.358 12.794 o
3 10 16 3.654 3.903 0.388 15.760 o
3 11 0 16.145 15.651 0.339 8.115 o
3 11 1 12.831 12.495 0.229 12.975 o
3 11 2 37.981 38.002 0.348 2.544 o
3 11 3 29.695 29.320 0.289 3.895 o
3 11 4 9.766 9.408 0.219 17.891 o
3 11 5 6.519 6.193 0.209 26.694 o
3 11 6 10.706 10.842 0.249 14.836 o
3 11 7 13.772 14.237 0.279 10.582 o
3 11 8 7.973 7.646 0.259 18.983 o
3 11 9 3.097 3.046 0.249 32.976 o
3 11 10 21.930 22.431 0.408 5.053 o
3 11 11 3.201 2.897 0.299 25.098 o
3 11 12 7.984 8.104 0.348 13.816 o
3 11 13 1.267 1.274 0.299 29.278 o
3 11 14 2.294 2.071 0.329 23.015 o
3 11 15 7.978 8.711 0.448 9.909 o
3 11 16 1.224 1.035 0.747 5.096 o
3 12 0 72.312 73.454 0.667 0.778 o
3 12 1 1.162 0.976 0.189 65.933 o
3 12 2 15.874 15.661 0.269 9.335 o
3 12 3 16.965 16.576 0.279 8.508 o
3 12 4 19.561 19.205 0.309 6.808 o
3 12 5 2.259 2.051 0.199 50.814 o
3 12 6 15.722 15.919 0.299 8.860 o
3 12 7 3.162 3.037 0.219 39.036 o
3 12 8 27.481 28.673 0.378 3.909 o
3 12 9 4.419 4.420 0.269 25.756 o
3 12 10 0.806 0.587 0.199 64.358 o
3 12 11 6.922 7.128 0.339 15.434 o
3 12 12 1.250 1.314 0.289 31.121 o
3 12 13 1.472 1.404 0.319 25.693 o
3 12 14 5.464 5.366 0.358 16.009 o
3 12 15 2.345 2.280 0.498 10.838 o
3 13 0 0.144 0.119 0.159 109.720 o
3 13 1 15.823 16.168 0.279 9.083 o
3 13 2 9.418 8.970 0.249 17.075 o
3 13 3 3.596 2.947 0.229 35.623 o
3 13 4 1.682 1.473 0.249 38.946 o
3 13 5 17.341 17.114 0.319 7.725 o
3 13 6 4.836 4.689 0.249 27.235 o
3 13 7 39.658 41.904 0.448 2.170 o
3 13 8 5.565 5.406 0.269 23.080 o
3 13 9 3.685 3.704 0.289 25.054 o
3 13 10 3.427 3.475 0.309 23.180 o
3 13 11 0.157 0.209 0.259 42.304 o
3 13 12 5.304 5.197 0.368 15.557 o
3 13 13 0.264 0.149 0.119 182.520 o
3 13 14 6.175 6.203 0.518 8.758 o
3 14 0 54.213 56.838 0.657 1.204 o
3 14 1 0.086 0.060 0.030 2044.950 o
3 14 2 6.709 6.382 0.269 20.727 o
3 14 3 3.232 3.007 0.249 32.691 o
3 14 4 13.716 13.948 0.299 10.256 o
3 14 5 10.503 10.673 0.299 13.216 o
3 14 6 5.380 5.366 0.259 24.437 o
3 14 7 15.427 15.551 0.339 8.395 o
3 14 8 10.355 10.205 0.378 10.775 o
3 14 9 5.003 5.177 0.329 18.591 o
3 14 10 0.177 0.070 0.129 162.932 o
3 14 11 0.799 0.577 0.378 19.458 o
3 14 12 2.805 2.180 0.408 15.386 o
3 15 0 0.316 0.219 0.169 94.325 o
3 15 1 20.657 21.744 0.368 5.675 o
3 15 2 8.992 9.110 0.279 15.952 o
3 15 3 10.767 10.633 0.299 13.042 o
3 15 4 6.795 6.481 0.309 17.654 o
3 15 5 0.666 0.478 0.189 72.120 o
3 15 6 0.021 0.129 0.159 111.991 o
3 15 7 1.742 1.603 0.329 23.886 o
3 15 8 0.713 0.528 0.279 35.058 o
3 15 9 0.031 0.020 0.030 2682.000 o
3 15 10 8.892 9.159 0.468 8.979 o
3 15 11 2.969 2.608 0.428 13.966 o
3 16 0 2.791 2.658 0.478 11.508 o
3 16 1 6.605 6.561 0.358 14.774 o
3 16 2 2.521 2.270 0.319 23.864 o
3 16 3 1.240 1.185 0.319 26.120 o
3 16 4 3.199 2.957 0.339 20.533 o
3 16 5 0.867 0.757 0.289 32.315 o
3 16 6 0.000 0.000 0.040 1817.280 o
3 16 7 9.935 10.533 0.428 9.461 o
3 16 8 3.800 3.624 0.378 16.442 o
3 16 9 5.040 5.207 0.388 14.539 o
3 17 0 2.878 2.469 0.508 10.300 o
3 17 1 8.037 8.024 0.408 11.351 o
3 17 2 2.444 2.180 0.319 24.012 o
3 17 3 1.781 1.722 0.368 19.350 o
3 17 4 5.270 5.137 0.339 17.612 o
3 17 5 1.315 0.996 0.339 23.373 o
3 17 6 2.571 2.240 0.358 19.484 o
3 17 7 3.087 2.808 0.468 11.839 o
3 18 0 13.084 13.978 0.607 5.223 o
3 18 1 2.509 2.180 0.368 18.643 o
3 18 2 0.581 0.508 0.458 13.503 o
3 18 3 1.138 0.836 0.418 15.820 o
4 0 0 1071.040 1081.380 6.750 0.004 o
4 0 1 171.788 176.557 1.195 0.157 o
4 0 2 23.235 23.695 0.488 4.231 o
4 0 3 280.831 283.951 1.035 0.064 o
4 0 4 92.040 91.942 0.577 0.534 o
4 0 5 72.710 68.735 0.468 0.854 o
4 0 6 10.965 9.737 0.249 15.108 o
4 0 7 16.403 16.686 0.299 8.425 o
4 0 8 6.363 6.651 0.189 28.622 o
4 0 9 0.770 0.707 0.179 77.118 o
4 0 10 0.038 0.080 0.139 145.876 o
4 0 11 54.880 54.757 0.538 1.289 o
4 0 12 12.174 11.798 0.378 9.621 o
4 0 13 0.147 0.090 0.149 124.531 o
4 0 14 11.198 10.683 0.508 7.297 o
4 0 15 11.812 11.848 0.518 6.861 o
4 0 16 0.590 0.577 0.418 16.120 o
4 0 17 0.062 0.010 0.050 1039.610 o
4 0 18 0.008 -0.020 0.119 201.591 o
4 0 19 5.209 5.107 0.518 9.110 o
4 1 0 28.087 29.260 0.448 3.529 o
4 1 1 408.173 417.788 1.802 0.030 o
4 1 2 51.022 52.099 0.398 1.526 o
4 1 3 60.574 62.642 0.378 1.142 o
4 1 4 112.031 116.285 0.538 0.369 o
4 1 5 122.729 124.249 0.478 0.319 o
4 1 6 28.463 29.450 0.269 4.119 o
4 1 7 21.900 21.933 0.219 6.459 o
4 1 8 17.782 18.000 0.179 9.047 o
4 1 9 40.673 40.660 0.259 2.387 o
4 1 10 22.093 21.883 0.239 6.283 o
4 1 11 27.395 27.657 0.289 4.345 o
4 1 12 52.433 52.617 0.428 1.455 o
4 1 13 17.919 17.921 0.329 7.278 o
4 1 14 1.527 1.294 0.269 34.742 o
4 1 15 0.555 0.259 0.090 258.021 o
4 1 16 9.399 9.339 0.358 12.158 o
4 1 17 4.827 4.759 0.358 16.709 o
4 1 18 0.568 0.398 0.299 31.097 o
4 1 19 0.581 0.319 0.269 38.114 o
4 2 0 14.233 14.665 0.319 9.424 o
4 2 1 26.617 26.741 0.279 4.584 o
4 2 2 280.421 284.399 0.787 0.065 o
4 2 3 73.761 74.032 0.378 0.823 o
4 2 4 98.826 97.518 0.428 0.486 o
4 2 5 355.592 354.130 0.906 0.041 o
4 2 6 21.712 21.186 0.269 6.273 o
4 2 7 30.116 30.286 0.249 3.887 o
4 2 8 19.862 20.360 0.199 7.508 o
4 2 9 78.382 80.424 0.368 0.730 o
4 2 10 15.543 15.123 0.219 10.471 o
4 2 11 8.229 7.935 0.209 21.739 o
4 2 12 51.839 52.278 0.428 1.478 o
4 2 13 2.072 1.752 0.229 42.690 o
4 2 14 2.893 2.808 0.259 31.903 o
4 2 15 2.695 2.489 0.289 27.604 o
4 2 16 0.996 0.926 0.289 31.929 o
4 2 17 10.615 11.111 0.398 9.892 o
4 2 18 4.599 4.201 0.378 15.728 o
4 2 19 2.045 1.842 0.378 18.214 o
4 3 0 34.288 34.457 0.398 2.861 o
4 3 1 15.237 14.854 0.219 10.731 o
4 3 2 88.964 87.422 0.498 0.582 o
4 3 3 124.787 120.118 0.518 0.318 o
4 3 4 34.292 34.119 0.289 3.108 o
4 3 5 89.934 91.564 0.488 0.560 o
4 3 6 24.672 24.691 0.269 5.177 o
4 3 7 106.767 109.256 0.388 0.414 o
4 3 8 16.529 15.979 0.199 9.975 o
4 3 9 2.275 1.981 0.149 73.390 o
4 3 10 22.143 21.405 0.249 6.268 o
4 3 11 1.715 1.523 0.169 70.209 o
4 3 12 12.410 12.156 0.279 12.029 o
4 3 13 3.216 3.106 0.239 34.503 o
4 3 14 4.602 4.420 0.259 26.677 o
4 3 15 3.689 3.574 0.289 25.147 o
4 3 16 5.983 5.834 0.299 19.586 o
4 3 17 5.589 5.705 0.329 17.793 o
4 3 18 4.466 4.669 0.388 15.039 o
4 3 19 3.997 4.191 0.428 13.169 o
4 4 0 91.043 92.122 0.617 0.536 o
4 4 1 218.491 221.160 0.667 0.106 o
4 4 2 52.143 51.402 0.378 1.513 o
4 4 3 46.824 47.798 0.378 1.773 o
4 4 4 183.471 185.597 0.657 0.148 o
4 4 5 29.349 29.708 0.329 3.789 o
4 4 6 43.062 42.840 0.259 2.176 o
4 4 7 21.004 20.957 0.189 7.080 o
4 4 8 24.085 23.446 0.229 5.641 o
4 4 9 40.880 40.431 0.309 2.327 o
4 4 10 0.912 0.717 0.159 91.872 o
4 4 11 1.679 1.563 0.179 64.877 o
4 4 12 38.402 39.176 0.368 2.445 o
4 4 13 37.254 37.633 0.398 2.524 o
4 4 14 3.848 3.554 0.259 29.019 o
4 4 15 3.719 3.415 0.289 25.224 o
4 4 16 9.707 10.324 0.388 10.742 o
4 4 17 5.675 5.297 0.438 11.770 o
4 4 18 6.679 7.108 0.418 11.783 o
4 4 19 2.322 2.101 0.528 9.742 o
4 5 0 6.479 6.003 0.209 26.996 o
4 5 1 29.791 29.917 0.279 3.873 o
4 5 2 48.679 47.091 0.418 1.681 o
4 5 3 166.341 164.471 0.717 0.180 o
4 5 4 5.200 5.058 0.199 32.794 o
4 5 5 49.450 50.526 0.279 1.682 o
4 5 6 129.763 130.213 0.398 0.291 o
4 5 7 6.275 6.193 0.139 35.347 o
4 5 8 25.222 25.945 0.239 5.079 o
4 5 9 36.587 36.409 0.299 2.788 o
4 5 10 9.718 9.428 0.209 18.426 o
4 5 11 1.462 1.205 0.189 62.770 o
4 5 12 31.729 32.516 0.348 3.304 o
4 5 13 14.309 14.257 0.299 9.881 o
4 5 14 0.663 0.707 0.259 40.194 o
4 5 15 1.025 0.747 0.199 62.272 o
4 5 16 1.685 1.752 0.358 20.403 o
4 5 17 6.025 5.874 0.368 14.846 o
4 5 18 2.336 2.419 0.418 14.903 o
4 6 0 51.392 49.381 0.627 1.383 o
4 6 1 5.568 5.277 0.209 30.072 o
4 6 2 21.329 21.037 0.289 6.243 o
4 6 3 18.877 17.811 0.199 8.395 o
4 6 4 53.091 55.175 0.289 1.469 o
4 6 5 33.815 33.511 0.239 3.278 o
4 6 6 31.189 30.525 0.239 3.756 o
4 6 7 6.235 6.163 0.149 34.343 o
4 6 8 47.841 47.987 0.319 1.772 o
4 6 9 32.076 32.217 0.289 3.432 o
4 6 10 6.830 7.059 0.209 25.119 o
4 6 11 13.576 13.620 0.259 11.322 o
4 6 12 5.734 5.824 0.229 26.627 o
4 6 13 4.861 4.739 0.249 27.134 o
4 6 14 1.786 1.404 0.259 36.278 o
4 6 15 3.233 2.867 0.289 26.417 o
4 6 16 2.494 2.389 0.368 18.577 o
4 6 17 0.505 0.259 0.119 167.853 o
4 6 18 1.143 0.966 0.488 11.733 o
4 7 0 284.953 286.162 0.936 0.063 o
4 7 1 46.411 46.106 0.269 1.911 o
4 7 2 31.163 30.953 0.239 3.731 o
4 7 3 56.633 57.007 0.309 1.330 o
4 7 4 31.800 31.948 0.249 3.570 o
4 7 5 46.951 47.320 0.289 1.845 o
4 7 6 50.305 49.959 0.309 1.643 o
4 7 7 0.457 0.508 0.159 100.669 o
4 7 8 15.629 15.133 0.219 10.419 o
4 7 9 19.406 18.827 0.249 7.507 o
4 7 10 6.700 6.690 0.219 24.823 o
4 7 11 3.307 2.837 0.209 41.248 o
4 7 12 40.480 41.506 0.418 2.179 o
4 7 13 2.863 2.708 0.239 36.059 o
4 7 14 15.463 15.909 0.339 8.316 o
4 7 15 7.684 8.214 0.388 12.240 o
4 7 16 5.615 5.565 0.408 13.085 o
4 7 17 5.720 5.944 0.418 12.479 o
4 7 18 0.518 0.448 0.548 9.511 o
4 8 0 53.541 52.328 0.408 1.438 o
4 8 1 15.342 15.461 0.189 10.976 o
4 8 2 11.520 11.758 0.159 16.629 o
4 8 3 60.340 60.472 0.309 1.194 o
4 8 4 4.830 4.520 0.139 46.015 o
4 8 5 8.717 8.572 0.179 22.287 o
4 8 6 49.272 50.008 0.339 1.663 o
4 8 7 0.704 0.587 0.159 96.020 o
4 8 8 0.808 0.727 0.169 84.406 o
4 8 9 21.367 20.878 0.279 6.331 o
4 8 10 3.564 3.325 0.219 37.179 o
4 8 11 18.601 18.259 0.309 7.242 o
4 8 12 5.238 5.197 0.249 25.956 o
4 8 13 0.734 0.587 0.199 64.876 o
4 8 14 3.928 3.813 0.289 24.602 o
4 8 15 0.165 0.090 0.070 497.213 o
4 8 16 0.925 0.966 0.348 22.509 o
4 8 17 0.500 0.199 0.169 91.876 o
4 9 0 40.560 40.510 0.428 2.188 o
4 9 1 51.636 51.900 0.309 1.561 o
4 9 2 9.133 8.791 0.179 21.364 o
4 9 3 1.069 0.996 0.149 96.669 o
4 9 4 11.761 11.399 0.189 15.621 o
4 9 5 10.907 10.713 0.199 16.600 o
4 9 6 58.031 58.003 0.378 1.253 o
4 9 7 11.081 11.011 0.229 15.144 o
4 9 8 9.982 9.249 0.219 17.723 o
4 9 9 11.278 11.171 0.239 14.530 o
4 9 10 28.739 29.798 0.358 3.757 o
4 9 11 6.829 6.302 0.259 21.424 o
4 9 12 1.529 1.085 0.249 39.974 o
4 9 13 24.594 25.636 0.418 4.316 o
4 9 14 2.347 2.190 0.319 24.124 o
4 9 15 0.495 0.269 0.189 74.589 o
4 9 16 7.081 7.576 0.448 10.427 o
4 9 17 0.063 0.010 0.080 434.080 o
4 10 0 22.281 22.241 0.368 5.293 o
4 10 1 12.013 11.857 0.219 14.212 o
4 10 2 56.333 56.052 0.358 1.331 o
4 10 3 5.248 4.829 0.189 34.521 o
4 10 4 5.950 5.356 0.189 31.516 o
4 10 5 28.984 28.962 0.299 3.983 o
4 10 6 26.520 26.383 0.309 4.504 o
4 10 7 2.084 1.991 0.199 51.927 o
4 10 8 18.333 18.757 0.289 7.472 o
4 10 9 24.021 24.253 0.339 4.967 o
4 10 10 1.653 1.473 0.229 44.798 o
4 10 11 1.950 1.722 0.279 31.335 o
4 10 12 6.071 6.053 0.309 18.605 o
4 10 13 0.155 0.110 0.100 265.698 o
4 10 14 4.384 4.271 0.348 17.990 o
4 10 15 9.628 10.324 0.418 9.888 o
4 10 16 1.386 1.205 0.448 13.704 o
4 11 0 0.002 0.139 0.329 26.642 o
4 11 1 18.335 18.448 0.269 7.747 o
4 11 2 22.063 22.082 0.289 5.926 o
4 11 3 19.771 19.792 0.279 6.945 o
4 11 4 11.142 11.190 0.249 14.292 o
4 11 5 16.189 16.109 0.279 8.934 o
4 11 6 11.578 11.648 0.259 13.408 o
4 11 7 41.843 42.940 0.408 2.082 o
4 11 8 6.290 6.481 0.269 21.233 o
4 11 9 2.879 2.738 0.249 33.916 o
4 11 10 5.145 5.476 0.279 22.665 o
4 11 11 2.076 2.031 0.299 27.424 o
4 11 12 0.331 0.309 0.249 44.953 o
4 11 13 4.909 5.038 0.339 17.973 o
4 11 14 3.527 3.644 0.358 18.150 o
4 11 15 1.467 1.294 0.418 15.567 o
4 12 0 22.155 21.853 0.408 5.065 o
4 12 1 2.576 2.290 0.199 48.548 o
4 12 2 27.817 27.707 0.339 4.087 o
4 12 3 10.684 10.643 0.249 14.948 o
4 12 4 0.731 0.577 0.179 78.191 o
4 12 5 2.036 1.951 0.229 42.458 o
4 12 6 7.160 6.939 0.259 20.507 o
4 12 7 16.212 16.656 0.329 8.062 o
4 12 8 9.326 9.826 0.309 14.007 o
4 12 9 0.983 0.787 0.189 68.125 o
4 12 10 5.662 5.545 0.299 20.126 o
4 12 11 4.843 4.849 0.388 14.762 o
4 12 12 3.068 2.549 0.339 20.858 o
4 12 13 8.357 8.920 0.388 11.719 o
4 12 14 2.919 2.529 0.418 14.603 o
4 13 0 6.820 6.929 0.348 15.035 o
4 13 1 16.030 16.238 0.289 8.820 o
4 13 2 13.987 14.247 0.289 10.251 o
4 13 3 9.523 9.289 0.279 15.376 o
4 13 4 3.095 2.788 0.259 31.468 o
4 13 5 0.869 0.777 0.249 42.475 o
4 13 6 35.694 37.464 0.438 2.561 o
4 13 7 1.227 1.384 0.239 43.388 o
4 13 8 13.340 13.570 0.329 9.876 o
4 13 9 17.880 18.757 0.388 6.473 o
4 13 10 0.432 0.279 0.149 115.757 o
4 13 11 1.411 1.274 0.309 27.383 o
4 13 12 1.755 1.384 0.339 22.738 o
4 13 13 2.185 2.180 0.368 18.882 o
4 14 0 1.085 1.065 0.329 24.921 o
4 14 1 16.303 16.587 0.309 8.336 o
4 14 2 13.768 14.167 0.299 10.174 o
4 14 3 13.600 13.182 0.319 10.067 o
4 14 4 3.396 3.256 0.269 28.706 o
4 14 5 0.268 0.219 0.139 136.461 o
4 14 6 4.151 4.132 0.279 25.220 o
4 14 7 1.575 1.394 0.289 30.471 o
4 14 8 5.990 6.073 0.309 18.680 o
4 14 9 0.652 0.577 0.279 35.133 o
4 14 10 0.675 0.428 0.209 60.283 o
4 14 11 6.526 6.660 0.388 13.276 o
4 14 12 1.277 0.986 0.358 21.045 o
4 15 0 17.445 17.492 0.478 5.710 o
4 15 1 4.526 4.351 0.279 24.448 o
4 15 2 9.654 9.747 0.289 14.622 o
4 15 3 1.300 1.334 0.269 35.218 o
4 15 4 0.132 0.319 0.229 53.664 o
4 15 5 3.576 3.435 0.309 23.015 o
4 15 6 6.467 7.019 0.378 13.688 o
4 15 7 0.184 0.060 0.060 636.572 o
4 15 8 3.915 3.753 0.368 17.040 o
4 15 9 0.835 0.587 0.368 20.455 o
4 15 10 3.047 2.798 0.418 14.478 o
4 15 11 1.954 1.832 1.404 1.453 o
4 16 0 0.126 0.259 0.408 17.192 o
4 16 1 8.165 8.821 0.378 12.223 o
4 16 2 10.637 10.941 0.368 10.765 o
4 16 3 0.227 0.110 0.169 96.411 o
4 16 4 0.066 0.139 0.139 143.973 o
4 16 5 3.358 3.275 0.348 19.300 o
4 16 6 18.194 19.872 0.478 5.357 o
4 16 7 2.467 2.141 0.358 19.608 o
4 16 8 2.712 2.489 0.358 19.268 o
4 16 9 9.948 10.693 0.747 4.240 o
4 17 0 0.297 0.239 0.448 14.236 o
4 17 1 5.233 4.898 0.388 14.517 o
4 17 2 0.860 0.617 0.348 22.724 o
4 17 3 0.331 0.159 0.259 41.882 o
4 17 4 1.656 1.394 0.348 21.659 o
4 17 5 0.583 0.528 0.408 16.912 o
4 17 6 2.847 2.668 0.418 14.604 o
4 18 0 0.029 0.020 0.458 13.741 o
4 18 1 4.687 4.938 0.677 5.745 o
4 18 2 4.891 5.336 1.354 1.534 o
5 0 1 249.769 258.843 1.274 0.078 o
5 0 2 36.521 35.433 0.498 2.451 o
5 0 3 126.562 126.559 0.757 0.293 o
5 0 4 44.422 44.373 0.518 1.801 o
5 0 5 27.924 28.544 0.438 3.625 o
5 0 6 59.780 62.602 0.458 1.129 o
5 0 7 24.559 24.561 0.309 5.005 o
5 0 8 8.991 9.020 0.219 19.155 o
5 0 9 82.484 82.773 0.567 0.647 o
5 0 10 2.799 2.569 0.229 38.729 o
5 0 11 0.165 0.139 0.149 123.476 o
5 0 12 2.426 2.071 0.299 26.860 o
5 0 13 31.046 31.749 0.577 2.730 o
5 0 14 15.045 15.242 0.597 4.993 o
5 0 15 0.712 0.657 0.348 22.837 o
5 0 16 0.734 0.129 0.090 246.005 o
5 0 17 1.227 1.155 0.438 14.373 o
5 0 18 11.605 12.186 0.558 6.234 o
5 0 19 4.909 4.868 0.558 8.100 o
5 1 0 102.701 104.109 0.796 0.417 o
5 1 1 81.371 80.244 0.518 0.677 o
5 1 2 47.306 47.499 0.398 1.743 o
5 1 3 146.562 147.566 0.567 0.228 o
5 1 4 78.972 76.810 0.438 0.733 o
5 1 5 47.374 47.718 0.398 1.736 o
5 1 6 37.302 38.231 0.269 2.703 o
5 1 7 16.020 15.919 0.179 10.561 o
5 1 8 45.103 46.165 0.259 1.979 o
5 1 9 34.625 34.318 0.259 3.121 o
5 1 10 26.044 25.945 0.259 4.837 o
5 1 11 13.447 13.411 0.239 11.939 o
5 1 12 9.419 9.139 0.249 16.981 o
5 1 13 6.273 6.372 0.289 19.715 o
5 1 14 5.593 5.287 0.279 22.160 o
5 1 15 1.226 1.145 0.319 26.163 o
5 1 16 2.011 2.091 0.309 25.981 o
5 1 17 4.828 4.829 0.319 19.764 o
5 1 18 3.480 3.435 0.329 21.000 o
5 1 19 2.307 2.290 0.488 11.262 o
5 2 0 4.031 3.564 0.269 27.214 o
5 2 1 22.118 22.291 0.269 6.024 o
5 2 2 56.606 57.545 0.458 1.258 o
5 2 3 51.433 51.273 0.368 1.545 o
5 2 4 32.430 32.675 0.319 3.299 o
5 2 5 86.096 88.866 0.518 0.597 o
5 2 6 6.291 6.292 0.149 33.914 o
5 2 7 3.834 3.524 0.129 58.941 o
5 2 8 6.451 6.531 0.149 32.948 o
5 2 9 101.851 102.426 0.428 0.455 o
5 2 10 23.377 23.257 0.259 5.666 o
5 2 11 4.568 4.401 0.189 37.673 o
5 2 12 5.042 4.829 0.229 29.265 o
5 2 13 0.711 0.518 0.239 46.807 o
5 2 14 10.173 9.637 0.319 13.072 o
5 2 15 2.891 2.768 0.299 25.645 o
5 2 16 3.038 2.947 0.368 17.971 o
5 2 17 4.312 3.992 0.358 17.398 o
5 2 18 1.831 1.643 0.378 18.424 o
5 2 19 0.306 0.050 0.159 107.336 o
5 3 0 55.210 55.633 0.518 1.283 o
5 3 1 141.450 142.966 0.597 0.242 o
5 3 2 48.815 48.545 0.478 1.600 o
5 3 3 347.562 352.836 1.025 0.043 o
5 3 4 32.465 32.187 0.299 3.368 o
5 3 5 34.647 34.228 0.259 3.123 o
5 3 6 8.345 8.124 0.139 26.092 o
5 3 7 2.328 2.190 0.119 89.517 o
5 3 8 61.852 62.204 0.309 1.141 o
5 3 9 24.850 24.591 0.259 5.200 o
5 3 10 7.719 7.337 0.209 23.143 o
5 3 11 69.722 70.806 0.458 0.884 o
5 3 12 19.161 19.434 0.319 6.790 o
5 3 13 5.359 5.346 0.269 23.445 o
5 3 14 5.575 5.346 0.289 21.222 o
5 3 15 15.852 16.228 0.378 7.513 o
5 3 16 14.162 14.755 0.438 7.282 o
5 3 17 5.582 5.516 0.378 14.683 o
5 3 18 0.002 0.129 0.358 22.401 o
5 3 19 1.045 0.806 0.856 3.898 o
5 4 0 168.612 171.769 0.956 0.168 o
5 4 1 69.172 69.850 0.448 0.902 o
5 4 2 42.232 40.461 0.408 2.126 o
5 4 3 9.559 9.428 0.229 17.643 o
5 4 4 17.174 17.283 0.199 9.299 o
5 4 5 13.634 12.982 0.149 13.973 o
5 4 6 73.445 75.067 0.299 0.833 o
5 4 7 6.914 6.680 0.139 32.203 o
5 4 8 20.944 20.230 0.219 7.009 o
5 4 9 2.835 2.579 0.169 56.619 o
5 4 10 11.542 11.300 0.229 14.572 o
5 4 11 5.348 5.257 0.209 30.677 o
5 4 12 16.637 16.656 0.299 8.340 o
5 4 13 2.449 2.131 0.249 35.853 o
5 4 14 0.117 0.169 0.070 500.541 o
5 4 15 5.242 5.287 0.339 17.571 o
5 4 16 6.588 6.790 0.378 13.684 o
5 4 17 0.986 0.836 0.339 23.782 o
5 4 18 2.391 2.340 0.339 21.627 o
5 5 0 18.523 18.249 0.378 6.486 o
5 5 1 28.300 29.310 0.329 3.950 o
5 5 2 33.076 34.069 0.299 3.208 o
5 5 3 75.672 76.431 0.378 0.783 o
5 5 4 9.702 9.906 0.149 20.957 o
5 5 5 11.957 11.967 0.149 16.271 o
5 5 6 76.024 76.142 0.309 0.791 o
5 5 7 21.310 21.664 0.199 6.802 o
5 5 8 54.882 55.215 0.329 1.396 o
5 5 9 12.273 12.166 0.229 13.556 o
5 5 10 16.891 16.457 0.269 8.703 o
5 5 11 32.892 33.372 0.348 3.147 o
5 5 12 9.317 9.418 0.279 15.505 o
5 5 13 2.444 2.260 0.239 37.973 o
5 5 14 2.453 2.340 0.269 31.549 o
5 5 15 6.744 6.919 0.299 18.154 o
5 5 16 9.550 9.816 0.418 10.016 o
5 5 17 0.720 0.418 0.159 97.107 o
5 5 18 0.216 -0.010 0.119 189.231 o
5 6 0 0.100 0.070 0.080 415.094 o
5 6 1 11.324 11.091 0.179 16.615 o
5 6 2 157.368 155.919 0.448 0.203 o
5 6 3 31.488 31.759 0.229 3.662 o
5 6 4 6.789 6.601 0.139 32.757 o
5 6 5 72.608 72.957 0.319 0.856 o
5 6 6 27.880 27.309 0.229 4.504 o
5 6 7 29.041 28.524 0.249 4.163 o
5 6 8 2.498 2.459 0.159 63.839 o
5 6 9 16.231 15.949 0.249 9.411 o
5 6 10 38.002 38.440 0.348 2.527 o
5 6 11 9.304 9.120 0.259 16.620 o
5 6 12 16.817 16.985 0.309 8.068 o
5 6 13 1.659 1.473 0.249 39.013 o
5 6 14 2.863 2.768 0.279 28.616 o
5 6 15 7.913 8.672 0.368 12.808 o
5 6 16 6.175 6.880 0.408 12.489 o
5 6 17 3.647 3.614 0.378 16.547 o
5 6 18 4.292 4.789 0.607 7.052 o
5 7 0 1.224 1.006 0.169 77.931 o
5 7 1 27.933 28.334 0.219 4.441 o
5 7 2 8.784 8.194 0.159 23.760 o
5 7 3 26.815 27.548 0.229 4.667 o
5 7 4 41.982 42.352 0.289 2.224 o
5 7 5 5.090 4.898 0.159 39.974 o
5 7 6 10.706 9.906 0.199 17.318 o
5 7 7 19.740 19.991 0.239 7.284 o
5 7 8 22.053 22.152 0.259 6.126 o
5 7 9 3.128 2.927 0.189 47.197 o
5 7 10 2.677 2.399 0.209 44.754 o
5 7 11 2.076 1.762 0.229 42.657 o
5 7 12 1.113 0.936 0.249 41.468 o
5 7 13 1.254 1.085 0.249 40.803 o
5 7 14 1.257 0.996 0.309 27.795 o
5 7 15 0.861 0.796 0.299 30.306 o
5 7 16 1.447 1.205 0.339 23.136 o
5 7 17 0.733 0.577 0.358 21.647 o
5 8 0 0.467 0.528 0.179 81.280 o
5 8 1 69.262 68.457 0.348 0.935 o
5 8 2 41.346 41.257 0.289 2.295 o
5 8 3 16.553 16.178 0.209 9.771 o
5 8 4 21.334 21.087 0.239 6.610 o
5 8 5 20.070 19.484 0.259 7.082 o
5 8 6 9.286 8.901 0.209 19.376 o
5 8 7 16.535 16.905 0.259 8.902 o
5 8 8 4.778 5.058 0.209 32.533 o
5 8 9 34.571 34.846 0.348 2.930 o
5 8 10 11.605 11.569 0.279 12.781 o
5 8 11 1.913 1.862 0.229 43.077 o
5 8 12 2.271 2.260 0.249 36.160 o
5 8 13 22.251 22.460 0.378 5.206 o
5 8 14 4.666 4.610 0.348 17.614 o
5 8 15 12.404 13.201 0.438 7.995 o
5 8 16 0.783 0.587 0.348 22.806 o
5 8 17 2.106 2.121 0.558 8.814 o
5 9 0 42.883 43.209 0.418 2.012 o
5 9 1 9.530 9.159 0.189 19.889 o
5 9 2 14.977 14.685 0.219 10.941 o
5 9 3 37.759 37.613 0.329 2.604 o
5 9 4 23.841 23.924 0.279 5.376 o
5 9 5 17.739 17.751 0.259 8.220 o
5 9 6 21.265 21.355 0.309 6.062 o
5 9 7 8.663 8.363 0.229 19.479 o
5 9 8 27.567 28.593 0.329 4.099 o
5 9 9 22.139 22.082 0.319 5.696 o
5 9 10 7.843 7.905 0.269 18.349 o
5 9 11 7.057 6.750 0.289 18.590 o
5 9 12 7.124 7.337 0.309 16.922 o
5 9 13 2.502 2.409 0.309 25.096 o
5 9 14 4.165 4.092 0.348 18.252 o
5 9 15 0.625 0.508 0.209 60.346 o
5 9 16 0.366 0.040 0.040 864.627 o
5 10 0 8.893 8.363 0.289 15.899 o
5 10 1 6.357 6.083 0.199 28.262 o
5 10 2 20.128 19.991 0.269 6.896 o
5 10 3 6.268 6.153 0.219 26.244 o
5 10 4 33.158 33.541 0.368 3.067 o
5 10 5 12.244 12.256 0.259 12.676 o
5 10 6 5.980 6.083 0.229 25.858 o
5 10 7 0.742 0.647 0.209 59.213 o
5 10 8 8.138 7.975 0.249 19.204 o
5 10 9 27.537 28.305 0.358 4.005 o
5 10 10 2.233 1.912 0.249 36.746 o
5 10 11 0.133 0.169 0.159 109.443 o
5 10 12 13.376 15.103 0.388 8.333 o
5 10 13 1.624 1.543 0.358 20.537 o
5 10 14 2.815 2.808 0.388 16.608 o
5 10 15 0.484 0.498 0.448 14.132 o
5 11 0 88.204 90.569 0.677 0.553 o
5 11 1 17.493 17.024 0.269 8.338 o
5 11 2 23.470 23.605 0.309 5.313 o
5 11 3 4.796 4.420 0.229 30.350 o
5 11 4 11.515 11.618 0.269 13.146 o
5 11 5 8.831 8.622 0.269 16.865 o
5 11 6 8.059 7.706 0.269 18.214 o
5 11 7 9.425 9.498 0.269 15.830 o
5 11 8 10.195 10.334 0.289 13.948 o
5 11 9 2.129 1.892 0.249 37.065 o
5 11 10 1.522 1.473 0.269 34.548 o
5 11 11 0.806 0.727 0.309 28.624 o
5 11 12 10.723 11.290 0.438 8.814 o
5 11 13 3.656 3.724 0.358 18.017 o
5 11 14 13.470 14.426 0.478 6.863 o
5 11 15 5.947 6.272 0.458 10.707 o
5 12 0 1.606 1.175 0.299 28.821 o
5 12 1 4.121 3.733 0.209 36.651 o
5 12 2 19.085 19.543 0.309 6.897 o
5 12 3 4.429 4.311 0.229 31.413 o
5 12 4 5.885 5.705 0.259 23.323 o
5 12 5 8.137 8.224 0.279 17.250 o
5 12 6 43.745 45.926 0.518 1.797 o
5 12 7 4.267 4.510 0.259 27.230 o
5 12 8 5.671 5.914 0.279 21.614 o
5 12 9 8.892 9.627 0.339 13.147 o
5 12 10 2.078 2.379 0.309 25.691 o
5 12 11 2.350 2.200 0.329 22.882 o
5 12 12 3.554 3.246 0.329 21.022 o
5 12 13 1.077 0.986 0.378 19.142 o
5 12 14 0.552 0.169 0.080 311.227 o
5 13 0 1.277 0.936 0.329 24.778 o
5 13 1 3.623 3.345 0.239 33.087 o
5 13 2 0.921 0.577 0.149 102.954 o
5 13 3 6.337 6.043 0.259 22.348 o
5 13 4 9.491 9.528 0.309 13.995 o
5 13 5 10.318 10.255 0.329 12.414 o
5 13 6 3.835 3.554 0.299 23.738 o
5 13 7 5.974 6.043 0.299 19.476 o
5 13 8 2.029 1.872 0.279 31.035 o
5 13 9 6.080 6.521 0.319 17.652 o
5 13 10 8.663 8.542 0.368 12.418 o
5 13 11 0.173 0.110 0.169 97.219 o
5 13 12 2.198 2.121 0.358 19.835 o
5 13 13 1.887 1.912 0.627 7.071 o
5 14 0 1.667 1.334 0.378 18.636 o
5 14 1 2.018 1.633 0.259 35.402 o
5 14 2 19.916 20.808 0.358 6.032 o
5 14 3 10.170 10.384 0.329 12.466 o
5 14 4 3.966 4.162 0.289 24.284 o
5 14 5 6.566 6.332 0.309 17.956 o
5 14 6 8.112 8.403 0.378 12.364 o
5 14 7 4.316 3.903 0.319 20.821 o
5 14 8 0.079 0.110 0.090 334.294 o
5 14 9 3.399 3.146 0.358 18.450 o
5 14 10 3.819 3.365 0.398 15.172 o
5 14 11 2.615 2.479 0.418 14.758 o
5 15 0 28.562 30.993 0.717 2.479 o
5 15 1 1.530 1.264 0.299 28.871 o
5 15 2 2.798 2.509 0.319 23.385 o
5 15 3 1.665 1.613 0.319 25.322 o
5 15 4 1.269 1.145 0.299 29.378 o
5 15 5 10.117 10.215 0.378 10.886 o
5 15 6 6.161 6.481 0.348 15.688 o
5 15 7 5.755 6.143 0.378 14.382 o
5 15 8 7.019 7.019 0.388 12.908 o
5 15 9 0.400 0.478 0.418 16.224 o
5 15 10 0.415 0.040 0.119 177.497 o
5 16 0 1.917 1.513 0.478 11.922 o
5 16 1 2.226 1.852 0.319 24.480 o
5 16 2 5.357 5.137 0.339 17.536 o
5 16 3 1.475 1.195 0.378 18.810 o
5 16 4 0.192 0.199 0.189 77.750 o
5 16 5 0.546 0.239 0.070 364.311 o
5 16 6 0.066 0.169 0.189 79.118 o
5 16 7 2.408 2.280 0.368 18.681 o
5 16 8 0.400 0.468 0.398 17.860 o
5 17 0 13.664 13.978 0.647 4.726 o
5 17 1 0.827 0.587 0.339 24.065 o
5 17 2 1.232 1.095 0.488 11.695 o
5 17 3 8.137 7.915 0.458 9.690 o
5 17 4 2.699 2.409 0.418 14.735 o
5 17 5 3.717 4.191 0.548 8.647 o
6 0 0 26.703 27.150 0.677 2.837 o
6 0 1 38.971 38.748 0.548 2.129 o
6 0 2 67.457 68.178 0.816 0.817 o
6 0 3 6.687 7.606 0.339 15.431 o
6 0 4 8.522 8.094 0.239 19.245 o
6 0 5 88.449 92.032 0.567 0.560 o
6 0 6 4.979 4.470 0.189 36.054 o
6 0 7 0.423 0.309 0.110 197.068 o
6 0 8 20.142 19.782 0.319 6.469 o
6 0 9 20.393 20.041 0.329 6.279 o
6 0 10 3.113 2.847 0.239 35.150 o
6 0 11 0.414 0.110 0.110 204.150 o
6 0 12 0.991 0.876 0.319 26.626 o
6 0 13 7.886 7.885 0.388 12.220 o
6 0 14 0.199 0.159 0.239 49.431 o
6 0 15 0.730 0.597 0.438 14.662 o
6 0 16 1.547 1.414 0.587 8.097 o
6 0 17 0.028 0.159 0.438 14.993 o
6 0 18 3.015 3.275 0.528 9.483 o
6 1 0 105.489 108.549 0.866 0.388 o
6 1 1 132.959 136.117 0.687 0.267 o
6 1 2 2.388 2.330 0.199 49.406 o
6 1 3 14.561 14.297 0.279 10.143 o
6 1 4 33.202 33.591 0.269 3.282 o
6 1 5 2.165 2.031 0.119 93.749 o
6 1 6 60.844 61.099 0.319 1.172 o
6 1 7 61.425 62.583 0.309 1.146 o
6 1 8 20.017 19.553 0.219 7.436 o
6 1 9 18.899 19.165 0.239 7.726 o
6 1 10 30.609 30.206 0.289 3.721 o
6 1 11 7.979 7.815 0.229 20.858 o
6 1 12 9.202 8.980 0.259 16.801 o
6 1 13 6.816 6.601 0.279 19.678 o
6 1 14 16.404 16.706 0.378 7.276 o
6 1 15 1.716 1.573 0.378 18.524 o
6 1 16 0.685 0.498 0.219 55.123 o
6 1 17 5.391 5.685 0.358 15.946 o
6 1 18 11.524 12.196 0.448 8.203 o
6 2 0 143.384 144.918 1.115 0.220 o
6 2 1 36.749 37.265 0.398 2.571 o
6 2 2 3.760 3.594 0.209 38.142 o
6 2 3 102.190 102.545 0.548 0.445 o
6 2 4 31.720 33.322 0.259 3.478 o
6 2 5 35.458 35.463 0.229 3.035 o
6 2 6 0.664 0.577 0.119 154.085 o
6 2 7 93.874 95.109 0.368 0.530 o
6 2 8 33.523 34.029 0.249 3.264 o
6 2 9 7.271 6.909 0.169 27.950 o
6 2 10 46.559 47.131 0.368 1.806 o
6 2 11 21.680 21.793 0.309 5.909 o
6 2 12 9.560 9.498 0.299 14.375 o
6 2 13 0.980 0.916 0.269 36.450 o
6 2 14 8.900 9.070 0.348 12.916 o
6 2 15 6.361 5.983 0.339 16.334 o
6 2 16 0.509 0.438 0.329 25.915 o
6 2 17 3.453 3.285 0.339 20.129 o
6 2 18 1.223 1.095 0.388 18.100 o
6 3 0 47.097 47.838 0.617 1.538 o
6 3 1 76.521 77.128 0.587 0.730 o
6 3 2 75.890 76.979 0.478 0.760 o
6 3 3 5.207 5.267 0.159 38.673 o
6 3 4 9.703 9.866 0.159 20.531 o
6 3 5 23.226 23.267 0.199 6.026 o
6 3 6 15.591 14.974 0.169 11.280 o
6 3 7 27.718 28.344 0.229 4.445 o
6 3 8 12.005 11.997 0.189 15.057 o
6 3 9 4.911 4.769 0.179 37.475 o
6 3 10 25.158 25.188 0.309 4.837 o
6 3 11 5.705 5.227 0.239 26.167 o
6 3 12 2.497 2.240 0.229 40.304 o
6 3 13 5.058 4.988 0.269 24.209 o
6 3 14 5.058 4.789 0.299 21.317 o
6 3 15 2.113 1.981 0.319 24.540 o
6 3 16 2.676 2.668 0.358 19.225 o
6 3 17 2.229 2.061 0.339 21.926 o
6 3 18 1.268 1.006 0.368 19.989 o
6 4 0 65.173 65.569 0.498 0.985 o
6 4 1 132.807 135.061 0.508 0.274 o
6 4 2 67.641 69.213 0.339 0.957 o
6 4 3 55.270 55.633 0.299 1.392 o
6 4 4 17.376 16.915 0.169 9.631 o
6 4 5 40.298 40.769 0.229 2.438 o
6 4 6 29.717 29.977 0.209 4.064 o
6 4 7 63.398 63.100 0.319 1.096 o
6 4 8 8.940 8.502 0.179 21.949 o
6 4 9 2.409 2.160 0.169 61.376 o
6 4 10 4.795 4.819 0.199 34.422 o
6 4 11 49.859 50.885 0.428 1.564 o
6 4 12 12.396 12.096 0.289 11.780 o
6 4 13 7.019 6.949 0.299 17.851 o
6 4 14 15.655 16.258 0.378 7.569 o
6 4 15 15.575 16.298 0.458 6.456 o
6 4 16 7.570 7.736 0.368 13.286 o
6 4 17 1.115 1.085 0.368 20.072 o
6 4 18 2.022 1.902 0.418 15.171 o
6 5 0 17.448 16.925 0.269 8.376 o
6 5 1 52.434 51.721 0.289 1.547 o
6 5 2 16.398 16.686 0.189 9.986 o
6 5 3 4.987 5.107 0.139 43.554 o
6 5 4 16.542 16.208 0.169 10.295 o
6 5 5 12.174 12.057 0.159 15.700 o
6 5 6 16.511 16.537 0.179 10.093 o
6 5 7 71.791 72.120 0.348 0.869 o
6 5 8 11.529 11.449 0.199 15.514 o
6 5 9 0.843 0.717 0.189 69.576 o
6 5 10 12.736 12.574 0.259 12.214 o
6 5 11 17.581 18.518 0.309 7.532 o
6 5 12 0.866 0.717 0.189 69.384 o
6 5 13 1.204 0.996 0.229 47.539 o
6 5 14 4.269 4.231 0.299 22.693 o
6 5 15 0.626 0.478 0.259 40.611 o
6 5 16 0.160 0.219 0.269 39.257 o
6 5 17 4.562 4.639 0.428 12.824 o
6 5 18 3.270 3.106 0.647 6.472 o
6 6 0 2.397 2.469 0.189 52.444 o
6 6 1 18.877 18.378 0.209 8.180 o
6 6 2 30.204 30.196 0.239 3.907 o
6 6 3 36.934 37.096 0.249 2.805 o
6 6 4 2.151 2.150 0.129 86.055 o
6 6 5 22.522 22.948 0.219 6.147 o
6 6 6 29.509 29.748 0.249 4.007 o
6 6 7 47.668 47.489 0.329 1.783 o
6 6 8 9.723 9.478 0.209 18.387 o
6 6 9 4.294 4.152 0.209 35.391 o
6 6 10 12.405 12.973 0.289 11.504 o
6 6 11 24.540 25.129 0.339 4.796 o
6 6 12 0.324 0.368 0.209 62.660 o
6 6 13 1.025 0.916 0.259 38.922 o
6 6 14 0.334 0.100 0.040 867.207 o
6 6 15 4.615 4.719 0.368 16.199 o
6 6 16 1.528 1.354 0.339 22.980 o
6 6 17 0.988 0.826 0.438 14.525 o
6 7 0 47.895 47.380 0.428 1.697 o
6 7 1 19.727 18.777 0.209 7.769 o
6 7 2 21.571 21.385 0.229 6.567 o
6 7 3 14.728 14.685 0.209 11.281 o
6 7 4 14.461 14.197 0.209 11.622 o
6 7 5 11.697 11.927 0.209 14.783 o
6 7 6 19.164 18.598 0.249 7.634 o
6 7 7 19.657 19.374 0.259 7.234 o
6 7 8 3.567 3.435 0.199 41.410 o
6 7 9 3.299 3.186 0.209 40.600 o
6 7 10 20.244 20.658 0.319 6.327 o
6 7 11 4.214 4.142 0.249 29.102 o
6 7 12 10.717 11.091 0.329 11.917 o
6 7 13 1.104 0.906 0.269 36.171 o
6 7 14 7.613 7.975 0.358 13.640 o
6 7 15 3.760 3.524 0.348 18.841 o
6 7 16 0.026 0.030 0.050 1083.670 o
6 7 17 5.803 6.422 0.558 7.798 o
6 8 0 25.989 26.413 0.368 4.311 o
6 8 1 18.549 18.528 0.239 7.978 o
6 8 2 45.287 45.638 0.309 1.946 o
6 8 3 22.194 22.241 0.249 6.143 o
6 8 4 36.718 37.394 0.329 2.690 o
6 8 5 10.338 10.474 0.229 16.173 o
6 8 6 5.449 5.436 0.199 31.512 o
6 8 7 6.458 6.113 0.219 25.890 o
6 8 8 38.727 40.242 0.368 2.390 o
6 8 9 10.541 10.075 0.279 14.162 o
6 8 10 1.022 0.916 0.239 44.942 o
6 8 11 7.242 7.298 0.279 18.750 o
6 8 12 1.925 1.593 0.259 35.685 o
6 8 13 0.692 0.617 0.269 37.490 o
6 8 14 6.713 6.959 0.358 14.565 o
6 8 15 1.839 1.553 0.329 23.806 o
6 8 16 2.453 2.180 0.438 13.697 o
6 9 0 7.719 7.636 0.289 17.403 o
6 9 1 1.596 1.284 0.179 66.720 o
6 9 2 2.200 2.001 0.179 59.191 o
6 9 3 10.817 10.593 0.209 16.387 o
6 9 4 8.914 8.423 0.219 19.679 o
6 9 5 9.885 10.245 0.249 15.911 o
6 9 6 15.014 14.784 0.259 10.158 o
6 9 7 2.096 1.991 0.199 51.859 o
6 9 8 5.300 5.496 0.239 26.710 o
6 9 9 1.884 1.812 0.229 43.277 o
6 9 10 6.573 6.083 0.269 21.118 o
6 9 11 20.218 21.146 0.408 5.493 o
6 9 12 1.915 2.111 0.299 27.610 o
6 9 13 0.644 0.408 0.219 55.566 o
6 9 14 9.966 10.683 0.448 8.916 o
6 9 15 1.248 0.856 0.408 16.508 o
6 9 16 0.073 0.000 0.090 345.168 o
6 10 0 89.607 91.046 0.777 0.527 o
6 10 1 14.082 14.307 0.269 10.602 o
6 10 2 8.250 8.333 0.229 20.079 o
6 10 3 23.615 23.386 0.329 5.185 o
6 10 4 45.231 45.249 0.408 1.867 o
6 10 5 18.417 18.717 0.329 7.005 o
6 10 6 10.862 10.782 0.279 13.626 o
6 10 7 8.010 7.945 0.259 18.752 o
6 10 8 22.627 23.794 0.339 5.276 o
6 10 9 3.790 3.853 0.249 30.367 o
6 10 10 9.419 9.597 0.299 14.447 o
6 10 11 9.856 10.344 0.358 11.629 o
6 10 12 8.588 8.582 0.339 13.697 o
6 10 13 5.299 5.406 0.398 13.793 o
6 10 14 6.410 6.850 0.428 11.557 o
6 10 15 1.495 1.354 0.408 16.262 o
6 11 0 1.993 1.722 0.309 26.260 o
6 11 1 20.802 20.469 0.329 6.123 o
6 11 2 2.800 2.549 0.229 38.759 o
6 11 3 8.185 8.373 0.269 17.695 o
6 11 4 10.074 10.603 0.309 13.180 o
6 11 5 10.587 10.195 0.309 12.966 o
6 11 6 2.812 2.668 0.239 36.265 o
6 11 7 5.783 6.143 0.269 22.199 o
6 11 8 3.455 3.534 0.249 31.515 o
6 11 9 0.351 0.149 0.060 524.095 o
6 11 10 4.524 4.649 0.299 22.085 o
6 11 11 1.303 1.155 0.299 29.316 o
6 11 12 0.002 0.319 0.329 26.544 o
6 11 13 6.308 6.481 0.428 11.677 o
6 11 14 0.030 0.010 0.040 1654.500 o
6 12 0 23.609 23.615 0.498 4.130 o
6 12 1 3.079 2.708 0.259 31.593 o
6 12 2 6.054 5.964 0.279 21.062 o
6 12 3 6.764 6.392 0.259 21.453 o
6 12 4 3.634 3.395 0.259 29.632 o
6 12 5 12.462 13.052 0.329 10.428 o
6 12 6 14.318 14.993 0.348 8.750 o
6 12 7 0.920 0.836 0.269 36.687 o
6 12 8 16.152 16.318 0.348 7.846 o
6 12 9 3.079 2.758 0.299 25.378 o
6 12 10 1.990 1.663 0.348 21.237 o
6 12 11 7.273 7.785 0.358 13.920 o
6 12 12 4.577 4.410 0.358 17.032 o
6 12 13 1.849 1.792 0.448 13.436 o
6 13 0 0.440 0.119 0.199 68.795 o
6 13 1 4.132 3.972 0.279 25.381 o
6 13 2 0.963 0.577 0.179 75.819 o
6 13 3 3.892 3.594 0.269 27.444 o
6 13 4 35.646 38.937 0.478 2.437 o
6 13 5 3.151 3.086 0.289 26.372 o
6 13 6 0.226 0.368 0.199 69.488 o
6 13 7 8.499 8.423 0.368 12.544 o
6 13 8 4.109 4.231 0.319 20.869 o
6 13 9 2.197 2.260 0.329 23.018 o
6 13 10 3.428 3.256 0.388 16.096 o
6 13 11 2.088 2.071 0.428 14.463 o
6 13 12 0.942 0.767 0.428 15.215 o
6 14 0 3.272 3.345 0.418 14.242 o
6 14 1 0.105 0.010 0.030 2087.150 o
6 14 2 2.966 2.818 0.279 28.384 o
6 14 3 6.544 6.352 0.329 16.652 o
6 14 4 4.625 4.898 0.329 19.093 o
6 14 5 0.911 0.687 0.319 26.846 o
6 14 6 3.886 3.873 0.339 19.439 o
6 14 7 2.658 2.529 0.309 24.806 o
6 14 8 5.596 5.545 0.358 15.847 o
6 14 9 3.024 2.728 0.368 18.062 o
6 14 10 0.409 0.169 0.189 75.838 o
6 14 11 1.501 1.244 0.757 4.947 o
6 15 0 5.780 5.486 0.488 9.850 o
6 15 1 5.245 5.406 0.348 16.818 o
6 15 2 4.838 4.560 0.348 17.492 o
6 15 3 6.737 6.959 0.368 14.036 o
6 15 4 4.519 4.779 0.368 16.245 o
6 15 5 0.790 0.777 0.329 25.413 o
6 15 6 2.228 2.021 0.348 20.862 o
6 15 7 1.558 1.483 0.339 22.885 o
6 15 8 0.175 0.090 0.339 24.958 o
6 15 9 0.021 0.100 0.169 99.597 o
6 16 0 6.451 6.412 0.627 6.296 o
6 16 1 4.825 4.500 0.378 15.485 o
6 16 2 0.909 0.637 0.319 26.880 o
6 16 3 0.415 0.309 0.219 57.024 o
6 16 4 15.075 16.348 0.468 6.429 o
6 16 5 0.748 0.627 0.388 18.520 o
6 16 6 0.934 0.707 0.458 13.363 o
6 16 7 3.073 3.066 0.558 8.578 o
6 17 0 0.020 -0.040 0.219 60.011 o
6 17 1 0.026 0.010 0.010 12236.900 o
6 17 2 2.111 2.001 0.488 11.352 o
6 17 3 3.047 3.275 0.538 9.157 o
7 0 1 77.390 80.025 0.587 0.705 o
7 0 2 78.626 77.576 0.528 0.717 o
7 0 3 12.882 13.421 0.239 12.332 o
7 0 4 0.069 0.070 0.060 715.551 o
7 0 5 22.167 22.182 0.329 5.608 o
7 0 6 10.821 10.633 0.259 14.451 o
7 0 7 2.759 2.668 0.229 38.699 o
7 0 8 95.343 96.861 0.657 0.489 o
7 0 9 8.025 7.596 0.269 18.317 o
7 0 10 1.691 1.404 0.259 36.523 o
7 0 11 8.307 8.104 0.319 15.013 o
7 0 12 0.002 -0.010 0.119 201.950 o
7 0 13 0.855 0.548 0.309 28.681 o
7 0 14 5.910 5.884 0.508 9.143 o
7 0 15 6.665 6.670 0.518 8.589 o
7 0 16 17.140 19.942 1.045 2.082 o
7 0 17 9.062 9.986 0.757 4.235 o
7 0 18 0.038 0.110 2.718 0.390 o
7 1 0 12.288 11.857 0.289 11.924 o
7 1 1 24.201 25.358 0.259 5.255 o
7 1 2 30.845 30.843 0.259 3.731 o
7 1 3 1.862 1.692 0.129 94.579 o
7 1 4 24.141 24.312 0.219 5.576 o
7 1 5 66.193 67.630 0.348 0.993 o
7 1 6 8.472 8.413 0.179 22.886 o
7 1 7 22.091 21.863 0.239 6.287 o
7 1 8 12.804 13.022 0.219 13.050 o
7 1 9 11.356 10.991 0.209 15.592 o
7 1 10 21.085 21.634 0.269 6.382 o
7 1 11 1.095 0.876 0.199 61.358 o
7 1 12 0.309 0.249 0.169 94.217 o
7 1 13 4.299 4.062 0.269 26.282 o
7 1 14 1.540 1.424 0.289 30.506 o
7 1 15 2.596 2.618 0.368 18.417 o
7 1 16 3.110 3.106 0.378 17.075 o
7 1 17 0.685 0.597 0.339 24.201 o
7 1 18 1.239 0.876 0.329 24.854 o
7 2 0 25.034 25.567 0.348 4.623 o
7 2 1 60.730 61.059 0.339 1.169 o
7 2 2 29.308 28.942 0.229 4.149 o
7 2 3 2.676 2.529 0.129 76.130 o
7 2 4 13.563 13.361 0.179 13.239 o
7 2 5 6.800 6.880 0.159 30.241 o
7 2 6 40.854 41.725 0.269 2.331 o
7 2 7 27.092 27.239 0.239 4.611 o
7 2 8 47.142 47.121 0.309 1.827 o
7 2 9 9.329 8.940 0.199 19.826 o
7 2 10 3.418 3.196 0.199 42.532 o
7 2 11 9.008 9.120 0.249 17.452 o
7 2 12 3.998 3.873 0.249 29.875 o
7 2 13 7.758 7.805 0.319 15.583 o
7 2 14 7.566 7.497 0.348 14.306 o
7 2 15 6.378 6.601 0.368 14.379 o
7 2 16 4.038 3.952 0.378 16.176 o
7 2 17 1.487 1.274 0.368 19.730 o
7 2 18 0.550 0.468 0.866 3.826 o
7 3 0 0.798 0.617 0.149 104.871 o
7 3 1 88.501 89.683 0.358 0.591 o
7 3 2 63.166 63.329 0.309 1.101 o
7 3 3 53.909 53.931 0.289 1.462 o
7 3 4 16.823 16.726 0.189 9.744 o
7 3 5 53.141 53.244 0.299 1.493 o
7 3 6 12.280 12.027 0.179 15.050 o
7 3 7 22.149 21.963 0.219 6.384 o
7 3 8 0.241 0.060 0.030 1366.240 o
7 3 9 50.400 50.835 0.348 1.600 o
7 3 10 19.608 19.583 0.319 6.643 o
7 3 11 2.223 2.101 0.229 41.511 o
7 3 12 2.852 2.559 0.239 36.308 o
7 3 13 26.475 28.016 0.428 3.864 o
7 3 14 12.206 12.853 0.368 9.626 o
7 3 15 4.122 4.162 0.329 19.962 o
7 3 16 4.797 4.560 0.398 14.297 o
7 3 17 2.853 2.668 0.408 15.235 o
7 4 0 7.306 7.417 0.199 24.662 o
7 4 1 66.003 66.296 0.299 1.020 o
7 4 2 69.477 70.647 0.319 0.920 o
7 4 3 6.068 5.904 0.149 35.434 o
7 4 4 4.401 4.410 0.139 48.901 o
7 4 5 11.550 11.071 0.179 16.363 o
7 4 6 0.551 0.408 0.129 142.526 o
7 4 7 2.413 2.290 0.149 70.231 o
7 4 8 14.638 14.615 0.219 11.176 o
7 4 9 21.738 22.112 0.279 6.074 o
7 4 10 8.859 8.642 0.249 17.902 o
7 4 11 2.005 1.832 0.219 45.821 o
7 4 12 6.125 5.834 0.259 22.838 o
7 4 13 1.019 0.856 0.249 41.881 o
7 4 14 0.221 0.189 0.119 183.759 o
7 4 15 6.659 7.049 0.368 14.057 o
7 4 16 1.873 1.752 0.329 23.657 o
7 4 17 1.410 1.384 0.378 18.790 o
7 5 0 9.420 9.060 0.229 18.037 o
7 5 1 21.935 21.027 0.199 6.708 o
7 5 2 18.306 18.120 0.199 8.576 o
7 5 3 55.290 54.469 0.309 1.404 o
7 5 4 48.331 49.013 0.299 1.744 o
7 5 5 25.387 25.706 0.239 5.070 o
7 5 6 9.976 9.986 0.189 18.647 o
7 5 7 2.309 2.081 0.159 67.271 o
7 5 8 9.667 9.309 0.209 18.573 o
7 5 9 47.521 48.525 0.398 1.714 o
7 5 10 20.159 20.041 0.309 6.521 o
7 5 11 12.372 12.415 0.299 11.424 o
7 5 12 2.772 2.350 0.259 32.710 o
7 5 13 10.063 10.434 0.329 12.518 o
7 5 14 9.112 9.448 0.368 11.922 o
7 5 15 1.970 1.812 0.319 24.820 o
7 5 16 1.410 1.254 0.428 14.922 o
7 5 17 3.265 3.465 0.418 14.216 o
7 6 0 19.443 19.125 0.309 6.854 o
7 6 1 16.013 15.890 0.219 9.993 o
7 6 2 2.046 1.852 0.139 83.128 o
7 6 3 1.391 1.105 0.139 99.646 o
7 6 4 5.794 6.203 0.159 34.587 o
7 6 5 10.960 10.872 0.189 16.820 o
7 6 6 17.767 17.652 0.239 8.468 o
7 6 7 37.853 38.290 0.339 2.558 o
7 6 8 19.205 19.294 0.279 7.201 o
7 6 9 3.569 3.584 0.229 34.762 o
7 6 10 1.621 1.503 0.229 44.864 o
7 6 11 0.120 0.100 0.119 191.849 o
7 6 12 2.008 1.732 0.279 31.213 o
7 6 13 6.834 7.178 0.309 17.275 o
7 6 14 1.539 1.513 0.309 27.036 o
7 6 15 2.553 2.618 0.329 22.431 o
7 6 16 5.146 5.217 0.458 11.169 o
7 6 17 0.495 0.468 0.647 6.833 o
7 7 0 0.256 0.100 0.070 462.418 o
7 7 1 20.109 20.768 0.239 7.035 o
7 7 2 23.544 23.456 0.239 5.715 o
7 7 3 28.830 28.414 0.259 4.172 o
7 7 4 25.591 25.378 0.269 4.931 o
7 7 5 15.726 15.890 0.239 9.835 o
7 7 6 15.916 16.119 0.269 9.209 o
7 7 7 12.694 12.773 0.279 11.648 o
7 7 8 1.002 0.856 0.229 48.668 o
7 7 9 18.518 19.573 0.348 6.638 o
7 7 10 1.834 1.593 0.259 35.916 o
7 7 11 0.899 0.717 0.199 63.245 o
7 7 12 0.584 0.209 0.080 303.122 o
7 7 13 3.751 3.445 0.289 25.151 o
7 7 14 1.830 1.543 0.339 22.583 o
7 7 15 0.351 0.309 0.279 36.047 o
7 7 16 8.193 8.014 0.448 9.955 o
7 8 0 2.143 1.842 0.259 34.831 o
7 8 1 4.966 4.590 0.189 35.890 o
7 8 2 10.176 10.095 0.209 17.424 o
7 8 3 1.406 1.135 0.169 75.263 o
7 8 4 10.984 10.752 0.229 15.367 o
7 8 5 18.496 19.245 0.299 7.229 o
7 8 6 1.421 1.185 0.219 49.843 o
7 8 7 3.315 3.475 0.229 35.675 o
7 8 8 7.410 6.830 0.279 18.828 o
7 8 9 7.459 7.995 0.289 17.487 o
7 8 10 4.456 4.600 0.299 22.206 o
7 8 11 7.786 7.537 0.299 16.793 o
7 8 12 3.654 3.315 0.299 24.157 o
7 8 13 4.048 3.803 0.339 19.321 o
7 8 14 0.047 0.020 0.060 754.878 o
7 8 15 3.345 2.997 0.458 12.184 o
7 8 16 3.488 3.743 0.906 3.388 o
7 9 0 0.623 0.567 0.259 40.495 o
7 9 1 29.895 29.688 0.329 3.723 o
7 9 2 43.887 45.150 0.388 1.950 o
7 9 3 8.886 8.920 0.229 18.806 o
7 9 4 18.909 19.016 0.289 7.239 o
7 9 5 10.287 10.255 0.259 15.098 o
7 9 6 11.564 11.867 0.279 12.704 o
7 9 7 29.025 29.768 0.398 3.585 o
7 9 8 7.462 7.537 0.279 18.360 o
7 9 9 0.784 0.677 0.259 39.902 o
7 9 10 31.163 34.407 0.448 2.996 o
7 9 11 4.940 4.849 0.299 21.428 o
7 9 12 1.836 1.603 0.309 26.560 o
7 9 13 6.280 6.511 0.408 12.527 o
7 9 14 0.697 0.617 0.428 15.344 o
7 9 15 1.399 1.175 0.398 17.134 o
7 10 0 18.644 19.215 0.468 5.431 o
7 10 1 13.819 13.938 0.289 10.422 o
7 10 2 5.020 4.928 0.219 30.581 o
7 10 3 0.388 0.169 0.050 622.729 o
7 10 4 1.083 0.976 0.229 48.080 o
7 10 5 8.833 9.110 0.279 16.105 o
7 10 6 10.319 9.717 0.289 14.094 o
7 10 7 1.928 1.593 0.239 40.664 o
7 10 8 1.718 1.444 0.269 34.138 o
7 10 9 0.465 0.279 0.110 195.341 o
7 10 10 0.992 1.085 0.269 36.224 o
7 10 11 0.674 0.647 0.279 35.016 o
7 10 12 9.105 9.588 0.398 10.864 o
7 10 13 4.914 5.048 0.378 15.252 o
7 10 14 0.996 0.886 0.428 15.169 o
7 11 0 0.032 0.070 0.299 32.225 o
7 11 1 5.359 4.749 0.259 25.006 o
7 11 2 36.843 38.141 0.418 2.499 o
7 11 3 11.853 11.897 0.319 11.325 o
7 11 4 28.584 29.330 0.408 3.623 o
7 11 5 11.697 11.758 0.319 11.454 o
7 11 6 1.939 1.882 0.269 33.156 o
7 11 7 0.906 0.607 0.159 92.766 o
7 11 8 3.634 3.435 0.319 21.856 o
7 11 9 5.136 5.147 0.348 17.009 o
7 11 10 20.741 22.849 0.498 4.559 o
7 11 11 0.121 0.319 0.368 21.060 o
7 11 12 4.882 4.719 0.408 13.666 o
7 11 13 4.706 5.127 0.438 12.193 o
7 12 0 0.150 0.050 0.050 883.995 o
7 12 1 5.781 5.127 0.299 20.233 o
7 12 2 4.395 4.082 0.289 23.713 o
7 12 3 5.771 5.854 0.309 19.028 o
7 12 4 13.168 13.938 0.348 9.435 o
7 12 5 12.514 13.639 0.378 9.115 o
7 12 6 0.497 0.548 0.269 38.040 o
7 12 7 0.688 0.528 0.209 59.903 o
7 12 8 4.382 4.639 0.329 19.461 o
7 12 9 0.216 0.299 0.269 39.023 o
7 12 10 0.362 0.169 0.110 205.684 o
7 12 11 6.203 6.262 0.408 12.625 o
7 12 12 0.855 0.747 0.408 16.727 o
7 13 0 0.429 0.119 0.209 62.785 o
7 13 1 0.127 0.169 0.239 49.694 o
7 13 2 0.904 0.528 0.229 49.782 o
7 13 3 4.557 4.361 0.299 22.230 o
7 13 4 5.961 5.944 0.299 19.548 o
7 13 5 2.173 2.091 0.299 27.229 o
7 13 6 0.587 0.488 0.219 55.654 o
7 13 7 3.651 3.813 0.329 20.624 o
7 13 8 14.341 14.993 0.428 7.362 o
7 13 9 3.204 3.176 0.378 16.988 o
7 13 10 2.452 2.180 0.398 16.271 o
7 13 11 0.636 0.368 0.398 17.761 o
7 14 0 3.647 3.674 0.518 9.633 o
7 14 1 5.452 5.356 0.329 18.082 o
7 14 2 4.942 5.147 0.368 15.823 o
7 14 3 0.610 0.418 0.229 51.297 o
7 14 4 6.715 6.481 0.388 13.221 o
7 14 5 9.985 10.225 0.428 9.499 o
7 14 6 0.707 0.657 0.358 21.637 o
7 14 7 2.163 1.762 0.368 19.053 o
7 14 8 0.278 0.060 0.020 1615.380 o
7 14 9 0.456 0.319 0.169 91.658 o
7 14 10 0.001 0.149 2.369 0.514 o
7 15 0 0.010 -0.010 0.119 201.458 o
7 15 1 2.420 2.300 0.358 19.581 o
7 15 2 8.003 8.333 0.408 11.297 o
7 15 3 3.860 3.694 0.368 17.102 o
7 15 4 3.669 3.733 0.368 17.224 o
7 15 5 1.344 1.254 0.358 20.882 o
7 15 6 3.970 3.694 0.358 17.781 o
7 15 7 0.305 0.020 0.020 1587.720 o
7 15 8 0.115 0.139 0.279 36.724 o
7 16 0 0.717 0.249 0.926 3.349 o
7 16 1 0.324 0.040 0.080 365.144 o
7 16 2 3.311 3.186 0.458 12.163 o
7 16 3 0.035 0.000 0.010 11244.900 o
7 16 4 4.503 4.839 0.398 14.382 o
7 16 5 3.624 3.455 0.478 11.143 o
8 0 0 14.572 13.978 0.339 9.040 o
8 0 1 0.726 0.637 0.209 59.342 o
8 0 2 2.814 2.788 0.199 46.165 o
8 0 3 82.315 84.705 0.508 0.649 o
8 0 4 32.098 32.984 0.388 3.139 o
8 0 5 0.064 0.080 0.139 144.991 o
8 0 6 58.334 58.491 0.538 1.167 o
8 0 7 9.686 9.538 0.329 13.050 o
8 0 8 0.045 0.080 0.060 730.471 o
8 0 9 0.341 0.319 0.149 117.334 o
8 0 10 2.099 1.702 0.279 31.064 o
8 0 11 0.226 0.030 0.040 1079.770 o
8 0 12 4.122 4.062 0.408 14.222 o
8 0 13 3.156 2.698 0.418 14.450 o
8 0 14 0.636 0.388 0.319 27.379 o
8 0 15 7.072 7.148 0.587 6.887 o
8 0 16 1.313 1.155 0.448 13.738 o
8 0 17 8.320 9.020 0.647 5.609 o
8 1 0 1.344 1.165 0.179 69.432 o
8 1 1 2.950 2.798 0.139 66.812 o
8 1 2 4.907 4.829 0.149 42.821 o
8 1 3 5.213 5.326 0.149 40.172 o
8 1 4 20.694 20.201 0.229 7.018 o
8 1 5 1.444 1.244 0.149 88.803 o
8 1 6 28.215 28.623 0.279 4.183 o
8 1 7 45.165 46.235 0.358 1.895 o
8 1 8 25.553 25.865 0.309 4.708 o
8 1 9 5.570 5.535 0.209 29.732 o
8 1 10 1.780 1.593 0.199 54.788 o
8 1 11 0.489 0.259 0.110 194.469 o
8 1 12 8.159 8.014 0.269 17.924 o
8 1 13 0.570 0.438 0.209 60.901 o
8 1 14 0.582 0.657 0.309 28.990 o
8 1 15 4.392 4.639 0.378 15.720 o
8 1 16 9.669 10.135 0.438 9.360 o
8 1 17 1.199 1.045 0.408 16.485 o
8 2 0 14.983 14.416 0.269 10.085 o
8 2 1 56.891 57.216 0.309 1.320 o
8 2 2 33.900 34.208 0.259 3.198 o
8 2 3 0.153 0.050 0.050 880.977 o
8 2 4 6.308 5.894 0.159 33.339 o
8 2 5 34.810 34.159 0.289 3.057 o
8 2 6 32.937 33.372 0.279 3.300 o
8 2 7 31.183 31.670 0.309 3.513 o
8 2 8 7.772 7.676 0.209 22.745 o
8 2 9 12.452 12.574 0.249 12.689 o
8 2 10 2.310 2.190 0.199 50.172 o
8 2 11 5.496 5.287 0.259 24.308 o
8 2 12 18.820 20.061 0.348 6.493 o
8 2 13 19.512 20.131 0.398 5.832 o
8 2 14 3.051 2.987 0.309 23.981 o
8 2 15 0.416 0.348 0.239 48.234 o
8 2 16 0.171 0.020 0.020 2389.680 o
8 2 17 0.503 0.209 0.299 31.354 o
8 3 0 139.085 141.254 0.637 0.248 o
8 3 1 36.897 36.986 0.249 2.813 o
8 3 2 11.395 10.991 0.179 16.589 o
8 3 3 8.348 8.502 0.169 23.692 o
8 3 4 15.687 15.023 0.199 10.740 o
8 3 5 8.704 8.512 0.179 22.365 o
8 3 6 5.889 5.645 0.179 32.570 o
8 3 7 3.385 3.136 0.169 51.154 o
8 3 8 16.951 16.915 0.239 8.987 o
8 3 9 6.031 5.834 0.199 29.396 o
8 3 10 2.131 1.951 0.219 45.044 o
8 3 11 6.189 6.302 0.269 21.500 o
8 3 12 7.770 7.915 0.309 16.067 o
8 3 13 3.477 3.614 0.299 24.196 o
8 3 14 9.478 9.836 0.368 11.625 o
8 3 15 3.825 3.733 0.358 17.880 o
8 3 16 1.515 1.354 0.378 18.731 o
8 3 17 0.643 0.508 0.498 11.447 o
8 4 0 5.583 5.456 0.209 29.801 o
8 4 1 69.644 68.646 0.329 0.931 o
8 4 2 5.646 5.406 0.159 36.618 o
8 4 3 5.128 4.928 0.159 39.738 o
8 4 4 42.227 43.716 0.319 2.142 o
8 4 5 43.031 42.691 0.329 2.116 o
8 4 6 5.393 5.247 0.179 34.856 o
8 4 7 18.091 17.741 0.239 8.315 o
8 4 8 0.694 0.448 0.110 177.299 o
8 4 9 12.669 12.634 0.249 12.508 o
8 4 10 17.049 17.094 0.319 7.829 o
8 4 11 0.131 0.179 0.159 109.392 o
8 4 12 5.739 5.754 0.279 21.631 o
8 4 13 26.354 28.175 0.438 3.825 o
8 4 14 0.216 0.119 0.080 380.301 o
8 4 15 3.814 3.604 0.368 17.166 o
8 4 16 4.794 4.679 0.408 13.721 o
8 4 17 2.601 2.280 0.826 4.104 o
8 5 0 68.254 68.377 0.518 0.908 o
8 5 1 4.939 4.888 0.159 40.669 o
8 5 2 9.692 9.468 0.199 18.926 o
8 5 3 13.212 13.062 0.199 13.200 o
8 5 4 7.867 7.646 0.189 24.102 o
8 5 5 34.012 34.407 0.299 3.101 o
8 5 6 4.217 3.943 0.179 42.069 o
8 5 7 5.527 5.137 0.199 31.718 o
8 5 8 18.261 18.438 0.279 7.663 o
8 5 9 9.475 9.697 0.269 15.687 o
8 5 10 0.063 0.050 0.040 1459.470 o
8 5 11 3.358 3.614 0.279 26.983 o
8 5 12 3.478 3.146 0.289 25.808 o
8 5 13 3.308 3.335 0.319 22.291 o
8 5 14 7.336 7.427 0.378 13.065 o
8 5 15 2.831 2.738 0.339 20.997 o
8 5 16 1.914 1.623 0.408 15.983 o
8 6 0 1.161 1.085 0.229 47.531 o
8 6 1 9.425 8.781 0.199 19.802 o
8 6 2 1.757 1.702 0.159 74.821 o
8 6 3 0.516 0.378 0.119 164.631 o
8 6 4 12.169 12.027 0.219 13.998 o
8 6 5 29.602 29.738 0.289 3.880 o
8 6 6 16.366 16.567 0.259 9.053 o
8 6 7 13.815 13.928 0.269 10.862 o
8 6 8 7.303 7.576 0.239 21.344 o
8 6 9 24.874 25.646 0.378 4.486 o
8 6 10 1.541 1.424 0.239 42.237 o
8 6 11 3.200 2.967 0.299 25.050 o
8 6 12 0.393 0.249 0.189 75.622 o
8 6 13 4.711 4.699 0.348 17.540 o
8 6 14 2.561 2.509 0.418 14.776 o
8 6 15 1.508 1.274 0.398 17.047 o
8 6 16 0.010 0.000 0.001 64840.200 o
8 7 0 17.945 18.269 0.418 6.181 o
8 7 1 5.149 4.938 0.189 34.669 o
8 7 2 10.338 10.135 0.209 17.204 o
8 7 3 1.264 1.035 0.169 77.323 o
8 7 4 7.142 6.850 0.209 24.703 o
8 7 5 27.681 28.703 0.319 4.112 o
8 7 6 2.050 1.912 0.209 48.738 o
8 7 7 12.180 12.574 0.299 11.492 o
8 7 8 14.217 13.958 0.329 9.390 o
8 7 9 1.587 1.364 0.239 42.183 o
8 7 10 0.434 0.269 0.189 75.142 o
8 7 11 8.481 8.980 0.319 14.533 o
8 7 12 4.513 4.689 0.299 22.074 o
8 7 13 0.361 0.408 0.368 20.859 o
8 7 14 0.935 0.777 0.398 17.494 o
8 7 15 1.574 1.523 0.468 12.508 o
8 8 0 0.042 0.119 0.209 65.307 o
8 8 1 1.481 1.354 0.199 57.318 o
8 8 2 18.660 19.185 0.269 7.503 o
8 8 3 27.074 27.707 0.309 4.313 o
8 8 4 8.254 7.995 0.229 20.318 o
8 8 5 0.157 0.139 0.090 318.734 o
8 8 6 22.372 23.088 0.348 5.331 o
8 8 7 1.873 1.702 0.249 38.060 o
8 8 8 3.151 3.017 0.259 31.087 o
8 8 9 6.420 6.332 0.279 20.343 o
8 8 10 4.317 4.082 0.319 20.721 o
8 8 11 0.812 0.737 0.269 37.059 o
8 8 12 9.198 9.747 0.398 10.786 o
8 8 13 0.496 0.418 0.448 14.141 o
8 8 14 1.051 0.757 0.438 14.514 o
8 8 15 1.483 1.254 0.816 4.261 o
8 9 0 1.407 1.155 0.309 27.473 o
8 9 1 12.438 12.873 0.279 11.779 o
8 9 2 4.214 4.321 0.219 33.619 o
8 9 3 14.681 15.392 0.309 9.252 o
8 9 4 7.757 7.576 0.249 19.973 o
8 9 5 9.478 9.737 0.279 15.215 o
8 9 6 7.912 7.965 0.269 18.234 o
8 9 7 14.495 15.083 0.329 9.030 o
8 9 8 6.209 5.954 0.299 19.261 o
8 9 9 1.362 1.394 0.279 32.834 o
8 9 10 0.425 0.378 0.239 48.146 o
8 9 11 8.292 8.622 0.348 13.443 o
8 9 12 5.647 5.555 0.348 16.440 o
8 9 13 3.434 3.136 0.358 18.427 o
8 9 14 1.353 1.175 0.448 13.721 o
8 10 0 2.752 2.509 0.348 20.174 o
8 10 1 14.037 14.247 0.319 9.608 o
8 10 2 34.816 35.871 0.408 2.743 o
8 10 3 3.513 3.037 0.239 33.790 o
8 10 4 6.543 6.292 0.289 19.442 o
8 10 5 2.318 2.001 0.239 38.764 o
8 10 6 10.812 11.161 0.319 12.162 o
8 10 7 0.032 0.090 0.149 127.367 o
8 10 8 4.266 4.440 0.299 22.558 o
8 10 9 11.284 12.027 0.368 10.210 o
8 10 10 8.141 8.373 0.368 12.763 o
8 10 11 1.110 1.125 0.309 27.912 o
8 10 12 7.862 8.413 0.438 10.317 o
8 10 13 1.032 0.816 0.428 15.168 o
8 11 0 1.562 1.314 0.358 20.681 o
8 11 1 16.640 16.985 0.358 7.437 o
8 11 2 7.063 7.347 0.309 16.976 o
8 11 3 16.978 17.522 0.378 6.994 o
8 11 4 9.495 9.438 0.309 14.026 o
8 11 5 0.582 0.448 0.149 110.781 o
8 11 6 1.186 1.284 0.269 35.538 o
8 11 7 0.609 0.448 0.209 60.627 o
8 11 8 1.504 1.374 0.329 24.279 o
8 11 9 1.431 1.394 0.319 25.751 o
8 11 10 0.062 0.119 0.129 166.749 o
8 11 11 6.754 6.680 0.398 12.691 o
8 11 12 3.083 2.877 0.488 10.973 o
8 12 0 4.017 3.972 0.418 13.739 o
8 12 1 3.119 2.768 0.309 24.036 o
8 12 2 5.052 4.938 0.339 17.890 o
8 12 3 6.265 5.934 0.348 15.816 o
8 12 4 5.435 5.336 0.309 19.674 o
8 12 5 1.605 1.334 0.299 28.698 o
8 12 6 7.700 7.626 0.339 14.662 o
8 12 7 3.584 3.763 0.309 22.797 o
8 12 8 1.037 0.896 0.299 29.945 o
8 12 9 5.022 5.257 0.368 15.730 o
8 12 10 11.284 11.738 0.418 9.018 o
8 12 11 0.385 0.139 0.100 240.775 o
8 13 0 1.340 0.986 0.418 15.695 o
8 13 1 1.247 0.996 0.319 26.230 o
8 13 2 0.889 0.707 0.329 25.340 o
8 13 3 1.473 1.215 0.309 27.338 o
8 13 4 3.118 2.967 0.329 21.632 o
8 13 5 5.737 5.535 0.348 16.377 o
8 13 6 10.122 10.752 0.388 10.459 o
8 13 7 1.084 0.946 0.378 19.151 o
8 13 8 1.939 1.583 0.348 21.319 o
8 13 9 1.286 0.946 0.378 19.017 o
8 13 10 1.885 1.902 0.468 12.356 o
8 14 0 3.510 2.997 0.468 11.674 o
8 14 1 3.508 3.574 0.378 16.652 o
8 14 2 3.255 3.236 0.348 19.407 o
8 14 3 1.586 1.543 0.329 24.094 o
8 14 4 1.136 1.105 0.339 23.497 o
8 14 5 3.215 3.007 0.348 19.543 o
8 14 6 5.103 5.018 0.378 15.141 o
8 14 7 1.193 1.006 0.388 18.144 o
8 14 8 0.389 0.239 0.368 20.898 o
8 15 0 1.545 0.856 0.558 8.999 o
8 15 1 0.344 0.100 0.119 179.598 o
8 15 2 1.105 0.826 0.448 13.867 o
8 15 3 5.545 5.675 0.428 12.173 o
8 15 4 2.426 2.240 0.398 16.270 o
8 15 5 1.494 1.175 0.358 20.792 o
8 15 6 0.554 0.448 0.528 10.227 o
8 16 1 2.129 2.170 0.657 6.432 o
8 16 2 8.199 8.920 1.016 2.564 o
9 0 1 5.486 5.167 0.229 27.865 o
9 0 2 0.622 0.309 0.129 141.795 o
9 0 3 0.176 0.159 0.149 122.980 o
9 0 4 4.748 4.301 0.249 27.808 o
9 0 5 4.229 3.704 0.239 31.097 o
9 0 6 15.077 15.631 0.348 8.344 o
9 0 7 36.160 37.225 0.468 2.478 o
9 0 8 0.226 0.100 0.070 472.920 o
9 0 9 0.051 0.119 0.169 98.980 o
9 0 10 3.103 3.126 0.339 20.543 o
9 0 11 0.799 0.687 0.358 21.551 o
9 0 12 0.098 0.100 0.249 46.069 o
9 0 13 2.403 2.141 0.428 14.313 o
9 0 14 6.357 6.770 0.697 5.233 o
9 0 15 2.307 2.499 0.617 7.215 o
9 0 16 1.653 1.543 0.468 12.481 o
9 1 0 0.015 0.040 0.070 575.483 o
9 1 1 5.539 4.968 0.169 36.355 o
9 1 2 20.711 20.569 0.229 6.954 o
9 1 3 43.959 44.582 0.319 2.028 o
9 1 4 25.315 25.338 0.269 4.987 o
9 1 5 9.703 9.607 0.199 18.814 o
9 1 6 18.794 19.205 0.259 7.556 o
9 1 7 13.468 13.371 0.259 11.468 o
9 1 8 3.379 3.435 0.209 39.823 o
9 1 9 8.120 8.104 0.239 19.782 o
9 1 10 6.077 6.232 0.239 24.506 o
9 1 11 6.439 6.232 0.269 21.199 o
9 1 12 8.050 8.074 0.309 15.751 o
9 1 13 1.105 0.966 0.348 22.348 o
9 1 14 1.501 1.304 0.378 18.756 o
9 1 15 10.703 11.370 0.518 7.146 o
9 1 16 0.918 0.946 0.378 19.260 o
9 2 0 20.720 20.818 0.319 6.184 o
9 2 1 16.612 17.015 0.209 9.524 o
9 2 2 4.212 3.903 0.159 46.793 o
9 2 3 9.973 9.597 0.189 18.923 o
9 2 4 22.483 22.401 0.249 6.048 o
9 2 5 1.449 1.324 0.169 73.836 o
9 2 6 29.924 30.226 0.309 3.748 o
9 2 7 3.992 3.883 0.199 38.853 o
9 2 8 24.623 25.318 0.319 4.871 o
9 2 9 1.093 1.065 0.209 55.950 o
9 2 10 0.820 0.687 0.199 63.908 o
9 2 11 8.472 8.980 0.319 14.540 o
9 2 12 0.062 0.080 0.060 716.822 o
9 2 13 1.042 0.956 0.329 25.030 o
9 2 14 6.677 6.641 0.388 13.198 o
9 2 15 5.662 5.864 0.488 9.830 o
9 2 16 0.526 0.229 0.169 91.312 o
9 3 0 0.516 0.488 0.179 80.964 o
9 3 1 4.499 4.251 0.159 44.330 o
9 3 2 8.765 8.243 0.179 22.500 o
9 3 3 52.768 53.284 0.348 1.480 o
9 3 4 26.174 26.702 0.279 4.663 o
9 3 5 12.450 11.957 0.219 13.783 o
9 3 6 2.831 2.678 0.179 52.721 o
9 3 7 8.176 7.965 0.209 21.802 o
9 3 8 4.871 4.699 0.209 32.783 o
9 3 9 8.661 8.552 0.249 18.191 o
9 3 10 2.712 2.589 0.259 32.572 o
9 3 11 18.095 18.886 0.408 6.186 o
9 3 12 10.797 11.519 0.348 11.133 o
9 3 13 1.130 1.175 0.309 27.849 o
9 3 14 3.127 2.827 0.329 21.697 o
9 3 15 5.977 6.123 0.408 12.770 o
9 3 16 0.739 0.448 0.458 13.464 o
9 4 0 105.223 106.100 0.647 0.413 o
9 4 1 5.240 5.217 0.169 37.020 o
9 4 2 19.079 18.817 0.229 7.822 o
9 4 3 28.852 29.589 0.279 4.022 o
9 4 4 18.355 18.209 0.249 8.006 o
9 4 5 4.701 4.550 0.199 35.168 o
9 4 6 1.150 1.125 0.179 71.379 o
9 4 7 7.016 6.909 0.219 24.010 o
9 4 8 6.223 5.864 0.219 26.647 o
9 4 9 6.271 6.262 0.239 24.130 o
9 4 10 2.086 1.941 0.249 37.115 o
9 4 11 4.031 4.042 0.289 24.276 o
9 4 12 9.714 10.036 0.358 11.789 o
9 4 13 4.034 4.181 0.329 20.041 o
9 4 14 7.072 7.566 0.368 13.639 o
9 4 15 0.056 0.070 0.149 127.020 o
9 4 16 0.139 0.020 0.119 193.036 o
9 5 0 1.019 0.806 0.229 48.700 o
9 5 1 0.512 0.309 0.100 222.311 o
9 5 2 5.694 5.595 0.189 31.918 o
9 5 3 24.872 24.720 0.289 5.034 o
9 5 4 10.156 9.896 0.229 16.684 o
9 5 5 6.557 6.491 0.209 26.285 o
9 5 6 2.713 2.579 0.199 47.149 o
9 5 7 12.274 12.306 0.249 12.922 o
9 5 8 4.697 4.500 0.239 29.063 o
9 5 9 14.557 15.193 0.329 8.982 o
9 5 10 8.427 8.333 0.299 15.827 o
9 5 11 9.424 9.667 0.368 11.698 o
9 5 12 2.109 1.981 0.269 32.675 o
9 5 13 2.080 2.001 0.299 27.440 o
9 5 14 3.542 3.495 0.339 19.944 o
9 5 15 5.449 5.794 0.398 13.608 o
9 6 0 1.230 1.155 0.259 38.052 o
9 6 1 9.493 9.478 0.229 17.692 o
9 6 2 0.736 0.677 0.189 70.647 o
9 6 3 8.725 8.781 0.229 19.111 o
9 6 4 23.539 23.446 0.289 5.434 o
9 6 5 15.950 15.969 0.269 9.228 o
9 6 6 4.748 4.679 0.229 30.151 o
9 6 7 8.079 8.393 0.259 18.398 o
9 6 8 11.376 11.599 0.299 12.300 o
9 6 9 5.376 5.058 0.289 21.672 o
9 6 10 7.855 7.985 0.329 14.914 o
9 6 11 1.519 1.274 0.299 28.879 o
9 6 12 0.318 0.070 0.040 905.700 o
9 6 13 4.669 4.978 0.348 17.459 o
9 6 14 2.224 1.902 0.368 18.957 o
9 6 15 2.577 2.499 0.458 12.532 o
9 7 0 3.279 3.246 0.299 24.737 o
9 7 1 0.349 0.100 0.040 849.857 o
9 7 2 9.321 9.040 0.229 18.172 o
9 7 3 8.645 8.492 0.229 19.415 o
9 7 4 16.914 17.672 0.279 8.309 o
9 7 5 4.035 3.833 0.229 33.093 o
9 7 6 7.734 7.815 0.269 18.529 o
9 7 7 5.862 5.506 0.289 20.753 o
9 7 8 1.382 1.105 0.259 37.717 o
9 7 9 1.027 0.777 0.299 30.056 o
9 7 10 0.054 0.139 0.239 50.035 o
9 7 11 0.426 0.149 0.149 117.324 o
9 7 12 0.156 0.010 0.010 3513.740 o
9 7 13 0.568 0.279 0.209 61.404 o
9 7 14 4.058 3.863 0.368 16.898 o
9 8 0 23.920 24.312 0.488 4.105 o
9 8 1 4.622 4.470 0.229 30.720 o
9 8 2 0.531 0.498 0.149 111.323 o
9 8 3 6.352 6.581 0.229 24.650 o
9 8 4 6.491 6.322 0.239 23.690 o
9 8 5 11.628 12.047 0.289 12.293 o
9 8 6 8.123 8.044 0.309 15.702 o
9 8 7 22.445 24.651 0.438 4.585 o
9 8 8 0.979 1.115 0.269 36.218 o
9 8 9 3.203 3.126 0.299 24.931 o
9 8 10 7.894 8.144 0.368 12.973 o
9 8 11 2.875 3.056 0.358 18.907 o
9 8 12 1.774 1.603 0.358 20.391 o
9 8 13 2.288 1.892 0.339 21.952 o
9 8 14 2.885 2.808 0.448 12.872 o
9 9 0 19.887 21.067 0.488 4.893 o
9 9 1 2.662 2.499 0.239 36.957 o
9 9 2 2.851 2.728 0.239 36.067 o
9 9 3 7.932 7.726 0.259 18.984 o
9 9 4 7.917 8.014 0.299 16.442 o
9 9 5 1.051 0.886 0.229 48.401 o
9 9 6 0.029 0.119 0.129 168.224 o
9 9 7 1.141 1.055 0.299 29.653 o
9 9 8 8.896 9.697 0.339 13.122 o
9 9 9 4.458 4.679 0.348 17.758 o
9 9 10 2.471 2.260 0.319 23.931 o
9 9 11 4.147 4.152 0.388 15.386 o
9 9 12 4.498 4.321 0.368 16.422 o
9 9 13 0.270 0.080 0.149 121.701 o
9 10 0 2.427 2.160 0.448 13.160 o
9 10 1 12.767 13.311 0.339 9.978 o
9 10 2 5.826 5.964 0.279 21.369 o
9 10 3 28.866 31.152 0.418 3.458 o
9 10 4 4.477 4.341 0.289 23.407 o
9 10 5 2.341 2.310 0.279 30.014 o
9 10 6 7.683 7.377 0.348 14.266 o
9 10 7 0.211 0.368 0.279 36.280 o
9 10 8 6.516 6.730 0.368 14.249 o
9 10 9 1.745 1.732 0.319 25.148 o
9 10 10 2.506 2.240 0.388 16.973 o
9 10 11 8.305 9.040 0.408 11.006 o
9 10 12 1.725 1.842 0.428 14.666 o
9 11 0 7.407 7.835 0.458 9.945 o
9 11 1 6.515 6.312 0.319 17.341 o
9 11 2 1.300 1.165 0.259 37.853 o
9 11 3 3.924 3.833 0.309 22.328 o
9 11 4 4.429 4.321 0.319 20.467 o
9 11 5 1.514 1.304 0.309 27.218 o
9 11 6 3.968 3.813 0.339 19.391 o
9 11 7 3.700 3.704 0.329 20.630 o
9 11 8 7.156 7.298 0.368 13.670 o
9 11 9 1.885 1.633 0.358 20.288 o
9 11 10 1.968 1.852 0.368 19.164 o
9 11 11 3.065 3.126 0.468 11.796 o
9 12 0 6.870 6.790 0.577 7.145 o
9 12 1 3.678 3.495 0.309 22.848 o
9 12 2 2.445 2.160 0.339 21.662 o
9 12 3 11.664 12.176 0.458 7.961 o
9 12 4 2.596 2.270 0.358 19.451 o
9 12 5 1.897 1.702 0.339 22.436 o
9 12 6 4.560 4.908 0.398 14.332 o
9 12 7 0.970 0.996 0.329 25.089 o
9 12 8 0.459 0.239 0.119 170.439 o
9 12 9 2.031 1.593 0.398 16.670 o
9 12 10 0.393 0.119 0.129 153.350 o
9 13 0 0.314 0.199 0.179 84.851 o
9 13 1 1.477 1.364 0.348 21.834 o
9 13 2 4.645 4.410 0.358 16.980 o
9 13 3 0.507 0.558 0.408 16.941 o
9 13 4 0.099 0.129 0.239 49.878 o
9 13 5 0.441 0.468 0.309 29.325 o
9 13 6 4.739 4.938 0.368 16.036 o
9 13 7 3.688 3.246 0.398 15.279 o
9 13 8 0.304 0.209 0.587 8.315 o
9 14 0 0.040 0.090 0.597 8.075 o
9 14 1 2.908 2.867 0.339 20.859 o
9 14 2 0.243 0.070 0.119 185.783 o
9 14 3 2.721 2.648 0.368 18.314 o
9 14 4 2.581 2.439 0.418 14.783 o
9 14 5 1.519 1.294 0.368 19.700 o
9 14 6 0.376 0.119 1.075 2.491 o
9 15 0 6.606 7.099 0.617 6.406 o
9 15 1 4.199 4.221 0.587 7.543 o
9 15 2 1.301 1.135 0.637 6.948 o
9 15 3 0.001 0.010 0.159 113.554 o
10 0 0 0.151 0.000 0.100 272.398 o
10 0 1 4.295 3.853 0.249 29.241 o
10 0 2 3.252 2.937 0.239 34.638 o
10 0 3 0.148 0.139 0.149 123.895 o
10 0 4 4.279 4.162 0.269 26.229 o
10 0 5 62.496 64.773 0.597 1.000 o
10 0 6 12.281 12.813 0.358 9.839 o
10 0 7 0.840 0.826 0.259 39.544 o
10 0 8 2.632 2.579 0.289 27.634 o
10 0 9 0.359 0.159 0.179 84.560 o
10 0 10 0.705 0.319 0.139 123.048 o
10 0 11 3.018 2.837 0.358 18.880 o
10 0 12 0.333 0.050 0.030 1148.640 o
10 0 13 2.896 2.748 0.538 9.237 o
10 0 14 3.414 3.375 0.538 9.076 o
10 0 15 3.715 3.743 0.607 7.194 o
10 1 0 2.808 2.559 0.239 36.439 o
10 1 1 7.602 7.128 0.189 25.182 o
10 1 2 9.917 9.747 0.199 18.429 o
10 1 3 1.571 1.314 0.169 72.650 o
10 1 4 4.636 4.520 0.199 35.434 o
10 1 5 16.230 16.537 0.269 8.973 o
10 1 6 23.375 23.904 0.299 5.361 o
10 1 7 1.955 1.722 0.199 53.403 o
10 1 8 11.519 11.688 0.259 13.438 o
10 1 9 5.514 5.715 0.239 26.062 o
10 1 10 5.546 5.277 0.269 23.208 o
10 1 11 1.833 1.633 0.249 38.274 o
10 1 12 0.218 0.080 0.070 479.450 o
10 1 13 6.069 6.242 0.388 13.648 o
10 1 14 0.822 0.697 0.368 20.425 o
10 1 15 2.032 1.921 0.428 14.519 o
10 2 0 0.249 0.100 0.110 216.161 o
10 2 1 0.461 0.249 0.090 269.268 o
10 2 2 3.515 3.315 0.169 49.830 o
10 2 3 23.683 23.844 0.249 5.583 o
10 2 4 13.701 13.679 0.239 11.677 o
10 2 5 9.463 9.418 0.229 17.765 o
10 2 6 0.266 0.159 0.110 212.767 o
10 2 7 0.410 0.309 0.080 323.234 o
10 2 8 1.797 1.653 0.209 50.624 o
10 2 9 3.799 3.714 0.229 33.917 o
10 2 10 9.786 10.185 0.269 15.171 o
10 2 11 20.228 21.594 0.378 5.700 o
10 2 12 1.039 0.936 0.309 28.146 o
10 2 13 1.193 1.095 0.329 24.783 o
10 2 14 2.108 2.011 0.348 20.974 o
10 2 15 0.396 0.119 0.100 240.692 o
10 3 0 8.450 7.915 0.279 17.085 o
10 3 1 43.438 44.572 0.319 2.055 o
10 3 2 45.595 46.922 0.339 1.877 o
10 3 3 0.913 0.796 0.169 82.714 o
10 3 4 2.629 2.200 0.189 51.878 o
10 3 5 2.985 2.818 0.199 45.294 o
10 3 6 20.781 20.858 0.299 6.330 o
10 3 7 0.022 0.139 0.129 168.083 o
10 3 8 1.872 1.633 0.219 46.818 o
10 3 9 3.855 3.684 0.239 32.053 o
10 3 10 4.945 5.068 0.279 23.259 o
10 3 11 3.378 3.365 0.279 27.164 o
10 3 12 5.007 5.077 0.309 20.299 o
10 3 13 10.514 11.608 0.388 10.102 o
10 3 14 0.992 0.787 0.388 18.329 o
10 3 15 1.069 1.006 0.528 10.085 o
10 4 0 8.148 8.293 0.289 16.641 o
10 4 1 0.920 0.737 0.149 101.512 o
10 4 2 21.739 22.112 0.269 6.144 o
10 4 3 7.766 7.447 0.199 23.727 o
10 4 4 0.450 0.169 0.070 395.242 o
10 4 5 2.326 2.081 0.199 50.377 o
10 4 6 8.864 9.060 0.239 18.192 o
10 4 7 2.683 2.340 0.219 42.069 o
10 4 8 3.495 3.285 0.219 37.475 o
10 4 9 0.290 0.319 0.239 48.776 o
10 4 10 0.598 0.617 0.269 37.715 o
10 4 11 5.325 5.326 0.319 18.988 o
10 4 12 11.571 12.445 0.408 9.022 o
10 4 13 2.339 2.360 0.339 21.669 o
10 4 14 4.930 5.187 0.378 15.197 o
10 4 15 1.205 0.956 0.458 13.238 o
10 5 0 11.268 10.374 0.319 12.123 o
10 5 1 4.508 4.331 0.199 36.186 o
10 5 2 29.677 29.887 0.309 3.800 o
10 5 3 3.753 3.544 0.199 40.437 o
10 5 4 1.441 1.444 0.199 57.287 o
10 5 5 2.876 2.857 0.219 40.380 o
10 5 6 16.591 16.835 0.279 8.608 o
10 5 7 17.237 18.229 0.299 7.824 o
10 5 8 4.967 4.928 0.249 26.738 o
10 5 9 0.846 0.697 0.249 42.675 o
10 5 10 2.091 2.001 0.309 25.933 o
10 5 11 0.924 0.976 0.299 30.062 o
10 5 12 7.600 7.955 0.378 12.768 o
10 5 13 0.731 0.418 0.139 121.132 o
10 5 14 1.971 2.011 0.498 10.963 o
10 6 0 7.177 7.029 0.339 15.277 o
10 6 1 1.758 1.483 0.219 47.641 o
10 6 2 1.987 1.563 0.199 53.675 o
10 6 3 9.601 9.617 0.249 16.528 o
10 6 4 17.149 17.901 0.289 8.043 o
10 6 5 1.391 1.354 0.209 53.516 o
10 6 6 5.756 5.804 0.249 24.456 o
10 6 7 2.776 2.529 0.239 36.574 o
10 6 8 0.606 0.458 0.169 88.706 o
10 6 9 10.872 11.439 0.348 11.115 o
10 6 10 0.461 0.488 0.289 33.303 o
10 6 11 4.739 4.749 0.378 15.460 o
10 6 12 5.575 5.904 0.418 12.555 o
10 6 13 1.472 1.364 0.358 20.733 o
10 6 14 1.866 1.523 0.428 14.674 o
10 7 0 0.565 0.488 0.269 37.949 o
10 7 1 0.436 0.358 0.169 91.661 o
10 7 2 0.753 0.667 0.199 64.456 o
10 7 3 0.515 0.408 0.159 100.534 o
10 7 4 1.389 1.294 0.229 46.186 o
10 7 5 8.119 8.542 0.299 16.011 o
10 7 6 21.244 22.311 0.358 5.570 o
10 7 7 0.564 0.269 0.090 256.517 o
10 7 8 5.091 4.948 0.299 21.177 o
10 7 9 10.216 11.459 0.378 10.549 o
10 7 10 1.227 1.155 0.319 26.155 o
10 7 11 0.095 0.179 0.329 26.518 o
10 7 12 0.011 0.100 0.169 99.742 o
10 7 13 2.972 2.788 0.448 12.844 o
10 8 0 4.615 4.540 0.348 17.685 o
10 8 1 10.021 10.225 0.279 14.531 o
10 8 2 0.974 0.717 0.199 62.725 o
10 8 3 9.617 10.085 0.289 14.513 o
10 8 4 3.952 3.773 0.259 28.582 o
10 8 5 11.914 12.166 0.339 10.672 o
10 8 6 2.217 2.061 0.279 30.488 o
10 8 7 1.323 1.264 0.279 33.044 o
10 8 8 0.262 0.299 0.259 41.879 o
10 8 9 3.534 3.305 0.319 22.046 o
10 8 10 1.095 0.996 0.368 20.119 o
10 8 11 0.869 0.806 0.378 19.338 o
10 8 12 1.895 1.822 0.388 17.474 o
10 8 13 0.434 0.488 0.677 6.251 o
10 9 0 7.963 8.672 0.408 11.239 o
10 9 1 6.823 7.298 0.269 19.972 o
10 9 2 2.122 1.782 0.259 34.957 o
10 9 3 1.521 1.454 0.269 34.574 o
10 9 4 4.867 4.580 0.299 21.690 o
10 9 5 18.419 19.942 0.418 5.893 o
10 9 6 1.182 1.016 0.269 35.861 o
10 9 7 5.516 5.665 0.339 17.172 o
10 9 8 0.967 0.826 0.309 28.325 o
10 9 9 8.843 9.647 0.388 11.304 o
10 9 10 4.143 4.002 0.348 18.308 o
10 9 11 0.704 0.587 0.398 17.667 o
10 9 12 2.289 2.449 0.508 10.439 o
10 10 0 11.749 11.977 0.518 6.861 o
10 10 1 0.906 0.408 0.100 190.644 o
10 10 2 2.899 2.748 0.279 28.568 o
10 10 3 6.434 6.651 0.329 16.618 o
10 10 4 1.940 1.792 0.329 23.561 o
10 10 5 0.656 0.269 0.080 288.416 o
10 10 6 2.931 2.798 0.319 23.054 o
10 10 7 1.275 1.225 0.329 24.619 o
10 10 8 2.260 2.290 0.348 20.712 o
10 10 9 0.741 0.707 0.319 27.048 o
10 10 10 5.280 5.326 0.378 14.931 o
10 10 11 1.549 1.304 0.597 7.843 o
10 11 0 1.862 2.091 0.438 13.948 o
10 11 1 20.349 21.983 0.478 4.829 o
10 11 2 9.102 8.940 0.348 12.831 o
10 11 3 1.668 1.613 0.329 23.963 o
10 11 4 0.022 0.020 0.020 5355.800 o
10 11 5 3.652 3.445 0.378 16.600 o
10 11 6 1.643 1.344 0.319 25.517 o
10 11 7 1.671 1.792 0.329 23.860 o
10 11 8 0.068 0.040 0.100 279.873 o
10 11 9 0.796 0.667 0.418 16.009 o
10 11 10 0.970 1.025 0.637 6.982 o
10 12 0 2.122 2.061 0.448 13.289 o
10 12 1 0.356 0.050 0.040 870.965 o
10 12 2 0.175 0.179 0.279 36.556 o
10 12 3 0.898 0.916 0.358 21.379 o
10 12 4 0.136 0.050 0.070 517.266 o
10 12 5 0.350 0.070 0.030 1094.170 o
10 12 6 4.188 4.022 0.428 13.123 o
10 12 7 1.881 1.782 0.339 22.413 o
10 12 8 9.367 10.165 0.498 7.994 o
10 13 0 0.024 0.020 0.070 575.821 o
10 13 1 0.245 0.090 0.110 216.831 o
10 13 2 4.758 4.829 0.478 10.594 o
10 13 3 2.426 2.340 0.428 14.260 o
10 13 4 1.327 1.244 0.408 16.372 o
10 13 5 2.874 2.489 0.388 16.670 o
10 13 6 0.306 0.050 0.070 454.142 o
10 14 0 0.132 0.010 0.050 933.127 o
10 14 1 0.768 0.627 0.408 16.799 o
10 14 2 0.798 0.498 0.528 10.180 o
10 14 3 3.441 3.335 0.498 10.428 o
11 0 1 9.943 9.667 0.299 14.008 o
11 0 2 3.156 2.579 0.269 29.851 o
11 0 3 16.437 16.348 0.368 7.460 o
11 0 4 0.030 0.030 0.020 4844.830 o
11 0 5 7.099 7.019 0.348 14.801 o
11 0 6 2.037 1.802 0.309 26.144 o
11 0 7 1.078 0.846 0.289 31.852 o
11 0 8 4.953 5.187 0.339 17.868 o
11 0 9 18.175 19.683 0.428 5.871 o
11 0 10 2.594 2.300 0.378 17.691 o
11 0 11 0.238 0.060 0.100 259.410 o
11 0 12 2.807 2.419 0.418 14.681 o
11 0 13 1.868 1.663 0.637 6.872 o
11 0 14 3.232 3.096 0.518 9.791 o
11 1 0 9.407 8.940 0.299 14.725 o
11 1 1 4.423 4.032 0.189 38.933 o
11 1 2 2.186 1.822 0.189 55.699 o
11 1 3 0.092 0.080 0.070 529.530 o
11 1 4 18.708 19.314 0.289 7.256 o
11 1 5 6.914 6.889 0.229 23.346 o
11 1 6 0.562 0.478 0.159 99.180 o
11 1 7 2.286 2.210 0.229 41.094 o
11 1 8 4.408 4.281 0.259 27.179 o
11 1 9 1.514 1.334 0.229 45.614 o
11 1 10 4.767 4.779 0.269 24.858 o
11 1 11 0.256 0.050 0.030 1337.580 o
11 1 12 1.048 0.866 0.348 22.444 o
11 1 13 5.805 5.346 0.368 15.167 o
11 1 14 0.233 0.030 0.050 802.787 o
11 2 0 5.754 5.545 0.279 21.753 o
11 2 1 3.257 3.086 0.189 46.152 o
11 2 2 12.606 12.455 0.229 13.168 o
11 2 3 17.933 18.299 0.259 8.038 o
11 2 4 19.916 20.400 0.279 6.809 o
11 2 5 1.080 0.976 0.199 61.127 o
11 2 6 5.282 4.998 0.229 28.514 o
11 2 7 5.220 5.068 0.239 27.315 o
11 2 8 3.019 2.867 0.229 37.531 o
11 2 9 6.350 6.571 0.279 20.280 o
11 2 10 15.203 16.248 0.348 8.187 o
11 2 11 1.090 0.986 0.269 36.110 o
11 2 12 1.920 1.633 0.339 22.448 o
11 2 13 0.795 0.707 0.438 14.618 o
11 2 14 1.211 0.966 0.538 9.704 o
11 3 0 5.616 5.635 0.279 21.883 o
11 3 1 1.285 1.195 0.179 69.828 o
11 3 2 3.602 3.654 0.189 43.185 o
11 3 3 4.069 3.883 0.199 38.564 o
11 3 4 0.531 0.468 0.209 61.049 o
11 3 5 7.025 7.108 0.259 20.577 o
11 3 6 1.454 1.394 0.209 53.072 o
11 3 7 1.723 1.444 0.229 44.585 o
11 3 8 0.069 0.030 0.010 6112.010 o
11 3 9 9.636 10.095 0.289 14.493 o
11 3 10 1.479 1.473 0.289 30.570 o
11 3 11 2.885 2.847 0.339 20.892 o
11 3 12 3.405 3.425 0.339 20.108 o
11 3 13 2.239 1.951 0.438 13.827 o
11 3 14 0.464 0.309 0.896 3.580 o
11 4 0 1.499 1.125 0.249 40.005 o
11 4 1 12.069 12.674 0.249 12.937 o
11 4 2 38.444 39.246 0.339 2.484 o
11 4 3 2.487 2.270 0.199 49.050 o
11 4 4 10.212 9.966 0.249 15.724 o
11 4 5 4.986 5.048 0.239 27.829 o
11 4 6 0.279 0.080 0.040 952.724 o
11 4 7 3.704 3.724 0.239 32.385 o
11 4 8 0.027 0.070 0.119 198.240 o
11 4 9 1.019 0.866 0.269 36.418 o
11 4 10 12.991 13.799 0.378 8.902 o
11 4 11 0.388 0.498 0.259 41.248 o
11 4 12 1.781 1.832 0.398 16.743 o
11 4 13 0.463 0.189 0.149 116.070 o
11 5 0 5.010 4.699 0.319 19.640 o
11 5 1 6.033 6.033 0.229 25.801 o
11 5 2 0.122 0.100 0.060 664.978 o
11 5 3 6.543 6.710 0.259 21.544 o
11 5 4 1.752 1.583 0.219 47.452 o
11 5 5 6.879 7.148 0.249 21.534 o
11 5 6 0.546 0.388 0.179 81.181 o
11 5 7 1.003 0.976 0.239 44.903 o
11 5 8 6.432 6.670 0.289 19.350 o
11 5 9 2.125 1.981 0.279 30.743 o
11 5 10 0.541 0.567 0.309 29.111 o
11 5 11 14.743 16.676 0.478 6.332 o
11 5 12 2.405 2.369 0.398 16.245 o
11 5 13 2.395 2.350 0.418 14.892 o
11 6 0 1.244 1.254 0.319 26.071 o
11 6 1 2.093 1.991 0.219 45.121 o
11 6 2 3.099 2.618 0.239 35.514 o
11 6 3 5.459 5.496 0.239 26.389 o
11 6 4 3.039 2.668 0.229 37.785 o
11 6 5 1.003 0.956 0.239 44.939 o
11 6 6 5.078 5.008 0.259 25.272 o
11 6 7 7.639 7.955 0.299 16.733 o
11 6 8 2.709 2.509 0.309 24.751 o
11 6 9 0.263 0.348 0.289 33.795 o
11 6 10 3.995 3.982 0.358 17.648 o
11 6 11 0.965 0.777 0.368 20.293 o
11 6 12 0.586 0.508 0.339 24.345 o
11 6 13 0.682 0.259 0.219 55.757 o
11 7 0 7.471 7.079 0.368 13.544 o
11 7 1 0.129 0.060 0.030 1797.200 o
11 7 2 18.424 19.663 0.329 6.865 o
11 7 3 1.412 1.155 0.239 43.142 o
11 7 4 5.771 5.814 0.279 21.545 o
11 7 5 8.409 8.701 0.309 15.180 o
11 7 6 0.209 0.119 0.060 603.642 o
11 7 7 3.145 3.037 0.319 22.658 o
11 7 8 8.002 8.572 0.348 13.649 o
11 7 9 0.232 0.070 0.129 160.641 o
11 7 10 0.629 0.458 0.169 88.397 o
11 7 11 1.879 1.683 0.398 16.730 o
11 7 12 0.713 0.468 0.388 18.587 o
11 8 0 0.162 0.060 0.179 87.473 o
11 8 1 0.136 0.179 0.159 109.300 o
11 8 2 1.642 1.444 0.249 39.105 o
11 8 3 1.883 1.862 0.269 33.303 o
11 8 4 0.579 0.269 0.110 188.756 o
11 8 5 8.049 8.801 0.358 13.110 o
11 8 6 1.498 1.354 0.309 27.205 o
11 8 7 3.685 4.012 0.339 19.563 o
11 8 8 3.741 3.853 0.339 19.585 o
11 8 9 4.939 5.237 0.418 13.006 o
11 8 10 1.165 0.996 0.378 19.081 o
11 8 11 0.027 0.060 0.358 22.410 o
11 9 0 1.911 1.912 0.388 17.437 o
11 9 1 6.024 6.003 0.289 20.240 o
11 9 2 4.679 4.679 0.319 20.003 o
11 9 3 0.343 0.358 0.269 38.643 o
11 9 4 8.922 9.627 0.358 12.347 o
11 9 5 0.461 0.339 0.289 33.441 o
11 9 6 0.558 0.538 0.259 40.718 o
11 9 7 0.229 0.239 0.259 42.058 o
11 9 8 6.696 7.407 0.398 12.536 o
11 9 9 0.866 0.727 0.378 19.365 o
11 9 10 1.824 1.643 0.339 22.539 o
11 10 0 0.354 0.408 0.448 14.190 o
11 10 1 11.945 13.411 0.428 8.301 o
11 10 2 0.270 0.189 0.189 77.053 o
11 10 3 4.335 4.172 0.368 16.590 o
11 10 4 0.630 0.528 0.239 47.092 o
11 10 5 2.926 2.987 0.348 19.807 o
11 10 6 5.870 5.874 0.378 14.394 o
11 10 7 2.529 2.479 0.368 18.518 o
11 10 8 1.039 0.737 0.368 20.254 o
11 10 9 2.617 2.489 0.388 16.828 o
11 11 0 1.558 1.424 0.478 12.035 o
11 11 1 1.369 1.205 0.309 27.490 o
11 11 2 0.302 0.289 0.249 45.084 o
11 11 3 1.688 1.563 0.428 14.741 o
11 11 4 0.509 0.587 0.388 18.671 o
11 11 5 5.787 6.262 0.478 10.065 o
11 11 6 1.259 1.075 0.418 15.711 o
11 11 7 1.898 1.752 0.408 15.958 o
11 11 8 0.289 0.000 0.020 1694.760 o
11 12 0 4.195 4.012 0.478 10.888 o
11 12 1 5.048 4.958 0.368 15.815 o
11 12 2 1.684 1.235 0.428 14.812 o
11 12 3 1.719 1.523 0.408 16.106 o
11 12 4 1.919 2.021 0.468 12.327 o
11 12 5 1.286 1.244 0.378 18.919 o
11 12 6 0.917 0.757 0.448 13.943 o
11 13 0 0.460 0.408 0.597 8.015 o
11 13 1 1.326 1.294 0.378 18.876 o
11 13 2 0.084 0.000 0.070 551.094 o
11 13 3 1.965 2.001 0.538 9.480 o
12 0 0 0.057 -0.040 0.189 80.037 o
12 0 1 7.674 7.337 0.319 15.850 o
12 0 2 0.629 0.139 0.070 357.257 o
12 0 3 14.110 14.695 0.388 8.153 o
12 0 4 14.676 15.262 0.398 7.711 o
12 0 5 3.102 2.937 0.339 20.636 o
12 0 6 1.926 1.732 0.348 21.263 o
12 0 7 1.110 1.035 0.329 24.909 o
12 0 8 5.398 5.396 0.408 13.236 o
12 0 9 0.743 0.707 0.348 22.788 o
12 0 10 1.706 1.533 0.378 18.544 o
12 0 11 2.312 1.782 0.418 15.064 o
12 0 12 0.271 0.030 0.229 53.688 o
12 0 13 0.464 0.080 0.558 9.211 o
12 1 0 0.327 0.289 0.388 18.863 o
12 1 1 0.417 0.110 0.040 772.473 o
12 1 2 1.629 1.424 0.209 52.069 o
12 1 3 0.969 0.796 0.219 52.939 o
12 1 4 6.352 6.272 0.239 23.978 o
12 1 5 1.602 1.613 0.229 44.727 o
12 1 6 7.086 7.357 0.259 20.323 o
12 1 7 7.425 7.865 0.279 18.217 o
12 1 8 6.576 7.238 0.319 16.858 o
12 1 9 4.846 5.028 0.309 20.512 o
12 1 10 0.303 0.209 0.129 155.056 o
12 1 11 3.291 3.146 0.299 24.791 o
12 1 12 1.676 1.533 0.378 18.564 o
12 1 13 0.951 1.045 0.707 5.692 o
12 2 0 6.020 5.645 0.319 18.134 o
12 2 1 10.063 10.215 0.229 16.611 o
12 2 2 1.431 1.264 0.209 53.542 o
12 2 3 3.977 3.793 0.219 35.118 o
12 2 4 2.331 1.931 0.229 41.429 o
12 2 5 0.867 0.757 0.229 49.449 o
12 2 6 1.551 1.454 0.239 42.154 o
12 2 7 0.474 0.498 0.179 81.370 o
12 2 8 7.730 8.154 0.309 15.997 o
12 2 9 0.327 0.388 0.279 36.014 o
12 2 10 0.749 0.518 0.179 78.316 o
12 2 11 4.599 4.709 0.378 15.564 o
12 2 12 3.106 2.827 0.319 22.828 o
12 3 0 24.559 25.726 0.458 4.100 o
12 3 1 12.656 13.221 0.249 12.308 o
12 3 2 1.251 1.016 0.219 51.043 o
12 3 3 0.244 0.100 0.040 991.325 o
12 3 4 12.954 13.162 0.269 11.617 o
12 3 5 1.369 1.284 0.229 46.288 o
12 3 6 0.448 0.348 0.209 61.941 o
12 3 7 0.678 0.418 0.169 88.013 o
12 3 8 3.117 3.186 0.279 27.782 o
12 3 9 3.389 3.445 0.309 23.248 o
12 3 10 1.214 1.075 0.299 29.520 o
12 3 11 3.978 3.933 0.378 16.223 o
12 3 12 1.431 1.225 0.398 17.103 o
12 4 0 3.337 3.186 0.299 24.697 o
12 4 1 2.469 2.220 0.219 43.135 o
12 4 2 2.665 2.369 0.219 42.083 o
12 4 3 3.517 3.524 0.229 35.002 o
12 4 4 4.045 3.982 0.239 31.207 o
12 4 5 0.201 0.100 0.070 481.913 o
12 4 6 1.597 1.434 0.229 45.092 o
12 4 7 0.435 0.418 0.249 44.438 o
12 4 8 3.085 2.917 0.279 28.079 o
12 4 9 0.101 0.100 0.110 227.660 o
12 4 10 8.962 9.757 0.358 12.287 o
12 4 11 2.527 2.569 0.339 21.380 o
12 4 12 0.147 -0.020 0.219 59.307 o
12 5 0 24.415 25.935 0.468 4.052 o
12 5 1 2.483 2.250 0.239 37.868 o
12 5 2 3.205 3.256 0.239 34.327 o
12 5 3 0.498 0.398 0.199 67.300 o
12 5 4 4.655 4.480 0.249 27.814 o
12 5 5 3.861 3.733 0.239 31.973 o
12 5 6 1.103 0.976 0.249 41.436 o
12 5 7 3.465 3.485 0.279 26.911 o
12 5 8 1.233 0.986 0.309 27.837 o
12 5 9 0.500 0.309 0.119 166.905 o
12 5 10 0.724 0.687 0.329 25.536 o
12 5 11 1.421 1.294 0.378 18.813 o
12 5 12 2.490 2.200 0.538 9.365 o
12 6 0 0.734 0.488 0.319 27.194 o
12 6 1 4.463 4.440 0.269 25.663 o
12 6 2 1.823 1.653 0.239 40.909 o
12 6 3 0.289 0.139 0.050 703.264 o
12 6 4 5.525 5.545 0.269 23.034 o
12 6 5 1.786 1.792 0.279 31.589 o
12 6 6 4.210 4.301 0.289 23.822 o
12 6 7 8.840 9.568 0.339 13.200 o
12 6 8 1.610 1.593 0.299 28.487 o
12 6 9 0.966 0.816 0.329 25.194 o
12 6 10 5.802 6.441 0.408 12.777 o
12 6 11 2.209 2.111 0.438 13.808 o
12 7 0 0.722 0.538 0.348 22.882 o
12 7 1 0.867 0.617 0.119 145.538 o
12 7 2 3.833 4.052 0.299 23.400 o
12 7 3 3.663 3.733 0.289 25.065 o
12 7 4 0.156 0.110 0.050 842.639 o
12 7 5 0.261 0.119 0.129 158.487 o
12 7 6 3.785 3.743 0.309 22.557 o
12 7 7 2.148 2.310 0.309 25.644 o
12 7 8 1.245 1.105 0.329 24.719 o
12 7 9 0.284 0.229 0.189 76.732 o
12 7 10 0.701 0.697 0.388 18.527 o
12 8 0 0.942 0.896 0.368 20.267 o
12 8 1 3.186 3.345 0.289 26.111 o
12 8 2 0.000 0.100 0.129 169.917 o
12 8 3 8.104 8.761 0.398 11.514 o
12 8 4 4.346 4.172 0.299 22.631 o
12 8 5 0.638 0.548 0.269 37.702 o
12 8 6 1.808 1.732 0.319 25.070 o
12 8 7 7.007 7.377 0.358 14.228 o
12 8 8 2.267 2.141 0.348 20.773 o
12 8 9 0.655 0.567 0.368 20.592 o
12 9 0 0.420 0.398 0.358 21.968 o
12 9 1 1.144 1.055 0.299 29.647 o
12 9 2 1.593 1.344 0.319 25.580 o
12 9 3 2.188 2.320 0.358 19.762 o
12 9 4 3.049 2.857 0.329 21.765 o
12 9 5 1.195 1.085 0.339 23.449 o
12 9 6 0.006 0.090 0.139 146.752 o
12 9 7 8.011 8.911 0.448 9.863 o
12 9 8 1.687 1.593 0.418 15.398 o
12 10 0 5.647 6.123 0.567 7.621 o
12 10 1 2.865 2.718 0.358 19.052 o
12 10 2 1.774 1.852 0.388 17.538 o
12 10 3 0.824 0.767 0.358 21.498 o
12 10 4 0.054 0.100 0.199 71.910 o
12 10 5 1.771 1.722 0.398 16.779 o
12 10 6 1.113 1.125 0.448 13.813 o
12 10 7 0.116 0.030 0.090 334.749 o
12 11 0 1.652 1.364 0.518 10.314 o
12 11 1 5.565 5.754 0.418 12.594 o
12 11 2 0.305 0.458 0.478 12.496 o
12 11 3 1.690 1.493 0.388 17.698 o
12 11 4 3.449 3.226 0.398 15.419 o
12 11 5 0.493 0.239 0.239 48.151 o
12 12 0 1.884 2.320 0.916 3.375 o
12 12 1 2.066 2.160 0.737 5.159 o
12 12 2 0.119 0.169 0.986 2.966 o
13 0 1 0.636 0.239 0.119 162.391 o
13 0 2 0.672 0.548 0.209 59.936 o
13 0 3 0.537 0.110 0.040 671.294 o
13 0 4 5.116 4.908 0.329 18.612 o
13 0 5 0.117 0.199 0.139 141.399 o
13 0 6 0.342 0.289 0.259 41.668 o
13 0 7 2.789 3.136 0.408 15.148 o
13 0 8 1.635 1.553 0.378 18.585 o
13 0 9 0.077 0.090 0.139 144.430 o
13 0 10 1.938 1.772 0.388 17.463 o
13 0 11 0.630 0.129 0.508 11.051 o
13 1 0 4.004 3.684 0.319 21.293 o
13 1 1 2.074 1.852 0.219 45.492 o
13 1 2 13.804 14.456 0.269 10.717 o
13 1 3 2.385 2.200 0.219 43.507 o
13 1 4 2.130 1.872 0.239 39.560 o
13 1 5 3.488 3.345 0.289 25.636 o
13 1 6 3.906 4.122 0.289 24.404 o
13 1 7 2.483 2.429 0.289 28.008 o
13 1 8 0.301 0.279 0.179 84.543 o
13 1 9 1.548 1.483 0.289 30.439 o
13 1 10 6.097 6.222 0.329 17.100 o
13 1 11 0.582 0.458 0.418 16.149 o
13 2 0 2.477 2.479 0.329 22.590 o
13 2 1 2.444 2.270 0.239 37.957 o
13 2 2 0.168 0.050 0.080 400.082 o
13 2 3 0.442 0.159 0.070 398.622 o
13 2 4 0.459 0.319 0.179 82.528 o
13 2 5 3.598 3.574 0.279 26.605 o
13 2 6 3.243 3.435 0.269 28.829 o
13 2 7 1.065 0.976 0.239 44.681 o
13 2 8 8.312 8.861 0.329 14.242 o
13 2 9 0.145 0.169 0.229 53.948 o
13 2 10 0.035 0.020 0.060 765.023 o
13 2 11 0.031 -0.040 0.229 54.864 o
13 3 0 0.461 0.319 0.179 82.502 o
13 3 1 0.831 0.637 0.199 64.009 o
13 3 2 5.898 5.814 0.249 24.198 o
13 3 3 2.833 2.688 0.269 30.395 o
13 3 4 2.328 2.350 0.289 28.337 o
13 3 5 3.501 3.405 0.289 25.570 o
13 3 6 0.711 0.697 0.249 43.102 o
13 3 7 2.731 2.837 0.279 28.794 o
13 3 8 0.573 0.478 0.209 60.757 o
13 3 9 4.484 4.470 0.348 17.823 o
13 3 10 1.426 1.244 0.408 16.323 o
13 3 11 0.229 0.020 0.488 12.065 o
13 4 0 7.694 8.005 0.388 12.289 o
13 4 1 1.715 1.762 0.259 36.002 o
13 4 2 1.909 1.762 0.269 33.356 o
13 4 3 9.143 10.095 0.348 12.457 o
13 4 4 1.144 0.886 0.269 36.099 o
13 4 5 0.755 0.508 0.189 71.216 o
13 4 6 0.426 0.189 0.100 234.773 o
13 4 7 0.254 0.010 0.010 2279.640 o
13 4 8 1.401 1.205 0.319 25.906 o
13 4 9 3.635 3.594 0.329 20.755 o
13 4 10 0.025 0.020 0.110 237.418 o
13 5 0 0.080 0.139 0.478 12.593 o
13 5 1 2.644 2.429 0.259 32.916 o
13 5 2 2.376 2.399 0.269 31.649 o
13 5 3 1.670 1.613 0.289 30.110 o
13 5 4 1.105 0.956 0.279 33.802 o
13 5 5 3.408 3.475 0.269 28.471 o
13 5 6 0.020 0.040 0.040 1636.980 o
13 5 7 1.479 1.274 0.319 25.765 o
13 5 8 0.373 0.040 0.020 1323.010 o
13 5 9 7.302 8.024 0.388 12.489 o
13 5 10 0.975 0.667 0.448 13.939 o
13 6 0 1.061 1.195 0.378 19.084 o
13 6 1 5.248 5.555 0.299 20.614 o
13 6 2 2.601 2.489 0.289 27.761 o
13 6 3 1.539 1.404 0.279 32.467 o
13 6 4 1.306 1.155 0.289 31.162 o
13 6 5 1.145 1.065 0.259 38.399 o
13 6 6 0.208 0.179 0.169 96.182 o
13 6 7 0.029 0.000 0.110 237.917 o
13 6 8 1.897 1.663 0.339 22.456 o
13 6 9 2.131 2.230 0.378 18.025 o
13 7 0 0.334 0.050 0.050 703.040 o
13 7 1 0.034 0.129 0.129 167.772 o
13 7 2 6.082 6.372 0.309 18.429 o
13 7 3 1.329 1.324 0.269 35.162 o
13 7 4 0.757 0.667 0.289 32.597 o
13 7 5 3.852 4.002 0.319 21.285 o
13 7 6 4.269 4.620 0.329 19.583 o
13 7 7 1.475 1.394 0.329 24.300 o
13 7 8 0.113 0.060 0.080 412.983 o
13 8 0 3.957 4.191 0.478 10.933 o
13 8 1 1.483 1.225 0.348 21.892 o
13 8 2 0.242 0.179 0.219 58.301 o
13 8 3 0.751 0.647 0.319 27.072 o
13 8 4 2.438 2.419 0.309 25.175 o
13 8 5 0.670 0.667 0.309 28.858 o
13 8 6 1.966 1.971 0.329 23.433 o
13 8 7 1.260 1.284 0.348 22.066 o
13 9 0 0.457 0.149 0.249 44.803 o
13 9 1 0.465 0.229 0.209 62.209 o
13 9 2 3.898 4.122 0.358 17.670 o
13 9 3 0.446 0.309 0.249 44.580 o
13 9 4 0.116 0.010 0.060 702.072 o
13 9 5 0.255 0.269 0.309 29.729 o
13 9 6 5.203 5.555 0.946 3.053 o
13 10 0 0.385 0.428 0.777 4.761 o
13 10 1 0.967 0.717 0.518 10.515 o
13 10 2 0.303 0.229 0.368 20.963 o
13 10 3 3.162 3.256 0.488 10.899 o
14 0 0 2.628 2.778 0.747 4.980 o
14 0 1 5.195 5.386 0.408 13.340 o
14 0 2 0.346 0.129 0.100 244.900 o
14 0 3 0.088 0.129 0.219 59.277 o
14 0 4 0.149 0.000 0.010 3758.280 o
14 0 5 1.533 1.643 0.458 13.022 o
14 0 6 11.849 13.271 0.548 6.245 o
14 0 7 0.346 0.378 0.319 27.749 o
14 0 8 3.278 3.315 0.587 7.740 o
14 0 9 1.418 1.244 0.458 13.124 o
14 1 0 0.111 0.020 0.020 3073.440 o
14 1 1 0.590 0.617 0.289 32.949 o
14 1 2 0.293 0.020 0.010 1965.330 o
14 1 3 5.029 5.217 0.299 21.087 o
14 1 4 1.193 1.035 0.269 35.812 o
14 1 5 0.500 0.358 0.129 145.105 o
14 1 6 1.986 2.061 0.309 26.036 o
14 1 7 0.692 0.607 0.299 30.730 o
14 1 8 0.212 0.010 0.139 141.358 o
14 1 9 0.171 0.169 0.647 6.869 o
14 2 0 6.175 6.352 0.488 9.615 o
14 2 1 1.413 1.334 0.259 37.333 o
14 2 2 1.806 1.623 0.269 33.739 o
14 2 3 1.251 1.175 0.279 33.280 o
14 2 4 0.205 0.159 0.110 217.277 o
14 2 5 1.619 1.444 0.279 32.266 o
14 2 6 2.837 2.857 0.309 24.349 o
14 2 7 3.622 3.863 0.309 22.687 o
14 2 8 0.879 0.826 0.348 22.613 o
14 2 9 1.147 1.085 0.508 10.844 o
14 3 0 0.031 0.050 0.060 755.945 o
14 3 1 0.410 0.309 0.209 62.304 o
14 3 2 4.485 4.759 0.329 19.299 o
14 3 3 0.057 0.060 0.119 196.718 o
14 3 4 1.879 1.931 0.279 31.271 o
14 3 5 0.107 0.090 0.070 520.853 o
14 3 6 3.038 2.977 0.319 22.820 o
14 3 7 1.012 0.936 0.309 28.183 o
14 3 8 0.225 0.040 0.030 1445.450 o
14 4 0 0.135 0.368 0.358 22.204 o
14 4 1 6.840 7.258 0.339 15.447 o
14 4 2 0.275 0.159 0.129 157.136 o
14 4 3 0.070 0.229 0.229 54.154 o
14 4 4 0.028 0.060 0.129 169.587 o
14 4 5 0.280 0.070 0.100 254.459 o
14 4 6 3.083 3.017 0.319 22.742 o
14 4 7 0.792 0.657 0.319 27.014 o
14 4 8 1.493 1.394 0.368 19.682 o
14 5 0 0.662 0.926 0.538 9.800 o
14 5 1 0.273 0.119 0.080 367.598 o
14 5 2 1.580 1.464 0.289 30.400 o
14 5 3 1.741 1.663 0.299 28.227 o
14 5 4 2.360 2.469 0.299 26.659 o
14 5 5 0.627 0.229 0.119 163.014 o
14 5 6 0.955 0.816 0.388 18.342 o
14 5 7 0.344 0.020 0.020 1444.420 o
14 6 0 2.700 2.718 0.448 12.957 o
14 6 1 2.399 2.409 0.319 23.928 o
14 6 2 1.281 1.175 0.299 29.335 o
14 6 3 1.044 1.035 0.319 26.460 o
14 6 4 1.537 1.523 0.289 30.422 o
14 6 5 1.698 1.523 0.339 22.725 o
14 6 6 0.187 0.010 0.129 163.770 o
14 7 0 3.395 3.614 0.528 9.369 o
14 7 1 0.142 0.050 0.050 894.140 o
14 7 2 0.282 0.100 0.040 934.459 o
14 7 3 1.619 1.244 0.309 27.112 o
14 7 4 0.138 0.050 0.100 270.989 o
14 7 5 3.122 3.435 0.587 7.753 o
14 8 0 0.010 0.189 0.777 4.779 o
14 8 1 1.769 1.673 0.448 13.486 o
14 8 2 0.835 0.538 0.498 11.401 o
14 8 3 0.578 0.697 0.518 10.591 o
15 0 1 1.959 1.961 0.488 11.398 o
15 0 2 5.872 6.083 0.458 10.766 o
15 0 3 0.586 0.478 0.448 14.101 o
15 0 4 0.125 0.209 0.727 5.450 o
15 0 5 0.740 0.528 0.428 15.345 o
15 0 6 0.552 0.100 0.269 38.450 o
15 1 0 2.840 2.827 0.428 13.974 o
15 1 1 0.101 0.020 0.100 277.105 o
15 1 2 0.192 0.040 0.030 1562.650 o
15 1 3 0.051 0.080 0.080 427.230 o
15 1 4 3.048 2.857 0.299 25.350 o
15 1 5 0.629 0.528 0.418 16.113 o
15 1 6 0.139 0.040 0.119 192.492 o
15 2 0 0.279 0.030 0.129 159.561 o
15 2 1 0.202 0.020 0.010 2739.580 o
15 2 2 0.339 0.070 0.080 358.822 o
15 2 3 2.871 2.788 0.299 25.660 o
15 2 4 1.535 1.483 0.339 22.909 o
15 2 5 1.787 1.673 0.348 21.415 o
15 3 0 1.293 1.115 0.428 15.000 o
15 3 1 1.000 0.747 0.259 39.217 o
15 3 2 0.752 0.607 0.309 28.785 o
15 3 3 0.682 0.558 0.299 30.786 o
15 3 4 0.769 0.677 0.368 20.470 o
15 3 5 0.164 0.030 0.050 879.132 o
15 4 0 0.040 0.169 0.329 26.585 o
15 4 1 0.779 0.627 0.299 30.574 o
15 4 2 0.130 0.040 0.070 521.715 o
15 4 3 0.301 0.110 0.119 181.587 o
15 4 4 0.069 0.040 0.368 21.194 o
15 5 0 4.276 5.247 0.597 7.236 o
15 5 1 0.765 0.647 0.358 21.594 o
15 5 2 0.109 0.199 0.378 20.021 o
15 5 3 2.040 1.792 0.498 10.973 o
;
_olex2_submission_special_instructions 'No special instructions were received'
loop_
_space_group_symop_id
_space_group_symop_operation_xyz
1 x,y,z
2 x+1/2,-y+1/2,-z
3 -x,y+1/2,-z+1/2
4 -x+1/2,-y,z+1/2
loop_
_atom_site_label
_atom_site_type_symbol
_atom_site_fract_x
_atom_site_fract_y
_atom_site_fract_z
_atom_site_U_iso_or_equiv
_atom_site_adp_type
_atom_site_occupancy
_atom_site_refinement_flags_posn
O(1) O 0.77988(4) 0.18120(3) 0.17251(3) 0.01397(3) Uani 1.000000 .
O(2) O 0.76656(4) -0.09294(3) 0.23729(3) 0.01765(4) Uani 1.000000 .
N(1) N 1.01610(3) -0.06187(3) 0.47967(3) 0.01057(3) Uani 1.000000 .
C(1) C 0.82270(4) 0.05501(3) 0.25760(3) 0.01102(3) Uani 1.000000 .
C(2) C 0.95493(4) 0.09442(3) 0.39759(3) 0.01147(3) Uani 1.000000 .
C(3) C 1.18181(5) -0.03356(4) 0.59156(4) 0.01690(5) Uani 1.000000 .
H(1a H 0.8980(16) -0.1084(12) 0.5391(12) 0.032(2) Uani 1.000000 .
H(1b H 1.0610(14) -0.1520(12) 0.4031(11) 0.025(2) Uani 1.000000 .
H(2a H 0.8709(14) 0.1716(11) 0.4801(11) 0.035(2) Uani 1.000000 .
H(2b H 1.0888(14) 0.1630(10) 0.3610(10) 0.029(2) Uani 1.000000 .
H(3a H 1.3160(14) 0.0034(12) 0.5287(12) 0.043(3) Uani 1.000000 .
H(3b H 1.1405(15) 0.0644(13) 0.6721(12) 0.043(2) Uani 1.000000 .
H(3c H 1.2094(14) -0.1496(11) 0.6524(11) 0.037(2) Uani 1.000000 .
loop_
_atom_site_aniso_label
_atom_site_aniso_U_11
_atom_site_aniso_U_22
_atom_site_aniso_U_33
_atom_site_aniso_U_12
_atom_site_aniso_U_13
_atom_site_aniso_U_23
O(1) 0.01725(8) 0.01142(6) 0.01326(6) -0.00183(6) -0.00342(6) 0.00371(5)
O(2) 0.02503(10) 0.00990(6) 0.01803(8) -0.00140(7) -0.00876(8) 0.00061(6)
N(1) 0.01302(6) 0.00905(5) 0.00962(6) 0.00019(5) -0.00101(5) 0.00001(5)
C(1) 0.01343(7) 0.00956(6) 0.01007(7) 0.00009(6) -0.00074(6) 0.00089(6)
C(2) 0.01522(8) 0.00923(6) 0.00995(7) -0.00025(6) -0.00115(6) 0.00038(6)
C(3) 0.01918(10) 0.01390(9) 0.01764(10) 0.00007(8) -0.00754(9) -0.00015(8)
H(1a 0.041(6) 0.019(4) 0.036(5) 0.006(4) -0.013(5) -0.001(4)
H(1b 0.025(4) 0.032(5) 0.020(4) -0.001(4) -0.010(4) 0.008(4)
H(2a 0.040(5) 0.030(5) 0.034(5) 0.014(4) -0.002(5) -0.005(4)
H(2b 0.035(5) 0.022(4) 0.031(4) -0.011(4) -0.003(4) 0.011(3)
H(3a 0.029(5) 0.046(5) 0.054(6) -0.008(4) -0.010(5) -0.003(5)
H(3b 0.053(6) 0.039(5) 0.037(5) 0.006(5) -0.018(5) -0.014(4)
H(3c 0.045(5) 0.024(5) 0.042(5) -0.002(4) -0.023(5) 0.002(4)
loop_
_atom_type_symbol
_atom_type_description
_atom_type_scat_dispersion_real
_atom_type_scat_dispersion_imag
_atom_type_scat_source
_atom_type_scat_dispersion_source
C C 0.00347 0.00161
'Clementi & Roetti, C., At. Data Nucl. Data Tables 1974, 14, (177-478); Clementi & Raimondi, J. Chem. Phys., 1963, 38, (2686-2689)'
'Henke, Gullikson and Davis, At. Data and Nucl. Data Tables, 1993, 54, 2'
H H 0.00000 0.00000
'Clementi & Roetti, C., At. Data Nucl. Data Tables 1974, 14, (177-478); Clementi & Raimondi, J. Chem. Phys., 1963, 38, (2686-2689)'
'Henke, Gullikson and Davis, At. Data and Nucl. Data Tables, 1993, 54, 2'
N N 0.00653 0.00323
'Clementi & Roetti, C., At. Data Nucl. Data Tables 1974, 14, (177-478); Clementi & Raimondi, J. Chem. Phys., 1963, 38, (2686-2689)'
'Henke, Gullikson and Davis, At. Data and Nucl. Data Tables, 1993, 54, 2'
O O 0.01158 0.00611
'Clementi & Roetti, C., At. Data Nucl. Data Tables 1974, 14, (177-478); Clementi & Raimondi, J. Chem. Phys., 1963, 38, (2686-2689)'
'Henke, Gullikson and Davis, At. Data and Nucl. Data Tables, 1993, 54, 2'
loop_
_geom_angle_atom_site_label_1
_geom_angle_atom_site_label_2
_geom_angle_atom_site_label_3
_geom_angle
_geom_angle_site_symmetry_1
_geom_angle_site_symmetry_3
_geom_angle_publ_flag
C(3) N(1) C(2) 112.95(2) . . ?
H(1a N(1) C(2) 109.4(5) . . ?
H(1a N(1) C(3) 107.8(5) . . ?
H(1b N(1) C(2) 110.8(5) . . ?
H(1b N(1) C(3) 108.0(5) . . ?
H(1b N(1) H(1a 107.7(7) . . ?
O(2) C(1) O(1) 126.21(2) . . ?
C(2) C(1) O(1) 115.21(2) . . ?
C(2) C(1) O(2) 118.58(2) . . ?
C(1) C(2) N(1) 111.506(19) . . ?
H(2a C(2) N(1) 107.2(5) . . ?
H(2a C(2) C(1) 109.4(5) . . ?
H(2b C(2) N(1) 109.1(4) . . ?
H(2b C(2) C(1) 110.2(4) . . ?
H(2b C(2) H(2a 109.3(7) . . ?
H(3a C(3) N(1) 109.2(5) . . ?
H(3b C(3) N(1) 109.7(5) . . ?
H(3b C(3) H(3a 109.8(7) . . ?
H(3c C(3) N(1) 108.5(5) . . ?
H(3c C(3) H(3a 109.4(7) . . ?
H(3c C(3) H(3b 110.1(7) . . ?
loop_
_geom_bond_atom_site_label_1
_geom_bond_atom_site_label_2
_geom_bond_distance
_geom_bond_site_symmetry_2
_geom_bond_publ_flag
O(1) C(1) 1.2685(3) . ?
O(2) C(1) 1.2381(3) . ?
N(1) C(2) 1.4784(3) . ?
N(1) C(3) 1.4811(4) . ?
N(1) H(1a 1.007(11) . ?
N(1) H(1b 1.014(10) . ?
C(1) C(2) 1.5241(3) . ?
C(2) H(2a 1.090(9) . ?
C(2) H(2b 1.089(8) . ?
C(3) H(3a 1.084(10) . ?
C(3) H(3b 1.074(10) . ?
C(3) H(3c 1.071(9) . ?
loop_
_refln_index_h
_refln_index_k
_refln_index_l
_refln_F_squared_meas
_refln_F_squared_sigma
1 0 0 0.71 0.29
2 0 0 1408.39 11.52
3 0 0 0.31 0.14
4 0 0 1086.17 6.78
5 0 0 -0.03 0.2
6 0 0 27.27 0.68
7 0 0 0.11 0.12
8 0 0 14.04 0.34
9 0 0 0.01 0.6
10 0 0 0 0.1
11 0 0 0.01 0.21
12 0 0 -0.04 0.19
13 0 0 0 0.01
14 0 0 2.79 0.75
1 1 0 1089.5 6.56
2 1 0 397.3 2.52
3 1 0 281.35 1.83
4 1 0 29.39 0.45
5 1 0 104.57 0.8
6 1 0 109.03 0.87
7 1 0 11.91 0.29
8 1 0 1.17 0.18
9 1 0 0.04 0.07
10 1 0 2.57 0.24
11 1 0 8.98 0.3
12 1 0 0.29 0.39
13 1 0 3.7 0.32
14 1 0 0.02 0.02
15 1 0 2.84 0.43
0 2 0 2250.21 20.06
1 2 0 16.34 0.47
2 2 0 26.12 0.59
3 2 0 83.04 0.73
4 2 0 14.73 0.32
5 2 0 3.58 0.27
6 2 0 145.56 1.12
7 2 0 25.68 0.35
8 2 0 14.48 0.27
9 2 0 20.91 0.32
10 2 0 0.1 0.11
11 2 0 5.57 0.28
12 2 0 5.67 0.32
13 2 0 2.49 0.33
14 2 0 6.38 0.49
15 2 0 0.03 0.13
0 3 0 0.21 0.57
1 3 0 1058.67 3.91
2 3 0 234.95 1.12
3 3 0 189.34 0.95
4 3 0 34.61 0.4
5 3 0 55.88 0.52
6 3 0 48.05 0.62
7 3 0 0.62 0.15
8 3 0 141.88 0.64
9 3 0 0.49 0.18
10 3 0 7.95 0.28
11 3 0 5.66 0.28
12 3 0 25.84 0.46
13 3 0 0.32 0.18
14 3 0 0.05 0.06
15 3 0 1.12 0.43
0 4 0 387.4 3.95
1 4 0 117.33 0.73
2 4 0 0.22 0.11
3 4 0 0.07 0.08
4 4 0 92.53 0.62
5 4 0 172.53 0.96
6 4 0 65.86 0.5
7 4 0 7.45 0.2
8 4 0 5.48 0.21
9 4 0 106.57 0.65
10 4 0 8.33 0.29
11 4 0 1.13 0.25
12 4 0 3.2 0.3
13 4 0 8.04 0.39
14 4 0 0.37 0.36
15 4 0 0.17 0.33
0 5 0 0.02 0.12
1 5 0 103.58 0.67
2 5 0 90.8 0.61
3 5 0 1.86 0.17
4 5 0 6.03 0.21
5 5 0 18.33 0.38
6 5 0 17 0.27
7 5 0 9.1 0.23
8 5 0 68.68 0.52
9 5 0 0.81 0.23
10 5 0 10.42 0.32
11 5 0 4.72 0.32
12 5 0 26.05 0.47
13 5 0 0.14 0.48
14 5 0 0.93 0.54
15 5 0 5.27 0.6
0 6 0 199.43 1.52
1 6 0 47.07 0.51
2 6 0 83.54 0.61
3 6 0 110.88 0.83
4 6 0 49.6 0.63
5 6 0 0.07 0.08
6 6 0 2.48 0.19
7 6 0 19.21 0.31
8 6 0 1.09 0.23
9 6 0 1.16 0.26
10 6 0 7.06 0.34
11 6 0 1.26 0.32
12 6 0 0.49 0.32
13 6 0 1.2 0.38
14 6 0 2.73 0.45
0 7 0 0.04 0.16
1 7 0 133.45 0.94
2 7 0 87.86 0.77
3 7 0 25.41 0.46
4 7 0 287.43 0.94
5 7 0 1.01 0.17
6 7 0 47.59 0.43
7 7 0 0.1 0.07
8 7 0 18.35 0.42
9 7 0 3.26 0.3
10 7 0 0.49 0.27
11 7 0 7.11 0.37
12 7 0 0.54 0.35
13 7 0 0.05 0.05
14 7 0 3.63 0.53
0 8 0 338.98 1.87
1 8 0 26.37 0.37
2 8 0 11.87 0.28
3 8 0 14.13 0.25
4 8 0 52.56 0.41
5 8 0 0.53 0.18
6 8 0 26.53 0.37
7 8 0 1.85 0.26
8 8 0 0.12 0.21
9 8 0 24.42 0.49
10 8 0 4.56 0.35
11 8 0 0.06 0.18
12 8 0 0.9 0.37
13 8 0 4.21 0.48
14 8 0 0.19 0.78
0 9 0 0.09 0.17
1 9 0 4.06 0.18
2 9 0 0.02 0.05
3 9 0 18.72 0.31
4 9 0 40.69 0.43
5 9 0 43.4 0.42
6 9 0 7.67 0.29
7 9 0 0.57 0.26
8 9 0 1.16 0.31
9 9 0 21.16 0.49
10 9 0 8.71 0.41
11 9 0 1.92 0.39
12 9 0 0.4 0.36
13 9 0 0.15 0.25
0 10 0 2.06 0.25
1 10 0 0.73 0.18
2 10 0 7.26 0.24
3 10 0 65.98 0.54
4 10 0 22.34 0.37
5 10 0 8.4 0.29
6 10 0 91.45 0.78
7 10 0 19.3 0.47
8 10 0 2.52 0.35
9 10 0 2.17 0.45
10 10 0 12.03 0.52
11 10 0 0.41 0.45
12 10 0 6.15 0.57
13 10 0 0.43 0.78
0 11 0 0.06 0.24
1 11 0 93.01 0.57
2 11 0 0.6 0.22
3 11 0 15.72 0.34
4 11 0 0.14 0.33
5 11 0 90.97 0.68
6 11 0 1.73 0.31
7 11 0 0.07 0.3
8 11 0 1.32 0.36
9 11 0 7.87 0.46
10 11 0 2.1 0.44
11 11 0 1.43 0.48
12 11 0 1.37 0.52
0 12 0 8.15 0.39
1 12 0 22.05 0.36
2 12 0 0.07 0.23
3 12 0 73.78 0.67
4 12 0 21.95 0.41
5 12 0 1.18 0.3
6 12 0 23.72 0.5
7 12 0 0.05 0.05
8 12 0 3.99 0.42
9 12 0 6.82 0.58
10 12 0 2.07 0.45
11 12 0 4.03 0.48
12 12 0 2.33 0.92
0 13 0 0.05 0.2
1 13 0 0.12 0.16
2 13 0 0.11 0.08
3 13 0 0.12 0.16
4 13 0 6.96 0.35
5 13 0 0.94 0.33
6 13 0 0.12 0.2
7 13 0 0.12 0.21
8 13 0 0.99 0.42
9 13 0 0.2 0.18
10 13 0 0.02 0.07
11 13 0 0.41 0.6
0 14 0 21.85 0.59
1 14 0 8.44 0.36
2 14 0 31.39 0.52
3 14 0 57.09 0.66
4 14 0 1.07 0.33
5 14 0 1.34 0.38
6 14 0 3.36 0.42
7 14 0 3.69 0.52
8 14 0 3.01 0.47
9 14 0 0.09 0.6
10 14 0 0.01 0.05
0 15 0 0.03 0.19
1 15 0 0.73 0.4
2 15 0 5.37 0.37
3 15 0 0.22 0.17
4 15 0 17.57 0.48
5 15 0 31.13 0.72
6 15 0 5.51 0.49
7 15 0 -0.01 0.12
8 15 0 0.86 0.56
9 15 0 7.13 0.62
0 16 0 0.11 1.59
1 16 0 0.37 0.27
2 16 0 1.66 0.47
3 16 0 2.67 0.48
4 16 0 0.26 0.41
5 16 0 1.52 0.48
6 16 0 6.44 0.63
7 16 0 0.25 0.93
0 17 0 0 0.06
1 17 0 2 0.47
2 17 0 0.59 0.45
3 17 0 2.48 0.51
4 17 0 0.24 0.45
5 17 0 14.04 0.65
6 17 0 -0.04 0.22
0 18 0 -0.03 0.08
1 18 0 3.44 0.56
2 18 0 2.35 0.65
3 18 0 14.04 0.61
4 18 0 0.02 0.46
1 0 1 869.58 5.94
2 0 1 105.27 1.19
3 0 1 130.69 1.8
4 0 1 177.34 1.2
5 0 1 259.99 1.28
6 0 1 38.92 0.55
7 0 1 80.38 0.59
8 0 1 0.64 0.21
9 0 1 5.19 0.23
10 0 1 3.87 0.25
11 0 1 9.71 0.3
12 0 1 7.37 0.32
13 0 1 0.24 0.12
14 0 1 5.41 0.41
15 0 1 1.97 0.49
0 1 1 251.66 1.65
1 1 1 2240.41 52.67
2 1 1 1023.17 3.06
3 1 1 143.03 0.72
4 1 1 419.64 1.81
5 1 1 80.6 0.52
6 1 1 136.72 0.69
7 1 1 25.47 0.26
8 1 1 2.81 0.14
9 1 1 4.99 0.17
10 1 1 7.16 0.19
11 1 1 4.05 0.19
12 1 1 0.11 0.04
13 1 1 1.86 0.22
14 1 1 0.62 0.29
15 1 1 0.02 0.1
0 2 1 362.96 2.32
1 2 1 32.92 0.42
2 2 1 29.69 0.46
3 2 1 142.53 0.6
4 2 1 26.86 0.28
5 2 1 22.39 0.27
6 2 1 37.43 0.4
7 2 1 61.33 0.34
8 2 1 57.47 0.31
9 2 1 17.09 0.21
10 2 1 0.25 0.09
11 2 1 3.1 0.19
12 2 1 10.26 0.23
13 2 1 2.28 0.24
14 2 1 1.34 0.26
15 2 1 0.02 0.01
0 3 1 82.74 1.28
1 3 1 326.2 1.63
2 3 1 49.89 0.34
3 3 1 516.27 2.03
4 3 1 14.92 0.22
5 3 1 143.6 0.6
6 3 1 77.47 0.59
7 3 1 90.08 0.36
8 3 1 37.15 0.25
9 3 1 4.27 0.16
10 3 1 44.77 0.32
11 3 1 1.2 0.18
12 3 1 13.28 0.25
13 3 1 0.64 0.2
14 3 1 0.31 0.21
15 3 1 0.75 0.26
0 4 1 176.19 0.88
1 4 1 353.07 1.69
2 4 1 348.74 1.54
3 4 1 4.82 0.15
4 4 1 222.14 0.67
5 4 1 70.16 0.45
6 4 1 135.66 0.51
7 4 1 66.59 0.3
8 4 1 68.95 0.33
9 4 1 5.24 0.17
10 4 1 0.74 0.15
11 4 1 12.73 0.25
12 4 1 2.23 0.22
13 4 1 1.77 0.26
14 4 1 7.29 0.34
15 4 1 0.63 0.3
0 5 1 113.65 0.73
1 5 1 135.3 0.56
2 5 1 74.9 0.44
3 5 1 98 0.46
4 5 1 30.05 0.28
5 5 1 29.44 0.33
6 5 1 51.95 0.29
7 5 1 21.12 0.2
8 5 1 4.91 0.16
9 5 1 0.31 0.1
10 5 1 4.35 0.2
11 5 1 6.06 0.23
12 5 1 2.26 0.24
13 5 1 2.44 0.26
14 5 1 0.12 0.08
15 5 1 0.65 0.36
0 6 1 228.01 1.13
1 6 1 33.72 0.3
2 6 1 237.93 0.76
3 6 1 0.87 0.15
4 6 1 5.3 0.21
5 6 1 11.14 0.18
6 6 1 18.46 0.21
7 6 1 15.96 0.22
8 6 1 8.82 0.2
9 6 1 9.52 0.23
10 6 1 1.49 0.22
11 6 1 2 0.22
12 6 1 4.46 0.27
13 6 1 5.58 0.3
14 6 1 2.42 0.32
0 7 1 244.04 1.37
1 7 1 278.87 0.9
2 7 1 32.31 0.35
3 7 1 227.81 0.82
4 7 1 46.31 0.27
5 7 1 28.46 0.22
6 7 1 18.86 0.21
7 7 1 20.86 0.24
8 7 1 4.96 0.19
9 7 1 0.1 0.04
10 7 1 0.36 0.17
11 7 1 0.06 0.03
12 7 1 0.62 0.12
13 7 1 0.13 0.13
14 7 1 0.05 0.05
0 8 1 109.92 0.67
1 8 1 14.45 0.19
2 8 1 196.31 0.58
3 8 1 44.56 0.27
4 8 1 15.53 0.19
5 8 1 68.76 0.35
6 8 1 18.61 0.24
7 8 1 4.61 0.19
8 8 1 1.36 0.2
9 8 1 4.49 0.23
10 8 1 10.27 0.28
11 8 1 0.18 0.16
12 8 1 3.36 0.29
13 8 1 1.23 0.35
14 8 1 1.68 0.45
0 9 1 9.77 0.21
1 9 1 11.86 0.16
2 9 1 13.61 0.18
3 9 1 12.53 0.18
4 9 1 52.13 0.31
5 9 1 9.2 0.19
6 9 1 1.29 0.18
7 9 1 29.82 0.33
8 9 1 12.93 0.28
9 9 1 2.51 0.24
10 9 1 7.33 0.27
11 9 1 6.03 0.29
12 9 1 1.06 0.3
13 9 1 0.23 0.21
0 10 1 3.83 0.19
1 10 1 15.55 0.19
2 10 1 11.34 0.19
3 10 1 18.99 0.24
4 10 1 11.91 0.22
5 10 1 6.11 0.2
6 10 1 14.37 0.27
7 10 1 14 0.29
8 10 1 14.31 0.32
9 10 1 13.37 0.34
10 10 1 0.41 0.1
11 10 1 13.47 0.43
12 10 1 2.73 0.36
13 10 1 0.72 0.52
0 11 1 7.04 0.25
1 11 1 15.64 0.22
2 11 1 31.24 0.29
3 11 1 12.55 0.23
4 11 1 18.53 0.27
5 11 1 17.1 0.27
6 11 1 20.56 0.33
7 11 1 4.77 0.26
8 11 1 17.06 0.36
9 11 1 6.34 0.32
10 11 1 22.08 0.48
11 11 1 1.21 0.31
12 11 1 5.78 0.42
0 12 1 0.34 0.09
1 12 1 2.51 0.17
2 12 1 11.59 0.23
3 12 1 0.98 0.19
4 12 1 2.3 0.2
5 12 1 3.75 0.21
6 12 1 2.72 0.26
7 12 1 5.15 0.3
8 12 1 2.78 0.31
9 12 1 3.51 0.31
10 12 1 0.05 0.04
11 12 1 4.98 0.37
12 12 1 2.17 0.74
0 13 1 14.63 0.38
1 13 1 16.21 0.26
2 13 1 47.61 0.39
3 13 1 16.24 0.28
4 13 1 16.31 0.29
5 13 1 3.36 0.24
6 13 1 3.99 0.28
7 13 1 0.17 0.24
8 13 1 1 0.32
9 13 1 1.37 0.35
10 13 1 0.09 0.11
11 13 1 1.3 0.38
0 14 1 18.97 0.47
1 14 1 0.98 0.21
2 14 1 42.29 0.4
3 14 1 0.06 0.03
4 14 1 16.66 0.31
5 14 1 1.64 0.26
6 14 1 0.01 0.03
7 14 1 5.38 0.33
8 14 1 3.59 0.38
9 14 1 2.88 0.34
10 14 1 0.63 0.41
0 15 1 11.01 0.43
1 15 1 31.39 0.4
2 15 1 2.09 0.24
3 15 1 21.84 0.37
4 15 1 4.37 0.28
5 15 1 1.27 0.3
6 15 1 5.43 0.35
7 15 1 2.31 0.36
8 15 1 0.1 0.12
9 15 1 4.24 0.59
0 16 1 8.86 0.53
1 16 1 0.03 0.05
2 16 1 4.49 0.36
3 16 1 6.59 0.36
4 16 1 8.86 0.38
5 16 1 1.86 0.32
6 16 1 4.52 0.38
7 16 1 0.04 0.08
8 16 1 2.18 0.66
0 17 1 2.42 0.49
1 17 1 1.58 0.36
2 17 1 1.37 0.33
3 17 1 8.06 0.41
4 17 1 4.92 0.39
5 17 1 0.59 0.34
6 17 1 0.01 0.01
0 18 1 2.11 0.55
1 18 1 2.41 0.36
2 18 1 11.82 0.42
3 18 1 2.19 0.37
4 18 1 4.96 0.68
0 0 2 461.61 3.36
1 0 2 6.81 0.34
2 0 2 3612.38 72.18
3 0 2 247.99 1.31
4 0 2 23.8 0.49
5 0 2 35.59 0.5
6 0 2 68.48 0.82
7 0 2 77.92 0.53
8 0 2 2.8 0.2
9 0 2 0.31 0.13
10 0 2 2.95 0.24
11 0 2 2.59 0.27
12 0 2 0.14 0.07
13 0 2 0.55 0.21
14 0 2 0.13 0.1
15 0 2 6.11 0.46
0 1 2 122.65 1.31
1 1 2 2350.77 20.17
2 1 2 1239.68 3.31
3 1 2 469.51 1.99
4 1 2 52.33 0.4
5 1 2 47.71 0.4
6 1 2 2.34 0.2
7 1 2 30.98 0.26
8 1 2 4.85 0.15
9 1 2 20.66 0.23
10 1 2 9.79 0.2
11 1 2 1.83 0.19
12 1 2 1.43 0.21
13 1 2 14.52 0.27
14 1 2 0.02 0.01
15 1 2 0.04 0.03
0 2 2 101.95 1.22
1 2 2 948.59 2.9
2 2 2 203.33 0.74
3 2 2 34.22 0.27
4 2 2 285.66 0.79
5 2 2 57.8 0.46
6 2 2 3.61 0.21
7 2 2 29.07 0.23
8 2 2 34.36 0.26
9 2 2 3.92 0.16
10 2 2 3.33 0.17
11 2 2 12.51 0.23
12 2 2 1.27 0.21
13 2 2 0.05 0.08
14 2 2 1.63 0.27
15 2 2 0.07 0.08
0 3 2 17.62 0.51
1 3 2 148.82 0.6
2 3 2 137.05 0.51
3 3 2 101.3 0.44
4 3 2 87.81 0.5
5 3 2 48.76 0.48
6 3 2 77.32 0.48
7 3 2 63.61 0.31
8 3 2 11.04 0.18
9 3 2 8.28 0.18
10 3 2 47.13 0.34
11 3 2 3.67 0.19
12 3 2 1.02 0.22
13 3 2 5.84 0.25
14 3 2 4.78 0.33
15 3 2 0.61 0.31
0 4 2 125.04 0.67
1 4 2 296.49 1.02
2 4 2 232.86 0.68
3 4 2 50.54 0.35
4 4 2 51.63 0.38
5 4 2 40.64 0.41
6 4 2 69.52 0.34
7 4 2 70.96 0.32
8 4 2 5.43 0.16
9 4 2 18.9 0.23
10 4 2 22.21 0.27
11 4 2 39.42 0.34
12 4 2 2.38 0.22
13 4 2 1.77 0.27
14 4 2 0.16 0.13
15 4 2 0.04 0.07
0 5 2 375.78 1.85
1 5 2 27.84 0.26
2 5 2 1.37 0.13
3 5 2 95.33 0.52
4 5 2 47.3 0.42
5 5 2 34.22 0.3
6 5 2 16.76 0.19
7 5 2 18.2 0.2
8 5 2 9.51 0.2
9 5 2 5.62 0.19
10 5 2 30.02 0.31
11 5 2 0.1 0.06
12 5 2 3.27 0.24
13 5 2 2.41 0.27
14 5 2 1.47 0.29
15 5 2 0.2 0.38
0 6 2 5.82 0.24
1 6 2 156.87 0.63
2 6 2 220.31 0.74
3 6 2 20.69 0.29
4 6 2 21.13 0.29
5 6 2 156.61 0.45
6 6 2 30.33 0.24
7 6 2 1.86 0.14
8 6 2 1.71 0.16
9 6 2 0.68 0.19
10 6 2 1.57 0.2
11 6 2 2.63 0.24
12 6 2 1.66 0.24
13 6 2 2.5 0.29
14 6 2 1.18 0.3
0 7 2 13.4 0.4
1 7 2 111.68 0.63
2 7 2 28.66 0.32
3 7 2 33.19 0.26
4 7 2 31.09 0.24
5 7 2 8.23 0.16
6 7 2 21.48 0.23
7 7 2 23.56 0.24
8 7 2 10.18 0.21
9 7 2 9.08 0.23
10 7 2 0.67 0.2
11 7 2 19.75 0.33
12 7 2 4.07 0.3
13 7 2 6.4 0.31
14 7 2 0.1 0.04
0 8 2 8.15 0.23
1 8 2 34.16 0.25
2 8 2 183.43 0.54
3 8 2 32.21 0.23
4 8 2 11.81 0.16
5 8 2 41.44 0.29
6 8 2 45.84 0.31
7 8 2 10.14 0.21
8 8 2 19.27 0.27
9 8 2 0.5 0.15
10 8 2 0.72 0.2
11 8 2 1.45 0.25
12 8 2 0.1 0.13
13 8 2 0.18 0.22
14 8 2 0.54 0.5
0 9 2 24.58 0.32
1 9 2 17.33 0.18
2 9 2 3.53 0.14
3 9 2 44.54 0.29
4 9 2 8.83 0.18
5 9 2 14.75 0.22
6 9 2 2.01 0.18
7 9 2 45.35 0.39
8 9 2 4.34 0.22
9 9 2 2.74 0.24
10 9 2 1.79 0.26
11 9 2 4.7 0.32
12 9 2 1.35 0.32
13 9 2 4.14 0.36
0 10 2 24.56 0.31
1 10 2 18.87 0.22
2 10 2 5.49 0.16
3 10 2 31.83 0.27
4 10 2 56.3 0.36
5 10 2 20.08 0.27
6 10 2 8.37 0.23
7 10 2 4.95 0.22
8 10 2 36.03 0.41
9 10 2 5.99 0.28
10 10 2 2.76 0.28
11 10 2 0.19 0.19
12 10 2 1.86 0.39
13 10 2 0.23 0.37
0 11 2 0.32 0.14
1 11 2 15.06 0.23
2 11 2 32.44 0.3
3 11 2 38.17 0.35
4 11 2 22.18 0.29
5 11 2 23.71 0.31
6 11 2 2.56 0.23
7 11 2 38.31 0.42
8 11 2 7.38 0.31
9 11 2 1.17 0.26
10 11 2 8.98 0.35
11 11 2 0.29 0.25
12 11 2 0.46 0.48
0 12 2 5.2 0.26
1 12 2 40.55 0.34
2 12 2 12.14 0.23
3 12 2 15.73 0.27
4 12 2 27.83 0.34
5 12 2 19.63 0.31
6 12 2 5.99 0.28
7 12 2 4.1 0.29
8 12 2 4.96 0.34
9 12 2 2.17 0.34
10 12 2 0.18 0.28
11 12 2 1.24 0.43
12 12 2 0.17 0.99
0 13 2 17.5 0.41
1 13 2 15.42 0.27
2 13 2 10.08 0.25
3 13 2 9.01 0.25
4 13 2 14.31 0.29
5 13 2 0.58 0.15
6 13 2 0.58 0.18
7 13 2 0.53 0.23
8 13 2 0.71 0.33
9 13 2 4.43 0.36
10 13 2 4.85 0.48
11 13 2 0 0.07
0 14 2 8.74 0.42
1 14 2 18.49 0.32
2 14 2 0.51 0.16
3 14 2 6.41 0.27
4 14 2 14.23 0.3
5 14 2 20.9 0.36
6 14 2 2.83 0.28
7 14 2 5.17 0.37
8 14 2 3.25 0.35
9 14 2 0.07 0.12
10 14 2 0.5 0.53
0 15 2 1.03 0.37
1 15 2 4.96 0.28
2 15 2 12.79 0.3
3 15 2 9.15 0.28
4 15 2 9.79 0.29
5 15 2 2.52 0.32
6 15 2 4.58 0.35
7 15 2 8.37 0.41
8 15 2 0.83 0.45
9 15 2 1.14 0.64
0 16 2 1.03 0.43
1 16 2 7.01 0.35
2 16 2 2.81 0.33
3 16 2 2.28 0.32
4 16 2 10.99 0.37
5 16 2 5.16 0.34
6 16 2 0.64 0.32
7 16 2 3.2 0.46
8 16 2 8.96 1.02
0 17 2 0.49 0.48
1 17 2 2.26 0.32
2 17 2 0.07 0.05
3 17 2 2.19 0.32
4 17 2 0.62 0.35
5 17 2 1.1 0.49
6 17 2 2.01 0.49
0 18 2 0.11 0.25
1 18 2 3.18 0.35
2 18 2 1.73 0.38
3 18 2 0.51 0.46
4 18 2 5.36 1.36
0 0 3 0.39 0.46
1 0 3 81.3 1.16
2 0 3 134.67 0.79
3 0 3 1265.89 5.02
4 0 3 285.21 1.04
5 0 3 127.12 0.76
6 0 3 7.64 0.34
7 0 3 13.48 0.24
8 0 3 85.08 0.51
9 0 3 0.16 0.15
10 0 3 0.14 0.15
11 0 3 16.42 0.37
12 0 3 14.76 0.39
13 0 3 0.11 0.04
14 0 3 0.13 0.22
15 0 3 0.48 0.45
0 1 3 78.52 0.99
1 1 3 140.79 1.04
2 1 3 549.48 1.87
3 1 3 73.98 0.34
4 1 3 62.92 0.38
5 1 3 148.22 0.57
6 1 3 14.36 0.28
7 1 3 1.7 0.13
8 1 3 5.35 0.15
9 1 3 44.78 0.32
10 1 3 1.32 0.17
11 1 3 0.08 0.07
12 1 3 0.8 0.22
13 1 3 2.21 0.22
14 1 3 5.24 0.3
15 1 3 0.08 0.08
0 2 3 580.38 3.64
1 2 3 89.38 0.51
2 2 3 109.84 0.47
3 2 3 431.14 1.88
4 2 3 74.36 0.38
5 2 3 51.5 0.37
6 2 3 103 0.55
7 2 3 2.54 0.13
8 2 3 0.05 0.05
9 2 3 9.64 0.19
10 2 3 23.95 0.25
11 2 3 18.38 0.26
12 2 3 3.81 0.22
13 2 3 0.16 0.07
14 2 3 1.18 0.28
15 2 3 2.8 0.3
0 3 3 827.35 3.86
1 3 3 58.19 0.34
2 3 3 49.9 0.35
3 3 3 190.32 0.6
4 3 3 120.65 0.52
5 3 3 354.4 1.03
6 3 3 5.29 0.16
7 3 3 54.17 0.29
8 3 3 8.54 0.17
9 3 3 53.52 0.35
10 3 3 0.8 0.17
11 3 3 3.9 0.2
12 3 3 0.1 0.04
13 3 3 2.7 0.27
14 3 3 0.06 0.12
15 3 3 0.56 0.3
0 4 3 119.97 0.65
1 4 3 404.18 2
2 4 3 66.76 0.38
3 4 3 119.34 0.51
4 4 3 48.01 0.38
5 4 3 9.47 0.23
6 4 3 55.88 0.3
7 4 3 5.93 0.15
8 4 3 4.95 0.16
9 4 3 29.72 0.28
10 4 3 7.48 0.2
11 4 3 2.28 0.2
12 4 3 3.54 0.23
13 4 3 10.14 0.35
14 4 3 0.23 0.23
15 4 3 0.11 0.12
0 5 3 351.8 1.37
1 5 3 75.66 0.43
2 5 3 4.89 0.16
3 5 3 15.97 0.25
4 5 3 165.2 0.72
5 5 3 76.77 0.38
6 5 3 5.13 0.14
7 5 3 54.71 0.31
8 5 3 13.12 0.2
9 5 3 24.83 0.29
10 5 3 3.56 0.2
11 5 3 6.74 0.26
12 5 3 0.4 0.2
13 5 3 1.62 0.29
14 5 3 1.67 0.3
15 5 3 1.8 0.5
0 6 3 76.46 0.63
1 6 3 55.05 0.37
2 6 3 30.47 0.3
3 6 3 63.75 0.53
4 6 3 17.89 0.2
5 6 3 31.9 0.23
6 6 3 37.26 0.25
7 6 3 1.11 0.14
8 6 3 0.38 0.12
9 6 3 8.82 0.23
10 6 3 9.66 0.25
11 6 3 5.52 0.24
12 6 3 0.14 0.05
13 6 3 1.41 0.28
14 6 3 1.04 0.32
0 7 3 79.33 0.82
1 7 3 288.6 0.97
2 7 3 88.99 0.47
3 7 3 35.8 0.27
4 7 3 57.26 0.31
5 7 3 27.67 0.23
6 7 3 14.75 0.21
7 7 3 28.54 0.26
8 7 3 1.04 0.17
9 7 3 8.53 0.23
10 7 3 0.41 0.16
11 7 3 1.16 0.24
12 7 3 3.75 0.29
13 7 3 1.33 0.27
14 7 3 1.25 0.31
0 8 3 72.28 0.47
1 8 3 12.93 0.18
2 8 3 0.08 0.04
3 8 3 41.41 0.25
4 8 3 60.74 0.31
5 8 3 16.25 0.21
6 8 3 22.34 0.25
7 8 3 1.14 0.17
8 8 3 27.83 0.31
9 8 3 6.61 0.23
10 8 3 10.13 0.29
11 8 3 1.87 0.27
12 8 3 8.8 0.4
13 8 3 0.65 0.32
14 8 3 0.7 0.52
0 9 3 0.91 0.18
1 9 3 106.81 0.39
2 9 3 39.2 0.27
3 9 3 18.63 0.21
4 9 3 1 0.15
5 9 3 37.78 0.33
6 9 3 10.64 0.21
7 9 3 8.96 0.23
8 9 3 15.46 0.31
9 9 3 7.76 0.26
10 9 3 1.46 0.27
11 9 3 0.36 0.27
12 9 3 2.33 0.36
13 9 3 0.31 0.25
0 10 3 6.2 0.23
1 10 3 35.09 0.27
2 10 3 2.06 0.14
3 10 3 12.28 0.21
4 10 3 4.85 0.19
5 10 3 6.18 0.22
6 10 3 23.49 0.33
7 10 3 0.17 0.05
8 10 3 3.05 0.24
9 10 3 31.29 0.42
10 10 3 6.68 0.33
11 10 3 4.19 0.37
12 10 3 0.77 0.36
13 10 3 3.27 0.49
0 11 3 13.09 0.3
1 11 3 2.42 0.17
2 11 3 12.37 0.22
3 11 3 29.45 0.29
4 11 3 19.88 0.28
5 11 3 4.44 0.23
6 11 3 8.41 0.27
7 11 3 11.95 0.32
8 11 3 17.6 0.38
9 11 3 3.85 0.31
10 11 3 1.62 0.33
11 11 3 1.57 0.43
12 11 3 1.5 0.39
0 12 3 107.82 0.76
1 12 3 16.28 0.25
2 12 3 1.42 0.19
3 12 3 16.65 0.28
4 12 3 10.69 0.25
5 12 3 4.33 0.23
6 12 3 6.42 0.26
7 12 3 5.88 0.31
8 12 3 5.96 0.35
9 12 3 12.23 0.46
10 12 3 0.92 0.36
11 12 3 1.53 0.41
0 13 3 17.47 0.43
1 13 3 31.26 0.35
2 13 3 0.48 0.12
3 13 3 2.96 0.23
4 13 3 9.33 0.28
5 13 3 6.07 0.26
6 13 3 3.61 0.27
7 13 3 4.38 0.3
8 13 3 1.22 0.31
9 13 3 0.56 0.41
10 13 3 2.35 0.43
11 13 3 2.01 0.54
0 14 3 87.28 0.81
1 14 3 2.07 0.24
2 14 3 6.23 0.27
3 14 3 3.02 0.25
4 14 3 13.24 0.32
5 14 3 10.43 0.33
6 14 3 6.38 0.33
7 14 3 0.42 0.23
8 14 3 1.55 0.33
9 14 3 2.66 0.37
10 14 3 3.35 0.5
0 15 3 3.15 0.37
1 15 3 23.83 0.39
2 15 3 16.75 0.34
3 15 3 10.68 0.3
4 15 3 1.34 0.27
5 15 3 1.62 0.32
6 15 3 6.99 0.37
7 15 3 3.71 0.37
8 15 3 5.7 0.43
9 15 3 0.01 0.16
0 16 3 1.04 0.43
1 16 3 1.66 0.28
2 16 3 0.7 0.3
3 16 3 1.19 0.32
4 16 3 0.11 0.17
5 16 3 1.2 0.38
6 16 3 0.31 0.22
7 16 3 0 0.01
0 17 3 0.34 0.23
1 17 3 6.15 0.33
2 17 3 7.34 0.38
3 17 3 1.73 0.37
4 17 3 0.16 0.26
5 17 3 7.95 0.46
6 17 3 3.29 0.54
0 18 3 15.61 0.55
1 18 3 4.51 0.4
2 18 3 0.19 0.25
3 18 3 0.84 0.42
0 0 4 282.04 2.99
1 0 4 864.87 3.71
2 0 4 58.06 0.44
3 0 4 255.15 0.87
4 0 4 92.35 0.58
5 0 4 44.57 0.52
6 0 4 8.13 0.24
7 0 4 0.07 0.06
8 0 4 33.13 0.39
9 0 4 4.32 0.25
10 0 4 4.18 0.27
11 0 4 0.03 0.02
12 0 4 15.33 0.4
13 0 4 4.93 0.33
14 0 4 0 0.01
15 0 4 0.21 0.73
0 1 4 222.48 0.94
1 1 4 676.55 2.38
2 1 4 50.22 0.27
3 1 4 305.74 0.75
4 1 4 116.8 0.54
5 1 4 77.15 0.44
6 1 4 33.74 0.27
7 1 4 24.42 0.22
8 1 4 20.29 0.23
9 1 4 25.45 0.27
10 1 4 4.54 0.2
11 1 4 19.4 0.29
12 1 4 6.3 0.24
13 1 4 1.88 0.24
14 1 4 1.04 0.27
15 1 4 2.87 0.3
0 2 4 358.55 2.58
1 2 4 249.44 0.76
2 2 4 45.94 0.28
3 2 4 159.87 0.54
4 2 4 97.95 0.43
5 2 4 32.82 0.32
6 2 4 33.47 0.26
7 2 4 13.42 0.18
8 2 4 5.92 0.16
9 2 4 22.5 0.25
10 2 4 13.74 0.24
11 2 4 20.49 0.28
12 2 4 1.94 0.23
13 2 4 0.32 0.18
14 2 4 0.16 0.11
15 2 4 1.49 0.34
0 3 4 480.75 3.21
1 3 4 76.27 0.43
2 3 4 299.95 0.91
3 3 4 18.97 0.21
4 3 4 34.27 0.29
5 3 4 32.33 0.3
6 3 4 9.91 0.16
7 3 4 16.8 0.19
8 3 4 15.09 0.2
9 3 4 26.82 0.28
10 3 4 2.21 0.19
11 3 4 0.47 0.21
12 3 4 13.22 0.27
13 3 4 2.36 0.29
14 3 4 1.94 0.28
15 3 4 0.68 0.37
0 4 4 3.77 0.19
1 4 4 85.54 0.4
2 4 4 167.66 0.54
3 4 4 337.7 0.86
4 4 4 186.42 0.66
5 4 4 17.36 0.2
6 4 4 16.99 0.17
7 4 4 4.43 0.14
8 4 4 43.91 0.32
9 4 4 18.29 0.25
10 4 4 0.17 0.07
11 4 4 10.01 0.25
12 4 4 4 0.24
13 4 4 0.89 0.27
14 4 4 0.06 0.13
15 4 4 0.04 0.37
0 5 4 5.72 0.21
1 5 4 108.87 0.5
2 5 4 50.98 0.36
3 5 4 186.68 0.69
4 5 4 5.08 0.2
5 5 4 9.95 0.15
6 5 4 16.28 0.17
7 5 4 49.23 0.3
8 5 4 7.68 0.19
9 5 4 9.94 0.23
10 5 4 1.45 0.2
11 5 4 1.59 0.22
12 5 4 4.5 0.25
13 5 4 0.96 0.28
14 5 4 2.48 0.3
0 6 4 215.26 1.05
1 6 4 35.68 0.34
2 6 4 129.69 0.62
3 6 4 122.09 0.53
4 6 4 55.42 0.29
5 6 4 6.63 0.14
6 6 4 2.16 0.13
7 6 4 6.23 0.16
8 6 4 12.08 0.22
9 6 4 23.55 0.29
10 6 4 17.98 0.29
11 6 4 2.68 0.23
12 6 4 5.57 0.27
13 6 4 1.16 0.29
14 6 4 1.53 0.29
0 7 4 33.5 0.4
1 7 4 33.59 0.27
2 7 4 13.07 0.18
3 7 4 130.32 0.46
4 7 4 32.09 0.25
5 7 4 42.54 0.29
6 7 4 14.26 0.21
7 7 4 25.49 0.27
8 7 4 6.88 0.21
9 7 4 17.75 0.28
10 7 4 1.3 0.23
11 7 4 5.84 0.28
12 7 4 0.11 0.05
13 7 4 0.67 0.29
14 7 4 0.05 0.1
0 8 4 53.43 0.42
1 8 4 61.76 0.3
2 8 4 26.06 0.22
3 8 4 30.84 0.25
4 8 4 4.54 0.14
5 8 4 21.18 0.24
6 8 4 37.56 0.33
7 8 4 10.8 0.23
8 8 4 8.03 0.23
9 8 4 6.35 0.24
10 8 4 3.79 0.26
11 8 4 0.27 0.11
12 8 4 4.19 0.3
13 8 4 2.43 0.31
0 9 4 1.35 0.18
1 9 4 0.3 0.09
2 9 4 0.57 0.13
3 9 4 11.94 0.19
4 9 4 11.45 0.19
5 9 4 24.03 0.28
6 9 4 8.46 0.22
7 9 4 19.1 0.29
8 9 4 7.61 0.25
9 9 4 8.05 0.3
10 9 4 4.6 0.3
11 9 4 9.67 0.36
12 9 4 2.87 0.33
13 9 4 0.01 0.06
0 10 4 23.17 0.36
1 10 4 33.55 0.28
2 10 4 66.16 0.37
3 10 4 1.77 0.16
4 10 4 5.38 0.19
5 10 4 33.69 0.37
6 10 4 45.45 0.41
7 10 4 0.98 0.23
8 10 4 6.32 0.29
9 10 4 4.36 0.29
10 10 4 1.8 0.33
11 10 4 0.53 0.24
12 10 4 0.1 0.2
0 11 4 67.67 0.56
1 11 4 13.75 0.23
2 11 4 41.05 0.34
3 11 4 9.45 0.22
4 11 4 11.24 0.25
5 11 4 11.67 0.27
6 11 4 10.65 0.31
7 11 4 29.46 0.41
8 11 4 9.48 0.31
9 11 4 4.34 0.32
10 11 4 0.02 0.02
11 11 4 0.59 0.39
12 11 4 3.24 0.4
0 12 4 0.34 0.2
1 12 4 1.48 0.19
2 12 4 10.5 0.24
3 12 4 19.29 0.31
4 12 4 0.58 0.18
5 12 4 5.73 0.26
6 12 4 3.41 0.26
7 12 4 14 0.35
8 12 4 5.36 0.31
9 12 4 2.28 0.36
10 12 4 0.05 0.07
11 12 4 2.03 0.47
0 13 4 0.08 0.03
1 13 4 14.43 0.3
2 13 4 30.32 0.37
3 13 4 1.48 0.25
4 13 4 2.8 0.26
5 13 4 9.57 0.31
6 13 4 39.11 0.48
7 13 4 5.97 0.3
8 13 4 2.98 0.33
9 13 4 0.13 0.24
10 13 4 1.25 0.41
0 14 4 19.11 0.47
1 14 4 20.67 0.35
2 14 4 1.78 0.24
3 14 4 14.01 0.3
4 14 4 3.27 0.27
5 14 4 4.18 0.29
6 14 4 4.92 0.33
7 14 4 6.51 0.39
8 14 4 1.11 0.34
9 14 4 2.45 0.42
0 15 4 0.08 0.19
1 15 4 2.02 0.25
2 15 4 4.28 0.27
3 15 4 6.51 0.31
4 15 4 0.32 0.23
5 15 4 1.15 0.3
6 15 4 4.8 0.37
7 15 4 3.75 0.37
8 15 4 2.25 0.4
0 16 4 11.17 0.49
1 16 4 0.57 0.25
2 16 4 19.97 0.41
3 16 4 2.97 0.34
4 16 4 0.14 0.14
5 16 4 0.2 0.19
6 16 4 16.42 0.47
7 16 4 4.86 0.4
0 17 4 1.9 0.41
1 17 4 2.44 0.32
2 17 4 0.73 0.33
3 17 4 5.16 0.34
4 17 4 1.4 0.35
5 17 4 2.42 0.42
0 18 4 5.6 0.47
1 18 4 1.27 0.39
2 18 4 1.5 0.42
0 0 5 0.05 0.1
1 0 5 91.14 0.56
2 0 5 1.67 0.15
3 0 5 0.13 0.07
4 0 5 69.04 0.47
5 0 5 28.67 0.44
6 0 5 92.44 0.57
7 0 5 22.28 0.33
8 0 5 0.08 0.14
9 0 5 3.72 0.24
10 0 5 65.06 0.6
11 0 5 7.05 0.35
12 0 5 2.95 0.34
13 0 5 0.2 0.14
14 0 5 1.65 0.46
15 0 5 0.53 0.43
0 1 5 136.36 0.67
1 1 5 173.15 0.6
2 1 5 34.5 0.26
3 1 5 263.92 0.69
4 1 5 124.8 0.48
5 1 5 47.93 0.4
6 1 5 2.04 0.12
7 1 5 67.93 0.35
8 1 5 1.25 0.15
9 1 5 9.65 0.2
10 1 5 16.61 0.27
11 1 5 6.92 0.23
12 1 5 1.62 0.23
13 1 5 3.36 0.29
14 1 5 0.36 0.13
15 1 5 0.53 0.42
0 2 5 375.45 2.32
1 2 5 107.61 0.5
2 2 5 90.65 0.38
3 2 5 25.25 0.23
4 2 5 355.7 0.91
5 2 5 89.26 0.52
6 2 5 35.62 0.23
7 2 5 6.91 0.16
8 2 5 34.31 0.29
9 2 5 1.33 0.17
10 2 5 9.46 0.23
11 2 5 0.98 0.2
12 2 5 0.76 0.23
13 2 5 3.59 0.28
14 2 5 1.45 0.28
15 2 5 1.68 0.35
0 3 5 3.95 0.17
1 3 5 32.53 0.28
2 3 5 526.86 2.47
3 3 5 66.25 0.39
4 3 5 91.97 0.49
5 3 5 34.38 0.26
6 3 5 23.37 0.2
7 3 5 53.48 0.3
8 3 5 8.55 0.18
9 3 5 12.01 0.22
10 3 5 2.83 0.2
11 3 5 7.14 0.26
12 3 5 1.29 0.23
13 3 5 3.42 0.29
14 3 5 0.09 0.07
15 3 5 0.03 0.05
0 4 5 20.41 0.33
1 4 5 33.96 0.3
2 4 5 146.33 0.52
3 4 5 58.19 0.39
4 4 5 29.84 0.33
5 4 5 13.04 0.15
6 4 5 40.95 0.23
7 4 5 11.12 0.18
8 4 5 42.88 0.33
9 4 5 4.57 0.2
10 4 5 2.09 0.2
11 4 5 5.07 0.24
12 4 5 0.1 0.07
13 4 5 0.51 0.19
14 4 5 0.07 0.1
0 5 5 8.53 0.27
1 5 5 31.97 0.27
2 5 5 182.31 0.67
3 5 5 28.76 0.31
4 5 5 50.75 0.28
5 5 5 12.02 0.15
6 5 5 12.11 0.16
7 5 5 25.82 0.24
8 5 5 34.56 0.3
9 5 5 6.52 0.21
10 5 5 2.87 0.22
11 5 5 7.18 0.25
12 5 5 3.75 0.24
13 5 5 3.49 0.27
14 5 5 0.23 0.12
0 6 5 14.12 0.34
1 6 5 55.56 0.4
2 6 5 52.92 0.35
3 6 5 66.28 0.32
4 6 5 33.66 0.24
5 6 5 73.28 0.32
6 6 5 23.05 0.22
7 6 5 10.92 0.19
8 6 5 29.87 0.29
9 6 5 16.04 0.27
10 6 5 1.36 0.21
11 6 5 0.96 0.24
12 6 5 1.8 0.28
13 6 5 1.07 0.26
14 6 5 1.53 0.34
0 7 5 3.2 0.18
1 7 5 8.74 0.15
2 7 5 21.27 0.19
3 7 5 3.81 0.13
4 7 5 47.53 0.29
5 7 5 4.92 0.16
6 7 5 11.98 0.21
7 7 5 15.96 0.24
8 7 5 28.83 0.32
9 7 5 3.85 0.23
10 7 5 8.58 0.3
11 7 5 8.74 0.31
12 7 5 0.12 0.13
13 7 5 4.02 0.32
14 7 5 3.45 0.59
0 8 5 46.1 0.43
1 8 5 36.57 0.24
2 8 5 25.16 0.23
3 8 5 44.04 0.27
4 8 5 8.61 0.18
5 8 5 19.57 0.26
6 8 5 10.52 0.23
7 8 5 19.33 0.3
8 8 5 0.14 0.09
9 8 5 12.1 0.29
10 8 5 12.22 0.34
11 8 5 8.84 0.36
12 8 5 0.55 0.27
13 8 5 0.67 0.31
0 9 5 88.17 0.57
1 9 5 69.17 0.35
2 9 5 3.71 0.16
3 9 5 50.55 0.33
4 9 5 10.76 0.2
5 9 5 17.83 0.26
6 9 5 10.29 0.25
7 9 5 10.3 0.26
8 9 5 9.78 0.28
9 9 5 0.89 0.23
10 9 5 20.03 0.42
11 9 5 0.34 0.29
12 9 5 1.09 0.34
13 9 5 0.27 0.31
0 10 5 42.46 0.44
1 10 5 12.27 0.21
2 10 5 24.61 0.28
3 10 5 0.11 0.02
4 10 5 29.09 0.3
5 10 5 12.31 0.26
6 10 5 18.8 0.33
7 10 5 9.15 0.28
8 10 5 2.01 0.24
9 10 5 2.32 0.28
10 10 5 0.27 0.08
11 10 5 3 0.35
12 10 5 1.73 0.4
0 11 5 10.51 0.32
1 11 5 30.73 0.31
2 11 5 8.95 0.22
3 11 5 6.22 0.21
4 11 5 16.18 0.28
5 11 5 8.66 0.27
6 11 5 10.24 0.31
7 11 5 11.81 0.32
8 11 5 0.45 0.15
9 11 5 1.31 0.31
10 11 5 3.46 0.38
11 11 5 6.29 0.48
12 11 5 0.24 0.24
0 12 5 20.29 0.41
1 12 5 16.19 0.27
2 12 5 61.4 0.44
3 12 5 2.06 0.2
4 12 5 1.96 0.23
5 12 5 8.26 0.28
6 12 5 13.11 0.33
7 12 5 13.7 0.38
8 12 5 1.34 0.3
9 12 5 1.71 0.34
10 12 5 0.07 0.03
11 12 5 1.25 0.38
0 13 5 0.06 0.03
1 13 5 58.74 0.45
2 13 5 0.15 0.04
3 13 5 17.19 0.32
4 13 5 0.78 0.25
5 13 5 10.3 0.33
6 13 5 3.1 0.29
7 13 5 2.1 0.3
8 13 5 5.56 0.35
9 13 5 0.47 0.31
10 13 5 2.5 0.39
0 14 5 11.68 0.39
1 14 5 2.65 0.24
2 14 5 19.69 0.33
3 14 5 10.72 0.3
4 14 5 0.22 0.14
5 14 5 6.36 0.31
6 14 5 0.69 0.32
7 14 5 10.27 0.43
8 14 5 3.02 0.35
9 14 5 1.3 0.37
0 15 5 2.02 0.35
1 15 5 23.12 0.34
2 15 5 2.45 0.26
3 15 5 0.48 0.19
4 15 5 3.45 0.31
5 15 5 10.26 0.38
6 15 5 0.78 0.33
7 15 5 1.26 0.36
8 15 5 1.18 0.36
0 16 5 0.33 0.39
1 16 5 3.14 0.31
2 16 5 0.09 0.08
3 16 5 0.76 0.29
4 16 5 3.29 0.35
5 16 5 0.24 0.07
6 16 5 0.63 0.39
7 16 5 3.47 0.48
0 17 5 0.99 0.39
1 17 5 10.12 0.36
2 17 5 2.6 0.33
3 17 5 1 0.34
4 17 5 0.53 0.41
5 17 5 4.21 0.55
0 18 5 0.3 0.72
1 18 5 1.87 0.51
0 0 6 104.39 0.94
1 0 6 88.59 0.61
2 0 6 81.08 0.55
3 0 6 1.38 0.17
4 0 6 9.78 0.25
5 0 6 62.88 0.46
6 0 6 4.49 0.19
7 0 6 10.68 0.26
8 0 6 58.75 0.54
9 0 6 15.7 0.35
10 0 6 12.87 0.36
11 0 6 1.81 0.31
12 0 6 1.74 0.35
13 0 6 0.29 0.26
14 0 6 13.33 0.55
15 0 6 0.1 0.27
0 1 6 0.03 0.02
1 1 6 62.87 0.37
2 1 6 20.84 0.25
3 1 6 20.04 0.22
4 1 6 29.58 0.27
5 1 6 38.4 0.27
6 1 6 61.37 0.32
7 1 6 8.45 0.18
8 1 6 28.75 0.28
9 1 6 19.29 0.26
10 1 6 24.01 0.3
11 1 6 0.48 0.16
12 1 6 7.39 0.26
13 1 6 4.14 0.29
14 1 6 2.07 0.31
15 1 6 0.04 0.12
0 2 6 381.54 2.17
1 2 6 50.57 0.36
2 2 6 372.39 1.11
3 2 6 115.76 0.49
4 2 6 21.28 0.27
5 2 6 6.32 0.15
6 2 6 0.58 0.12
7 2 6 41.91 0.27
8 2 6 33.52 0.28
9 2 6 30.36 0.31
10 2 6 0.16 0.11
11 2 6 5.02 0.23
12 2 6 1.46 0.24
13 2 6 3.45 0.27
14 2 6 2.87 0.31
0 3 6 66.17 0.7
1 3 6 111.56 0.5
2 3 6 66.41 0.44
3 3 6 106.16 0.51
4 3 6 24.8 0.27
5 3 6 8.16 0.14
6 3 6 15.04 0.17
7 3 6 12.08 0.18
8 3 6 5.67 0.18
9 3 6 2.69 0.18
10 3 6 20.95 0.3
11 3 6 1.4 0.21
12 3 6 0.35 0.21
13 3 6 0.7 0.25
14 3 6 2.99 0.32
0 4 6 5.49 0.26
1 4 6 128.05 0.63
2 4 6 15.06 0.24
3 4 6 4.93 0.19
4 4 6 43.03 0.26
5 4 6 75.4 0.3
6 4 6 30.11 0.21
7 4 6 0.41 0.13
8 4 6 5.27 0.18
9 4 6 1.13 0.18
10 4 6 9.1 0.24
11 4 6 0.08 0.04
12 4 6 1.44 0.23
13 4 6 0.19 0.1
14 4 6 3.03 0.32
0 5 6 21.27 0.4
1 5 6 310.94 0.95
2 5 6 65.5 0.51
3 5 6 78.93 0.36
4 5 6 130.79 0.4
5 5 6 76.48 0.31
6 5 6 16.61 0.18
7 5 6 10.03 0.19
8 5 6 3.96 0.18
9 5 6 2.59 0.2
10 5 6 16.91 0.28
11 5 6 0.39 0.18
12 5 6 0.98 0.25
13 5 6 0.04 0.04
14 5 6 0.82 0.39
0 6 6 162.19 0.69
1 6 6 9.49 0.16
2 6 6 123.98 0.41
3 6 6 11.24 0.16
4 6 6 30.66 0.24
5 6 6 27.43 0.23
6 6 6 29.88 0.25
7 6 6 17.73 0.24
8 6 6 16.64 0.26
9 6 6 4.7 0.23
10 6 6 5.83 0.25
11 6 6 5.03 0.26
12 6 6 4.32 0.29
13 6 6 0.18 0.17
14 6 6 0.01 0.13
0 7 6 0.13 0.09
1 7 6 42.47 0.24
2 7 6 13.82 0.17
3 7 6 3.98 0.14
4 7 6 50.18 0.31
5 7 6 9.95 0.2
6 7 6 18.68 0.25
7 7 6 16.19 0.27
8 7 6 1.92 0.21
9 7 6 7.85 0.27
10 7 6 22.41 0.36
11 7 6 0.12 0.06
12 7 6 3.76 0.31
13 7 6 4.64 0.33
0 8 6 21.6 0.28
1 8 6 16.23 0.18
2 8 6 9.07 0.16
3 8 6 0.08 0.03
4 8 6 50.23 0.34
5 8 6 8.94 0.21
6 8 6 5.46 0.2
7 8 6 1.19 0.22
8 8 6 23.19 0.35
9 8 6 8.08 0.31
10 8 6 2.07 0.28
11 8 6 1.36 0.31
12 8 6 1.74 0.32
13 8 6 1.98 0.33
0 9 6 52.36 0.44
1 9 6 15.38 0.2
2 9 6 12.98 0.2
3 9 6 24.9 0.27
4 9 6 58.26 0.38
5 9 6 21.45 0.31
6 9 6 14.85 0.26
7 9 6 11.92 0.28
8 9 6 8 0.27
9 9 6 0.12 0.13
10 9 6 1.02 0.27
11 9 6 0.54 0.26
12 9 6 0.09 0.14
13 9 6 5.58 0.95
0 10 6 3.8 0.23
1 10 6 25.49 0.26
2 10 6 29.83 0.3
3 10 6 3.14 0.19
4 10 6 26.5 0.31
5 10 6 6.11 0.23
6 10 6 10.83 0.28
7 10 6 9.76 0.29
8 10 6 11.21 0.32
9 10 6 7.41 0.35
10 10 6 2.81 0.32
11 10 6 5.9 0.38
12 10 6 1.13 0.45
0 11 6 50.53 0.5
1 11 6 1.52 0.17
2 11 6 0.12 0.04
3 11 6 10.89 0.25
4 11 6 11.7 0.26
5 11 6 7.74 0.27
6 11 6 2.68 0.24
7 11 6 1.89 0.27
8 11 6 1.29 0.27
9 11 6 3.83 0.34
10 11 6 1.35 0.32
11 11 6 1.08 0.42
0 12 6 1.04 0.27
1 12 6 10.36 0.24
2 12 6 9.1 0.24
3 12 6 15.99 0.3
4 12 6 6.97 0.26
5 12 6 46.13 0.52
6 12 6 15.06 0.35
7 12 6 0.55 0.27
8 12 6 7.66 0.34
9 12 6 4.93 0.4
10 12 6 4.04 0.43
11 12 6 0.76 0.45
0 13 6 0.04 0.06
1 13 6 11.82 0.27
2 13 6 1.38 0.23
3 13 6 4.71 0.25
4 13 6 37.63 0.44
5 13 6 3.57 0.3
6 13 6 0.37 0.2
7 13 6 0.49 0.22
8 13 6 10.8 0.39
9 13 6 4.96 0.37
10 13 6 0.05 0.07
0 14 6 3 0.35
1 14 6 3.07 0.27
2 14 6 6.88 0.29
3 14 6 5.39 0.26
4 14 6 4.15 0.28
5 14 6 8.44 0.38
6 14 6 3.89 0.34
7 14 6 0.66 0.36
8 14 6 5.04 0.38
9 14 6 0.12 1.08
0 15 6 10.24 0.48
1 15 6 0.48 0.27
2 15 6 3.25 0.3
3 15 6 0.13 0.16
4 15 6 7.05 0.38
5 15 6 6.51 0.35
6 15 6 2.03 0.35
7 15 6 3.71 0.36
8 15 6 0.45 0.53
0 16 6 38.95 0.7
1 16 6 1.29 0.26
2 16 6 0.16 0.17
3 16 6 0 0.04
4 16 6 19.96 0.48
5 16 6 0.17 0.19
6 16 6 0.71 0.46
0 17 6 7.7 0.75
1 17 6 0.67 0.36
2 17 6 2.51 0.38
3 17 6 2.25 0.36
4 17 6 2.68 0.42
0 0 7 0.05 0.08
1 0 7 0.02 0.01
2 0 7 0.55 0.17
3 0 7 0 0.04
4 0 7 16.76 0.3
5 0 7 24.67 0.31
6 0 7 0.31 0.11
7 0 7 2.68 0.23
8 0 7 9.58 0.33
9 0 7 37.39 0.47
10 0 7 0.83 0.26
11 0 7 0.85 0.29
12 0 7 1.04 0.33
13 0 7 3.15 0.41
14 0 7 0.38 0.32
0 1 7 51.02 0.49
1 1 7 129.43 0.57
2 1 7 124.25 0.53
3 1 7 144.03 0.58
4 1 7 22.03 0.22
5 1 7 15.99 0.18
6 1 7 62.86 0.31
7 1 7 21.96 0.24
8 1 7 46.44 0.36
9 1 7 13.43 0.26
10 1 7 1.73 0.2
11 1 7 2.22 0.23
12 1 7 7.9 0.28
13 1 7 2.44 0.29
14 1 7 0.61 0.3
0 2 7 2.32 0.21
1 2 7 75.82 0.46
2 2 7 275 0.89
3 2 7 52.16 0.4
4 2 7 30.42 0.25
5 2 7 3.54 0.13
6 2 7 95.53 0.37
7 2 7 27.36 0.24
8 2 7 31.81 0.31
9 2 7 3.9 0.2
10 2 7 0.31 0.08
11 2 7 5.09 0.24
12 2 7 0.5 0.18
13 2 7 0.98 0.24
14 2 7 3.88 0.31
0 3 7 77.64 0.71
1 3 7 2.22 0.19
2 3 7 59.25 0.48
3 3 7 42.1 0.34
4 3 7 109.74 0.39
5 3 7 2.2 0.12
6 3 7 28.47 0.23
7 3 7 22.06 0.22
8 3 7 3.15 0.17
9 3 7 8 0.21
10 3 7 0.14 0.13
11 3 7 1.45 0.23
12 3 7 0.42 0.17
13 3 7 2.85 0.28
14 3 7 0.94 0.31
0 4 7 427.66 1.98
1 4 7 47.76 0.43
2 4 7 1.73 0.15
3 4 7 7.21 0.16
4 4 7 21.05 0.19
5 4 7 6.71 0.14
6 4 7 63.38 0.32
7 4 7 2.3 0.15
8 4 7 17.82 0.24
9 4 7 6.94 0.22
10 4 7 2.35 0.22
11 4 7 3.74 0.24
12 4 7 0.42 0.25
13 4 7 0.01 0.01
14 4 7 0.66 0.32
0 5 7 5.44 0.23
1 5 7 16.13 0.21
2 5 7 54.08 0.3
3 5 7 11.98 0.16
4 5 7 6.22 0.14
5 5 7 21.76 0.2
6 5 7 72.44 0.35
7 5 7 2.09 0.16
8 5 7 5.16 0.2
9 5 7 12.36 0.25
10 5 7 18.31 0.3
11 5 7 0.98 0.24
12 5 7 3.5 0.28
13 5 7 1.28 0.32
14 5 7 0.02 0.02
0 6 7 49.63 0.35
1 6 7 23.93 0.2
2 6 7 2.79 0.12
3 6 7 39.9 0.26
4 6 7 6.19 0.15
5 6 7 28.65 0.25
6 6 7 47.7 0.33
7 6 7 38.46 0.34
8 6 7 13.99 0.27
9 6 7 8.43 0.26
10 6 7 2.54 0.24
11 6 7 7.99 0.3
12 6 7 9.61 0.34
13 6 7 0 0.11
0 7 7 2.9 0.17
1 7 7 14.52 0.17
2 7 7 24.11 0.2
3 7 7 10.87 0.19
4 7 7 0.51 0.16
5 7 7 20.08 0.24
6 7 7 19.46 0.26
7 7 7 12.83 0.28
8 7 7 12.63 0.3
9 7 7 5.53 0.29
10 7 7 0.27 0.09
11 7 7 3.05 0.32
12 7 7 2.32 0.31
13 7 7 1.4 0.33
0 8 7 6.89 0.23
1 8 7 10.34 0.17
2 8 7 74.92 0.35
3 8 7 17.56 0.22
4 8 7 0.59 0.16
5 8 7 16.98 0.26
6 8 7 6.14 0.22
7 8 7 3.49 0.23
8 8 7 1.71 0.25
9 8 7 24.76 0.44
10 8 7 1.27 0.28
11 8 7 4.03 0.34
12 8 7 7.41 0.36
13 8 7 1.29 0.35
0 9 7 35.03 0.4
1 9 7 15.43 0.21
2 9 7 5.83 0.18
3 9 7 73.54 0.41
4 9 7 11.06 0.23
5 9 7 8.4 0.23
6 9 7 2 0.2
7 9 7 29.9 0.4
8 9 7 15.15 0.33
9 9 7 1.06 0.3
10 9 7 5.69 0.34
11 9 7 0.24 0.26
12 9 7 8.95 0.45
0 10 7 4.46 0.24
1 10 7 20.04 0.25
2 10 7 60.9 0.42
3 10 7 37.49 0.35
4 10 7 2 0.2
5 10 7 0.65 0.21
6 10 7 7.98 0.26
7 10 7 1.6 0.24
8 10 7 0.09 0.15
9 10 7 0.37 0.28
10 10 7 1.23 0.33
11 10 7 2.49 0.37
12 10 7 0.03 0.09
0 11 7 15.91 0.35
1 11 7 8.28 0.22
2 11 7 4.39 0.21
3 11 7 14.3 0.28
4 11 7 43.13 0.41
5 11 7 9.54 0.27
6 11 7 6.17 0.27
7 11 7 0.61 0.16
8 11 7 0.45 0.21
9 11 7 3.72 0.33
10 11 7 1.8 0.33
11 11 7 1.76 0.41
0 12 7 38.7 0.55
1 12 7 6.38 0.23
2 12 7 17.72 0.29
3 12 7 3.05 0.22
4 12 7 16.73 0.33
5 12 7 4.53 0.26
6 12 7 0.84 0.27
7 12 7 0.53 0.21
8 12 7 3.78 0.31
9 12 7 1 0.33
10 12 7 1.79 0.34
0 13 7 0.07 0.12
1 13 7 34.94 0.37
2 13 7 6.29 0.26
3 13 7 42.09 0.45
4 13 7 1.39 0.24
5 13 7 6.07 0.3
6 13 7 8.46 0.37
7 13 7 3.83 0.33
8 13 7 0.95 0.38
9 13 7 3.26 0.4
0 14 7 6.95 0.36
1 14 7 3.26 0.26
2 14 7 6.6 0.29
3 14 7 15.62 0.34
4 14 7 1.4 0.29
5 14 7 3.92 0.32
6 14 7 2.54 0.31
7 14 7 1.77 0.37
8 14 7 1.01 0.39
0 15 7 0.22 0.14
1 15 7 2.95 0.3
2 15 7 0.68 0.32
3 15 7 1.61 0.33
4 15 7 0.06 0.06
5 15 7 6.17 0.38
6 15 7 1.49 0.34
7 15 7 0.02 0.02
0 16 7 0.48 0.42
1 16 7 8.19 0.37
2 16 7 1.22 0.34
3 16 7 10.58 0.43
4 16 7 2.15 0.36
5 16 7 2.29 0.37
6 16 7 3.08 0.56
0 17 7 0.07 0.37
1 17 7 1.11 0.39
2 17 7 0.19 0.11
3 17 7 2.82 0.47
0 0 8 130.97 1.27
1 0 8 78.87 0.71
2 0 8 5.02 0.27
3 0 8 8.24 0.24
4 0 8 6.68 0.19
5 0 8 9.06 0.22
6 0 8 19.87 0.32
7 0 8 97.29 0.66
8 0 8 0.08 0.06
9 0 8 0.1 0.07
10 0 8 2.59 0.29
11 0 8 5.21 0.34
12 0 8 5.42 0.41
13 0 8 1.56 0.38
14 0 8 3.33 0.59
0 1 8 20.64 0.45
1 1 8 105.81 0.6
2 1 8 2.22 0.17
3 1 8 13.46 0.18
4 1 8 18.08 0.18
5 1 8 46.37 0.26
6 1 8 19.64 0.22
7 1 8 13.08 0.22
8 1 8 25.98 0.31
9 1 8 3.45 0.21
10 1 8 11.74 0.26
11 1 8 4.3 0.26
12 1 8 7.27 0.32
13 1 8 0.28 0.18
14 1 8 0.01 0.14
0 2 8 165.2 1.06
1 2 8 2.08 0.17
2 2 8 30.65 0.27
3 2 8 21.14 0.21
4 2 8 20.45 0.2
5 2 8 6.56 0.15
6 2 8 34.18 0.25
7 2 8 47.33 0.31
8 2 8 7.71 0.21
9 2 8 25.43 0.32
10 2 8 1.66 0.21
11 2 8 2.88 0.23
12 2 8 8.19 0.31
13 2 8 8.9 0.33
14 2 8 0.83 0.35
0 3 8 99.55 0.9
1 3 8 180.87 0.69
2 3 8 26.67 0.25
3 3 8 25.22 0.25
4 3 8 16.05 0.2
5 3 8 62.48 0.31
6 3 8 12.05 0.19
7 3 8 0.06 0.03
8 3 8 16.99 0.24
9 3 8 4.72 0.21
10 3 8 1.64 0.22
11 3 8 0.03 0.01
12 3 8 3.2 0.28
13 3 8 0.48 0.21
14 3 8 0.04 0.03
0 4 8 16.84 0.33
1 4 8 13.15 0.2
2 4 8 3.74 0.13
3 4 8 78.82 0.37
4 4 8 23.55 0.23
5 4 8 20.32 0.22
6 4 8 8.54 0.18
7 4 8 14.68 0.22
8 4 8 0.45 0.11
9 4 8 5.89 0.22
10 4 8 3.3 0.22
11 4 8 0.07 0.12
12 4 8 2.93 0.28
13 4 8 1.21 0.32
14 4 8 1.4 0.37
0 5 8 1.67 0.16
1 5 8 127.2 0.42
2 5 8 64.77 0.31
3 5 8 26.05 0.23
4 5 8 26.06 0.24
5 5 8 55.46 0.33
6 5 8 11.5 0.2
7 5 8 9.35 0.21
8 5 8 18.52 0.28
9 5 8 4.52 0.24
10 5 8 4.95 0.25
11 5 8 6.7 0.29
12 5 8 0.99 0.31
13 5 8 0.04 0.02
0 6 8 159.38 0.66
1 6 8 24.78 0.22
2 6 8 25.86 0.22
3 6 8 99.05 0.41
4 6 8 48.2 0.32
5 6 8 2.47 0.16
6 6 8 9.52 0.21
7 6 8 19.38 0.28
8 6 8 7.61 0.24
9 6 8 11.65 0.3
10 6 8 0.46 0.17
11 6 8 2.52 0.31
12 6 8 1.6 0.3
13 6 8 1.67 0.34
0 7 8 2.63 0.2
1 7 8 14.39 0.19
2 7 8 2.24 0.15
3 7 8 30.99 0.27
4 7 8 15.2 0.22
5 7 8 22.25 0.26
6 7 8 3.45 0.2
7 7 8 0.86 0.23
8 7 8 14.02 0.33
9 7 8 1.11 0.26
10 7 8 4.97 0.3
11 7 8 8.61 0.35
12 7 8 1.11 0.33
13 7 8 0.06 0.08
0 8 8 7.09 0.25
1 8 8 22.46 0.23
2 8 8 25.49 0.26
3 8 8 11.55 0.21
4 8 8 0.73 0.17
5 8 8 5.08 0.21
6 8 8 40.42 0.37
7 8 8 6.86 0.28
8 8 8 3.03 0.26
9 8 8 1.12 0.27
10 8 8 0.3 0.26
11 8 8 3.87 0.34
12 8 8 2.15 0.35
0 9 8 1.54 0.22
1 9 8 11.17 0.21
2 9 8 65.55 0.43
3 9 8 11.71 0.23
4 9 8 9.29 0.22
5 9 8 28.72 0.33
6 9 8 5.52 0.24
7 9 8 7.57 0.28
8 9 8 5.98 0.3
9 9 8 9.74 0.34
10 9 8 0.83 0.31
11 9 8 7.44 0.4
12 9 8 1.6 0.42
0 10 8 3.32 0.26
1 10 8 9.28 0.21
2 10 8 10.11 0.24
3 10 8 9.31 0.24
4 10 8 18.84 0.29
5 10 8 8.01 0.25
6 10 8 23.9 0.34
7 10 8 1.45 0.27
8 10 8 4.46 0.3
9 10 8 6.76 0.37
10 10 8 2.3 0.35
11 10 8 0.74 0.37
0 11 8 24.03 0.41
1 11 8 5.05 0.22
2 11 8 9.65 0.26
3 11 8 7.68 0.26
4 11 8 6.51 0.27
5 11 8 10.38 0.29
6 11 8 3.55 0.25
7 11 8 3.45 0.32
8 11 8 1.38 0.33
9 11 8 7.33 0.37
10 11 8 0.04 0.1
11 11 8 0 0.02
0 12 8 0.4 0.39
1 12 8 2.71 0.25
2 12 8 0.73 0.21
3 12 8 28.8 0.38
4 12 8 9.87 0.31
5 12 8 5.94 0.28
6 12 8 16.39 0.35
7 12 8 4.66 0.33
8 12 8 0.9 0.3
9 12 8 0.24 0.12
10 12 8 10.21 0.5
0 13 8 0.03 0.1
1 13 8 1.72 0.26
2 13 8 4.61 0.28
3 13 8 5.43 0.27
4 13 8 13.63 0.33
5 13 8 1.88 0.28
6 13 8 4.25 0.32
7 13 8 15.06 0.43
8 13 8 1.59 0.35
9 13 8 0.21 0.59
0 14 8 3.27 0.38
1 14 8 5.57 0.28
2 14 8 1.01 0.27
3 14 8 10.25 0.38
4 14 8 6.1 0.31
5 14 8 0.11 0.09
6 14 8 5.57 0.36
7 14 8 0.06 0.02
8 14 8 0.24 0.37
0 15 8 1.15 0.45
1 15 8 1.13 0.33
2 15 8 18.6 0.43
3 15 8 0.53 0.28
4 15 8 3.77 0.37
5 15 8 7.05 0.39
6 15 8 0.09 0.34
7 15 8 0.14 0.28
0 16 8 1.11 0.54
1 16 8 1.05 0.32
2 16 8 4.37 0.33
3 16 8 3.64 0.38
4 16 8 2.5 0.36
5 16 8 0.47 0.4
0 17 8 0.22 0.76
1 17 8 1.38 0.44
2 17 8 22.1 0.8
0 0 9 0.03 0.06
1 0 9 44.88 0.41
2 0 9 8.48 0.23
3 0 9 20.78 0.28
4 0 9 0.71 0.18
5 0 9 83.14 0.57
6 0 9 20.13 0.33
7 0 9 7.63 0.27
8 0 9 0.32 0.15
9 0 9 0.12 0.17
10 0 9 0.16 0.18
11 0 9 19.77 0.43
12 0 9 0.71 0.35
13 0 9 0.09 0.14
14 0 9 1.25 0.46
0 1 9 95.46 0.67
1 1 9 62.23 0.35
2 1 9 34.78 0.26
3 1 9 6.96 0.15
4 1 9 40.84 0.26
5 1 9 34.47 0.26
6 1 9 19.25 0.24
7 1 9 11.04 0.21
8 1 9 5.56 0.21
9 1 9 8.14 0.24
10 1 9 5.74 0.24
11 1 9 1.34 0.23
12 1 9 5.05 0.31
13 1 9 1.49 0.29
14 1 9 0.17 0.65
0 2 9 83.68 0.53
1 2 9 160.38 0.48
2 2 9 3.02 0.14
3 2 9 28.61 0.21
4 2 9 80.78 0.37
5 2 9 102.88 0.43
6 2 9 6.94 0.17
7 2 9 8.98 0.2
8 2 9 12.63 0.25
9 2 9 1.07 0.21
10 2 9 3.73 0.23
11 2 9 6.6 0.28
12 2 9 0.39 0.28
13 2 9 0.17 0.23
14 2 9 1.09 0.51
0 3 9 22.03 0.29
1 3 9 4.82 0.15
2 3 9 0.55 0.12
3 3 9 0.76 0.13
4 3 9 1.99 0.15
5 3 9 24.7 0.26
6 3 9 4.79 0.18
7 3 9 51.06 0.35
8 3 9 5.86 0.2
9 3 9 8.59 0.25
10 3 9 3.7 0.24
11 3 9 10.14 0.29
12 3 9 3.46 0.31
13 3 9 4.49 0.35
0 4 9 35.76 0.35
1 4 9 9.38 0.16
2 4 9 35.64 0.25
3 4 9 18.68 0.21
4 4 9 40.61 0.31
5 4 9 2.59 0.17
6 4 9 2.17 0.17
7 4 9 22.21 0.28
8 4 9 12.69 0.25
9 4 9 6.29 0.24
10 4 9 0.32 0.24
11 4 9 0.87 0.27
12 4 9 0.1 0.11
13 4 9 3.61 0.33
0 5 9 9.84 0.23
1 5 9 49.72 0.3
2 5 9 0.78 0.13
3 5 9 47.81 0.32
4 5 9 36.57 0.3
5 5 9 12.22 0.23
6 5 9 0.72 0.19
7 5 9 48.74 0.4
8 5 9 9.74 0.27
9 5 9 15.26 0.33
10 5 9 0.7 0.25
11 5 9 1.99 0.28
12 5 9 0.31 0.12
13 5 9 8.06 0.39
0 6 9 4.08 0.21
1 6 9 16.09 0.2
2 6 9 4.91 0.16
3 6 9 3.58 0.17
4 6 9 32.36 0.29
5 6 9 16.02 0.25
6 6 9 4.17 0.21
7 6 9 3.6 0.23
8 6 9 25.76 0.38
9 6 9 5.08 0.29
10 6 9 11.49 0.35
11 6 9 0.35 0.29
12 6 9 0.82 0.33
13 6 9 2.24 0.38
0 7 9 4.35 0.23
1 7 9 57.49 0.34
2 7 9 24.79 0.25
3 7 9 4.75 0.18
4 7 9 18.91 0.25
5 7 9 2.94 0.19
6 7 9 3.2 0.21
7 7 9 19.66 0.35
8 7 9 1.37 0.24
9 7 9 0.78 0.3
10 7 9 11.51 0.38
11 7 9 0.07 0.13
12 7 9 0.23 0.19
0 8 9 11.68 0.29
1 8 9 26.48 0.26
2 8 9 3.92 0.19
3 8 9 2.51 0.18
4 8 9 20.97 0.28
5 8 9 35 0.35
6 8 9 10.12 0.28
7 8 9 8.03 0.29
8 8 9 6.36 0.28
9 8 9 3.14 0.3
10 8 9 3.32 0.32
11 8 9 5.26 0.42
12 8 9 0.57 0.37
0 9 9 54.45 0.5
1 9 9 34.53 0.34
2 9 9 10.68 0.24
3 9 9 20.45 0.29
4 9 9 11.22 0.24
5 9 9 22.18 0.32
6 9 9 1.82 0.23
7 9 9 0.68 0.26
8 9 9 1.4 0.28
9 9 9 4.7 0.35
10 9 9 9.69 0.39
11 9 9 0.73 0.38
0 10 9 2.37 0.3
1 10 9 42.12 0.39
2 10 9 6.35 0.24
3 10 9 4.48 0.24
4 10 9 24.36 0.34
5 10 9 28.43 0.36
6 10 9 3.87 0.25
7 10 9 0.28 0.11
8 10 9 12.08 0.37
9 10 9 1.74 0.32
10 10 9 0.71 0.32
11 10 9 2.5 0.39
0 11 9 0.09 0.11
1 11 9 3.35 0.23
2 11 9 6.52 0.26
3 11 9 3.06 0.25
4 11 9 2.75 0.25
5 11 9 1.9 0.25
6 11 9 0.15 0.06
7 11 9 5.17 0.35
8 11 9 1.4 0.32
9 11 9 1.64 0.36
10 11 9 0.67 0.42
0 12 9 11.76 0.43
1 12 9 12.86 0.32
2 12 9 33.61 0.44
3 12 9 4.44 0.27
4 12 9 0.79 0.19
5 12 9 9.67 0.34
6 12 9 2.77 0.3
7 12 9 0.3 0.27
8 12 9 5.28 0.37
9 12 9 1.6 0.4
0 13 9 28.05 0.58
1 13 9 13.35 0.32
2 13 9 0.2 0.1
3 13 9 3.72 0.29
4 13 9 18.84 0.39
5 13 9 6.55 0.32
6 13 9 2.27 0.33
7 13 9 3.19 0.38
8 13 9 0.95 0.38
0 14 9 3.93 0.44
1 14 9 2.54 0.31
2 14 9 7.82 0.32
3 14 9 5.2 0.33
4 14 9 0.58 0.28
5 14 9 3.16 0.36
6 14 9 2.74 0.37
7 14 9 0.32 0.17
0 15 9 0.28 0.5
1 15 9 2.35 0.32
2 15 9 5.47 0.37
3 15 9 0.02 0.03
4 15 9 0.59 0.37
5 15 9 0.48 0.42
6 15 9 0.1 0.17
0 16 9 0.41 0.45
1 16 9 6.84 0.39
2 16 9 0.75 0.4
3 16 9 5.23 0.39
4 16 9 10.74 0.75
0 0 10 0.32 0.22
1 0 10 2.76 0.2
2 0 10 99.19 0.6
3 0 10 3.76 0.21
4 0 10 0.08 0.14
5 0 10 2.58 0.23
6 0 10 2.86 0.24
7 0 10 1.41 0.26
8 0 10 1.71 0.28
9 0 10 3.14 0.34
10 0 10 0.32 0.14
11 0 10 2.31 0.38
12 0 10 1.54 0.38
13 0 10 1.78 0.39
0 1 10 72.35 0.51
1 1 10 75.61 0.35
2 1 10 8.33 0.16
3 1 10 63.88 0.34
4 1 10 21.98 0.24
5 1 10 26.06 0.26
6 1 10 30.34 0.29
7 1 10 21.73 0.27
8 1 10 1.6 0.2
9 1 10 6.26 0.24
10 1 10 5.3 0.27
11 1 10 4.8 0.27
12 1 10 0.21 0.13
13 1 10 6.25 0.33
0 2 10 2.15 0.19
1 2 10 28.64 0.24
2 2 10 34.11 0.26
3 2 10 40.46 0.29
4 2 10 15.19 0.22
5 2 10 23.36 0.26
6 2 10 47.34 0.37
7 2 10 3.21 0.2
8 2 10 2.2 0.2
9 2 10 0.69 0.2
10 2 10 10.23 0.27
11 2 10 16.32 0.35
12 2 10 0.52 0.18
13 2 10 0.02 0.06
0 3 10 0.01 0.02
1 3 10 17.2 0.2
2 3 10 15.84 0.2
3 3 10 23.45 0.24
4 3 10 21.5 0.25
5 3 10 7.37 0.21
6 3 10 25.3 0.31
7 3 10 19.67 0.32
8 3 10 1.96 0.22
9 3 10 2.6 0.26
10 3 10 5.09 0.28
11 3 10 1.48 0.29
12 3 10 1.08 0.3
13 3 10 1.25 0.41
0 4 10 0.37 0.14
1 4 10 0.92 0.14
2 4 10 37.82 0.29
3 4 10 28.44 0.27
4 4 10 0.72 0.16
5 4 10 11.35 0.23
6 4 10 4.84 0.2
7 4 10 8.68 0.25
8 4 10 17.17 0.32
9 4 10 1.95 0.25
10 4 10 0.62 0.27
11 4 10 13.86 0.38
12 4 10 9.8 0.36
13 4 10 0.02 0.11
0 5 10 26 0.34
1 5 10 15.7 0.21
2 5 10 72.65 0.39
3 5 10 32.92 0.29
4 5 10 9.47 0.21
5 5 10 16.53 0.27
6 5 10 12.63 0.26
7 5 10 20.13 0.31
8 5 10 0.05 0.04
9 5 10 8.37 0.3
10 5 10 2.01 0.31
11 5 10 0.57 0.31
12 5 10 0.69 0.33
13 5 10 0.67 0.45
0 6 10 0.13 0.05
1 6 10 48.33 0.33
2 6 10 53.36 0.34
3 6 10 27.01 0.29
4 6 10 7.09 0.21
5 6 10 38.61 0.35
6 6 10 13.03 0.29
7 6 10 1.51 0.23
8 6 10 1.43 0.24
9 6 10 8.02 0.33
10 6 10 0.49 0.29
11 6 10 4 0.36
12 6 10 6.47 0.41
0 7 10 18.65 0.34
1 7 10 7.85 0.19
2 7 10 17.82 0.24
3 7 10 12 0.25
4 7 10 6.72 0.22
5 7 10 2.41 0.21
6 7 10 20.75 0.32
7 7 10 1.6 0.26
8 7 10 0.27 0.19
9 7 10 0.14 0.24
10 7 10 1.16 0.32
11 7 10 0.46 0.17
12 7 10 0.7 0.39
0 8 10 3.57 0.27
1 8 10 44.31 0.35
2 8 10 7.88 0.22
3 8 10 18.32 0.28
4 8 10 3.34 0.22
5 8 10 11.62 0.28
6 8 10 0.92 0.24
7 8 10 4.62 0.3
8 8 10 4.1 0.32
9 8 10 8.18 0.37
10 8 10 1 0.37
11 8 10 1 0.38
0 9 10 68.06 0.63
1 9 10 11.48 0.25
2 9 10 1.62 0.21
3 9 10 15.03 0.3
4 9 10 29.93 0.36
5 9 10 7.94 0.27
6 9 10 6.11 0.27
7 9 10 34.56 0.45
8 9 10 0.38 0.24
9 9 10 2.27 0.32
10 9 10 4.02 0.35
11 9 10 1.65 0.34
0 10 10 4.59 0.32
1 10 10 0.61 0.17
2 10 10 5.44 0.26
3 10 10 1.75 0.24
4 10 10 1.48 0.23
5 10 10 1.92 0.25
6 10 10 9.64 0.3
7 10 10 1.09 0.27
8 10 10 8.41 0.37
9 10 10 2.25 0.39
10 10 10 5.35 0.38
0 11 10 1.56 0.35
1 11 10 5.27 0.27
2 11 10 6.18 0.27
3 11 10 22.53 0.41
4 11 10 5.5 0.28
5 11 10 1.48 0.27
6 11 10 4.67 0.3
7 11 10 22.95 0.5
8 11 10 0.12 0.13
9 11 10 1.86 0.37
10 11 10 1.03 0.64
0 12 10 0.15 0.17
1 12 10 8.23 0.3
2 12 10 8.8 0.31
3 12 10 0.59 0.2
4 12 10 5.57 0.3
5 12 10 2.39 0.31
6 12 10 1.67 0.35
7 12 10 0.17 0.11
8 12 10 11.79 0.42
9 12 10 0.12 0.13
0 13 10 2.21 0.44
1 13 10 6.64 0.32
2 13 10 15.49 0.42
3 13 10 3.49 0.31
4 13 10 0.28 0.15
5 13 10 8.58 0.37
6 13 10 3.27 0.39
7 13 10 2.19 0.4
8 13 10 1.91 0.47
0 14 10 0.2 0.14
1 14 10 7.14 0.34
2 14 10 0.25 0.22
3 14 10 0.07 0.13
4 14 10 0.43 0.21
5 14 10 3.38 0.4
6 14 10 0.17 0.19
7 14 10 0.15 2.38
0 15 10 4.31 0.49
1 15 10 1.28 0.41
2 15 10 2.45 0.38
3 15 10 9.2 0.47
4 15 10 2.81 0.42
5 15 10 0.04 0.12
0 16 10 1.32 0.67
1 16 10 8.26 0.46
2 16 10 0.88 0.61
0 0 11 0.1 0.16
1 0 11 25.03 0.37
2 0 11 8.32 0.29
3 0 11 131.97 0.79
4 0 11 55 0.54
5 0 11 0.14 0.15
6 0 11 0.11 0.11
7 0 11 8.14 0.32
8 0 11 0.03 0.04
9 0 11 0.69 0.36
10 0 11 2.85 0.36
11 0 11 0.06 0.1
12 0 11 1.79 0.42
13 0 11 0.13 0.51
0 1 11 27.76 0.34
1 1 11 15.96 0.21
2 1 11 49.58 0.34
3 1 11 5.96 0.19
4 1 11 27.78 0.29
5 1 11 13.47 0.24
6 1 11 7.85 0.23
7 1 11 0.88 0.2
8 1 11 0.26 0.11
9 1 11 6.26 0.27
10 1 11 1.64 0.25
11 1 11 0.05 0.03
12 1 11 3.16 0.3
13 1 11 0.46 0.42
0 2 11 6.36 0.24
1 2 11 30.25 0.27
2 2 11 3.14 0.16
3 2 11 72.11 0.41
4 2 11 7.97 0.21
5 2 11 4.42 0.19
6 2 11 21.89 0.31
7 2 11 9.16 0.25
8 2 11 5.31 0.26
9 2 11 9.02 0.32
10 2 11 21.69 0.38
11 2 11 0.99 0.27
12 2 11 4.73 0.38
13 2 11 -0.04 0.23
0 3 11 9.84 0.27
1 3 11 2.06 0.15
2 3 11 29.47 0.27
3 3 11 8.06 0.2
4 3 11 1.53 0.17
5 3 11 71.12 0.46
6 3 11 5.25 0.24
7 3 11 2.11 0.23
8 3 11 6.33 0.27
9 3 11 18.97 0.41
10 3 11 3.38 0.28
11 3 11 2.86 0.34
12 3 11 3.95 0.38
13 3 11 0.02 0.49
0 4 11 1.65 0.22
1 4 11 9.23 0.18
2 4 11 28.26 0.27
3 4 11 0.74 0.16
4 4 11 1.57 0.18
5 4 11 5.28 0.21
6 4 11 51.11 0.43
7 4 11 1.84 0.22
8 4 11 0.18 0.16
9 4 11 4.06 0.29
10 4 11 5.35 0.32
11 4 11 0.5 0.26
12 4 11 2.58 0.34
0 5 11 12.79 0.31
1 5 11 8.26 0.19
2 5 11 3.67 0.17
3 5 11 1.02 0.17
4 5 11 1.21 0.19
5 5 11 33.52 0.35
6 5 11 18.6 0.31
7 5 11 12.47 0.3
8 5 11 3.63 0.28
9 5 11 9.71 0.37
10 5 11 0.98 0.3
11 5 11 16.75 0.48
12 5 11 1.3 0.38
0 6 11 65.21 0.53
1 6 11 22.61 0.27
2 6 11 5.82 0.2
3 6 11 16.76 0.26
4 6 11 13.68 0.26
5 6 11 9.16 0.26
6 6 11 25.24 0.34
7 6 11 0.1 0.12
8 6 11 2.98 0.3
9 6 11 1.28 0.3
10 6 11 4.77 0.38
11 6 11 0.78 0.37
12 6 11 2.12 0.44
0 7 11 44.69 0.49
1 7 11 35.34 0.32
2 7 11 3.14 0.2
3 7 11 10.33 0.24
4 7 11 2.85 0.21
5 7 11 1.77 0.23
6 7 11 4.16 0.25
7 7 11 0.72 0.2
8 7 11 9.02 0.32
9 7 11 0.15 0.15
10 7 11 0.18 0.33
11 7 11 1.69 0.4
0 8 11 39.24 0.52
1 8 11 10.84 0.24
2 8 11 7.34 0.24
3 8 11 51.57 0.45
4 8 11 18.34 0.31
5 8 11 1.87 0.23
6 8 11 7.33 0.28
7 8 11 7.57 0.3
8 8 11 0.74 0.27
9 8 11 3.07 0.36
10 8 11 0.81 0.38
11 8 11 0.06 0.36
0 9 11 0.21 0.2
1 9 11 2.82 0.23
2 9 11 24.13 0.39
3 9 11 3.4 0.26
4 9 11 6.33 0.26
5 9 11 6.78 0.29
6 9 11 21.24 0.41
7 9 11 4.87 0.3
8 9 11 8.66 0.35
9 9 11 4.17 0.39
10 9 11 0.59 0.4
0 10 11 9.19 0.39
1 10 11 18.07 0.33
2 10 11 7.08 0.31
3 10 11 16.74 0.37
4 10 11 1.73 0.28
5 10 11 0.17 0.16
6 10 11 10.39 0.36
7 10 11 0.65 0.28
8 10 11 1.13 0.31
9 10 11 9.08 0.41
10 10 11 1.31 0.6
0 11 11 0.13 0.19
1 11 11 4 0.27
2 11 11 5.19 0.3
3 11 11 2.91 0.3
4 11 11 2.04 0.3
5 11 11 0.73 0.31
6 11 11 1.16 0.3
7 11 11 0.32 0.37
8 11 11 6.71 0.4
9 11 11 3.14 0.47
0 12 11 25.21 0.61
1 12 11 2.12 0.29
2 12 11 9.94 0.36
3 12 11 7.16 0.34
4 12 11 4.87 0.39
5 12 11 2.21 0.33
6 12 11 7.82 0.36
7 12 11 6.29 0.41
8 12 11 0.14 0.1
0 13 11 0.19 0.2
1 13 11 2.04 0.33
2 13 11 11.65 0.5
3 13 11 0.21 0.26
4 13 11 1.28 0.31
5 13 11 0.11 0.17
6 13 11 2.08 0.43
7 13 11 0.37 0.4
0 14 11 23.55 0.66
1 14 11 1.63 0.38
2 14 11 0.6 0.42
3 14 11 0.58 0.38
4 14 11 6.69 0.39
5 14 11 2.49 0.42
6 14 11 1.25 0.76
0 15 11 3.37 0.5
1 15 11 7.65 0.42
2 15 11 0.98 0.38
3 15 11 2.62 0.43
4 15 11 1.84 1.41
0 0 12 145.41 1.13
1 0 12 1.71 0.22
2 0 12 68.31 0.65
3 0 12 1.09 0.24
4 0 12 11.85 0.38
5 0 12 2.08 0.3
6 0 12 0.88 0.32
7 0 12 -0.01 0.12
8 0 12 4.08 0.41
9 0 12 0.1 0.25
10 0 12 0.05 0.03
11 0 12 2.43 0.42
12 0 12 0.03 0.23
0 1 12 27.32 0.38
1 1 12 15.2 0.23
2 1 12 53.01 0.39
3 1 12 5.7 0.22
4 1 12 52.85 0.43
5 1 12 9.18 0.25
6 1 12 9.02 0.26
7 1 12 0.25 0.17
8 1 12 8.05 0.27
9 1 12 8.11 0.31
10 1 12 0.08 0.07
11 1 12 0.87 0.35
12 1 12 1.54 0.38
0 2 12 10.84 0.29
1 2 12 6.55 0.19
2 2 12 1.66 0.17
3 2 12 7.76 0.22
4 2 12 52.51 0.43
5 2 12 4.85 0.23
6 2 12 9.54 0.3
7 2 12 3.89 0.25
8 2 12 20.15 0.35
9 2 12 0.08 0.06
10 2 12 0.94 0.31
11 2 12 1.64 0.34
12 2 12 2.84 0.32
0 3 12 0.16 0.14
1 3 12 15.93 0.24
2 3 12 9.68 0.21
3 3 12 10.03 0.24
4 3 12 12.21 0.28
5 3 12 19.52 0.32
6 3 12 2.25 0.23
7 3 12 2.57 0.24
8 3 12 7.95 0.31
9 3 12 11.57 0.35
10 3 12 5.1 0.31
11 3 12 3.44 0.34
12 3 12 1.23 0.4
0 4 12 0.12 0.21
1 4 12 3.93 0.18
2 4 12 0.07 0.04
3 4 12 0.07 0.03
4 4 12 39.35 0.37
5 4 12 16.73 0.3
6 4 12 12.15 0.29
7 4 12 5.86 0.26
8 4 12 5.78 0.28
9 4 12 10.08 0.36
10 4 12 12.5 0.41
11 4 12 1.84 0.4
12 4 12 -0.02 0.22
0 5 12 80.22 0.61
1 5 12 9.68 0.22
2 5 12 6.63 0.2
3 5 12 4.84 0.2
4 5 12 32.66 0.35
5 5 12 9.46 0.28
6 5 12 0.72 0.19
7 5 12 2.36 0.26
8 5 12 3.16 0.29
9 5 12 1.99 0.27
10 5 12 7.99 0.38
11 5 12 2.38 0.4
12 5 12 2.21 0.54
0 6 12 0.02 0.08
1 6 12 5.68 0.21
2 6 12 7.13 0.22
3 6 12 3.74 0.21
4 6 12 5.85 0.23
5 6 12 17.06 0.31
6 6 12 0.37 0.21
7 6 12 1.74 0.28
8 6 12 0.25 0.19
9 6 12 0.07 0.04
10 6 12 5.93 0.42
11 6 12 0.51 0.34
0 7 12 15.59 0.37
1 7 12 20.83 0.28
2 7 12 33.04 0.36
3 7 12 12.28 0.27
4 7 12 41.69 0.42
5 7 12 0.94 0.25
6 7 12 11.14 0.33
7 7 12 0.21 0.08
8 7 12 4.71 0.3
9 7 12 0.01 0.01
10 7 12 0.1 0.17
11 7 12 0.47 0.39
0 8 12 24.46 0.51
1 8 12 7.98 0.25
2 8 12 16.87 0.3
3 8 12 0.26 0.14
4 8 12 5.22 0.25
5 8 12 2.27 0.25
6 8 12 1.6 0.26
7 8 12 3.33 0.3
8 8 12 9.79 0.4
9 8 12 1.61 0.36
10 8 12 1.83 0.39
0 9 12 3.36 0.3
1 9 12 6.69 0.25
2 9 12 14.24 0.33
3 9 12 7.26 0.29
4 9 12 1.09 0.25
5 9 12 7.37 0.31
6 9 12 2.12 0.3
7 9 12 1.61 0.31
8 9 12 5.58 0.35
9 9 12 4.34 0.37
10 9 12 2.46 0.51
0 10 12 0.22 0.21
1 10 12 5.29 0.29
2 10 12 0.14 0.08
3 10 12 8.86 0.32
4 10 12 6.08 0.31
5 10 12 15.17 0.39
6 10 12 8.62 0.34
7 10 12 9.63 0.4
8 10 12 8.45 0.44
9 10 12 1.85 0.43
0 11 12 9.29 0.45
1 11 12 17.25 0.36
2 11 12 0.42 0.25
3 11 12 8.14 0.35
4 11 12 0.31 0.25
5 11 12 11.34 0.44
6 11 12 0.32 0.33
7 11 12 4.74 0.41
8 11 12 2.89 0.49
0 12 12 0.08 0.19
1 12 12 2.14 0.36
2 12 12 0.12 0.13
3 12 12 1.32 0.29
4 12 12 2.56 0.34
5 12 12 3.26 0.33
6 12 12 4.43 0.36
7 12 12 0.75 0.41
0 13 12 7.7 0.6
1 13 12 15.09 0.48
2 13 12 0.18 0.14
3 13 12 5.22 0.37
4 13 12 1.39 0.34
5 13 12 2.13 0.36
6 13 12 0.77 0.43
0 14 12 5.95 0.63
1 14 12 0.75 0.37
2 14 12 4.35 0.38
3 14 12 2.19 0.41
4 14 12 0.99 0.36
0 15 12 0.72 0.8
1 15 12 2.32 0.48
0 0 13 0.46 0.25
1 0 13 58 0.55
2 0 13 0.11 0.06
3 0 13 9.21 0.39
4 0 13 0.09 0.15
5 0 13 31.89 0.58
6 0 13 7.92 0.39
7 0 13 0.55 0.31
8 0 13 2.71 0.42
9 0 13 2.15 0.43
10 0 13 2.76 0.54
11 0 13 1.67 0.64
12 0 13 0.08 0.56
0 1 13 0.71 0.27
1 1 13 13.12 0.25
2 1 13 28.45 0.36
3 1 13 6.37 0.24
4 1 13 18 0.33
5 1 13 6.4 0.29
6 1 13 6.63 0.28
7 1 13 4.08 0.27
8 1 13 0.44 0.21
9 1 13 0.97 0.35
10 1 13 6.27 0.39
11 1 13 5.37 0.37
12 1 13 1.05 0.71
0 2 13 16.88 0.35
1 2 13 19.65 0.27
2 2 13 9.06 0.24
3 2 13 28.53 0.36
4 2 13 1.76 0.23
5 2 13 0.52 0.24
6 2 13 0.92 0.27
7 2 13 7.84 0.32
8 2 13 20.22 0.4
9 2 13 0.96 0.33
10 2 13 1.1 0.33
11 2 13 0.71 0.44
0 3 13 3.62 0.28
1 3 13 0.71 0.19
2 3 13 12.63 0.25
3 3 13 26.51 0.34
4 3 13 3.12 0.24
5 3 13 5.37 0.27
6 3 13 5.01 0.27
7 3 13 28.14 0.43
8 3 13 3.63 0.3
9 3 13 1.18 0.31
10 3 13 11.66 0.39
11 3 13 1.96 0.44
0 4 13 2.52 0.28
1 4 13 17.89 0.28
2 4 13 1.18 0.2
3 4 13 8.98 0.25
4 4 13 37.8 0.4
5 4 13 2.14 0.25
6 4 13 6.98 0.3
7 4 13 0.86 0.25
8 4 13 28.3 0.44
9 4 13 4.2 0.33
10 4 13 2.37 0.34
11 4 13 0.19 0.15
0 5 13 3.62 0.28
1 5 13 3.4 0.21
2 5 13 1.44 0.2
3 5 13 7.12 0.24
4 5 13 14.32 0.3
5 5 13 2.27 0.24
6 5 13 1 0.23
7 5 13 10.48 0.33
8 5 13 3.35 0.32
9 5 13 2.01 0.3
10 5 13 0.42 0.14
11 5 13 2.36 0.42
0 6 13 5.65 0.33
1 6 13 24.39 0.34
2 6 13 54.19 0.42
3 6 13 10.53 0.27
4 6 13 4.76 0.25
5 6 13 1.48 0.25
6 6 13 0.92 0.26
7 6 13 7.21 0.31
8 6 13 4.72 0.35
9 6 13 5 0.35
10 6 13 1.37 0.36
11 6 13 0.26 0.22
0 7 13 0.05 0.04
1 7 13 9.47 0.26
2 7 13 8.89 0.27
3 7 13 19.41 0.32
4 7 13 2.72 0.24
5 7 13 1.09 0.25
6 7 13 0.91 0.27
7 7 13 3.46 0.29
8 7 13 0.41 0.37
9 7 13 0.28 0.21
10 7 13 2.8 0.45
0 8 13 2.75 0.33
1 8 13 17.01 0.31
2 8 13 26.7 0.36
3 8 13 5.03 0.26
4 8 13 0.59 0.2
5 8 13 22.56 0.38
6 8 13 0.62 0.27
7 8 13 3.82 0.34
8 8 13 0.42 0.45
9 8 13 1.9 0.34
10 8 13 0.49 0.68
0 9 13 1.73 0.35
1 9 13 7.35 0.27
2 9 13 9.73 0.31
3 9 13 1.49 0.27
4 9 13 25.75 0.42
5 9 13 2.42 0.31
6 9 13 0.41 0.22
7 9 13 6.54 0.41
8 9 13 3.15 0.36
9 9 13 0.08 0.15
0 10 13 0.03 0.05
1 10 13 0.03 0.02
2 10 13 7.15 0.29
3 10 13 0.14 0.16
4 10 13 0.11 0.1
5 10 13 1.55 0.36
6 10 13 5.43 0.4
7 10 13 5.07 0.38
8 10 13 0.82 0.43
0 11 13 0.09 0.3
1 11 13 5.21 0.32
2 11 13 0.15 0.1
3 11 13 1.28 0.3
4 11 13 5.06 0.34
5 11 13 3.74 0.36
6 11 13 6.51 0.43
7 11 13 5.15 0.44
0 12 13 15.49 0.64
1 12 13 1.14 0.3
2 12 13 6.27 0.38
3 12 13 1.41 0.32
4 12 13 8.96 0.39
5 12 13 0.99 0.38
6 12 13 1.8 0.45
0 13 13 0.99 0.48
1 13 13 0.05 0.05
2 13 13 2.03 0.37
3 13 13 0.15 0.12
4 13 13 2.19 0.37
5 13 13 1.92 0.63
0 14 13 0.06 0.28
1 14 13 0.42 0.47
2 14 13 13.57 0.53
0 0 14 105.46 1.09
1 0 14 0.13 0.19
2 0 14 3.18 0.3
3 0 14 3.42 0.37
4 0 14 10.73 0.51
5 0 14 15.31 0.6
6 0 14 0.16 0.24
7 0 14 5.91 0.51
8 0 14 0.39 0.32
9 0 14 6.8 0.7
10 0 14 3.39 0.54
11 0 14 3.11 0.52
0 1 14 1.88 0.27
1 1 14 17.4 0.29
2 1 14 46.34 0.43
3 1 14 2.47 0.26
4 1 14 1.3 0.27
5 1 14 5.31 0.28
6 1 14 16.78 0.38
7 1 14 1.43 0.29
8 1 14 0.66 0.31
9 1 14 1.31 0.38
10 1 14 0.7 0.37
11 1 14 0.03 0.05
0 2 14 5.63 0.34
1 2 14 16.57 0.32
2 2 14 3.94 0.24
3 2 14 2.11 0.25
4 2 14 2.82 0.26
5 2 14 9.68 0.32
6 2 14 9.11 0.35
7 2 14 7.53 0.35
8 2 14 3 0.31
9 2 14 6.67 0.39
10 2 14 2.02 0.35
11 2 14 0.97 0.54
0 3 14 5.03 0.31
1 3 14 3.42 0.2
2 3 14 10.07 0.26
3 3 14 30.9 0.43
4 3 14 4.44 0.26
5 3 14 5.37 0.29
6 3 14 4.81 0.3
7 3 14 12.91 0.37
8 3 14 9.88 0.37
9 3 14 2.84 0.33
10 3 14 0.79 0.39
11 3 14 0.31 0.9
0 4 14 3.61 0.31
1 4 14 11.35 0.26
2 4 14 6.43 0.24
3 4 14 6.8 0.28
4 4 14 3.57 0.26
5 4 14 0.17 0.07
6 4 14 16.33 0.38
7 4 14 0.19 0.12
8 4 14 0.12 0.08
9 4 14 7.6 0.37
10 4 14 5.21 0.38
0 5 14 6.16 0.33
1 5 14 0.75 0.19
2 5 14 8.49 0.26
3 5 14 44.31 0.44
4 5 14 0.71 0.26
5 5 14 2.35 0.27
6 5 14 4.25 0.3
7 5 14 9.49 0.37
8 5 14 7.46 0.38
9 5 14 3.51 0.34
10 5 14 2.02 0.5
0 6 14 5.96 0.35
1 6 14 0.17 0.14
2 6 14 6.02 0.25
3 6 14 8.87 0.28
4 6 14 1.41 0.26
5 6 14 2.78 0.28
6 6 14 0.1 0.04
7 6 14 1.52 0.31
8 6 14 2.52 0.42
9 6 14 1.91 0.37
10 6 14 1.53 0.43
0 7 14 13.47 0.41
1 7 14 8.07 0.27
2 7 14 7.52 0.28
3 7 14 5.4 0.26
4 7 14 15.98 0.34
5 7 14 1 0.31
6 7 14 8.01 0.36
7 7 14 1.55 0.34
8 7 14 0.78 0.4
9 7 14 3.88 0.37
0 8 14 18.38 0.49
1 8 14 3.38 0.26
2 8 14 9.17 0.29
3 8 14 2.63 0.28
4 8 14 3.83 0.29
5 8 14 4.63 0.35
6 8 14 6.99 0.36
7 8 14 0.02 0.06
8 8 14 0.76 0.44
9 8 14 2.82 0.45
0 9 14 5.35 0.38
1 9 14 2.9 0.27
2 9 14 2.66 0.31
3 9 14 3.36 0.35
4 9 14 2.2 0.32
5 9 14 4.11 0.35
6 9 14 10.73 0.45
7 9 14 0.62 0.43
8 9 14 1.18 0.45
0 10 14 1.56 0.41
1 10 14 6.42 0.36
2 10 14 1.28 0.31
3 10 14 7.58 0.36
4 10 14 4.29 0.35
5 10 14 2.82 0.39
6 10 14 6.88 0.43
7 10 14 0.89 0.43
0 11 14 6.66 0.59
1 11 14 8.06 0.41
2 11 14 2.92 0.35
3 11 14 2.08 0.33
4 11 14 3.66 0.36
5 11 14 14.49 0.48
6 11 14 0.01 0.04
0 12 14 0.55 0.61
1 12 14 7.98 0.43
2 12 14 1.23 0.4
3 12 14 5.39 0.36
4 12 14 2.54 0.42
5 12 14 0.17 0.08
0 13 14 0.95 0.75
1 13 14 4.18 0.46
2 13 14 0.16 0.24
3 13 14 6.23 0.52
0 0 15 0.4 0.38
1 0 15 0.4 0.18
2 0 15 0.12 0.11
3 0 15 29.28 0.61
4 0 15 11.9 0.52
5 0 15 0.66 0.35
6 0 15 0.6 0.44
7 0 15 6.7 0.52
8 0 15 7.18 0.59
9 0 15 2.51 0.62
10 0 15 3.76 0.61
0 1 15 0.02 0.02
1 1 15 18.8 0.33
2 1 15 4.17 0.26
3 1 15 1.39 0.26
4 1 15 0.26 0.09
5 1 15 1.15 0.32
6 1 15 1.58 0.38
7 1 15 2.63 0.37
8 1 15 4.66 0.38
9 1 15 11.42 0.52
10 1 15 1.93 0.43
0 2 15 13.54 0.45
1 2 15 5.16 0.26
2 2 15 3.49 0.25
3 2 15 15.38 0.35
4 2 15 2.5 0.29
5 2 15 2.78 0.3
6 2 15 6.01 0.34
7 2 15 6.63 0.37
8 2 15 0.35 0.24
9 2 15 5.89 0.49
10 2 15 0.12 0.1
0 3 15 21.33 0.54
1 3 15 1.91 0.26
2 3 15 1.9 0.25
3 3 15 8.48 0.31
4 3 15 3.59 0.29
5 3 15 16.3 0.38
6 3 15 1.99 0.32
7 3 15 4.18 0.33
8 3 15 3.75 0.36
9 3 15 6.15 0.41
10 3 15 1.01 0.53
0 4 15 5.49 0.33
1 4 15 37.57 0.42
2 4 15 18.82 0.34
3 4 15 4.5 0.26
4 4 15 3.43 0.29
5 4 15 5.31 0.34
6 4 15 16.37 0.46
7 4 15 7.08 0.37
8 4 15 3.62 0.37
9 4 15 0.07 0.15
10 4 15 0.96 0.46
0 5 15 2.98 0.34
1 5 15 9.6 0.27
2 5 15 5.91 0.28
3 5 15 3.1 0.27
4 5 15 0.75 0.2
5 5 15 6.95 0.3
6 5 15 0.48 0.26
7 5 15 1.82 0.32
8 5 15 2.75 0.34
9 5 15 5.82 0.4
0 6 15 11.35 0.41
1 6 15 1.17 0.25
2 6 15 3.89 0.26
3 6 15 1.4 0.25
4 6 15 2.88 0.29
5 6 15 8.71 0.37
6 6 15 4.74 0.37
7 6 15 2.63 0.33
8 6 15 1.28 0.4
9 6 15 2.51 0.46
0 7 15 30.06 0.56
1 7 15 15.14 0.33
2 7 15 3.4 0.27
3 7 15 6.66 0.33
4 7 15 8.25 0.39
5 7 15 0.8 0.3
6 7 15 3.54 0.35
7 7 15 0.31 0.28
8 7 15 1.53 0.47
0 8 15 0.03 0.15
1 8 15 4.46 0.31
2 8 15 0.12 0.05
3 8 15 14.6 0.4
4 8 15 0.09 0.07
5 8 15 13.26 0.44
6 8 15 1.56 0.33
7 8 15 3.01 0.46
8 8 15 1.26 0.82
0 9 15 4.24 0.47
1 9 15 0.08 0.07
2 9 15 1.83 0.34
3 9 15 0.96 0.33
4 9 15 0.27 0.19
5 9 15 0.51 0.21
6 9 15 0.86 0.41
7 9 15 1.18 0.4
0 10 15 8.46 0.65
1 10 15 2 0.38
2 10 15 0.15 0.32
3 10 15 8.68 0.36
4 10 15 10.37 0.42
5 10 15 0.5 0.45
6 10 15 1.36 0.41
0 11 15 0.19 0.31
1 11 15 0.09 0.1
2 11 15 1.02 0.34
3 11 15 8.75 0.45
4 11 15 1.3 0.42
5 11 15 6.3 0.46
0 12 15 3.13 0.54
1 12 15 0.06 0.1
2 12 15 1.27 0.45
3 12 15 2.29 0.5
0 0 16 3.5 0.53
1 0 16 3.75 0.37
2 0 16 10.63 0.45
3 0 16 27.51 0.59
4 0 16 0.58 0.42
5 0 16 0.13 0.09
6 0 16 1.42 0.59
7 0 16 20.03 1.05
8 0 16 1.16 0.45
9 0 16 1.55 0.47
0 1 16 1.31 0.39
1 1 16 11.25 0.32
2 1 16 0.24 0.28
3 1 16 5.12 0.31
4 1 16 9.38 0.36
5 1 16 2.1 0.31
6 1 16 0.5 0.22
7 1 16 3.12 0.38
8 1 16 10.18 0.44
9 1 16 0.95 0.38
0 2 16 1.64 0.37
1 2 16 4.05 0.27
2 2 16 2.52 0.28
3 2 16 2.53 0.29
4 2 16 0.93 0.29
5 2 16 2.96 0.37
6 2 16 0.44 0.33
7 2 16 3.97 0.38
8 2 16 0.02 0.02
9 2 16 0.23 0.17
0 3 16 5.19 0.37
1 3 16 26.01 0.41
2 3 16 17.9 0.37
3 3 16 0.94 0.29
4 3 16 5.86 0.3
5 3 16 14.82 0.44
6 3 16 2.68 0.36
7 3 16 4.58 0.4
8 3 16 1.36 0.38
9 3 16 0.45 0.46
0 4 16 0.34 0.37
1 4 16 3.09 0.27
2 4 16 7.32 0.32
3 4 16 7.72 0.31
4 4 16 10.37 0.39
5 4 16 6.82 0.38
6 4 16 7.77 0.37
7 4 16 1.76 0.33
8 4 16 4.7 0.41
9 4 16 0.02 0.12
0 5 16 1.5 0.35
1 5 16 10.38 0.31
2 5 16 0.08 0.04
3 5 16 0.6 0.28
4 5 16 1.76 0.36
5 5 16 9.86 0.42
6 5 16 0.22 0.27
7 5 16 1.26 0.43
8 5 16 1.63 0.41
0 6 16 0.13 0.12
1 6 16 8.51 0.3
2 6 16 6.96 0.36
3 6 16 1.93 0.32
4 6 16 2.4 0.37
5 6 16 6.91 0.41
6 6 16 1.36 0.34
7 6 16 5.24 0.46
8 6 16 0 0
0 7 16 0.7 0.37
1 7 16 2.1 0.32
2 7 16 0.68 0.29
3 7 16 1.29 0.34
4 7 16 5.59 0.41
5 7 16 1.21 0.34
6 7 16 0.03 0.05
7 7 16 8.05 0.45
0 8 16 0.11 0.11
1 8 16 2.47 0.31
2 8 16 3.45 0.37
3 8 16 2.41 0.35
4 8 16 0.97 0.35
5 8 16 0.59 0.35
6 8 16 2.19 0.44
7 8 16 3.76 0.91
0 9 16 2.51 0.42
1 9 16 3.42 0.36
2 9 16 6.49 0.4
3 9 16 2.26 0.37
4 9 16 7.61 0.45
5 9 16 0.04 0.04
6 9 16 0 0.09
0 10 16 -0.01 0.07
1 10 16 4.88 0.4
2 10 16 0.21 0.22
3 10 16 3.92 0.39
4 10 16 1.21 0.45
0 11 16 2.23 0.67
1 11 16 2.85 0.44
2 11 16 18.8 0.57
3 11 16 1.04 0.75
0 0 17 -0.04 0.25
1 0 17 0.35 0.29
2 0 17 1.27 0.45
3 0 17 0.03 0.05
4 0 17 0.01 0.05
5 0 17 1.16 0.44
6 0 17 0.16 0.44
7 0 17 10.03 0.76
8 0 17 9.06 0.65
0 1 17 0.12 0.15
1 1 17 2.18 0.28
2 1 17 1.29 0.3
3 1 17 0.47 0.21
4 1 17 4.78 0.36
5 1 17 4.85 0.32
6 1 17 5.71 0.36
7 1 17 0.6 0.34
8 1 17 1.05 0.41
0 2 17 12.4 0.48
1 2 17 2.09 0.3
2 2 17 10.17 0.35
3 2 17 0.77 0.38
4 2 17 11.16 0.4
5 2 17 4.01 0.36
6 2 17 3.3 0.34
7 2 17 1.28 0.37
8 2 17 0.21 0.3
0 3 17 24.6 0.61
1 3 17 0.24 0.07
2 3 17 3.8 0.35
3 3 17 1.85 0.31
4 3 17 5.73 0.33
5 3 17 5.54 0.38
6 3 17 2.07 0.34
7 3 17 2.68 0.41
8 3 17 0.51 0.5
0 4 17 2.65 0.43
1 4 17 12.4 0.44
2 4 17 17.79 0.47
3 4 17 7.21 0.4
4 4 17 5.32 0.44
5 4 17 0.84 0.34
6 4 17 1.09 0.37
7 4 17 1.39 0.38
8 4 17 2.29 0.83
0 5 17 19.94 0.67
1 5 17 4.28 0.38
2 5 17 1.84 0.37
3 5 17 1.72 0.36
4 5 17 5.9 0.37
5 5 17 0.42 0.16
6 5 17 4.66 0.43
7 5 17 3.48 0.42
0 6 17 0 0.05
1 6 17 1.3 0.34
2 6 17 1.5 0.38
3 6 17 1.4 0.4
4 6 17 0.26 0.12
5 6 17 3.63 0.38
6 6 17 0.83 0.44
7 6 17 0.47 0.65
0 7 17 0 0.02
1 7 17 0.87 0.41
2 7 17 2.7 0.39
3 7 17 3.88 0.39
4 7 17 5.97 0.42
5 7 17 0.58 0.36
6 7 17 6.45 0.56
0 8 17 1.44 0.43
1 8 17 5.89 0.33
2 8 17 1.89 0.36
3 8 17 2.32 0.42
4 8 17 0.2 0.17
5 8 17 2.13 0.56
0 9 17 0.22 1.36
1 9 17 0.91 0.38
2 9 17 1.05 0.4
3 9 17 1.96 0.43
4 9 17 0.01 0.08
0 10 17 2.75 0.79
1 10 17 7.39 0.59
2 10 17 2.61 0.58
0 0 18 0.71 0.76
1 0 18 4.2 0.6
2 0 18 0 0.02
3 0 18 0.15 0.35
4 0 18 -0.02 0.12
5 0 18 12.24 0.56
6 0 18 3.29 0.53
7 0 18 0.11 2.73
0 1 18 0.75 0.5
1 1 18 1.75 0.41
2 1 18 0.15 0.22
3 1 18 1.43 0.4
4 1 18 0.4 0.3
5 1 18 3.45 0.33
6 1 18 12.25 0.45
7 1 18 0.88 0.33
0 2 18 8.81 0.68
1 2 18 2.99 0.36
2 2 18 1.14 0.41
3 2 18 3.63 0.39
4 2 18 4.22 0.38
5 2 18 1.65 0.38
6 2 18 1.1 0.39
7 2 18 0.47 0.87
0 3 18 10.97 0.59
1 3 18 7.28 0.43
2 3 18 1.99 0.39
3 3 18 12.05 0.48
4 3 18 4.69 0.39
5 3 18 0.13 0.36
6 3 18 1.01 0.37
0 4 18 2.34 0.59
1 4 18 1.92 0.36
2 4 18 2.39 0.35
3 4 18 10.5 0.42
4 4 18 7.14 0.42
5 4 18 2.35 0.34
6 4 18 1.91 0.42
0 5 18 0.5 0.52
1 5 18 2.47 0.39
2 5 18 2.59 0.44
3 5 18 7.1 0.44
4 5 18 2.43 0.42
5 5 18 -0.01 0.12
6 5 18 3.12 0.65
0 6 18 2.18 0.44
1 6 18 0.19 0.48
2 6 18 2.86 0.42
3 6 18 1.4 0.38
4 6 18 0.97 0.49
5 6 18 4.81 0.61
0 7 18 0.1 0.25
1 7 18 0.2 0.21
2 7 18 1.3 0.41
3 7 18 0.92 0.53
4 7 18 0.45 0.55
0 8 18 0.64 0.99
1 8 18 0.13 0.24
2 8 18 2.84 0.47
3 8 18 0.75 1.47
0 0 19 0.26 0.6
1 0 19 0.84 0.53
2 0 19 0.04 0.12
3 0 19 0.12 1.39
4 0 19 5.13 0.52
5 0 19 4.89 0.56
0 1 19 0.33 0.49
1 1 19 1.3 0.43
2 1 19 4.13 0.43
3 1 19 1.4 0.43
4 1 19 0.32 0.27
5 1 19 2.3 0.49
0 2 19 1.3 0.56
1 2 19 1.47 0.51
2 2 19 2.93 0.42
3 2 19 3.19 0.39
4 2 19 1.85 0.38
5 2 19 0.05 0.16
0 3 19 0.26 0.38
1 3 19 1.35 0.43
2 3 19 18.19 0.48
3 3 19 0.01 0.12
4 3 19 4.21 0.43
5 3 19 0.81 0.86
0 4 19 19.11 0.79
1 4 19 3.26 0.39
2 4 19 0.79 0.43
3 4 19 1.99 0.44
4 4 19 2.11 0.53
0 5 19 0.07 1.07
1 5 19 1.09 0.41
2 5 19 3.71 0.4
3 5 19 0.24 0.3
0 6 19 1.21 0.76
1 6 19 0.23 1.26
2 6 19 0.38 0.65
0 0 20 -0.03 0.21
1 0 20 1.03 0.81
2 0 20 0.13 4.09
0 1 20 0.87 0.66
1 1 20 0.31 0.42
2 1 20 0.67 0.45
3 1 20 2.3 1.21
0 2 20 1.14 1.01
1 2 20 5.2 0.54
2 2 20 2.85 0.51
0 3 20 0.17 0.27
1 3 20 2.43 0.53
