#------------------------------------------------------------------------------
#$Date: 2021-04-23 12:55:31 +0300 (Fri, 23 Apr 2021) $
#$Revision: 264474 $
#$URL: file:///home/coder/svn-repositories/cod/cif/2/02/23/2022362.cif $
#------------------------------------------------------------------------------
#
# This file is available in the Crystallography Open Database (COD),
# http://www.crystallography.net/. The original data for this entry
# were provided by IUCr Journals, http://journals.iucr.org/.
#
# The file may be used within the scientific community so long as
# proper attribution is given to the journal article from which the
# data were obtained.
#
data_2022362
loop_
_publ_author_name
'Szczesio, Ma\/lgorzata'
'Gobis, Katarzyna'
'Korona-G\/lowniak, Izabela'
'Mazerant-Politowicz, Ida'
'Ziembicka, Dagmara'
'Foks, Henryk'
'G\/l\'owka, Marek'
'Olczak, Andrzej'
_publ_section_title
;
 Synthesis, structure and biological activity of four new
 picolinohydrazonamide derivatives
;
_journal_coeditor_code           FM3063
_journal_issue                   7
_journal_name_full               'Acta Crystallographica, Section C'
_journal_page_first              673
_journal_page_last               680
_journal_paper_doi               10.1107/S2053229620007822
_journal_volume                  76
_journal_year                    2020
_chemical_formula_iupac          'C6 H7 Cl N4'
_chemical_formula_moiety         'C6 H7 Cl N4'
_chemical_formula_sum            'C6 H7 Cl N4'
_chemical_formula_weight         170.61
_chemical_name_common
;
6-Chloropicolinohydrazonamide
;
_chemical_name_systematic
;
<i>N</i>'-Amino-6-chloropyridine-2-carboximidamide
;
_space_group_crystal_system      orthorhombic
_space_group_IT_number           19
_space_group_name_Hall           'P 2ac 2ab'
_space_group_name_H-M_alt        'P 21 21 21'
_atom_sites_solution_hydrogens   mixed
_atom_sites_solution_primary     direct
_audit_creation_method           SHELXL-2014
_cell_angle_alpha                90.0
_cell_angle_beta                 90.0
_cell_angle_gamma                90.0
_cell_formula_units_Z            4
_cell_length_a                   3.77379(4)
_cell_length_b                   5.63483(4)
_cell_length_c                   32.9783(2)
_cell_measurement_reflns_used    16896
_cell_measurement_temperature    100.01(10)
_cell_measurement_theta_max      78.5140
_cell_measurement_theta_min      4.0280
_cell_volume                     701.273(10)
_computing_cell_refinement
;
CrysAlis PRO (Rigaku OD, 2019)
;
_computing_data_collection
;
CrysAlis PRO (Rigaku OD, 2019)
;
_computing_data_reduction
;
CrysAlis PRO (Rigaku OD, 2019)
;
_computing_structure_refinement
;
SHELXL2014 (Sheldrick, 2015)
;
_diffrn_ambient_temperature      100.01(10)
_diffrn_detector                 'Hybrid Pixel Array Detector'
_diffrn_detector_area_resol_mean 5.8140
_diffrn_measured_fraction_theta_full 0.9976
_diffrn_measured_fraction_theta_max 0.9765
_diffrn_measurement_device       'four-circle diffractometer'
_diffrn_measurement_device_type  'XtaLAB Synergy Dualflex Pilatus 300K'
_diffrn_measurement_method       '\w scans'
_diffrn_radiation_monochromator  mirror
_diffrn_radiation_probe          x-ray
_diffrn_radiation_type           'Cu K\a'
_diffrn_radiation_wavelength     1.54184
_diffrn_reflns_av_R_equivalents  0.0514
_diffrn_reflns_av_sigmaI/netI    0.0470
_diffrn_reflns_limit_h_max       4
_diffrn_reflns_limit_h_min       -4
_diffrn_reflns_limit_k_max       7
_diffrn_reflns_limit_k_min       -6
_diffrn_reflns_limit_l_max       41
_diffrn_reflns_limit_l_min       -40
_diffrn_reflns_number            19459
_diffrn_reflns_theta_full        66.9682
_diffrn_reflns_theta_max         78.6751
_diffrn_reflns_theta_min         4.0214
_diffrn_source                   'micro-focus sealed X-ray tube'
_exptl_absorpt_coefficient_mu    4.264
_exptl_absorpt_correction_T_max  1.00
_exptl_absorpt_correction_T_min  0.22
_exptl_absorpt_correction_type   gaussian
_exptl_absorpt_process_details
;
(CrysAlis PRO; Rigaku OD, 2019)
;
_exptl_crystal_colour            colourless
_exptl_crystal_density_diffrn    1.616
_exptl_crystal_description       plate
_exptl_crystal_F_000             352
_exptl_crystal_size_max          0.83
_exptl_crystal_size_mid          0.11
_exptl_crystal_size_min          0.03
_refine_diff_density_max         0.201
_refine_diff_density_min         -0.217
_refine_ls_abs_structure_details
;
Flack <i>x</i> determined using 533 quotients [(I+)-(I-)]/[(I+)+(I-)]
(Parsons <i>et al.</i>,  2013)
;
_refine_ls_abs_structure_Flack   0.014(5)
_refine_ls_extinction_coef       .
_refine_ls_extinction_method     none
_refine_ls_goodness_of_fit_ref   1.081
_refine_ls_hydrogen_treatment    mixed
_refine_ls_matrix_type           full
_refine_ls_number_parameters     112
_refine_ls_number_reflns         1471
_refine_ls_number_restraints     0
_refine_ls_restrained_S_all      1.081
_refine_ls_R_factor_all          0.0208
_refine_ls_R_factor_gt           0.0206
_refine_ls_shift/su_max          0.001
_refine_ls_shift/su_mean         0.000
_refine_ls_structure_factor_coef Fsqd
_refine_ls_weighting_details
'w=1/[\s^2^(Fo^2^)+(0.0336P)^2^+0.1754P] where P=(Fo^2^+2Fc^2^)/3'
_refine_ls_weighting_scheme      calc
_refine_ls_wR_factor_gt          0.0563
_refine_ls_wR_factor_ref         0.0564
_reflns_number_gt                1460
_reflns_number_total             1471
_reflns_threshold_expression     'I > 2\s(I)'
_cod_data_source_file            fm3063sup1.cif
_cod_data_source_block           6
_cod_depositor_comments          'Adding Fobs data.'
_cod_database_code               2022362
_shelx_space_group_comment
;
The symmetry employed for this shelxl refinement is uniquely defined
by the following loop, which should always be used as a source of
symmetry information in preference to the above space-group names.
They are only intended as comments.
;
_shelx_hkl_file
;
   0   0   3 33.4502 89.5284  40
   0   0   3 22.2186 62.5135   2
   0   0  -4 17562.1 692.469  17
   0   0  -4 15819.0 748.509  28
   0   0   4 16154.6 798.548   2
   0   0  -5 120.298 108.468  15
   0   0  -5 309.664 88.1769  17
   0   0   5 36.9015 133.054  40
   0   0  -5 69.9040 106.027  28
   0   0   5 54.3557 103.873   2
   0   0  -6 54256.4 2001.51  15
   0   0  -6 50728.3 1804.60  17
   0   0   6 52410.7 2065.51  40
   0   0  -6 51689.2 1950.07  28
   0   0   6 52224.0 2045.07   2
   0   0  -7-20.7384 139.294  15
   0   0  -7 49.9444 80.9199  17
   0   0   7 77.1994 185.472  40
   0   0  -7 18.2540 106.717  28
   0   0   7 24.9645 133.762   2
   0   0  -8 39809.0 1664.73  15
   0   0  -8 37863.5 1579.21  28
   0   0   8 37765.8 1695.50   2
   0   0  -8 36817.6 1385.65  17
   0   0  -9 133.092 149.279  15
   0   0  -9 76.8165 72.6252  17
   0   0  -9 45.4485 140.614  28
   0   0   9 95.8968 162.930   2
   0   0 -10 98128.2 3726.94  15
   0   0 -10 102945. 3837.10  39
   0   0  10 101743. 3584.24  16
   0   0 -10 97619.2 3618.00  28
   0   0  10 100089. 3820.84   2
   0   0  11-24.0753 122.707  16
   0   0 -11 37.6960 132.230  39
   0   0 -11 81.8192 146.135  28
   0   0 -11 128.903 127.892   4
   0   0  11 116.696 192.961   2
   0   0 -12 92445.4 3563.93  39
   0   0  12 86459.6 3254.55  16
   0   0 -12 88128.5 2968.26  17
   0   0 -12 82660.4 3317.15  28
   0   0 -12 88669.8 3288.93   4
   0   0  12 83839.0 3509.04   2
   0   0  13 204.396 163.761  16
   0   0 -13 206.435 89.8525  17
   0   0 -13 44.7263 181.180  39
   0   0 -13-32.3124 177.231  28
   0   0 -13-30.2877 137.189   4
   0   0  13 184.189 215.377   2
   0   0 -14 508807. 16527.9  39
   0   0 -14 489835. 16133.2   4
   0   0  14 491968. 16502.7   2
   0   0 -14 495359. 16223.1  28
   0   0 -14 497698. 15721.3  17
   0   0  14 497435. 16144.2  16
   0   0 -15 183.572 84.0144  17
   0   0  15-35.3032 136.925  16
   0   0 -15 156.704 193.148  39
   0   0  15-53.5526 177.119   2
   0   0 -15 34.6241 145.987   4
   0   0 -15 115.268 190.614  28
   0   0  16 11067.3 1025.20   2
   0   0 -16 11936.9 868.873   4
   0   0 -16 11399.5 911.611  28
   0   0  16 11645.0 883.715  16
   0   0 -16 11102.5 589.035  17
   0   0  17 37.7479 152.888  21
   0   0 -17-14.5422 58.9018  17
   0   0  17-42.3916 185.453  16
   0   0 -17-27.4848 140.075  34
   0   0 -17 179.490 196.307  28
   0   0 -17 76.4342 134.051   4
   0   0 -18 352318. 11858.1  17
   0   0  18 379891. 12562.1  16
   0   0  18 369664. 12205.8  23
   0   0  18 385393. 12465.4  21
   0   0 -18 380362. 12200.3  34
   0   0  18 371679. 12081.6  31
   0   0 -18 377189. 12691.5  28
   0   0  18 380264. 12972.0   2
   0   0 -18 378114. 12385.1   4
   0   0 -19 77.4246 110.926   4
   0   0  19 70.3528 164.551   2
   0   0  19 301.768 179.686  23
   0   0 -19 59.7412 144.042  22
   0   0  19 130.106 189.759  21
   0   0 -19 115.169 79.3936  17
   0   0 -19 95.1900 138.856  34
   0   0 -19 208.687 202.343  28
   0   0  19 132.509 131.509  31
   0   0  19 50.1251 211.337  16
   0   0  20 18823.1 1270.24   5
   0   0  20 21546.4 1623.36   2
   0   0  20 18076.6 1235.97  45
   0   0  20 18677.8 1285.93  41
   0   0  20 20675.1 1412.65  16
   0   0 -20 17785.6 913.034  17
   0   0 -20 21012.0 1189.61  34
   0   0 -20 21156.3 1456.43  28
   0   0  20 19607.1 1306.41  32
   0   0  20 18691.1 1079.53  31
   0   0 -20 19350.1 1121.89  22
   0   0  20 21729.6 1349.87  21
   0   0  20 20174.9 1198.98  23
   0   0  21 59.2941 155.028  16
   0   0  21 79.1430 226.667   2
   0   0  21 95.7998 158.414   5
   0   0  21 92.1280 161.583  45
   0   0  21 199.855 165.238  41
   0   0 -21-84.6332 197.913  43
   0   0  21 49.4778 191.872  21
   0   0 -21 36.5028 120.727  34
   0   0 -21-60.3768 211.784  28
   0   0  21 150.771 185.825  32
   0   0  21 62.9043 132.601  31
   0   0  21 40.0283 187.212  23
   0   0 -21 240.206 170.229  22
   0   0  22 9294.25 861.331   5
   0   0  22 6662.33 756.684  45
   0   0 -22 8777.40 801.631  43
   0   0  22 9062.99 884.918  41
   0   0  22 8390.54 938.534  16
   0   0 -22 8622.80 753.933  34
   0   0 -22 7605.18 907.280  28
   0   0  22 8327.26 858.186  32
   0   0  22 8188.78 705.542  31
   0   0  22 8203.48 851.043  21
   0   0  22 8250.76 784.986  23
   0   0 -22 8220.06 711.675  22
   0   0 -22 8574.11 676.851  24
   0   0  23 69.2980 243.070  16
   0   0  23 51.5417 159.440   5
   0   0  23-52.8932 214.230  45
   0   0 -23-47.7266 193.304  43
   0   0  23-54.7229 180.969  41
   0   0  23 55.8533 172.778  21
   0   0 -23-41.9521 138.736  34
   0   0 -23 69.7456 199.748  28
   0   0  23 55.8303 252.816  32
   0   0  23 369.478 224.471  31
   0   0  23-47.2821 165.847  23
   0   0 -23-33.0836 122.322  24
   0   0 -23 38.9847 128.923  22
   0   0  24 2591.90 571.264  16
   0   0 -24 1922.75 448.771  14
   0   0  24 1856.72 416.234   5
   0   0  24 2512.89 496.951  45
   0   0 -24 1549.25 388.321  43
   0   0  24 2328.22 449.829  41
   0   0  24 1997.66 302.732  20
   0   0  24 1884.08 460.966  21
   0   0 -24 2352.64 416.746  34
   0   0 -24 1848.24 461.718  28
   0   0  24 1954.96 366.796  31
   0   0  24 1989.02 458.070  32
   0   0  24 2250.10 443.879  23
   0   0 -24 2150.81 394.962  22
   0   0 -24 1868.10 335.668  24
   0   0 -25 125.289 207.169  14
   0   0  25 79.5577 208.000  16
   0   0  25 54.2471 179.399   5
   0   0  25 96.1617 251.409   2
   0   0  25 58.7290 217.144  45
   0   0  25 58.7156 137.306  41
   0   0 -25 157.226 203.234  43
   0   0  25-28.3665 114.898  20
   0   0  25 123.923 204.910  21
   0   0 -25-188.271 205.913  34
   0   0  25-60.5800 187.403  32
   0   0  25 42.7791 173.269  31
   0   0 -25 235.758 205.460  28
   0   0 -25-36.7501 128.910  24
   0   0 -25 348.192 190.410  22
   0   0  25 164.540 231.215  23
   0   0  26 4037.27 756.614  16
   0   0 -26 2928.01 569.279  14
   0   0  26 3393.15 736.576   2
   0   0  26 3155.08 550.853  45
   0   0  26 3906.57 593.517  41
   0   0 -26 3574.18 562.351  43
   0   0  26 3425.57 599.919  21
   0   0  26 3762.44 420.859  20
   0   0 -26 3160.51 511.448  34
   0   0  26 3571.15 603.288  32
   0   0  26 3554.76 530.359  31
   0   0 -26 3067.62 637.348  28
   0   0 -26 3192.36 494.662  22
   0   0 -26 3643.80 480.980  24
   0   0  26 3506.57 597.551  23
   0   0  27 802.922 390.373  16
   0   0 -27 67.1467 314.139  14
   0   0  27 250.314 253.590   3
   0   0  27 248.952 272.399  45
   0   0 -27 168.013 226.978  43
   0   0  27 550.993 267.954  41
   0   0  27 268.644 304.235  21
   0   0  27 244.671 160.129  20
   0   0 -27 362.165 290.225  34
   0   0  27 248.976 272.426  32
   0   0 -27 87.1041 337.872  28
   0   0  27 48.3225 211.558  31
   0   0 -27 708.581 297.544  22
   0   0 -27 400.311 214.642  24
   0   0  27 124.063 307.816  23
   0   0 -28 953584. 30347.1  14
   0   0  28 897735. 31484.1   3
   0   0  28 904118. 30114.0  45
   0   0  28 935792. 30346.9  44
   0   0 -28 971332. 30081.3  43
   0   0  28 916561. 29454.0  20
   0   0  28 891550. 30748.2  16
   0   0 -28 916781. 29995.0  34
   0   0  28 858485. 30064.6  32
   0   0  28 964412. 29974.8  31
   0   0  28 940113. 30329.7  21
   0   0 -28 957949. 29723.7  24
   0   0  28 928227. 30226.4  23
   0   0 -28 908905. 29837.5  22
   0   0  29 671.556 372.604  16
   0   0 -29 557.129 355.530  14
   0   0  29 915.217 507.430   3
   0   0  29 1115.66 356.363  47
   0   0 -29 579.465 332.563  43
   0   0  29 635.015 396.181  44
   0   0  29 1121.07 471.067  21
   0   0 -29 551.789 316.743  34
   0   0  29 844.395 355.074  31
   0   0  29 422.326 308.631  30
   0   0  29 814.528 372.822  23
   0   0 -29 380.094 232.538  24
   0   0 -29 885.984 315.898  22
   0   0 -30 58385.1 3080.47  14
   0   0  30 56634.4 3776.21   3
   0   0  30 60548.9 2809.57  47
   0   0  30 62645.9 3143.22  44
   0   0 -30 63632.5 2952.24  43
   0   0  30 54698.6 3367.08  16
   0   0 -30 63796.3 2935.39  34
   0   0  30 59782.0 2843.89  31
   0   0  30 55810.2 2992.68  30
   0   0  30 56669.3 3047.90  21
   0   0  30 56419.5 3050.91  23
   0   0 -30 61801.4 2683.71  24
   0   0 -30 60946.0 2771.38  22
   0   0 -31 277.664 256.672  14
   0   0  31 152.493 205.900  47
   0   0 -31-56.8742 199.515  43
   0   0  31 352.872 247.565  44
   0   0  31 140.400 259.571  21
   0   0 -31 56.2425 186.019  34
   0   0  31 330.819 244.649  30
   0   0  31 55.0195 193.011  31
   0   0 -31 48.5000 188.098  22
   0   0 -31 212.577 186.019  24
   0   0  31-70.8177 248.419  23
   0   0 -32 86253.2 3921.01  14
   0   0  32 86529.8 3620.14  47
   0   0  32 84448.3 3905.94  44
   0   0 -32 87674.7 3694.01  43
   0   0 -32 82197.1 3657.04  34
   0   0  32 80411.2 3729.46  30
   0   0  32 83200.0 3682.63  31
   0   0  32 82571.6 3871.15  21
   0   0  32 82327.5 3924.99  23
   0   0 -32 86360.0 3544.06  22
   0   0 -32 83686.1 3437.57  24
   0   0 -33 65.6403 230.283  14
   0   0 -33 52.7623 174.541   8
   0   0  33 143.652 216.878  47
   0   0  33 468.865 313.287  44
   0   0  33 66.6307 220.392  21
   0   0 -33 163.441 201.481  34
   0   0  33 107.962 178.570  31
   0   0  33 56.5072 186.922  30
   0   0  33 625.733 354.361  23
   0   0 -33 89.1764 195.113  22
   0   0 -33 282.400 200.170  24
   0   0 -34 11880.7 1103.75  14
   0   0 -34 10432.3 971.161   8
   0   0  34 10943.9 915.817  47
   0   0  34 9678.17 1021.23  44
   0   0 -34 12160.9 1027.24  34
   0   0  34 10217.3 929.146  30
   0   0  34 10641.0 1084.99  23
   0   0 -34 10595.9 837.653  24
   0   0  34 11371.2 1094.83  21
   0   0 -34 10424.8 852.448  22
   0   0 -35 447.739 232.665   8
   0   0  35 125.295 207.175  47
   0   0  35-119.491 231.680  44
   0   0  35-59.4647 219.861  21
   0   0 -35-49.7803 164.623  34
   0   0  35 126.982 196.404  23
   0   0 -35-36.4197 159.327  22
   0   0 -35-58.3410 245.943  14
   0   0  36 235.734 206.727  23
   0   0  36-55.0430 249.260  44
   0   0  36 54.4131 168.337  21
   0   0 -36 92.6407 179.635  34
   0   0 -36 161.084 234.911  14
   0   0 -36 329.311 233.374   8
   0   0 -37 87.2454 169.179   8
   0   0  37 53.1575 232.564  23
   0   0  37 49.4872 163.674  44
   0   0  37-48.9627 206.423  21
   0   0 -37 169.761 171.912  34
   0   0  37 164.894 180.360  31
   0   0 -37 145.343 187.887  14
   0   0 -38 254.199 204.493  14
   0   0  38 392.829 228.454  44
   0   0  38 257.733 188.197  21
   0   0 -38 378.925 193.387  34
   0   0  38 505.019 206.873  31
   0   0 -38 197.512 211.899   8
   0   0  39-74.7308 190.432  44
   0   0  39 36.3690 147.306  21
   0   0 -39 164.649 144.063  34
   0   0 -39 252.766 215.278  14
   0   0 -39-34.7491 152.022   8
   0   0 -40 52171.9 2206.22  14
   0   0 -41 64.7843 101.014  14
   0   1   0 89.0600 88.1008  15
   0  -1   0 10.2762 82.4728  17
   0   1   0 230.651 140.295  39
   0   1   0 160.594 92.5753  27
   0  -1   0-16.1358 96.2856   1
   0  -1   0 138.537 103.470   3
   0   1   1 27316.6 1128.22  15
   0   1  -1 27138.5 1133.41  15
   0  -1  -1 30106.9 1099.30  17
   0  -1   1 29267.2 1106.23  17
   0   1  -1 26902.4 1200.63  39
   0  -1  -1 30593.4 1163.14  40
   0  -1   1 28228.5 1168.80  40
   0  -1  -1 27439.8 1060.32  28
   0   1   1 27891.3 1127.51  27
   0   1  -1 27555.8 1134.15  27
   0  -1  -1 28371.0 1197.75   1
   0  -1   1 28060.5 1197.15   1
   0  -1   1 28550.5 1191.17   3
   0   1  -2 752103. 23457.7  15
   0  -1   2 735058. 23394.6  17
   0   1  -2 751304. 23527.8  39
   0   1  -2 737261. 23471.4  41
   0  -1  -2 754305. 23452.5  40
   0   1   2 733372. 23401.8  27
   0  -1  -2 770253. 23362.6  28
   0   1  -2 722691. 23444.7  27
   0  -1  -2 789412. 23540.3   1
   0  -1   2 702564. 23512.1   1
   0  -1   2 740285. 23518.8   3
   0  -1   3 10614.9 472.157  16
   0   1  -3 9745.05 566.274  15
   0  -1   3 9184.62 520.743  17
   0   1  -3 10421.8 588.250  41
   0   1  -3 9403.78 561.355  27
   0  -1  -3 10975.9 526.566  28
   0   1   3 11959.9 561.425  27
   0  -1   3 9700.73 604.262   1
   0  -1   3 9429.07 592.607   3
   0  -1  -3 10611.2 626.971   1
   0   1  -4 3429.42 325.437  15
   0  -1   4 3436.05 244.982  16
   0   1   4 3187.13 278.811  16
   0   1   4 3629.73 323.700  41
   0   1  -4 3431.88 330.374  41
   0   1   4 4261.62 317.360  27
   0  -1  -4 3581.86 288.395  28
   0   1  -4 3074.50 309.948  27
   0  -1   4 3089.98 331.126   3
   0  -1   5 172146. 5565.44  16
   0   1   5 168254. 5638.84  16
   0   1   5 176229. 5716.13  41
   0   1  -5 161028. 5707.71  27
   0   1   5 181275. 5675.83  27
   0  -1  -5 179045. 5668.13  28
   0  -1   5 159961. 5794.96   3
   0  -1   6 25759.8 1043.03  16
   0   1   6 23505.2 1093.03  16
   0  -1  -6 29242.6 1137.16  17
   0   1   6 26341.0 1159.40  41
   0   1  -6 23033.8 1141.44  27
   0   1   6 28551.9 1144.92  27
   0  -1  -6 24105.5 1113.53  28
   0  -1   6 26589.9 1271.21   3
   0  -1   7 905142. 29131.0  16
   0  -1  -7 941628. 29206.1  17
   0   1   7 931656. 29234.6  16
   0   1  -7 940161. 29440.5  39
   0   1   7 959243. 29286.4  41
   0  -1  -7 885528. 29246.9  28
   0   1   7 999999. 29264.1  27
   0   1  -7 882721. 29293.0  27
   0  -1   7 905193. 29440.1   3
   0  -1   8 35585.7 1427.37  16
   0   1  -8 34366.5 1566.84  15
   0   1   8 34432.0 1499.24  16
   0  -1  -8 36088.3 1473.57  17
   0  -1   8 32783.3 1633.15  40
   0   1  -8 32546.0 1631.06  39
   0   1   8 33529.1 1514.57  41
   0   1  -8 39269.1 1539.96  28
   0  -1  -8 34977.7 1529.71  28
   0   1  -8 34685.0 1546.13  27
   0   1   8 36837.3 1520.05  27
   0  -1   8 33194.8 1648.39   3
   0   1  -9 118922. 4232.16  15
   0  -1   9 118036. 4033.12  16
   0  -1   9 117529. 4341.92  40
   0   1  -9 122256. 4340.83  39
   0   1   9 119053. 4137.40  41
   0   1   9 114581. 4118.30  16
   0  -1  -9 108805. 3979.70  17
   0   1  -9 130914. 4174.70  28
   0   1   9 115618. 4117.12  27
   0  -1  -9 107059. 4126.68  28
   0  -1   9 109545. 4312.71   3
   0   1   9 108390. 4277.59   2
   0  -1  10 260.563 144.238  16
   0   1 -10 418.999 210.041  15
   0   1  10 224.359 182.826  16
   0  -1  10 196.043 210.302  40
   0   1  10 387.057 171.322  41
   0  -1 -10 188.914 121.370  17
   0   1 -10 190.017 178.000  39
   0   1 -10 471.921 192.264  28
   0  -1 -10 246.839 187.706  28
   0   1  10 588.205 238.434   2
   0  -1  10 851.557 259.865   3
   0   1  11 254999. 8585.07  41
   0  -1  11 259506. 8868.89  40
   0   1 -11 265653. 8852.12  39
   0   1  11 253542. 8836.93   2
   0  -1  11 238646. 8851.61   3
   0   1  11 253212. 8590.96  16
   0  -1 -11 239861. 8311.79  17
   0  -1 -11 243113. 8576.62  28
   0   1 -11 289105. 8689.18  28
   0   1 -11 249637. 8570.69  27
   0  -1  11 249215. 8478.08  16
   0   1 -11 272571. 8721.84  15
   0   1  12 73336.1 2932.47  41
   0  -1  12 69952.2 3157.39  40
   0   1 -12 74416.7 3165.21  39
   0  -1  12 69925.0 3182.84   3
   0   1  12 74731.0 3202.28   2
   0  -1 -12 77439.6 2702.93  17
   0   1  12 70763.4 2940.67  16
   0   1 -12 68155.1 2572.46  17
   0   1 -12 79170.9 3003.60  28
   0   1 -12 71580.1 2926.53  27
   0  -1 -12 73113.7 2937.50  28
   0   1 -12 71817.4 3032.17  15
   0  -1  12 71505.0 2833.09  16
   0   1  13 483080. 15753.6  41
   0   1 -13 492734. 16108.3  39
   0  -1  13 484426. 16148.9  40
   0  -1  13 463212. 16132.3   3
   0   1  13 482833. 16110.3   2
   0   1  13 474790. 15777.1  16
   0   1 -13 477069. 15260.9  17
   0   1 -13 539625. 15911.7  28
   0  -1 -13 455439. 15729.6  28
   0   1 -13 456709. 15707.3  27
   0   1 -13 499552. 15966.4  15
   0  -1  14 37015.6 2141.83  40
   0   1  14 38478.3 1866.97  41
   0   1 -14 38461.2 2094.62  39
   0  -1  14 34955.7 2127.92   3
   0   1  14 36947.4 2105.21   2
   0   1  14 36849.3 1877.26  16
   0   1 -14 37460.0 1414.27  17
   0   1 -14 35112.8 1824.59  27
   0   1 -14 40985.0 1970.55  28
   0  -1 -14 35767.9 1820.15  28
   0   1 -14 36824.3 1992.84  15
   0  -1  14 39808.1 1801.05  16
   0  -1  15 237948. 8845.79  40
   0   1 -15 248014. 8766.64  39
   0   1  15 215188. 8231.08  41
   0   1  15 246007. 8772.55   2
   0  -1  15 217900. 8775.18   3
   0   1  15 239797. 8380.23  16
   0  -1  15 243678. 8225.80  16
   0   1 -15 236514. 7629.50  17
   0   1 -15 225832. 8266.43  27
   0  -1 -15 234408. 8305.32  28
   0   1 -15 279874. 8554.89  28
   0   1 -15 263230. 8644.76  15
   0   1 -16 60471.8 2902.55  15
   0   1  16 58654.6 2981.93   2
   0  -1  16 51256.2 2989.79   3
   0  -1  16 57724.4 2624.74  44
   0  -1  16 61154.8 3125.36  40
   0  -1 -16 55477.0 2482.15  43
   0   1 -16 59593.7 3021.73  39
   0   1  16 59539.8 2722.19  16
   0  -1  16 64411.3 2634.66  16
   0   1 -16 56456.8 1998.33  17
   0  -1 -16 60661.5 2348.31  17
   0  -1  16 61049.7 2449.69  31
   0   1 -16 56260.7 2591.23  27
   0  -1 -16 63665.3 2698.46  28
   0   1 -16 67711.9 2834.41  28
   0   1  16 58938.1 2551.18  21
   0   1  16 59126.3 2317.85  23
   0   1 -16 60344.3 2372.73  24
   0  -1 -16 60512.3 2409.47  22
   0   1 -17 19445.6 1452.42  15
   0   1  17 19094.9 1515.71   2
   0  -1  17 19027.1 1588.11   3
   0  -1  17 17163.9 1222.21  44
   0  -1 -17 18685.3 1165.12  43
   0   1 -17 18623.0 1498.03  39
   0  -1  17 18647.5 1565.27  40
   0   1  17 18461.3 1298.19  16
   0  -1 -17 18567.6 1017.24  17
   0  -1  17 19208.3 1233.83  16
   0  -1 -17 17580.8 1035.70  34
   0   1 -17 20295.0 1142.23  34
   0   1 -17 17085.1 1183.31  27
   0   1  17 19519.6 1187.95  32
   0  -1  17 19346.8 1110.90  31
   0   1 -17 20751.2 1386.45  28
   0  -1 -17 19566.7 1282.28  28
   0  -1  17 19018.4 1248.51  21
   0   1 -17 18350.2 1040.66  24
   0   1  17 18913.9 1030.64  23
   0  -1 -17 19048.8 1071.98  22
   0   1  17 17876.4 1173.97  21
   0   1 -18 26428.8 1737.31  15
   0  -1  18 20983.7 1754.87   3
   0  -1  18 22617.3 1463.56  44
   0   1 -18 25066.7 1778.44  39
   0   1 -18 24280.1 1372.29  43
   0  -1  18 25914.0 1913.92  40
   0  -1 -18 23524.2 1381.72  43
   0   1  18 19957.3 1397.61  41
   0  -1  18 23717.2 1458.48  16
   0   1  18 24728.3 1563.48  16
   0  -1 -18 22101.3 1188.17  17
   0   1 -18 24873.1 1318.93  34
   0  -1 -18 24563.1 1512.30  28
   0  -1  18 23595.6 1309.51  31
   0   1  18 21741.0 1354.71  32
   0   1 -18 22407.8 1390.59  27
   0   1 -18 28543.7 1670.75  28
   0  -1 -18 26547.3 1312.04  22
   0   1  18 22840.7 1392.41  21
   0   1  18 21259.3 1198.32  23
   0   1 -18 23894.0 1246.47  24
   0  -1  18 23430.7 1459.33  21
   0  -1  18 24726.4 1403.83  23
   0   1 -19 25428.0 1756.79  15
   0  -1  19 23694.6 1900.92   3
   0   1  19 24986.7 1841.91   2
   0  -1  19 26087.9 1572.98  44
   0   1 -19 25052.7 1834.91  39
   0   1  19 20775.8 1435.65  41
   0   1 -19 24376.3 1405.95  43
   0  -1 -19 23207.2 1390.52  43
   0  -1 -19 24155.2 1260.91  17
   0  -1  19 27601.2 1588.25  16
   0   1  19 22028.3 1546.02  16
   0  -1  19 23199.4 1214.29  20
   0  -1 -19 23921.7 1275.87  19
   0   1 -19 24792.6 1148.77  35
   0  -1 -19 23984.0 1283.61  34
   0   1 -19 24774.5 1354.34  34
   0   1 -19 19771.4 1340.01  27
   0  -1  19 22701.7 1334.00  31
   0   1  19 24072.0 1160.55  31
   0  -1 -19 24598.3 1547.34  28
   0  -1  19 22140.3 1471.96  30
   0   1 -19 24296.6 1645.46  28
   0   1  19 23583.7 1444.46  32
   0  -1 -19 22973.6 1141.30  24
   0   1  19 25752.7 1494.08  21
   0   1 -19 23844.2 1274.77  24
   0  -1  19 22664.5 1475.16  21
   0  -1 -19 22708.3 1283.30  22
   0   1  19 23490.6 1281.54  23
   0  -1  19 24558.3 1435.32  23
   0   1  20 12985.1 1114.12   5
   0  -1  20 14763.3 1501.09   3
   0  -1 -20 16439.5 1363.61   4
   0   1  20 13939.5 1376.96   2
   0  -1  20 15978.6 1209.38  44
   0   1  20 13393.4 1130.41  41
   0  -1 -20 14807.0 1067.94  43
   0   1 -20 14131.4 1365.75  39
   0   1 -20 16003.4 1112.06  43
   0  -1  20 16859.9 1222.55  16
   0  -1 -20 13426.9 909.842  17
   0  -1  20 13978.3 892.952  20
   0  -1 -20 14415.4 948.616  19
   0   1  20 14966.4 1240.16  16
   0   1 -20 14707.2 1011.06  34
   0   1 -20 14191.8 822.885  35
   0  -1 -20 14640.2 967.083  34
   0  -1 -20 13637.7 1156.64  28
   0  -1  20 13019.0 1097.88  30
   0   1  20 14470.7 858.506  31
   0  -1  20 13919.5 1002.08  31
   0   1 -20 10743.1 937.279  27
   0   1  20 13275.7 1072.86  32
   0   1 -20 16945.1 1347.59  28
   0   1 -20 15338.0 979.809  22
   0   1  20 15208.1 986.829  23
   0   1  20 12795.5 1056.79  21
   0  -1  20 15571.9 1183.35  21
   0  -1 -20 14690.5 848.020  24
   0  -1  20 14478.1 1080.08  23
   0  -1 -20 13932.6 957.885  22
   0   1 -20 15534.7 975.984  24
   0  -1 -21 241684. 8888.47   4
   0   1  21 238452. 9165.60   2
   0   1  21 219263. 8479.71   5
   0  -1  21 237692. 9365.36   3
   0  -1  21 251610. 8634.18  44
   0   1  21 226897. 8310.47  45
   0   1 -21 251897. 8392.99  43
   0   1 -21 242225. 9191.57  39
   0   1  21 231716. 8514.05  41
   0  -1 -21 236064. 8381.36  43
   0  -1  21 240867. 8627.03  16
   0  -1 -21 245323. 8159.34  19
   0   1  21 238807. 8750.81  16
   0  -1 -21 236508. 8102.41  17
   0  -1  21 231019. 8020.49  20
   0   1 -21 242173. 7903.70  35
   0  -1 -21 240683. 8183.67  34
   0   1 -21 244038. 8285.75  34
   0   1  21 236432. 7974.72  31
   0  -1  21 218252. 8451.40  30
   0  -1 -21 239934. 8695.93  28
   0  -1  21 240841. 8291.05  31
   0   1 -21 208006. 8194.11  27
   0   1  21 240365. 8494.28  32
   0   1 -21 249036. 8178.29  24
   0   1 -21 238809. 8155.38  22
   0  -1  21 232086. 8407.24  23
   0   1  21 246644. 8508.70  21
   0  -1  21 243764. 8581.37  21
   0  -1 -21 233783. 7934.20  24
   0   1  21 225559. 8181.66  23
   0  -1 -21 246613. 8210.20  22
   0   1  22 2132.40 523.228  16
   0  -1  22 1632.14 445.350  16
   0  -1 -22 2247.36 515.011   4
   0  -1  22 2819.81 704.591   3
   0   1  22 2702.12 629.334   2
   0   1  22 2061.12 451.128   5
   0   1  22 1619.95 384.762  45
   0  -1  22 2594.08 515.502  44
   0   1  22 2127.06 475.163  41
   0   1 -22 2567.31 459.814  43
   0  -1 -22 2146.06 428.098  43
   0   1  22 2452.97 468.711  21
   0  -1 -22 1807.19 325.882  17
   0  -1  22 1684.99 424.002  21
   0  -1  22 1962.06 346.955  20
   0  -1 -22 2242.51 370.711  19
   0   1 -22 2942.74 346.872  35
   0  -1 -22 1804.73 361.465  34
   0   1 -22 1691.37 503.549  39
   0   1 -22 1932.72 388.154  34
   0  -1  22 2182.81 479.521  30
   0  -1 -22 1886.47 461.144  28
   0   1  22 1918.61 322.363  31
   0  -1  22 2192.08 440.248  31
   0   1  22 2579.90 497.030  32
   0   1  22 1991.71 393.753  23
   0  -1  22 1906.48 431.134  23
   0  -1 -22 2216.64 324.498  24
   0   1 -22 2093.02 374.150  24
   0   1 -22 2403.36 389.390  22
   0  -1 -22 2887.46 436.438  22
   0  -1  23 184521. 7917.70   3
   0   1  23 174501. 6943.33   5
   0  -1  23 190942. 7062.52  44
   0   1  23 182820. 6885.86  45
   0   1 -23 180077. 7568.84  39
   0   1  23 173276. 6945.04  41
   0   1 -23 183925. 6797.51  43
   0  -1 -23 190101. 6863.80  43
   0  -1  23 174312. 6463.64  20
   0  -1  23 191239. 7173.61  16
   0  -1 -23 184966. 6575.54  17
   0   1  23 180854. 7264.00  16
   0  -1 -23 201199. 6657.80  19
   0   1 -23 197262. 6783.51  34
   0  -1 -23 191500. 6679.35  34
   0   1 -23 189436. 6330.25  35
   0  -1 -23 206913. 7307.29  28
   0  -1  23 184116. 6734.69  31
   0   1  23 182424. 7004.23  32
   0  -1  23 169178. 6910.22  30
   0   1  23 184951. 6464.97  31
   0   1  23 191603. 6750.63  23
   0  -1 -23 186013. 6661.06  22
   0  -1 -23 184721. 6375.95  24
   0   1 -23 187836. 6620.40  22
   0  -1  23 176036. 7008.78  21
   0   1 -23 181629. 6610.46  24
   0  -1  23 184972. 6905.27  23
   0   1  23 181769. 6972.50  21
   0   1 -24 1150.15 418.066  14
   0  -1  24 2108.22 532.460  16
   0  -1 -24 901.079 371.036  14
   0   1  24 1374.03 510.623  16
   0   1  24 1046.47 362.293   5
   0  -1  24 1371.46 536.144   3
   0   1  24 1358.70 398.980  45
   0   1  24 1373.70 374.101  47
   0   1  24 995.774 336.079  41
   0   1 -24 1336.04 357.903  43
   0  -1  24 1606.38 433.602  44
   0  -1 -24 1070.32 345.267  43
   0  -1  24 1414.50 314.954  20
   0  -1  24 2026.32 492.888  21
   0   1  24 847.655 342.079  21
   0  -1 -24 1622.43 323.273  19
   0  -1 -24 1584.75 369.944  34
   0   1 -24 1529.14 261.284  35
   0   1 -24 1537.75 370.807  34
   0  -1  24 1020.46 329.059  31
   0  -1 -24 2276.29 523.900  28
   0   1  24 1552.09 455.607  32
   0   1  24 1231.36 293.868  31
   0  -1  24 1520.29 428.657  30
   0  -1  24 1104.05 355.502  23
   0  -1 -24 1541.83 359.296  22
   0   1  24 1275.89 346.796  23
   0   1 -24 2107.91 376.661  24
   0  -1 -24 1110.42 251.632  24
   0   1 -24 1247.74 325.276  22
   0   1 -25 261470. 9334.88  14
   0  -1 -25 255878. 9330.01  14
   0   1  25 232596. 9841.84   2
   0  -1  25 251054. 10238.9   3
   0   1  25 242269. 9182.37   5
   0  -1  25 255117. 9339.02  44
   0   1  25 252299. 9025.05  47
   0   1  25 254602. 9242.02  45
   0   1  25 251364. 9247.91  41
   0  -1 -25 259522. 9115.62  43
   0  -1  25 243781. 8684.05  20
   0  -1 -25 268975. 8809.17  19
   0   1  25 239022. 9583.50  16
   0  -1  25 252499. 9525.33  16
   0   1 -25 257732. 8997.95  34
   0  -1 -25 261113. 8943.39  34
   0   1 -25 252716. 8499.60  35
   0  -1  25 253797. 9031.80  31
   0   1  25 260947. 9366.83  32
   0  -1  25 252885. 9228.96  30
   0   1  25 251435. 8736.03  31
   0  -1 -25 267265. 9597.97  28
   0  -1  25 258170. 9231.92  23
   0   1  25 258603. 9079.89  23
   0  -1 -25 255557. 8600.89  24
   0   1 -25 254360. 8829.05  22
   0   1  25 258432. 9287.57  21
   0  -1  25 252007. 9300.35  21
   0   1 -25 259814. 8869.95  24
   0  -1 -25 250947. 8898.81  22
   0  -1 -26 62427.4 3165.65  14
   0   1 -26 61181.6 3136.81  14
   0  -1  26 55454.6 3710.35   3
   0   1  26 60762.3 3042.36   5
   0   1  26 60426.2 3604.72   2
   0   1  26 65306.6 3166.47  45
   0  -1  26 62646.5 3182.44  44
   0   1  26 62684.9 2936.78  47
   0  -1  26 61607.9 3042.17  41
   0  -1 -26 61121.7 2982.63  43
   0   1  26 59645.7 3052.35  41
   0  -1  26 65164.7 2715.74  20
   0   1  26 58363.3 3371.99  16
   0  -1 -26 68271.4 2767.21  19
   0  -1  26 61369.3 3339.50  16
   0   1 -26 66326.8 2978.86  34
   0  -1 -26 62480.2 2892.88  34
   0   1 -26 62426.1 2502.04  35
   0  -1  26 64044.8 3094.66  30
   0   1  26 59251.5 3130.51  32
   0  -1  26 63418.8 2979.09  31
   0  -1 -26 65540.9 3368.29  28
   0   1  26 62970.4 2729.25  31
   0   1 -26 62497.6 2780.57  22
   0  -1 -26 57824.1 2803.93  22
   0   1 -26 69684.0 2876.30  24
   0  -1  26 66459.4 3143.35  23
   0  -1  26 61332.2 3140.81  21
   0   1  26 56410.1 2933.72  23
   0  -1 -26 64726.5 2611.75  24
   0   1  26 62890.9 3113.71  21
   0   1  27 3095.43 712.149  16
   0   1 -27 3863.43 661.009  14
   0  -1  27 3794.82 715.728  16
   0  -1 -27 3407.45 626.821  14
   0   1  27 4389.97 657.347   5
   0  -1  27 6256.17 1081.54   3
   0   1  27 3608.44 786.628   2
   0   1  27 3474.03 578.005  47
   0   1  27 3859.53 666.961  45
   0  -1  27 2900.19 602.376  44
   0  -1  27 3679.24 604.047  41
   0   1  27 3103.44 563.905  41
   0  -1 -27 4338.79 647.811  43
   0  -1  27 3416.21 642.412  21
   0  -1  27 3713.09 497.902  20
   0   1  27 3946.98 680.802  21
   0  -1 -27 4280.09 582.948  34
   0   1 -27 3867.72 592.213  34
   0  -1  27 3494.16 571.514  31
   0   1  27 3762.65 681.859  32
   0  -1  27 3330.97 585.996  30
   0   1  27 4395.25 550.243  31
   0  -1 -27 3726.04 703.113  28
   0   1  27 3900.99 627.013  23
   0  -1 -27 4846.60 505.293  24
   0   1 -27 4056.35 547.006  22
   0   1 -27 3414.10 523.593  24
   0  -1  27 3993.96 657.243  23
   0  -1 -28 1010.12 397.092  14
   0   1 -28 1119.80 393.860  14
   0   1  28 969.053 425.252  16
   0  -1  28 1446.89 462.083  16
   0   1  28 664.107 389.673   2
   0   1  28 964.462 353.972   5
   0   1  28 1226.97 414.757  45
   0   1  28 903.709 318.469  47
   0  -1  28 1516.07 478.656  44
   0  -1  28 1109.07 272.101  20
   0  -1  28 1062.31 380.924  21
   0   1  28 1252.21 423.964  21
   0   1 -28 780.117 314.236  34
   0  -1 -28 1718.66 396.041  34
   0  -1 -28 1230.31 472.036  28
   0   1  28 881.302 375.781  32
   0  -1  28 1247.74 400.920  30
   0  -1  28 1281.96 374.660  31
   0   1  28 984.596 311.369  31
   0   1 -28 1067.67 305.123  22
   0   1 -28 1100.43 318.206  24
   0   1  28 1010.92 378.161  23
   0  -1  28 1162.59 384.922  23
   0  -1 -28 963.280 243.647  24
   0  -1 -29 47288.8 2668.69  14
   0   1 -29 45733.1 2590.19  14
   0   1  29 45471.3 2435.92  47
   0   1  29 46801.6 2657.25  45
   0  -1  29 44507.5 2625.82  44
   0  -1  29 46101.3 2880.45  16
   0  -1  29 47489.3 2197.04  20
   0   1  29 43273.1 2984.20   2
   0   1  29 47351.4 2454.80   5
   0   1 -29 45630.1 2423.74  34
   0  -1 -29 51115.0 2450.78  34
   0   1  29 49456.4 2328.82  31
   0   1  29 40997.2 2548.16  32
   0  -1  29 46847.5 2488.67  31
   0  -1 -29 49047.0 2909.45  28
   0  -1  29 48110.8 2507.99  30
   0   1 -29 46647.9 2231.01  22
   0  -1  29 48940.5 2680.03  21
   0   1 -29 47978.1 2330.26  24
   0   1  29 45324.8 2534.90  23
   0  -1 -29 46459.0 2096.85  24
   0   1  29 46605.8 2660.45  21
   0  -1  29 45456.6 2586.88  23
   0  -1 -30 89702.6 4198.78  14
   0   1 -30 93143.1 4214.03  14
   0   1  30 93299.4 3992.30  47
   0  -1  30 86925.6 4158.20  44
   0   1  30 89740.5 4205.67  45
   0  -1  30 93531.5 3659.36  20
   0  -1 -30 96826.4 3944.81  34
   0   1 -30 89418.2 3942.64  34
   0  -1  30 86879.5 3980.95  31
   0  -1  30 92406.1 3970.29  30
   0   1  30 92732.9 3796.01  31
   0   1  30 88246.2 4151.51  32
   0  -1  30 87705.8 4172.11  21
   0  -1  30 89552.6 4136.45  23
   0  -1 -30 94751.0 3557.29  24
   0   1  30 91749.3 4215.74  21
   0   1 -30 95663.8 3870.46  24
   0   1  30 90405.1 4133.86  23
   0  -1 -31 1786.93 484.687  14
   0   1 -31 2121.57 497.744  14
   0   1  31 2222.11 489.545  47
   0  -1  31 1977.68 382.104  47
   0   1  31 2302.75 549.328  45
   0  -1  31 2577.97 565.599  44
   0   1  31 2588.41 558.744  21
   0  -1  31 2552.19 393.952  20
   0  -1  31 2308.26 546.564  21
   0  -1 -31 2091.98 452.819  34
   0   1 -31 2452.38 499.000  34
   0  -1  31 2072.51 446.799  30
   0   1  31 1850.02 409.240  31
   0  -1  31 2973.89 549.121  31
   0   1  31 1631.46 447.516  32
   0  -1 -31 2221.71 448.898  22
   0   1  31 1980.64 515.642  23
   0  -1  31 2426.56 541.814  23
   0   1 -31 1610.50 388.535  24
   0   1 -32 9692.16 1028.99  14
   0  -1 -32 9138.36 1045.96  14
   0   1 -32 9257.10 915.588   8
   0  -1  32 10501.0 1074.20  44
   0   1  32 9139.87 1005.69  45
   0   1  32 8919.17 920.608  47
   0  -1 -32 9626.83 950.956  43
   0  -1  32 9870.84 1044.10  21
   0   1 -32 8591.12 893.512  34
   0  -1 -32 10177.8 943.162  34
   0   1  32 7509.46 898.276  32
   0   1  32 10569.2 898.237  31
   0  -1  32 8899.74 940.040  31
   0  -1  32 8608.02 993.595  23
   0   1  32 9251.69 1010.07  23
   0   1  32 10116.2 1051.08  21
   0  -1 -32 8187.37 834.743  22
   0   1 -32 9783.22 880.087  24
   0   1 -33 5007.43 724.090  14
   0  -1 -33 5197.25 759.100  14
   0   1 -33 6019.82 724.941   8
   0   1  33 5736.63 719.196  47
   0  -1  33 5549.15 785.242  44
   0   1  33 4981.03 735.422  45
   0   1  33 4753.07 726.912  44
   0  -1 -33 6638.15 759.190  43
   0  -1  33 5588.08 782.909  21
   0  -1 -33 5584.53 686.565  34
   0   1 -33 6022.11 721.731  34
   0  -1  33 4499.37 670.888  31
   0   1  33 5586.85 719.441  32
   0   1  33 5919.83 664.104  31
   0  -1 -33 5770.03 663.988  22
   0  -1  33 5638.72 762.417  23
   0   1  33 6834.42 858.674  23
   0   1  33 5504.42 774.207  21
   0  -1 -34 378.405 265.965  14
   0   1 -34 239.026 231.835  14
   0   1 -34 51.3475 180.250   8
   0   1  34 168.031 226.968  45
   0  -1  34 188.938 255.182  44
   0   1  34 429.739 268.668  44
   0  -1 -34 406.530 265.806  43
   0   1  34 310.405 240.845  21
   0  -1  34 183.727 189.584  21
   0   1 -34 103.581 181.802  34
   0  -1 -34 196.649 190.777  34
   0   1  34 58.0844 192.220  30
   0   1  34 344.234 207.557  31
   0  -1  34 224.559 227.493  31
   0   1  34 326.094 314.485  23
   0  -1 -34 405.430 252.698  22
   0  -1  34 548.344 302.314  23
   0  -1 -35 58560.5 2893.31  14
   0   1 -35 60267.2 2877.11  14
   0   1 -35 59051.0 2755.24   8
   0  -1  35 56536.1 2858.69  44
   0   1  35 60053.6 2883.25  44
   0  -1 -35 62073.0 2736.50  43
   0  -1  35 57727.3 2857.15  21
   0   1 -35 58927.6 2739.37  34
   0  -1 -35 62641.8 2741.25  34
   0   1  35 54225.4 2701.73  30
   0  -1  35 61210.2 2836.27  31
   0   1  35 58463.1 2942.76  23
   0   1  35 57779.6 2875.99  21
   0  -1 -35 60966.4 2640.60  22
   0  -1  35 62162.9 2890.07  23
   0  -1 -36 4361.39 641.430  14
   0   1 -36 4025.97 597.215  14
   0  -1  36 5328.44 674.945  44
   0   1  36 5194.83 661.599  44
   0  -1  36 5017.27 652.483  21
   0   1 -36 4379.78 575.971   8
   0  -1 -36 3653.56 522.019  34
   0   1 -36 4944.94 602.234  34
   0   1  36 5059.68 575.163  30
   0  -1  36 5068.99 640.740  31
   0  -1  36 4449.77 607.783  23
   0   1 -36 4521.71 531.396  24
   0  -1 -36 4701.37 536.891  22
   0   1  36 4544.89 657.702  23
   0   1  36 5201.51 671.598  21
   0  -1 -37 41529.9 2140.01  14
   0   1 -37 44356.2 2151.35  14
   0   1  37 43461.7 2159.65  44
   0  -1  37 42403.8 2167.26  44
   0  -1  37 41919.6 2126.81  21
   0  -1 -37 42479.0 2023.14  34
   0   1 -37 45167.7 2076.15  34
   0   1 -37 42414.9 1932.06  24
   0  -1 -37 44116.1 1917.93  22
   0  -1  37 36883.1 2004.83  23
   0   1  37 43470.4 2242.27  23
   0   1  37 40904.9 2137.14  21
   0  -1  37 43638.2 2118.07  31
   0   1 -37 40689.8 2048.18   8
   0  -1 -37 41317.7 1998.67   8
   0   1 -38 3629.78 492.851  14
   0  -1 -38 3358.73 493.136  14
   0  -1  38 4389.02 547.507  44
   0   1  38 4227.14 526.773  44
   0   1 -38 3010.10 447.650   8
   0  -1 -38 3298.65 446.084   8
   0  -1 -38 4297.97 492.829  34
   0   1 -38 3921.17 476.062  34
   0  -1  38 3973.04 495.689  31
   0   1  38 4007.06 528.155  21
   0   1  38 4081.50 552.235  23
   0  -1 -39 84479.8 3333.00  14
   0   1 -39 91986.0 3353.31  14
   0  -1  39 85095.6 3348.17  44
   0   1  39 80885.2 3300.93  44
   0   1  39 83827.3 3339.36  21
   0  -1 -39 86680.3 3248.01  34
   0  -1  39 85029.1 3306.90  31
   0   1  39 81668.5 3413.36  23
   0   1 -39 83281.0 3293.92   8
   0   1 -40 825.435 205.966  14
   0  -1 -40 726.479 205.299  14
   0   1 -41 83849.6 2836.82  14
   0  -1 -41 73718.0 2806.78  14
   0   2   0 200939. 6796.97  15
   0  -2   0 202681. 6873.14  40
   0   2   0 195557. 6869.97  41
   0   2   0 197623. 6991.16  39
   0  -2   0 203128. 6784.36  17
   0  -2   0 198831. 6591.46  28
   0   2   0 195837. 6765.11  27
   0  -2   0 206417. 6975.09   1
   0   2   1 13095.4 816.886  15
   0   2  -1 13299.1 825.039  15
   0   2  -1 12507.6 850.839  41
   0  -2  -1 12329.0 820.614  40
   0   2   1 11506.2 821.568  41
   0   2  -1 13973.1 941.485  39
   0  -2   1 14350.2 895.839  40
   0  -2  -1 12215.3 784.488  17
   0  -2   1 11173.8 769.812  17
   0   2   1 12055.6 897.780  39
   0   2  -1 12521.6 785.850  27
   0  -2  -1 12447.3 679.185  28
   0   2   1 13142.4 791.360  27
   0  -2   1 13727.0 913.773   1
   0  -2  -1 12456.1 882.314   1
   0   2  -2 735186. 24042.3  15
   0   2   2 748022. 24032.5  15
   0   2  -2 717540. 24113.1  41
   0   2  -2 784456. 24269.3  39
   0   2   2 700253. 24104.4  41
   0  -2   2 742755. 24164.0  40
   0  -2  -2 769337. 24086.9  40
   0  -2   2 759238. 24036.2  17
   0  -2  -2 758292. 24007.9  17
   0   2   2 781184. 24294.4  39
   0   2  -2 762451. 23995.5  27
   0  -2  -2 748366. 23814.7  28
   0   2   2 772621. 23997.4  27
   0  -2   2 738291. 24212.2   1
   0  -2   2 768433. 24193.9   3
   0  -2  -2 788691. 24233.6   1
   0  -2   3 781.778 147.254  16
   0   2   3 1093.92 240.939  15
   0   2  -3 828.310 223.309  15
   0  -2   3 840.637 253.315  40
   0   2  -3 1131.27 263.340  41
   0   2   3 1152.42 256.473  41
   0  -2  -3 1258.83 267.001  40
   0  -2  -3 853.368 223.966  17
   0  -2   3 828.531 225.489  17
   0   2  -3 853.421 250.811  39
   0   2   3 1729.30 344.452  39
   0   2  -3 611.267 193.618  27
   0  -2  -3 1154.53 204.098  28
   0   2   3 1148.23 227.820  27
   0  -2   3 466.237 215.669   1
   0  -2   3 679.879 243.405   3
   0  -2  -3 986.470 268.443   1
   0   2  -4 1662.60 294.091  15
   0   2   4 1691.02 292.835  15
   0  -2   4 1133.79 170.823  16
   0  -2   4 1097.33 287.483  40
   0   2   4 1716.10 309.877  41
   0  -2  -4 2021.90 313.678  40
   0   2  -4 1839.06 334.945  41
   0  -2  -4 1755.66 297.040  17
   0   2  -4 2230.87 399.862  39
   0   2  -4 1577.89 281.131  27
   0  -2  -4 1505.18 225.214  28
   0   2   4 1253.29 245.502  27
   0  -2   4 1229.22 288.232   3
   0  -2  -4 1619.95 316.782   1
   0  -2   4 1414.70 320.250   1
   0   2  -5 221036. 7926.76  15
   0  -2   5 230078. 7595.90  16
   0  -2  -5 239737. 7900.64  17
   0  -2  -5 231465. 7927.73  40
   0   2  -5 234159. 8142.71  39
   0  -2   5 231711. 8095.64  40
   0   2   5 236793. 7999.44  41
   0   2  -5 229594. 8032.27  41
   0   2  -5 231082. 7897.57  27
   0   2   5 252502. 7913.55  27
   0  -2  -5 241941. 7755.13  28
   0  -2   5 229605. 8095.64   1
   0  -2   5 234095. 8073.49   3
   0  -2   6 189888. 6444.57  16
   0   2  -6 198924. 6810.07  15
   0  -2  -6 197837. 6777.23  17
   0  -2   6 195187. 6957.84  40
   0  -2  -6 197357. 6791.95  40
   0   2  -6 207155. 6910.52  41
   0   2   6 194879. 6829.51  41
   0   2  -6 198430. 7002.81  39
   0   2   6 209988. 6755.07  27
   0  -2  -6 192582. 6587.79  28
   0   2  -6 193097. 6735.24  27
   0  -2   6 195076. 6975.69   1
   0  -2   6 191767. 6917.84   3
   0   2  -7 18527.4 1153.33  15
   0  -2  -7 22763.5 1208.00  17
   0  -2  -7 21930.1 1189.37  40
   0   2  -7 21033.8 1308.42  39
   0  -2   7 20011.7 1287.88  40
   0   2   7 20646.2 1202.92  41
   0   2  -7 20417.5 1157.60  27
   0   2   7 21542.1 1158.93  27
   0   2   7 19454.0 816.394  29
   0  -2   7 19428.9 1253.26   3
   0  -2   7 18855.1 1272.09   1
   0  -2  -8 44243.9 1908.20  17
   0  -2   8 40819.9 2014.25  40
   0   2  -8 40516.8 2023.17  39
   0   2   8 42049.5 1898.25  41
   0   2  -8 36217.9 1745.88  27
   0   2   8 47688.0 1878.79  27
   0   2   8 34558.6 1262.75  29
   0  -2   8 40719.0 1987.98   3
   0  -2   8 37985.2 1969.80   1
   0   2  -9 52605.1 2310.00  15
   0   2  -9 46500.0 2380.06  39
   0  -2   9 46325.7 2425.97  40
   0   2   9 50296.1 2279.21  41
   0  -2  -9 53336.2 2315.44  17
   0   2   9 51632.7 2223.79  27
   0  -2   9 45791.6 2374.63   1
   0  -2   9 49088.3 2385.16   3
   0   2 -10 629.799 225.621  15
   0   2  10 455.985 206.349  41
   0  -2  10 474.487 269.239  40
   0  -2 -10 720.022 256.746  17
   0   2 -10 823.770 301.478  39
   0   2  10 377.773 212.528  27
   0  -2  10 555.142 257.780   3
   0  -2  10 583.984 263.913   1
   0   2 -11 135116. 4957.70  15
   0  -2 -11 124236. 4825.74  17
   0   2 -11 130839. 5122.01  39
   0   2  11 129971. 4925.66  41
   0  -2  11 135930. 5199.39  40
   0   2  11 129048. 4855.97  27
   0   2 -11 127799. 4822.22  27
   0  -2  11 128497. 5100.75   3
   0  -2  11 118606. 5081.38   1
   0   2 -12 300683. 10176.8  15
   0   2  12 295647. 10138.1  41
   0   2 -12 301631. 10358.7  39
   0  -2  12 296919. 10455.1  40
   0  -2 -12 274560. 9922.71  17
   0   2  12 298021. 10117.2  27
   0   2 -12 286169. 9960.32  27
   0  -2  12 289695. 10351.7   3
   0   2  12 297082. 10390.3   2
   0   2 -13 15197.2 1219.68  15
   0   2  13 18474.5 1414.69   2
   0  -2  13 17353.0 1359.66   3
   0   2  13 15877.1 949.528  45
   0  -2  13 15961.9 1103.11  44
   0  -2  13 17614.7 1420.99  40
   0  -2 -13 15717.6 1066.62  43
   0   2 -13 16533.1 1340.72  39
   0   2  13 18513.6 1284.77  41
   0  -2  13 15209.2 988.584  20
   0  -2 -13 15764.3 956.364  19
   0  -2  13 16915.2 1096.40  21
   0  -2 -13 17089.2 1153.21  17
   0   2 -13 17470.5 983.975  35
   0   2  13 19134.4 1079.65  32
   0   2  13 17709.9 1237.87  27
   0   2 -13 14879.4 1108.85  27
   0   2  13 17819.6 1093.63  21
   0  -2 -13 16930.6 1028.08  22
   0   2 -13 16904.4 1002.93  24
   0   2 -14 370623. 12757.7  15
   0   2  14 378234. 13064.2   2
   0  -2  14 382325. 12989.1   3
   0  -2  14 361956. 12422.1  44
   0   2  14 350213. 12107.3  45
   0   2 -14 380584. 12989.8  39
   0   2  14 355019. 12635.9  41
   0  -2 -14 358677. 12364.8  43
   0  -2  14 375732. 13072.4  40
   0   2  14 369559. 12575.2  16
   0  -2 -14 375007. 12417.2  17
   0  -2  14 364787. 12375.9  21
   0  -2  14 356043. 12214.2  20
   0   2 -14 382446. 12122.2  35
   0   2  14 392771. 12315.3  32
   0  -2  14 350616. 12267.3  31
   0   2 -14 372457. 12486.2  27
   0   2  14 367586. 12337.2  21
   0  -2 -14 372597. 12236.9  22
   0   2 -14 392964. 12259.9  24
   0   2 -15 131705. 5195.37  15
   0  -2  15 123148. 5334.37   3
   0   2  15 129602. 5426.26   2
   0  -2  15 124683. 4868.09  44
   0   2  15 121362. 4567.83  45
   0   2 -15 127505. 5346.82  39
   0   2  15 128899. 5110.15  41
   0  -2  15 125147. 5440.51  40
   0  -2 -15 124075. 4804.96  43
   0   2  15 119334. 4974.80  16
   0   2  15 125092. 4783.82  18
   0  -2  15 121873. 4808.10  21
   0  -2 -15 118868. 4764.65  17
   0  -2  15 128456. 4699.96  20
   0   2 -15 132714. 4545.83  35
   0   2 -15 128414. 4610.00  34
   0  -2 -15 123075. 4522.29  34
   0   2 -15 127327. 4885.62  27
   0   2  15 132084. 4765.31  32
   0  -2  15 122184. 4721.73  31
   0  -2 -15 125974. 4651.99  22
   0   2 -15 132203. 4699.53  24
   0   2  15 125014. 4779.15  21
   0   2 -16 263515. 9488.67  15
   0  -2  16 260442. 9736.50   3
   0   2  16 257318. 9760.38   2
   0  -2  16 262339. 9140.09  44
   0   2  16 244412. 8770.01  45
   0  -2  16 258949. 9859.09  40
   0   2 -16 261273. 9688.46  39
   0  -2 -16 254108. 9046.48  43
   0   2  16 257231. 9070.51  18
   0  -2  16 273702. 8943.37  20
   0   2  16 248928. 9275.70  16
   0  -2  16 250032. 9055.83  21
   0   2 -16 260571. 8832.13  34
   0   2 -16 275614. 8740.14  35
   0  -2 -16 246766. 8693.55  34
   0   2 -16 254822. 9036.99  27
   0  -2  16 252297. 8986.78  31
   0  -2  16 268495. 9049.89  30
   0   2  16 254267. 8970.81  32
   0   2 -16 274647. 8919.40  24
   0  -2 -16 271616. 8883.63  22
   0   2  16 253691. 9028.07  21
   0   2 -17 35358.6 2178.03  15
   0  -2  17 32865.7 2286.69   3
   0   2  17 36560.1 2403.44   2
   0  -2  17 32618.5 1900.50  44
   0   2  17 34274.2 1714.42  45
   0  -2  17 33513.5 2382.19  40
   0  -2 -17 32978.4 1846.10  43
   0   2 -17 32392.3 2217.97  39
   0  -2  17 32501.2 1870.83  21
   0   2  17 33563.8 1885.24  18
   0   2  17 32373.3 2038.44  16
   0  -2 -17 37290.7 1735.91  19
   0  -2  17 34597.3 1754.25  20
   0  -2 -17 35289.5 1632.80  34
   0   2 -17 31608.4 1680.32  34
   0   2 -17 32473.3 1583.91  35
   0  -2  17 34999.4 1866.52  31
   0   2  17 33098.5 1799.59  32
   0  -2  17 33001.4 1822.76  30
   0   2 -17 30609.4 1750.98  27
   0   2  17 31889.8 1547.57  23
   0  -2 -17 34341.8 1724.83  22
   0   2  17 34517.6 1888.02  21
   0   2 -17 33549.4 1718.63  24
   0  -2  17 30563.2 1740.73  23
   0   2 -18 27173.5 1915.18  15
   0   2  18 24325.2 1985.80   2
   0  -2  18 25822.4 2023.59   3
   0  -2  18 24721.2 1635.13  44
   0   2  18 22532.4 1365.60  45
   0  -2 -18 24599.0 1527.78  43
   0  -2  18 24274.7 2033.01  40
   0   2 -18 24501.8 1910.81  39
   0   2  18 23850.1 1559.84  18
   0  -2  18 23603.0 1558.35  21
   0   2  18 19345.7 1576.32  16
   0  -2  18 26310.0 1446.33  20
   0  -2 -18 22772.2 1333.87  19
   0  -2 -18 24002.7 1487.20  17
   0  -2 -18 21286.8 1265.60  34
   0   2 -18 25556.6 1432.60  34
   0  -2  18 24253.6 1528.52  30
   0   2 -18 23726.1 1437.37  27
   0  -2  18 25306.7 1547.61  31
   0   2  18 23883.6 1496.22  32
   0  -2  18 23342.9 1475.86  23
   0   2  18 23761.8 1268.70  23
   0   2 -18 23457.1 1389.52  24
   0  -2 -18 23475.9 1368.30  22
   0   2  18 21326.9 1479.87  21
   0   2  19 507.815 294.337  16
   0   2 -19 740.181 347.136  15
   0   2  19 506.752 355.921   2
   0  -2  19 1004.61 439.834   3
   0   2  19 1076.06 306.162  45
   0  -2  19 184.754 260.197  44
   0  -2  19 652.921 382.092  40
   0  -2 -19 627.960 274.175  43
   0   2  19 470.479 249.109  41
   0   2  19 877.341 321.227  18
   0  -2  19 472.796 249.745  21
   0  -2  19 412.219 246.368  20
   0  -2 -19 355.137 188.383  17
   0   2  19 327.071 230.456  21
   0  -2 -19 434.156 217.144  19
   0   2 -19 623.565 260.961  34
   0   2 -19 1029.36 437.992  39
   0  -2 -19 421.177 193.261  34
   0  -2  19 354.087 159.050  33
   0  -2  19 669.149 282.813  31
   0  -2  19 811.405 303.815  30
   0   2  19 683.129 295.165  32
   0   2 -19 860.218 252.041  27
   0  -2  19 1092.70 328.078  23
   0  -2 -19 488.240 218.688  22
   0   2  19 781.899 218.399  23
   0   2 -19 585.743 224.842  24
   0   2 -20 77846.0 3917.45  15
   0   2  20 72957.2 4032.89   2
   0  -2  20 75513.2 4137.82   3
   0  -2  20 74343.0 3530.62  44
   0   2  20 69264.2 3200.69  45
   0  -2  20 78326.1 4289.87  40
   0   2 -20 76221.4 4001.96  39
   0  -2 -20 76617.0 3365.72  43
   0   2  20 66497.0 3467.04  41
   0  -2 -20 75381.4 3128.15  19
   0  -2  20 80078.0 3204.20  20
   0   2  20 67647.1 3359.32  18
   0  -2 -20 74519.7 3367.75  17
   0   2  20 69453.7 3593.06  16
   0  -2  20 76247.5 3502.90  21
   0   2 -20 72991.7 3183.02  34
   0  -2 -20 71503.3 3023.29  34
   0  -2  20 71565.3 2894.91  33
   0   2  20 70223.9 3331.57  32
   0  -2  20 83456.6 3433.25  31
   0  -2  20 80316.4 3443.34  30
   0   2  20 70995.1 2804.26  31
   0   2 -20 82537.1 3231.62  24
   0   2  20 76046.4 3424.91  21
   0   2  20 75708.0 3070.26  23
   0  -2  20 74754.1 3360.56  23
   0  -2 -20 80183.4 3203.95  22
   0  -2 -21 6125.59 826.373  14
   0   2 -21 5972.27 815.518  14
   0   2 -21 6915.13 985.354  15
   0   2  21 7439.72 1130.21   2
   0  -2  21 5173.54 965.882   3
   0   2  21 5535.39 691.570  45
   0   2  21 5804.77 716.532  47
   0  -2  21 5423.56 795.591  44
   0  -2  21 5369.69 1022.71  40
   0   2  21 6212.21 837.485  41
   0  -2 -21 6848.56 784.419  43
   0  -2 -21 6223.81 672.193  19
   0  -2  21 5694.41 656.226  20
   0   2  21 5093.42 743.421  18
   0  -2 -21 6097.22 730.907  17
   0  -2  21 5482.14 774.802  21
   0   2  21 5286.28 815.589  16
   0   2 -21 5911.95 970.957  39
   0   2 -21 6046.05 575.288  35
   0   2 -21 4918.22 627.352  34
   0  -2  21 6132.37 553.054  33
   0   2  21 5800.61 766.651  32
   0   2  21 5712.05 508.344  31
   0  -2  21 6735.60 780.935  31
   0  -2  21 6384.84 762.265  30
   0  -2  21 4964.74 689.697  23
   0   2  21 6005.79 637.875  23
   0  -2 -21 6543.19 683.096  22
   0   2 -21 6344.90 684.367  24
   0   2  21 6642.28 806.566  21
   0  -2 -22 50137.6 2764.54  14
   0   2 -22 47239.1 2984.57  15
   0   2 -22 49424.1 2735.41  14
   0  -2  22 51456.3 3318.69   3
   0   2  22 48286.8 3176.70   2
   0   2  22 49875.2 2551.07  45
   0  -2  22 49351.7 2774.50  44
   0   2  22 51352.5 2545.48  47
   0   2 -22 50804.3 3184.42  39
   0   2  22 46244.2 2681.47  41
   0  -2  22 46015.5 3291.13  40
   0  -2 -22 50566.8 2573.16  43
   0  -2 -22 51861.6 2380.79  19
   0  -2  22 46543.1 2653.29  21
   0   2  22 47354.5 2614.72  18
   0  -2 -22 50544.6 2562.57  17
   0   2  22 48625.9 2873.98  16
   0  -2  22 49343.7 2365.42  20
   0   2 -22 50951.5 2205.70  35
   0   2 -22 52044.4 2475.30  34
   0  -2  22 45590.6 2077.14  33
   0   2  22 51858.7 2121.69  31
   0  -2  22 52144.0 2598.22  31
   0   2  22 49405.2 2646.91  32
   0  -2  22 52263.6 2610.18  30
   0   2  22 49605.0 2362.46  23
   0  -2  22 48359.2 2553.76  23
   0  -2 -22 51177.6 2412.77  22
   0   2 -22 54097.3 2443.99  24
   0   2  22 50251.3 2645.81  21
   0  -2 -23 16405.1 1449.94  14
   0   2 -23 18395.4 1497.77  14
   0  -2 -23 15979.6 1666.53   4
   0   2  23 15818.8 1328.83  45
   0   2  23 16609.9 1299.37  47
   0  -2  23 16851.1 1364.96  48
   0  -2  23 17429.1 1485.33  44
   0  -2 -23 17954.4 1355.93  43
   0   2  23 16336.5 1426.50  41
   0   2 -23 17429.4 1739.10  39
   0  -2  23 18784.5 1246.36  20
   0  -2 -23 14215.2 1238.16  17
   0  -2  23 16638.5 1427.85  21
   0  -2 -23 18411.6 1219.81  19
   0   2  23 16119.2 1359.14  18
   0   2 -23 19006.7 1114.58  35
   0   2 -23 16932.0 1252.17  34
   0  -2  23 17376.5 1005.48  33
   0   2  23 15826.7 986.618  31
   0  -2  23 18080.4 1373.87  31
   0  -2  23 19142.1 1398.94  30
   0   2  23 18018.6 1423.75  21
   0  -2 -23 17808.0 1233.24  22
   0   2 -23 17202.7 1234.25  24
   0  -2  23 18078.4 1388.19  23
   0   2  23 17933.3 1237.82  23
   0   2 -24 7114.91 922.829  14
   0  -2 -24 6978.70 944.241  14
   0   2  24 6179.87 865.293   5
   0  -2 -24 7758.42 1144.29   4
   0  -2  24 6725.22 828.963  48
   0   2  24 6669.62 811.314  47
   0   2  24 7256.62 889.908  45
   0  -2  24 6118.64 866.127  44
   0  -2 -24 6578.14 811.490  43
   0   2  24 6355.53 876.553  41
   0   2  24 8119.69 928.300  18
   0  -2  24 8188.25 972.428  21
   0  -2  24 8074.14 965.595  16
   0  -2 -24 7549.32 861.666  17
   0  -2 -24 7593.21 762.574  19
   0   2 -24 7600.97 672.975  35
   0   2 -24 7199.92 789.189  34
   0   2 -24 5716.68 1004.09  39
   0   2  24 6669.70 599.168  31
   0  -2  24 7173.60 844.397  30
   0  -2  24 8022.50 884.920  31
   0  -2 -24 7522.63 932.182  28
   0   2  24 6526.41 753.520  23
   0   2  24 7493.59 902.709  21
   0  -2  24 7168.18 849.149  23
   0   2 -24 7849.15 803.238  24
   0  -2 -24 8896.54 839.326  22
   0  -2  25 3467.30 657.057  16
   0   2 -25 3493.59 657.777  14
   0  -2 -25 3625.46 682.059  14
   0   2  25 3851.37 850.040   2
   0   2  25 2850.20 602.880   5
   0   2  25 3860.73 652.328  45
   0  -2  25 2716.23 541.612  48
   0   2  25 3546.05 604.353  47
   0   2  25 2930.24 590.974  41
   0  -2  25 2503.12 562.532  44
   0  -2 -25 3685.59 605.890  43
   0  -2 -25 3490.56 509.646  19
   0  -2  25 2920.13 587.225  21
   0  -2 -25 3810.04 616.641  17
   0   2  25 2678.93 576.373  21
   0   2 -25 2345.94 660.446  39
   0   2 -25 3284.10 442.530  35
   0   2 -25 3279.06 548.682  34
   0  -2  25 3154.79 593.767  31
   0  -2  25 3296.04 567.675  30
   0   2  25 2900.78 408.388  31
   0  -2 -25 2571.37 577.406  28
   0  -2 -25 4173.45 591.307  22
   0   2  25 3398.53 555.029  23
   0   2 -25 3360.64 529.254  24
   0  -2  25 2386.44 509.824  23
   0   2 -26 68309.2 3417.51  14
   0  -2 -26 64222.1 3426.57  14
   0   2  26 66567.7 3967.84   2
   0   2  26 64110.2 3324.57   5
   0   2  26 66468.1 3362.27  45
   0  -2  26 65016.9 3186.66  48
   0   2  26 67073.7 3232.30  47
   0  -2  26 65903.7 3434.57  44
   0  -2 -26 67125.8 3252.79  43
   0   2 -26 63478.6 3841.95  39
   0   2  26 67715.9 3404.31  41
   0  -2  26 64459.3 3336.39  21
   0  -2 -26 71745.8 3034.53  19
   0  -2  26 67227.7 3485.09  16
   0   2 -26 66223.6 3117.14  34
   0   2 -26 69162.2 2831.76  35
   0   2  26 68129.0 2790.84  31
   0  -2  26 69042.0 3283.45  31
   0  -2 -26 63468.1 3427.06  28
   0   2  26 69306.4 3456.93  32
   0  -2  26 67699.5 3260.23  23
   0   2  26 66465.7 3157.97  23
   0   2  26 68871.1 3393.90  21
   0  -2 -26 70249.5 3097.21  22
   0   2 -26 64664.5 3039.06  24
   0  -2 -27 13363.2 1314.45  14
   0   2 -27 11881.5 1240.09  14
   0  -2 -27 13024.5 1023.22   8
   0   2  27 13467.0 1565.55   2
   0  -2  27 14585.0 1691.05   3
   0   2  27 12751.9 1226.47   5
   0  -2  27 11698.7 1235.64  44
   0   2  27 13461.8 1188.02  47
   0  -2  27 11397.0 1088.48  48
   0   2 -27 13126.8 1514.59  39
   0   2  27 11715.3 1189.21  41
   0  -2 -27 12903.1 1185.42  43
   0  -2  27 13285.4 1289.41  21
   0  -2  27 12787.6 1320.40  16
   0  -2 -27 12251.9 1010.93  19
   0   2 -27 14188.1 1155.43  34
   0   2 -27 12575.6 917.689  35
   0   2  27 13803.4 946.870  31
   0  -2 -27 11426.4 1276.60  28
   0   2  27 13586.4 1327.93  32
   0  -2  27 13516.9 1202.70  31
   0   2  27 12705.6 1205.46  21
   0   2  27 15141.1 1222.35  23
   0  -2 -27 11017.5 1008.67  22
   0   2 -27 12896.4 1094.14  24
   0  -2  27 12676.8 1156.23  23
   0   2 -28 18745.9 1522.50  14
   0  -2 -28 19555.2 1619.11  14
   0   2  28 18457.7 1470.93   5
   0  -2 -28 18547.2 1251.79   8
   0  -2  28 18100.4 1570.69  44
   0   2  28 17911.5 1431.26  47
   0  -2 -28 19018.2 1453.48  43
   0  -2  28 17847.5 1506.32  21
   0  -2 -28 20790.2 1301.26  19
   0  -2  28 18560.9 1287.52  20
   0  -2  28 16118.1 1539.25  16
   0   2 -28 19279.7 1401.05  34
   0   2 -28 17133.6 1123.06  35
   0   2  28 17810.8 1562.40  32
   0   2  28 19782.2 1193.05  31
   0  -2  28 19832.7 1515.07  31
   0   2  28 16807.9 1375.73  23
   0  -2  28 18535.2 1434.84  23
   0  -2 -28 20250.0 1376.52  22
   0   2  28 19732.2 1555.37  21
   0   2 -28 20155.6 1388.63  24
   0   2 -29 2297.83 561.213  14
   0  -2 -29 2230.77 593.834  14
   0   2  29 2731.60 524.528   5
   0  -2 -29 1881.49 410.982   8
   0   2  29 1873.91 489.386  47
   0  -2  29 2251.32 586.130  44
   0  -2 -29 2433.06 540.482  43
   0  -2  29 2156.85 430.277  20
   0   2  29 2190.28 520.537  21
   0  -2 -29 2546.01 426.661  19
   0  -2  29 2296.01 560.775  21
   0   2 -29 2220.82 494.149  34
   0   2 -29 2027.96 358.488  35
   0   2  29 2760.27 629.227  32
   0  -2  29 2037.91 502.932  31
   0   2  29 2058.42 362.201  31
   0  -2 -29 2712.11 486.589  22
   0   2 -29 2280.73 475.947  24
   0  -2  29 1998.93 472.777  23
   0   2  29 2457.85 515.198  23
   0   2 -30 238524. 8801.81  14
   0  -2 -30 232536. 8840.16  14
   0  -2 -30 230613. 8285.46   8
   0   2  30 227965. 8493.40   5
   0   2  30 240619. 8634.12  47
   0   2  30 225714. 8871.52  45
   0  -2  30 235228. 8854.84  44
   0  -2 -30 229996. 8589.10  43
   0  -2  30 236448. 8780.51  21
   0  -2  30 235185. 8281.43  20
   0   2 -30 243857. 8515.67  34
   0  -2  30 238134. 8672.43  31
   0   2  30 227008. 8855.68  32
   0  -2  30 230182. 8540.69  23
   0   2  30 249678. 8833.45  21
   0   2  30 245627. 8691.50  23
   0  -2 -30 230907. 8419.80  22
   0   2 -30 237586. 8443.61  24
   0   2 -31 2791.60 600.872  14
   0  -2 -31 4265.37 729.613  14
   0  -2 -31 3348.73 516.670   8
   0   2  31 3759.34 613.061  47
   0   2  31 4325.36 744.259  45
   0  -2 -31 3809.78 602.483  43
   0  -2  31 3514.32 680.620  44
   0  -2  31 2334.07 538.913  21
   0  -2  31 3165.22 486.757  20
   0   2  31 2950.68 580.172  21
   0   2 -31 3070.61 540.772  34
   0  -2  31 3277.12 607.546  31
   0   2  31 3153.48 626.966  32
   0  -2  31 2879.24 530.007  23
   0   2  31 4174.68 669.564  23
   0  -2 -31 3668.55 549.349  22
   0   2 -31 3660.19 569.845  24
   0  -2 -32 73758.6 3650.65  14
   0   2 -32 79154.6 3653.48  14
   0   2  32 75946.5 3516.12  47
   0   2  32 80198.8 3797.33  45
   0  -2  32 82167.3 3742.45  44
   0  -2 -32 79983.3 3511.02  43
   0  -2  32 79878.8 3650.46  21
   0  -2  32 81961.0 3274.32  20
   0   2 -32 78356.2 3421.70  34
   0  -2  32 80783.6 3610.65  31
   0   2  32 79582.5 3697.89  32
   0   2  32 74787.3 3605.40  21
   0  -2  32 74209.4 3386.27  23
   0   2 -32 82979.9 3463.34  24
   0  -2 -32 78483.5 3397.79  22
   0   2  32 77136.3 3602.84  23
   0  -2 -33 17186.9 1405.02  14
   0   2 -33 19242.7 1394.86  14
   0   2  33 17892.2 1327.17  47
   0   2  33 18125.1 1454.68  45
   0  -2  33 19110.7 1437.69  44
   0  -2 -33 18367.7 1312.22  43
   0   2 -33 18474.3 1272.89  34
   0   2  33 20025.3 1445.34  21
   0  -2 -33 17688.6 1239.52  22
   0  -2  33 16871.2 1206.91  23
   0   2  33 18499.9 1391.23  23
   0   2 -33 18946.6 1277.29  24
   0   2  33 19913.2 1443.30  32
   0  -2  33 17984.6 1366.36  31
   0  -2  33 17336.6 1352.30  21
   0  -2 -34 41558.6 2334.96  14
   0   2 -34 41300.9 1939.89  13
   0   2 -34 46579.9 2341.64  14
   0  -2  34 46253.9 2393.77  44
   0   2  34 42710.0 2226.85  47
   0   2  34 43962.5 2388.13  45
   0   2 -34 47108.5 2195.52  34
   0  -2  34 45302.8 2322.90  31
   0   2  34 42058.1 2244.58  32
   0   2 -34 43969.6 2159.56  24
   0   2  34 44908.9 2351.41  21
   0   2  34 46183.9 2368.33  23
   0  -2 -34 42352.9 2112.85  22
   0   2 -35 288.666 210.699  14
   0  -2 -35 368.977 275.788  14
   0   2 -35 337.746 209.650   8
   0   2  35 157.742 184.690  45
   0   2  35 457.261 250.953  47
   0  -2  35 572.821 298.437  44
   0   2  35 641.293 276.780  44
   0   2  35 354.024 244.003  21
   0   2 -35 394.735 196.051  34
   0   2  35 216.404 220.793  32
   0  -2  35 196.367 222.515  31
   0   2  35 212.220 232.307  23
   0   2 -35 246.510 192.394  24
   0  -2 -36 93.2062 188.787  14
   0   2 -36 42.4875 185.907  14
   0   2 -36 114.158 172.351   8
   0   2  36 203.916 190.769  47
   0   2  36 171.621 194.321  45
   0  -2  36 138.204 201.567  44
   0  -2 -36 333.207 178.515  43
   0   2  36 225.190 189.896  21
   0   2 -36 137.083 160.318  34
   0   2  36 117.482 165.126  30
   0  -2  36-44.1163 199.804  31
   0   2 -36 73.8793 167.312  24
   0   2  36 48.0536 177.707  23
   0   2 -37 2629.71 411.565  14
   0  -2 -37 2068.25 376.173  14
   0   2 -37 2396.76 366.090   8
   0   2  37 2297.54 383.435  47
   0  -2  37 2560.27 419.408  44
   0   2  37 2587.22 391.476  44
   0  -2 -37 2860.28 381.216  43
   0   2  37 2424.79 399.990  21
   0  -2  37 2146.44 365.924  21
   0  -2 -37 1925.23 304.835  34
   0  -2  37 2009.39 368.651  31
   0   2 -37 2330.04 354.289  24
   0  -2 -37 2721.99 357.653  22
   0   2  37 2042.57 392.157  23
   0   2  38 1232.48 261.543  47
   0   2  38 950.760 256.822  21
   0  -2  38 1142.08 264.043  31
   0  -2  38 1401.11 294.110  44
   0  -2 -38 884.196 270.449  14
   0   2 -38 1480.69 295.700  14
   0   2  39 14851.2 819.826  47
   0  -2 -39 12342.8 798.405  14
   0   2 -39 14778.2 831.817  14
   0  -3   0 226.690 198.790   1
   0   3   0 23.7324 107.477  46
   0  -3   0 74.7933 157.656  44
   0   3   0-53.6249 153.586  41
   0  -3   0 51.5164 180.705  40
   0  -3   0-25.9654 125.181  19
   0   3   0 25.5350 89.5788  18
   0  -3   0 49.8227 210.038  17
   0   3   0 183.910 215.033  39
   0  -3   0-27.6497 129.321  33
   0   3   0-40.2684 133.175  27
   0  -3   0 189.310 114.086  28
   0  -3   0 64.3710 65.1961  16
   0   3   0 86.4291 151.587  15
   0  -3   1 56.9959 176.330   1
   0  -3  -1 56.8598 220.506   1
   0   3  -1 23.4136 98.7361  46
   0   3   1 23.9669 101.068  46
   0   3   1-53.3947 187.305  41
   0   3  -1-53.9742 199.577  41
   0  -3   1 105.868 195.732  40
   0  -3   1 112.537 169.886  44
   0  -3  -1 111.951 185.128  44
   0  -3  -1 50.3686 144.276  40
   0  -3  -1 100.053 194.009  17
   0  -3  -1 26.4044 111.340  19
   0   3  -1 25.4935 119.256  18
   0  -3   1 99.7757 210.323  17
   0   3   1 233.325 148.518  18
   0   3  -1-61.2695 175.491  39
   0   3   1 123.255 190.656  39
   0  -3   1 216.535 108.978  28
   0  -3  -1 165.298 124.779  33
   0  -3  -1 118.410 95.9521  28
   0   3  -1 40.6395 157.613  27
   0   3   1 122.701 143.485  27
   0  -3   1 83.4784 102.915  33
   0  -3   1 111.717 76.9798  16
   0   3   1 128.905 132.943  15
   0  -3  -2 22858.2 1558.05   1
   0  -3   2 23196.8 1571.22   1
   0   3   2 24378.0 1181.29  46
   0   3  -2 26421.8 1189.66  46
   0   3  -2 23522.6 1633.15  39
   0  -3   2 23767.2 1553.34  40
   0  -3  -2 23769.6 1508.04  40
   0   3  -2 23390.2 1549.43  41
   0  -3  -2 23073.1 1340.58  44
   0   3   2 23261.9 1628.33  39
   0   3   2 21303.8 1488.50  41
   0  -3   2 22641.7 1328.61  44
   0   3   2 22832.8 1183.66  18
   0  -3  -2 22637.1 1190.26  19
   0   3  -2 23805.3 1186.49  18
   0  -3  -2 22523.9 1473.82  17
   0  -3   2 24522.1 1237.20  33
   0  -3  -2 22074.4 1187.02  33
   0   3   2 22332.8 1373.97  27
   0  -3  -2 24585.9 1168.68  28
   0  -3   2 25261.5 1189.09  28
   0   3  -2 24430.6 1401.57  27
   0  -3   2 22891.5 1026.15  16
   0   3   2 20726.5 1347.18  15
   0  -3  -3 12874.6 1125.22   1
   0  -3   3 12466.5 1110.99   1
   0   3   3 13679.7 818.315  46
   0   3  -3 14119.8 814.287  46
   0  -3   3 13968.8 976.807  44
   0  -3   3 13270.7 1122.31  40
   0   3   3 11524.4 1128.39  39
   0   3  -3 14138.5 1139.18  41
   0   3  -3 13282.9 1183.88  39
   0   3   3 13159.9 1099.61  41
   0  -3  -3 12859.3 943.140  44
   0  -3  -3 12488.7 1034.62  40
   0  -3  -3 12953.7 1070.06  17
   0   3  -3 13830.0 825.821  18
   0  -3  -3 13194.0 831.166  19
   0   3   3 12996.1 824.159  18
   0  -3  -3 11834.6 802.344  33
   0  -3   3 13396.1 855.895  33
   0  -3   3 12909.9 805.627  28
   0   3   3 13838.9 1013.07  27
   0   3  -3 13727.4 1000.81  27
   0  -3  -3 12340.0 781.079  28
   0  -3   3 13198.7 692.838  16
   0   3   3 13966.0 1025.80  15
   0  -3   4 96520.4 4245.76   1
   0  -3  -4 106427. 4338.08   1
   0   3   4 103714. 3686.75  46
   0   3  -4 107156. 3662.80  46
   0   3   4 101297. 4388.04  39
   0  -3  -4 102203. 4107.45  40
   0  -3   4 100543. 4236.40  40
   0  -3  -4 101546. 3920.31  44
   0   3  -4 103389. 4371.22  39
   0  -3   4 95027.4 3881.85  44
   0   3   4 97594.6 4173.34  41
   0   3  -4 100987. 4248.35  41
   0  -3  -4 98512.9 4132.79  17
   0  -3  -4 99534.3 3699.32  19
   0   3   4 103722. 3738.26  18
   0  -3   4 100617. 3726.90  33
   0  -3  -4 97459.3 3685.63  33
   0   3  -4 104852. 4005.17  27
   0  -3  -4 98107.2 3653.07  28
   0   3   4 99340.5 4010.99  27
   0  -3   4 95012.8 3476.19  16
   0   3   4 101703. 4011.84  15
   0  -3   5 230254. 8304.88   1
   0   3  -5 248360. 7607.62  46
   0  -3   5 212707. 7835.57  44
   0   3  -5 225863. 8242.35  41
   0   3  -5 216421. 8326.76  39
   0  -3  -5 226554. 7870.05  44
   0   3   5 219412. 8176.02  41
   0  -3   5 224875. 8285.92  40
   0  -3  -5 227092. 7652.01  19
   0   3   5 237561. 7673.79  18
   0  -3  -5 231955. 8171.62  17
   0   3   5 230689. 8444.06  39
   0  -3   5 229296. 7668.30  33
   0   3  -5 222303. 7590.50  35
   0   3   5 215008. 7535.66  32
   0   3   5 246517. 8064.54  27
   0  -3  -5 229596. 7627.91  28
   0   3  -5 222824. 7900.05  27
   0   3   5 225244. 7970.90  15
   0  -3   5 209271. 7399.71  16
   0   3  -6 5915.77 676.260  15
   0  -3   6 4958.75 416.699  16
   0   3   6 5069.90 608.307  15
   0  -3  -6 5359.68 550.002   6
   0  -3   6 3094.77 595.605   1
   0  -3   6 4762.27 683.943   3
   0   3  -6 5615.75 489.530  46
   0   3   6 4583.04 475.650  46
   0   3   6 5728.05 465.125  45
   0   3   6 4780.65 648.548  41
   0   3  -6 4759.52 680.018  41
   0   3  -6 4545.66 710.423  39
   0  -3  -6 4088.33 539.347  44
   0  -3   6 4445.33 675.405  40
   0  -3  -6 4558.13 535.612  43
   0  -3   6 4091.54 536.259  44
   0   3   6 5501.33 518.836  18
   0   3  -6 4159.88 439.534  18
   0  -3  -6 4574.20 643.009  17
   0  -3   6 4103.61 480.121  20
   0  -3  -6 4629.89 478.766  19
   0   3   6 5405.31 764.053  39
   0   3  -6 5223.10 495.785  35
   0  -3   6 5585.87 529.234  33
   0  -3  -6 5671.67 521.547  28
   0   3   6 4338.46 452.150  32
   0   3  -6 3884.87 541.288  27
   0   3   6 4806.08 595.751  27
   0  -3  -6 4663.11 475.094  22
   0   3  -7 461101. 15401.1  15
   0  -3   7 440117. 14762.4  16
   0   3   7 455473. 15298.3  15
   0  -3   7 447130. 15606.5   3
   0  -3  -7 467667. 15046.7   6
   0  -3   7 449968. 15702.4   1
   0   3   7 477977. 14862.9  45
   0   3   7 454955. 14940.9  46
   0   3  -7 493613. 14920.6  46
   0  -3  -7 442004. 15171.0  44
   0   3   7 463615. 15551.7  41
   0  -3   7 468452. 15732.1  40
   0   3  -7 484363. 15832.1  39
   0  -3   7 444858. 15177.7  44
   0  -3  -7 449740. 15091.6  43
   0   3  -7 428834. 14843.7  18
   0  -3  -7 476453. 15607.7  17
   0  -3   7 473789. 15025.0  20
   0  -3  -7 478696. 14981.4  19
   0   3   7 498251. 15027.3  18
   0  -3   7 466994. 14977.9  33
   0  -3  -7 432249. 14869.5  33
   0   3   7 482042. 15896.9  39
   0   3  -7 458602. 14914.1  35
   0   3   7 460799. 14892.2  32
   0   3   7 508741. 15459.2  27
   0  -3  -7 446730. 14978.1  28
   0   3   7 438379. 14714.4  29
   0  -3  -7 446114. 14889.8  22
   0   3   8 7361.17 769.915  15
   0  -3   8 6340.12 534.770  16
   0   3  -8 7914.90 826.343  15
   0  -3   8 6681.04 854.431   1
   0  -3   8 7535.42 877.139   3
   0  -3  -8 6419.28 636.322   6
   0   3   8 7589.66 637.100  46
   0   3  -8 7758.00 618.295  46
   0  -3   8 7015.01 906.532  40
   0  -3   8 6644.83 699.377  44
   0  -3  -8 7266.40 692.833  43
   0  -3  -8 7426.74 739.277  44
   0   3  -8 7527.65 910.644  39
   0   3   8 8967.78 920.591  41
   0   3  -8 6083.77 552.942  18
   0   3   8 9155.87 700.851  18
   0  -3  -8 7453.82 635.558  19
   0  -3   8 7437.81 703.113  21
   0  -3  -8 7037.90 844.440  17
   0  -3   8 7257.66 653.507  20
   0  -3   8 6387.60 600.985  33
   0   3  -8 7633.17 628.608  35
   0  -3  -8 7399.23 611.462  33
   0   3   8 6694.94 888.050  39
   0  -3  -8 6780.33 639.638  28
   0   3   8 7779.15 623.757  32
   0   3   8 8970.35 851.438  27
   0  -3  -8 6580.27 605.467  22
   0   3  -8 7302.36 612.123  24
   0  -3   9 101983. 3811.30  16
   0   3   9 100022. 4191.80  15
   0   3  -9 103307. 4314.96  15
   0  -3  -9 103904. 3991.93   6
   0  -3   9 103092. 4563.18   1
   0  -3   9 106717. 4538.80   3
   0   3   9 102820. 3912.78  46
   0   3  -9 109437. 3890.90  46
   0   3  -9 104141. 4648.73  39
   0  -3   9 96699.1 4101.07  44
   0   3   9 102416. 4409.60  41
   0  -3  -9 107369. 4325.34  40
   0  -3   9 105960. 4648.73  40
   0  -3  -9 104004. 4136.70  44
   0  -3  -9 102280. 4046.88  43
   0  -3   9 104399. 3986.54  20
   0  -3   9 97556.4 4035.53  21
   0  -3  -9 108034. 3938.72  19
   0  -3  -9 105780. 4532.38  17
   0   3  -9 98113.5 3797.93  18
   0   3   9 109460. 3998.15  18
   0   3  -9 111905. 3935.21  35
   0  -3  -9 100689. 3828.54  33
   0  -3   9 110592. 3959.47  33
   0   3   9 109558. 4343.80  27
   0  -3  -9 101578. 4009.03  28
   0   3  -9 99018.4 4148.68  27
   0  -3   9 101456. 3921.63  31
   0   3   9 107306. 3900.00  32
   0   3  -9 99243.2 3850.28  24
   0   3  10 13560.8 1107.57  15
   0  -3  10 12026.3 849.223  16
   0   3 -10 11845.1 1082.50  15
   0  -3  10 13450.5 1285.54   1
   0  -3  10 12865.4 1213.31   3
   0  -3 -10 14088.1 970.065   6
   0   3  10 12075.4 892.289  46
   0   3  10 12902.2 866.775  45
   0  -3  10 12051.7 1011.77  44
   0  -3 -10 12806.2 1013.51  44
   0  -3 -10 12287.1 976.352  43
   0  -3  10 13483.8 1303.25  40
   0  -3 -10 12937.6 1090.46  40
   0   3 -10 14037.9 1300.52  39
   0   3  10 11872.2 1130.33  41
   0   3 -10 12511.1 838.061  18
   0  -3  10 11656.5 945.434  21
   0  -3  10 12532.7 933.489  20
   0  -3 -10 14199.6 1287.90  17
   0  -3 -10 12586.6 894.703  19
   0   3  10 12906.5 946.139  18
   0  -3  10 12122.9 879.607  33
   0   3 -10 13952.3 922.621  35
   0  -3 -10 12443.4 843.035  33
   0   3 -10 13067.8 1057.78  27
   0  -3  10 12592.0 917.352  31
   0   3  10 15315.8 1195.60  27
   0  -3 -10 11326.9 935.500  28
   0   3  10 13595.7 916.091  32
   0   3 -10 12617.6 872.176  24
   0  -3  11 150993. 5776.42  16
   0   3  11 168410. 6248.24  15
   0   3 -11 160823. 6321.18  15
   0  -3  11 169695. 6575.32   3
   0  -3 -11 159491. 5895.81   6
   0  -3  11 163445. 6640.56   1
   0   3  11 154792. 5758.87  45
   0   3  11 157670. 5869.29  46
   0   3 -11 160570. 6643.08  39
   0  -3  11 165611. 6119.38  44
   0   3  11 165367. 6457.36  41
   0  -3 -11 176074. 6326.05  40
   0  -3  11 173294. 6782.02  40
   0  -3 -11 162809. 6098.03  44
   0  -3 -11 159716. 6000.23  43
   0  -3  11 157042. 6010.15  21
   0   3  11 173924. 5984.70  18
   0  -3  11 172955. 5969.39  20
   0   3 -11 155284. 5707.95  18
   0  -3 -11 174968. 5889.70  19
   0  -3 -11 158137. 6505.82  17
   0  -3 -11 161773. 5734.61  33
   0  -3  11 169696. 5877.33  33
   0   3 -11 180245. 5923.25  35
   0   3  11 173324. 5908.98  32
   0  -3  11 166017. 5913.18  31
   0   3  11 175217. 6396.34  27
   0  -3 -11 151780. 5970.31  28
   0   3 -11 159096. 6129.62  27
   0   3  11 152492. 5530.77  23
   0   3 -11 165378. 5832.49  24
   0  -3  12 2700.43 396.676  16
   0   3 -12 2350.53 500.595  15
   0   3  12 3041.88 521.986  15
   0  -3 -12 2261.84 403.782   6
   0  -3  12 3399.44 668.970   1
   0  -3  12 2834.83 605.753   3
   0   3 -12 2742.34 362.609  46
   0   3  12 2564.91 423.032  46
   0   3  12 2741.15 405.622  45
   0  -3  12 2330.20 575.894  40
   0  -3  12 1806.00 407.404  44
   0  -3 -12 3011.38 541.694  40
   0   3  12 2404.89 535.012  41
   0  -3 -12 3129.48 498.632  43
   0  -3  12 1931.71 391.000  20
   0  -3 -12 2286.21 550.665  17
   0  -3  12 1867.36 403.150  21
   0   3 -12 2080.81 341.322  18
   0  -3 -12 2535.60 395.708  19
   0   3  12 3477.81 510.061  18
   0   3 -12 2048.72 530.320  39
   0   3 -12 3013.61 449.140  35
   0  -3 -12 2652.78 356.991  34
   0  -3  12 1708.49 356.214  31
   0  -3 -12 2144.91 347.436  33
   0   3  12 3231.47 455.535  32
   0   3 -12 2625.57 483.192  27
   0   3  12 2624.11 536.867  27
   0  -3 -12 2390.41 413.524  28
   0  -3 -12 2120.75 388.989  22
   0   3 -12 2084.23 361.672  24
   0   3  12 2799.44 331.638  23
   0  -3  13 1394.17 306.492  16
   0   3 -13 1795.78 451.486  15
   0  -3  13 1223.95 435.599   1
   0  -3  13 644.951 355.056   3
   0  -3 -13 1415.33 342.560   6
   0   3 -13 1596.57 279.906  46
   0   3  13 1628.13 339.849  46
   0   3  13 1411.89 330.525  45
   0  -3 -13 1581.09 400.303  40
   0  -3  13 460.364 359.381  40
   0  -3 -13 1808.54 409.000  43
   0  -3  13 1302.47 388.130  44
   0   3  13 1844.71 482.092  41
   0   3  13 1198.74 352.499  18
   0  -3 -13 1469.01 314.081  19
   0  -3 -13 1181.07 424.794  17
   0   3 -13 895.379 233.013  18
   0  -3  13 1245.49 327.361  20
   0  -3  13 955.824 302.699  21
   0   3 -13 1199.83 438.690  39
   0  -3 -13 1496.16 273.167  34
   0   3 -13 1074.06 300.543  35
   0  -3 -13 1743.76 303.224  33
   0   3  13 1630.70 350.019  32
   0   3  13 1904.96 461.117  27
   0   3 -13 1333.20 358.090  27
   0  -3 -13 1101.57 299.131  28
   0  -3  13 1292.02 331.986  31
   0   3 -13 872.689 277.424  24
   0   3  13 1838.95 274.087  23
   0  -3 -13 1260.86 313.474  22
   0   3 -14 14199.7 1319.30  15
   0  -3  14 14322.7 1018.49  16
   0   3  14 14538.6 1469.37   2
   0  -3 -14 15203.8 1097.51   6
   0  -3  14 13693.1 1382.35   3
   0  -3  14 14020.4 1434.60   1
   0   3  14 15370.6 1109.81  46
   0   3  14 14964.9 1052.76  45
   0   3 -14 16209.8 936.188  46
   0  -3 -14 14262.9 1157.00  43
   0   3  14 14267.9 1370.18  41
   0  -3 -14 15943.8 1308.05  40
   0  -3  14 14138.5 1496.07  40
   0  -3  14 13834.4 1178.22  44
   0   3 -14 15205.1 1482.94  39
   0   3 -14 14673.7 962.913  18
   0  -3  14 14678.0 1115.38  20
   0  -3 -14 11879.1 1268.99  17
   0  -3 -14 15787.0 1082.48  19
   0  -3  14 14348.0 1148.93  21
   0  -3 -14 13655.3 908.490  34
   0   3 -14 15200.4 1080.87  35
   0  -3 -14 14720.3 966.911  33
   0   3 -14 13281.5 1139.27  27
   0  -3  14 16105.0 1154.24  31
   0   3  14 11976.8 1239.46  27
   0   3  14 15337.5 1136.89  32
   0  -3 -14 13143.9 1067.86  28
   0  -3 -14 16487.8 1134.24  22
   0   3  14 16424.1 926.771  23
   0   3 -15 14564.9 1360.96  15
   0  -3  15 15885.8 1555.61   1
   0   3  15 13141.6 1449.40   2
   0  -3  15 15082.2 1460.32   3
   0   3  15 11817.4 959.064  45
   0   3 -15 13950.8 856.644  46
   0  -3 -15 12966.2 1214.22  40
   0   3 -15 12477.0 1384.01  39
   0  -3 -15 11552.3 1069.34  43
   0  -3  15 11954.6 1421.38  40
   0  -3  15 14282.4 1210.23  44
   0   3  15 12703.1 1300.34  41
   0   3 -15 13179.7 882.561  18
   0  -3 -15 12904.7 997.817  19
   0  -3  15 12693.0 974.108  16
   0  -3  15 14068.2 1103.52  20
   0  -3  15 12276.7 1082.65  21
   0  -3 -15 12068.9 1222.95  17
   0  -3 -15 12371.4 847.947  34
   0   3 -15 14618.9 1045.98  35
   0  -3  15 13096.8 1003.20  33
   0  -3 -15 12023.5 877.233  33
   0   3 -15 12979.3 943.277  34
   0  -3  15 12750.6 1050.91  31
   0  -3 -15 12830.6 1061.61  28
   0   3  15 12490.8 1048.81  32
   0   3 -15 12552.4 1074.63  27
   0   3  15 11656.6 1049.83  21
   0  -3 -15 12202.5 989.643  22
   0   3  15 12106.3 818.387  23
   0   3 -16 3823.93 715.895  15
   0  -3  16 3317.33 745.251   1
   0  -3  16 2575.19 659.274   3
   0   3  16 3855.21 799.323   2
   0   3 -16 3621.34 408.295  46
   0   3  16 3108.44 498.923  45
   0  -3  16 4929.97 701.714  44
   0  -3 -16 3423.58 566.944  43
   0  -3  16 3217.77 807.080  40
   0  -3 -16 3431.94 630.983  40
   0  -3  16 3708.24 590.001  21
   0   3 -16 3083.35 401.607  18
   0  -3 -16 2598.03 575.419  17
   0  -3  16 3741.68 517.685  16
   0  -3 -16 4205.19 565.940  19
   0   3  16 3817.37 598.454  18
   0  -3  16 3554.97 585.496  20
   0   3 -16 2464.28 630.095  39
   0  -3 -16 3399.46 443.802  33
   0  -3  16 3386.34 504.015  33
   0   3 -16 3512.46 505.998  35
   0   3 -16 3304.70 485.561  34
   0  -3 -16 3435.35 439.029  34
   0  -3 -16 4116.86 586.506  28
   0   3  16 3838.90 599.600  32
   0   3 -16 3014.02 505.445  27
   0  -3  16 4507.29 628.338  31
   0   3  16 4033.09 613.532  21
   0   3  16 3707.10 439.513  23
   0  -3 -16 3441.16 509.237  22
   0   3 -17 71131.1 3787.75  15
   0  -3 -17 70340.7 3570.81  14
   0   3 -17 70994.2 3467.88  14
   0   3  17 66347.7 3960.98   2
   0  -3  17 70571.1 4007.51   1
   0  -3  17 73133.1 3469.23  48
   0  -3  17 68487.6 3410.61  44
   0   3  17 72929.1 3173.14  45
   0   3 -17 76934.2 2848.30  46
   0   3 -17 74225.3 3982.82  39
   0  -3 -17 73147.9 3572.51  40
   0  -3 -17 74192.8 3393.74  43
   0  -3  17 71148.3 4126.87  40
   0  -3 -17 74781.8 3197.16  19
   0   3  17 74082.9 3465.27  18
   0  -3  17 67008.6 3095.07  16
   0  -3 -17 67726.1 3567.63  17
   0  -3  17 69645.6 3254.43  20
   0  -3  17 66054.1 3297.65  21
   0  -3 -17 71143.0 2898.83  34
   0  -3  17 74948.2 3091.76  33
   0   3 -17 76395.7 3126.68  35
   0   3 -17 73334.8 3082.57  34
   0  -3 -17 67598.4 2909.15  33
   0  -3 -17 71601.0 3268.89  28
   0   3 -17 66555.5 3097.96  27
   0   3  17 77607.9 3378.54  32
   0  -3  17 69961.0 3290.53  31
   0  -3 -17 73483.2 3160.21  22
   0   3  17 72629.6 2922.00  23
   0   3 -17 70054.9 3190.79  24
   0   3  17 71852.2 3333.93  21
   0   3 -18 2069.86 576.380  15
   0   3 -18 2964.31 602.318  14
   0  -3 -18 2316.69 587.987  14
   0  -3  18 2011.12 411.187  16
   0   3  18 2750.49 730.299   2
   0  -3  18 2195.90 652.278   1
   0   3  18 1986.79 429.957  45
   0   3  18 2946.41 553.485  47
   0   3 -18 2919.95 365.688  46
   0   3  18 2508.80 615.331  41
   0  -3  18 1744.41 622.508  40
   0  -3 -18 2756.92 545.619  43
   0  -3  18 2105.39 497.869  44
   0  -3 -18 2590.83 570.688  40
   0  -3  18 2716.19 511.046  20
   0  -3 -18 2295.69 446.725  19
   0   3  18 2914.24 589.688  18
   0   3  18 2897.75 556.129  21
   0  -3  18 2481.59 523.138  21
   0  -3  18 2443.13 415.760  33
   0  -3 -18 2387.20 374.530  34
   0   3 -18 1998.26 391.281  34
   0   3 -18 2252.03 403.434  35
   0   3 -18 2377.13 660.617  39
   0  -3 -18 2631.06 398.536  33
   0  -3 -18 2330.03 482.473  28
   0   3  18 2991.51 548.649  32
   0   3 -18 1761.68 359.015  27
   0  -3  18 2278.28 499.096  31
   0   3 -18 2361.37 468.899  24
   0   3  18 1972.31 353.597  23
   0  -3 -18 3082.90 499.737  22
   0  -3 -19 49986.7 2925.65  14
   0   3 -19 53417.5 2855.48  14
   0   3 -19 52849.1 3180.38  15
   0   3 -19 46457.2 2259.58   8
   0   3  19 46818.6 3288.19   2
   0  -3  19 48155.3 3298.38   1
   0   3  19 50252.7 2527.66  45
   0  -3  19 50024.1 2767.15  44
   0   3 -19 51510.8 2114.14  46
   0   3  19 48735.1 2628.27  47
   0  -3  19 45948.6 3329.82  40
   0  -3 -19 52116.3 2862.27  40
   0   3 -19 52843.0 3326.23  39
   0  -3 -19 51652.9 2698.63  43
   0   3  19 49013.5 2950.13  41
   0  -3  19 46319.2 2454.58  16
   0  -3  19 48519.1 2684.03  21
   0  -3  19 53999.0 2638.58  20
   0   3  19 50460.4 2780.16  18
   0   3 -19 51650.1 2397.58  35
   0  -3 -19 50262.3 2247.61  34
   0   3 -19 52219.1 2458.98  34
   0  -3  19 46438.9 2272.85  33
   0  -3  19 45218.5 2605.60  31
   0   3  19 48337.9 2626.75  32
   0  -3 -19 49214.8 2587.76  28
   0  -3 -19 52211.1 2475.64  22
   0   3  19 50711.2 2699.45  21
   0   3 -19 48416.1 2512.67  24
   0   3  19 50098.1 2278.80  23
   0   3 -20 69845.2 3489.18  14
   0   3 -20 65710.4 3754.54  15
   0  -3 -20 59483.7 3444.90  14
   0   3  20 66262.6 4059.39   2
   0   3 -20 64578.1 2862.42   8
   0  -3  20 66168.0 4041.24   1
   0   3 -20 68557.5 2652.64  46
   0  -3  20 68009.0 3364.89  48
   0   3  20 61573.0 3179.02  47
   0  -3  20 65495.7 3396.85  44
   0   3  20 61782.5 3109.87  45
   0  -3 -20 63065.9 3357.67  40
   0   3 -20 64270.4 3887.11  39
   0  -3 -20 66390.1 3229.02  43
   0  -3  20 62927.9 4118.02  40
   0   3  20 65926.2 3575.52  41
   0  -3 -20 69190.8 3552.61  17
   0   3  20 62880.0 3356.14  18
   0  -3  20 65925.1 3112.03  16
   0  -3  20 60969.1 3267.97  21
   0  -3  20 73064.7 3234.84  20
   0  -3  20 68756.4 2872.80  33
   0   3 -20 70245.1 2970.29  35
   0  -3 -20 73506.5 2867.60  34
   0   3 -20 65994.6 3010.97  34
   0  -3 -20 69228.0 3244.93  28
   0   3  20 66954.4 3305.64  32
   0   3  20 61838.8 3262.70  21
   0   3 -20 64411.6 3115.76  24
   0  -3 -20 69156.7 3040.83  22
   0   3  20 66673.1 2867.07  23
   0   3 -21 77791.9 3970.67  14
   0   3 -21 87920.8 4479.63  15
   0  -3 -21 73891.4 4023.33  14
   0  -3  21 79077.5 4675.82   1
   0  -3  21 80605.7 4551.63   3
   0   3 -21 79050.1 3428.67   8
   0   3  21 81906.4 4705.56   2
   0   3  21 84461.0 3803.00  45
   0  -3  21 81628.3 4047.76  44
   0   3  21 85676.8 3853.51  47
   0  -3  21 90366.6 4043.48  48
   0   3 -21 81629.0 4585.40  39
   0   3  21 76814.0 4081.78  41
   0  -3 -21 81513.7 3814.27  43
   0  -3  21 85997.6 4955.17  40
   0  -3 -21 87548.3 4047.52  40
   0  -3 -21 81729.1 4132.87  17
   0   3  21 76385.9 3914.79  18
   0  -3  21 75185.6 3869.06  21
   0  -3  21 93852.3 3828.42  20
   0  -3  21 88213.0 3805.95  16
   0   3 -21 86489.5 3538.35  35
   0  -3 -21 88176.3 3427.01  34
   0   3 -21 84640.6 3634.99  34
   0  -3  21 84335.8 3393.36  33
   0  -3 -21 90093.6 3905.92  28
   0   3  21 82684.3 3911.60  32
   0   3  21 83606.6 3907.93  21
   0   3  21 85267.3 3499.53  23
   0  -3 -21 90005.9 3667.22  22
   0   3 -21 84543.5 3727.45  24
   0   3 -22 248.314 306.089  14
   0  -3  22 256.888 225.341  16
   0  -3 -22 87.5873 323.892  14
   0   3 -22-105.777 214.289  15
   0   3 -22 227.831 199.426   8
   0  -3  22 505.606 391.055   3
   0  -3  22 691.576 536.389   1
   0   3  22 329.188 266.722  45
   0  -3  22 225.403 291.415  48
   0   3  22-67.2220 260.739  47
   0  -3  22-83.1615 322.536  44
   0   3  22 178.979 276.890  41
   0  -3 -22 534.816 292.519  43
   0  -3  22 441.173 454.947  40
   0  -3 -22 174.437 367.725  17
   0  -3  22 308.986 312.920  21
   0  -3 -22 316.130 238.659  19
   0  -3  22 116.749 236.501  20
   0   3  22 237.775 278.068  18
   0   3  22 71.1294 249.562  21
   0  -3 -22 525.918 216.836  34
   0   3 -22 278.744 180.247  35
   0   3 -22 246.237 287.960  39
   0   3 -22 167.213 195.592  34
   0   3  22 518.865 335.704  32
   0  -3  22 267.956 184.628  33
   0  -3 -22 136.347 210.969  28
   0   3  22 233.729 181.365  23
   0  -3 -22 156.877 183.514  22
   0   3 -22 118.124 195.405  24
   0   3 -23 129652. 5650.62  14
   0   3 -23 131605. 6098.71  15
   0  -3 -23 122588. 5639.26  14
   0   3 -23 118979. 4936.71   8
   0  -3  23 128798. 6312.18   3
   0  -3  23 125110. 6456.23   1
   0   3  23 135781. 5439.35  47
   0   3  23 124147. 5373.04  45
   0  -3  23 129195. 5527.46  48
   0  -3  23 137891. 5737.08  44
   0   3 -23 134491. 6340.11  39
   0  -3  23 120593. 6497.65  40
   0  -3 -23 131029. 5416.45  43
   0   3  23 134671. 5796.95  41
   0  -3  23 131113. 5367.19  16
   0  -3  23 134653. 5254.01  20
   0   3  23 122494. 5487.61  18
   0  -3  23 127809. 5528.14  21
   0  -3 -23 126369. 5685.71  17
   0  -3 -23 132485. 5138.60  19
   0   3 -23 128830. 5019.13  35
   0   3 -23 131814. 5175.14  34
   0  -3  23 133707. 4840.47  33
   0  -3 -23 133652. 4929.33  34
   0   3  23 131533. 5565.04  32
   0  -3 -23 139533. 5489.73  28
   0   3  23 134067. 5532.44  21
   0   3  23 133052. 5088.97  23
   0  -3 -23 131317. 5159.42  22
   0   3 -23 127054. 5235.32  24
   0   3 -24 15795.5 1473.52  14
   0  -3 -24 13998.7 1434.23  14
   0  -3  24 15506.1 1771.42   3
   0  -3 -24 16153.8 1866.19   4
   0   3 -24 15153.1 1129.42   8
   0  -3  24 15924.1 1864.37   1
   0  -3  24 15946.0 1401.36  48
   0   3  24 15075.6 1329.55  47
   0   3  24 16089.7 1403.34  45
   0  -3  24 17094.1 1529.56  44
   0   3 -24 16422.6 1783.75  39
   0  -3 -24 16571.5 1372.67  43
   0  -3  24 16945.5 2006.00  40
   0   3  24 16610.0 1522.17  41
   0   3  24 15602.7 1411.28  18
   0  -3  24 14462.6 1222.97  20
   0  -3  24 16189.4 1365.78  16
   0  -3 -24 15577.9 1207.44  19
   0  -3 -24 14683.2 1474.32  17
   0  -3  24 15591.8 1416.91  21
   0   3 -24 16910.8 1264.22  34
   0  -3 -24 17515.8 1148.33  34
   0  -3  24 15032.5 1008.13  33
   0   3  24 16854.0 1502.66  32
   0  -3 -24 17013.2 1412.11  28
   0   3  24 15999.5 1209.99  23
   0  -3 -24 18048.5 1295.74  22
   0   3 -24 17477.7 1340.17  24
   0   3  24 16638.2 1412.07  21
   0  -3 -25 26824.0 2062.89  14
   0   3 -25 29604.8 2077.61  14
   0   3 -25 29803.0 1697.35   8
   0   3  25 29850.0 1945.32  47
   0  -3  25 32175.1 2206.15  44
   0  -3  25 29488.3 1981.40  48
   0   3  25 27585.7 1960.86  45
   0  -3 -25 26422.0 1831.96  43
   0  -3  25 25936.3 1942.07  21
   0   3  25 29254.5 1986.22  18
   0  -3  25 31365.1 1853.93  20
   0  -3 -25 29516.8 1743.70  19
   0  -3 -25 30198.1 1623.78  34
   0   3 -25 29983.9 1782.29  34
   0  -3  25 29271.2 1491.44  33
   0  -3  25 27368.9 1940.68  31
   0   3  25 29430.3 2068.59  32
   0   3 -25 30616.0 1851.26  24
   0   3  25 29925.1 1774.23  23
   0  -3 -25 29812.4 1773.17  22
   0   3  25 26963.6 1950.93  21
   0  -3 -26 502.045 366.121  14
   0   3 -26 156.366 303.259  14
   0   3  26 318.098 279.029   5
   0   3 -26 144.161 177.811   8
   0   3  26 76.2743 252.337  45
   0  -3  26 213.394 288.185  48
   0   3  26 134.301 272.066  47
   0  -3  26 402.495 326.115  44
   0  -3 -26 390.681 304.604  43
   0   3  26 570.718 353.950  21
   0   3  26 203.735 251.191  18
   0  -3 -26 101.783 206.243  19
   0  -3  26 276.938 224.443  20
   0   3 -26 376.921 235.667  34
   0  -3 -26 126.818 148.443  34
   0   3 -26 275.276 207.875  35
   0  -3  26 140.026 231.640  31
   0   3  26 322.746 283.103  32
   0   3 -26 178.062 230.271  24
   0   3  26 491.092 285.401  23
   0  -3 -26 212.918 206.534  22
   0  -3 -27 26240.5 1993.32  14
   0   3 -27 27751.5 1950.18  14
   0   3 -27 29043.3 1656.23   8
   0   3  27 27052.0 1920.07   5
   0   3  27 26693.8 1836.66  47
   0  -3  27 29168.6 2039.44  44
   0   3  27 28914.2 2009.20  45
   0  -3  27 25143.5 1812.38  48
   0  -3 -27 26359.4 1809.41  43
   0  -3 -27 29981.5 1703.70  19
   0  -3  27 29709.2 1768.53  20
   0   3 -27 28650.7 1618.41  35
   0   3 -27 29976.6 1732.28  34
   0  -3 -27 27245.5 1549.40  34
   0  -3  27 29195.3 1921.41  31
   0   3  27 24569.3 1937.21  32
   0  -3 -27 29435.4 1723.48  22
   0   3  27 31834.6 2022.42  21
   0   3 -27 29874.3 1817.86  24
   0   3 -28 574.098 356.061  14
   0  -3 -28 77.6074 256.765  14
   0   3  28 271.830 251.382   5
   0   3 -28 232.927 180.816   8
   0  -3  28 504.263 312.771  48
   0   3  28 640.763 290.260  47
   0   3  28 383.965 297.889  45
   0  -3 -28 245.139 277.624  43
   0  -3  28 375.459 316.653  44
   0   3  28 338.515 285.515  21
   0  -3  28 309.500 233.714  20
   0  -3 -28 941.622 306.589  19
   0  -3 -28 40.8372 126.566  34
   0   3 -28 215.756 201.960  35
   0   3 -28 98.5347 191.207  34
   0  -3  28 594.665 318.619  31
   0   3 -28 342.518 275.308  24
   0  -3 -28 307.745 240.003  22
   0  -3 -29 4506.47 737.921  14
   0   3 -29 4314.15 570.919   8
   0   3  29 4254.15 648.953   5
   0   3  29 4561.32 696.078  47
   0   3  29 4660.58 755.454  45
   0  -3  29 4538.27 661.293  48
   0  -3 -29 4606.47 660.252  43
   0  -3  29 4764.29 762.996  44
   0  -3 -29 5169.05 595.037  19
   0  -3  29 4667.45 618.018  20
   0   3 -29 4913.64 609.169  34
   0  -3 -29 4929.66 558.052  34
   0   3 -29 4726.62 563.790  35
   0  -3  29 5239.60 753.022  31
   0   3 -29 5298.11 677.830  24
   0  -3 -29 4762.77 623.719  22
   0   3  29 6364.21 799.463  21
   0   3 -30 4962.97 713.968  14
   0  -3 -30 4492.11 721.383  14
   0   3  30 4682.29 640.406   5
   0   3 -30 5796.70 627.872   8
   0   3  30 4639.47 673.222  47
   0  -3  30 4368.14 601.586  48
   0   3  30 4374.48 729.960  45
   0  -3 -30 4827.12 669.218  43
   0  -3  30 5391.20 774.271  44
   0  -3 -30 4987.44 548.636  19
   0   3 -30 5418.71 575.103  35
   0   3 -30 4191.74 541.484  34
   0  -3  30 5901.70 753.847  31
   0   3  30 5844.89 753.342  21
   0  -3 -30 5864.86 661.080  22
   0   3 -30 5066.49 659.851  24
   0   3 -31 4977.71 704.756  14
   0  -3 -31 3826.50 652.144  14
   0   3 -31 4706.68 548.487   8
   0  -3  31 4792.63 581.698  48
   0   3  31 5842.12 726.235  47
   0   3  31 4928.05 760.382  45
   0  -3 -31 5741.63 693.709  43
   0  -3  31 5821.48 785.774  44
   0   3 -31 4990.86 556.257  34
   0  -3  31 6409.91 768.000  31
   0   3  31 5486.59 762.820  32
   0   3  31 5065.85 684.783  21
   0   3 -31 4934.80 625.942  24
   0  -3 -31 4954.75 604.520  22
   0   3 -32 2670.55 492.242  14
   0  -3 -32 2499.07 514.519  14
   0   3  32 3527.31 562.992  47
   0   3  32 2889.83 605.776  45
   0  -3  32 2596.93 541.956  44
   0  -3 -32 2530.11 458.505  43
   0   3 -32 2321.75 383.970   8
   0  -3  32 1784.48 425.229  21
   0   3  32 2858.53 508.902  21
   0  -3  32 2488.15 407.928  20
   0  -3  32 2151.26 481.771  31
   0   3  32 2239.73 511.492  32
   0  -3 -32 2739.76 438.469  22
   0   3 -32 2837.38 480.563  24
   0  -3 -33 12644.1 1088.45  14
   0   3 -33 13669.7 1085.81  14
   0  -3  33 14541.5 1156.92  44
   0  -3 -33 15937.8 1093.54  43
   0   3  33 15958.9 1138.01  47
   0  -3  33 15121.9 981.157  20
   0  -3  33 13870.2 1048.41  21
   0   3  33 15952.7 1213.02  32
   0  -3  33 13751.0 1066.75  31
   0   3 -33 15150.0 1078.43  24
   0  -3 -33 15164.9 1024.07  22
   0   3  33 16692.1 1182.23  21
   0   3 -34 8192.59 764.516  14
   0   3 -34 7583.39 645.982  13
   0  -3 -34 8778.21 741.753  43
   0  -3  34 8662.45 821.760  44
   0   3  34 8388.61 855.529  45
   0   3  34 8616.06 780.414  47
   0  -3 -34 8282.18 687.371  50
   0  -3  34 7933.84 716.347  21
   0   3  34 8996.70 813.789  32
   0  -3  34 7765.69 754.853  31
   0   3  34 7456.72 748.730  21
   0  -3 -34 9237.38 735.471  22
   0   3  34 8036.95 741.416  23
   0   3 -34 8970.06 762.436  24
   0   3 -35 136982. 4772.91  14
   0   3 -35 120053. 4455.08  13
   0   3  35 135711. 4798.76  47
   0  -3  35 131265. 4761.45  31
   0   3  35 134661. 4806.86  21
   0  -3 -35 131333. 4633.25  22
   0   3 -35 133725. 4743.80  24
   0  -3  35 132830. 4834.06  44
   0  -3 -35 135973. 4696.47  43
   0   3  36 2103.08 332.709  47
   0   3 -36 1983.70 317.218  14
   0   3  37 55136.7 2222.92  47
   0   3 -37 57282.1 2193.28  14
   0   3  38 8240.94 516.685  47
   0  -4   0 244105. 9177.73   1
   0   4   0 235716. 8283.35  46
   0  -4   0 226436. 8512.38  44
   0   4   0 236666. 9331.39  39
   0   4   0 243926. 9148.86  41
   0  -4   0 241708. 8405.56  43
   0  -4   0 237928. 8259.87  19
   0   4   0 254871. 8315.78  18
   0  -4   0 222079. 8167.03  20
   0   4   0 234622. 8260.35  35
   0  -4   0 249210. 8361.93  33
   0   4   0 227027. 8053.91  32
   0   4   0 260487. 8819.70  27
   0  -4   0 235095. 8283.14  10
   0   4   0 232865. 8638.64  15
   0  -4  -1 20709.9 1298.76  10
   0   4  -1 20478.3 1505.02  15
   0  -4   1 21351.1 1323.33  10
   0   4   1 21947.0 1530.42  15
   0  -4  -1 20092.6 1701.95   1
   0  -4   1 22559.7 1777.86   1
   0   4  -1 22956.4 1347.90  46
   0   4   1 20881.2 1305.05  46
   0   4   1 19937.1 1157.08  45
   0   4  -1 20618.0 1737.43  41
   0  -4  -1 20653.9 1353.37  43
   0   4  -1 20912.0 1820.96  39
   0   4   1 21556.2 1826.03  39
   0  -4   1 20087.3 1683.33  40
   0  -4   1 20889.6 1460.33  44
   0   4   1 21235.8 1769.14  41
   0  -4  -1 20771.8 1446.51  44
   0   4   1 24125.9 1362.21  18
   0  -4  -1 22694.8 1341.04  19
   0  -4  -1 18523.6 1199.86  20
   0  -4   1 21537.6 1292.20  20
   0   4  -1 21158.8 1295.57  18
   0   4  -1 21515.9 1309.68  35
   0  -4  -1 21468.6 1341.59  33
   0  -4   1 20865.8 1334.49  33
   0   4   1 20173.9 1282.36  35
   0   4  -1 20387.0 1157.68  32
   0   4  -1 23635.5 1587.93  27
   0   4   1 21596.5 1555.72  27
   0   4   1 20480.4 1181.89  32
   0  -4  -1 20345.4 1156.18  22
   0  -4   2 23451.7 1405.23  10
   0  -4  -2 22181.5 1362.39  10
   0   4  -2 23315.4 1619.18  15
   0   4   2 24127.3 1606.39  15
   0  -4   2 24056.5 1871.10   1
   0  -4  -2 23792.2 1852.04   1
   0   4  -2 25575.3 1435.47  46
   0   4   2 23662.8 1273.09  45
   0   4   2 22741.0 1386.57  46
   0   4   2 21999.7 1804.75  41
   0   4  -2 25602.9 1992.92  39
   0  -4  -2 22714.8 1440.36  43
   0  -4   2 22162.2 1523.78  44
   0  -4   2 24529.0 1860.75  40
   0   4   2 22378.2 1885.10  39
   0  -4  -2 21346.1 1497.16  44
   0   4  -2 21783.9 1794.82  41
   0  -4   2 22384.3 1352.02  20
   0  -4  -2 23914.8 1399.24  19
   0  -4  -2 22162.1 1294.85  20
   0   4   2 22984.6 1380.48  18
   0   4  -2 24974.6 1386.56  18
   0   4   2 20736.4 1318.90  35
   0  -4  -2 21183.4 1356.83  33
   0  -4   2 22174.0 1399.12  33
   0   4  -2 23784.6 1392.20  35
   0   4   2 23102.7 1630.30  27
   0   4  -2 21663.8 1205.20  32
   0   4  -2 24688.3 1644.85  27
   0   4   2 20798.9 1242.89  32
   0  -4  -2 24199.5 1279.92  22
   0   4   3 2479.50 494.030  15
   0   4  -3 1858.67 447.911  15
   0  -4   3 2289.91 410.419  10
   0  -4   3 1724.18 508.011   1
   0   4  -3 2102.66 387.911  46
   0   4   3 2923.73 455.116  46
   0   4   3 2225.97 354.496  45
   0   4  -3 1922.09 354.242  42
   0  -4   3 1705.63 502.634  40
   0  -4  -3 1710.36 485.211  40
   0   4   3 2219.75 576.974  41
   0   4  -3 1913.07 532.149  41
   0  -4   3 1361.81 424.425  44
   0  -4  -3 2770.89 476.431  43
   0  -4  -3 1679.37 418.848  44
   0   4  -3 2079.48 378.120  18
   0  -4  -3 2436.54 421.644  19
   0  -4   3 1922.04 372.420  19
   0  -4   3 1680.93 356.655  20
   0   4   3 2300.20 412.637  18
   0  -4  -3 1778.33 343.824  20
   0  -4  -3 1647.92 511.049  17
   0   4  -3 2007.58 562.512  39
   0   4  -3 2537.01 427.202  35
   0   4   3 2484.03 635.120  39
   0   4   3 1852.57 359.436  35
   0  -4  -3 2457.60 428.081  33
   0   4   3 2442.64 384.819  32
   0  -4   3 1910.08 397.283  33
   0   4  -3 1553.93 422.343  27
   0   4   3 2454.66 494.723  27
   0  -4  -3 2028.18 348.189  22
   0   4   4 53692.2 2717.10  15
   0   4  -4 54617.9 2778.19  15
   0  -4   4 50256.4 2445.38  10
   0  -4   4 55071.9 3107.25   1
   0  -4  -4 52286.3 2496.58   6
   0   4  -4 56472.4 2484.56  46
   0   4   4 50235.3 2280.80  45
   0   4   4 53037.3 2478.75  46
   0   4   4 53532.8 3031.14  41
   0   4  -4 56616.3 3133.33  41
   0   4  -4 54783.6 3195.33  39
   0  -4  -4 51850.8 2641.84  44
   0   4  -4 54827.1 2388.09  42
   0  -4   4 51886.0 3043.92  40
   0  -4   4 50949.8 2655.75  44
   0  -4  -4 55286.1 2571.44  43
   0  -4  -4 52512.4 2910.01  40
   0   4   4 55692.1 3248.93  39
   0  -4  -4 48679.1 2261.51  20
   0  -4   4 55687.8 2418.36  19
   0   4   4 55047.6 2482.94  18
   0  -4   4 49923.6 2419.86  20
   0  -4  -4 57284.9 2499.79  19
   0  -4  -4 47261.5 2970.58  17
   0   4  -4 50995.7 2382.14  18
   0  -4  -4 53382.9 2442.40  33
   0   4  -4 52514.4 2434.58  35
   0   4   4 46339.6 2336.57  35
   0  -4   4 58023.8 2559.14  33
   0   4   4 53233.5 2338.30  32
   0   4  -4 57028.9 2790.56  27
   0   4   4 56698.0 2875.60  27
   0  -4  -4 53417.5 2326.17  22
   0   4   5 4501.70 658.387  15
   0   4  -5 3941.95 653.028  15
   0   4  -5 4201.07 668.031  14
   0  -4   5 4904.09 609.227  10
   0  -4   5 4718.13 820.789   1
   0  -4  -5 5071.28 633.557   6
   0   4   5 4983.20 613.062  46
   0   4  -5 5074.95 599.448  46
   0   4   5 4411.64 519.113  45
   0   4  -5 5237.47 587.732  42
   0  -4  -5 5874.94 734.570  44
   0  -4   5 4736.09 690.671  44
   0   4  -5 5551.84 916.913  39
   0  -4   5 4504.27 816.786  40
   0   4   5 6605.18 927.401  41
   0  -4  -5 5632.53 841.021  40
   0  -4  -5 5367.78 661.321  43
   0  -4   5 4710.53 590.208  20
   0   4   5 4832.23 603.190  18
   0  -4  -5 5712.46 639.070  19
   0  -4   5 4975.16 559.309  19
   0  -4  -5 6036.73 932.733  17
   0  -4  -5 4266.88 495.879  20
   0  -4  -5 5705.85 632.269  33
   0  -4   5 4842.02 614.326  33
   0   4   5 4036.57 770.368  39
   0   4   5 5248.73 761.178  27
   0  -4  -5 5455.71 571.709  22
   0   4   6 45149.6 2453.93  15
   0  -4   6 44780.7 2255.59  10
   0   4  -6 48946.8 2605.37  15
   0   4  -6 48564.4 2571.21  14
   0  -4   6 49372.7 2901.29   1
   0  -4  -6 45862.7 2275.94   6
   0   4   6 40610.9 2074.03  45
   0  -4   6 50240.8 2492.43  48
   0   4  -6 47947.6 2254.37  46
   0   4  -6 48461.9 2222.72  42
   0   4   6 44500.4 2903.01  39
   0  -4  -6 44268.5 2657.18  40
   0  -4   6 50512.8 2980.71  40
   0  -4   6 42805.8 2410.64  44
   0   4  -6 48882.3 2977.72  39
   0   4   6 44773.7 2769.86  41
   0  -4  -6 44493.0 2426.98  44
   0  -4   6 46821.4 2167.99  19
   0   4   6 47723.9 2304.05  18
   0  -4  -6 46088.0 2243.17  19
   0  -4  -6 43840.6 2843.37  17
   0  -4   6 51772.0 2356.46  33
   0   4   6 44002.6 2573.61  27
   0  -4  -6 43351.7 2117.62  22
   0  -4   7 1060.83 312.060  10
   0   4  -7 1666.53 449.989  14
   0   4  -7 1480.10 422.596  15
   0   4   7 1671.78 405.579  15
   0  -4  -7 1923.56 388.082   6
   0  -4   7 1203.99 435.472   1
   0  -4   7 1467.75 431.037  48
   0   4   7 1182.61 334.006  46
   0   4   7 1820.59 354.855  45
   0   4  -7 1807.58 401.431  46
   0  -4  -7 1240.70 417.907  40
   0   4   7 1517.11 480.266  41
   0  -4   7 1154.52 479.367  40
   0  -4  -7 1057.81 346.490  44
   0   4  -7 1397.86 345.562  42
   0  -4   7 1338.70 411.171  44
   0  -4  -7 1179.36 475.914  17
   0  -4  -7 1688.23 372.337  19
   0  -4   7 1645.72 342.731  19
   0   4  -7 1810.36 364.092  18
   0   4   7 1510.97 363.223  18
   0   4  -7 1184.58 322.771  35
   0   4  -7 1808.09 565.043  39
   0   4   7 1949.78 564.568  39
   0   4   7 1113.70 292.844  32
   0   4  -7 1354.97 387.293  27
   0   4   7 1723.59 457.498  27
   0  -4   7 1513.32 365.363  33
   0   4  -7 1304.44 308.479  24
   0  -4  -7 1677.02 351.060  22
   0   4  -8 19631.3 1569.24  15
   0   4   8 18559.8 1447.02  15
   0   4  -8 21735.4 1595.45  14
   0  -4   8 18705.1 1320.71  10
   0  -4   8 20996.2 1821.85   1
   0  -4  -8 18803.5 1315.81   6
   0  -4   8 22980.1 1581.99  48
   0   4  -8 21670.5 1378.63  46
   0   4   8 18930.0 1345.05  46
   0   4   8 18603.3 1218.29  45
   0  -4  -8 19291.3 1463.42  44
   0   4  -8 19900.4 1824.21  39
   0   4   8 19895.9 1850.57  39
   0  -4   8 19967.0 1513.13  44
   0  -4  -8 19514.5 1616.31  40
   0   4  -8 22250.7 1364.04  42
   0   4   8 18932.1 1715.51  41
   0  -4   8 21735.8 1902.09  40
   0   4  -8 22548.9 1318.48  18
   0   4   8 19459.2 1358.73  18
   0  -4  -8 19630.6 1843.48  17
   0  -4   8 19662.0 1232.76  19
   0  -4  -8 19538.2 1318.82  19
   0  -4   8 22293.6 1413.90  33
   0   4  -8 20058.6 1332.83  35
   0   4  -8 22027.4 1578.69  27
   0   4   8 20076.3 1627.02  27
   0   4   8 22046.3 1345.04  32
   0   4  -8 20179.8 1275.25  24
   0  -4  -8 19316.1 1269.69  22
   0   4   9 130236. 5357.81  15
   0  -4   9 126664. 5144.92  10
   0   4  -9 135601. 5529.24  14
   0   4  -9 127159. 5558.94  15
   0  -4  -9 129914. 5134.65   6
   0  -4   9 141451. 6050.18   1
   0   4   9 123685. 4948.85  45
   0   4  -9 139626. 5174.07  46
   0   4   9 130241. 5194.48  46
   0  -4   9 140760. 5480.41  48
   0  -4  -9 133206. 5672.22  40
   0  -4   9 131050. 6069.44  40
   0  -4   9 129408. 5381.79  44
   0  -4  -9 126177. 5235.87  43
   0   4   9 134095. 6167.05  39
   0   4  -9 142776. 5156.63  42
   0   4   9 132914. 5886.83  41
   0  -4  -9 128002. 5322.90  44
   0   4  -9 134048. 6093.99  39
   0  -4  -9 138335. 6221.19  17
   0  -4   9 134621. 5199.49  20
   0  -4  -9 138819. 5175.07  19
   0  -4   9 131520. 4951.77  19
   0   4   9 138975. 5262.11  18
   0   4  -9 132158. 5000.02  18
   0   4  -9 131993. 5125.01  35
   0  -4   9 137344. 5182.52  33
   0  -4  -9 132017. 5016.93  33
   0   4   9 138416. 5122.54  32
   0   4   9 126941. 5653.29  27
   0   4  -9 139276. 5520.16  27
   0   4  -9 129321. 5025.46  24
   0  -4  -9 133152. 5056.37  22
   0   4 -10 159824. 6592.25  15
   0   4  10 161691. 6352.38  15
   0  -4  10 153994. 6118.57  10
   0   4 -10 158839. 6463.37  14
   0  -4  10 161143. 6974.86   1
   0  -4 -10 170729. 6142.63   6
   0   4  10 158796. 6188.67  46
   0   4  10 156809. 5964.67  45
   0   4 -10 169791. 6118.92  46
   0  -4  10 163054. 6426.39  48
   0   4  10 154674. 6122.27  47
   0   4  10 163507. 7220.57  39
   0  -4 -10 171528. 6707.19  40
   0   4 -10 159744. 7057.58  39
   0  -4 -10 155658. 6343.31  44
   0   4 -10 175214. 6150.36  42
   0  -4  10 161143. 7108.43  40
   0  -4 -10 168635. 6309.89  43
   0   4  10 171226. 6989.50  41
   0  -4  10 167572. 6420.29  44
   0   4 -10 160282. 5955.27  18
   0  -4  10 158431. 5887.76  19
   0  -4 -10 162452. 6153.28  19
   0  -4 -10 153806. 7110.54  17
   0   4  10 170074. 6295.07  18
   0  -4  10 167391. 6214.05  20
   0   4 -10 159676. 6109.78  35
   0  -4 -10 159097. 5959.39  33
   0  -4  10 172928. 6185.63  33
   0   4  10 167090. 6138.36  32
   0   4 -10 169079. 6488.23  27
   0  -4  10 151210. 5902.64  31
   0   4  10 167790. 6781.86  27
   0  -4 -10 165118. 6077.54  22
   0   4 -10 168781. 6056.24  24
   0   4 -11 16478.2 1510.91  15
   0   4  11 17777.6 1421.80  15
   0   4 -11 20970.8 1595.65  14
   0  -4  11 19716.5 1815.03   1
   0  -4 -11 17450.7 1286.57   6
   0   4  11 18436.1 1352.38  47
   0   4 -11 18839.2 1292.14  46
   0   4  11 18827.6 1379.01  46
   0  -4  11 19091.8 1498.82  48
   0  -4 -11 18661.7 1592.52  40
   0   4 -11 18866.8 1814.55  39
   0   4  11 18549.5 1858.99  39
   0  -4  11 18345.5 1848.33  40
   0   4  11 16299.8 1645.43  41
   0  -4 -11 19058.9 1452.51  44
   0  -4  11 19541.8 1522.70  44
   0  -4 -11 17411.7 1378.83  43
   0   4 -11 18707.8 1317.87  42
   0   4  11 20249.5 1452.73  18
   0  -4  11 18771.0 1192.14  19
   0  -4  11 19275.9 1382.05  20
   0   4 -11 18075.1 1208.76  18
   0  -4 -11 19671.6 1353.26  19
   0  -4 -11 16171.9 1776.63  17
   0  -4  11 17806.8 1307.07  33
   0   4 -11 18232.8 1316.88  35
   0  -4 -11 19272.1 1241.78  33
   0   4 -11 19134.4 1503.84  27
   0  -4  11 16947.7 1202.24  31
   0   4  11 20953.9 1391.93  32
   0   4  11 19747.2 1697.15  27
   0   4 -11 20166.7 1314.21  24
   0  -4 -11 19771.7 1319.95  22
   0   4 -12 23136.6 1742.39  14
   0   4 -12 22105.2 1798.60  15
   0  -4  12 21512.7 1962.71   1
   0  -4 -12 21532.7 1480.83   6
   0   4  12 23321.5 1586.53  46
   0   4  12 22584.6 1549.96  47
   0  -4  12 24311.8 1763.08  48
   0   4 -12 25258.5 1573.82  42
   0  -4 -12 23085.5 1614.33  43
   0   4  12 23314.9 1978.64  41
   0  -4  12 23187.8 2137.38  40
   0  -4 -12 25481.9 1887.93  40
   0   4 -12 24974.4 2111.13  39
   0  -4  12 21149.8 1661.40  44
   0   4 -12 22852.9 1389.73  18
   0   4  12 25135.4 1677.35  18
   0  -4 -12 22664.0 1518.03  19
   0  -4  12 24927.9 1395.60  19
   0  -4  12 25667.5 1626.88  20
   0  -4 -12 20683.2 2070.10  17
   0  -4  12 22840.1 1527.60  33
   0   4 -12 24153.7 1570.34  35
   0   4  12 25811.7 2228.20  39
   0  -4 -12 23002.6 1399.34  33
   0   4  12 24832.4 1581.06  32
   0   4  12 22340.8 1882.05  27
   0  -4  12 20968.6 1399.74  31
   0   4 -12 24308.8 1714.11  27
   0  -4 -12 22602.6 1471.55  22
   0   4 -12 20761.4 1419.10  24
   0   4 -13 75.6418 279.678  14
   0   4 -13-88.0810 230.286  15
   0  -4 -13 53.7768 177.848   6
   0  -4  13 109.853 256.886   1
   0   4  13 118.916 278.078   2
   0  -4  13-74.8428 338.914  48
   0   4  13 123.250 203.801  46
   0   4  13 60.1449 210.971  47
   0  -4  13-122.472 405.019  40
   0  -4 -13 85.9350 246.119  40
   0  -4 -13 64.8136 227.346  43
   0  -4  13 142.838 289.267  44
   0   4  13-103.352 209.306  41
   0   4 -13 54.7952 212.491  42
   0   4 -13 575.453 225.420  18
   0  -4  13 149.443 151.328  19
   0  -4  13 59.8198 242.290  20
   0  -4 -13 214.568 226.140  19
   0  -4 -13-118.012 308.535  17
   0   4  13-66.0040 244.044  18
   0   4 -13 56.9849 220.982  35
   0   4 -13 112.678 263.492  39
   0   4  13 122.577 351.057  39
   0  -4  13-54.9111 192.614  33
   0  -4  13-50.2654 203.593  31
   0   4 -13 265.502 219.510  27
   0   4  13-58.7723 217.307  32
   0  -4 -13 217.916 176.530  33
   0   4  13-98.5137 230.371  27
   0  -4 -13 101.216 196.255  22
   0   4 -13 156.385 192.743  24
   0  -4  14 96863.2 4143.89   9
   0   4 -14 105029. 4978.05  15
   0   4 -14 105274. 4753.82  14
   0  -4  14 101555. 5248.73   1
   0   4  14 104460. 5405.34   2
   0   4  14 108723. 4539.77  47
   0   4 -14 114710. 4261.28  46
   0  -4  14 108022. 4805.63  48
   0   4  14 100501. 4287.17  45
   0   4  14 103215. 4496.45  46
   0  -4  14 102802. 4696.75  44
   0  -4 -14 110051. 4626.13  43
   0  -4  14 102734. 5447.81  40
   0   4 -14 110703. 4466.09  42
   0   4  14 99705.7 5135.92  41
   0   4 -14 109919. 5391.63  39
   0  -4 -14 110230. 4953.99  40
   0   4 -14 109618. 4124.98  18
   0  -4 -14 112183. 4436.42  19
   0   4  14 109316. 4684.73  18
   0  -4  14 112255. 4569.43  20
   0  -4 -14 103599. 5346.80  17
   0  -4 -14 103382. 4173.17  33
   0   4  14 122183. 5757.32  39
   0   4 -14 106741. 4463.58  35
   0  -4  14 105150. 4424.12  33
   0  -4  14 101235. 4307.59  31
   0   4  14 110216. 4554.57  32
   0   4 -14 107034. 4524.46  27
   0   4 -14 104346. 4353.96  24
   0   4  14 104025. 4519.91  21
   0   4 -15 12179.6 1265.09  14
   0  -4  15 13107.0 1027.78   9
   0   4 -15 12412.1 1379.84  15
   0   4  15 11150.1 1487.50   2
   0  -4  15 12136.8 1286.33  48
   0   4 -15 13401.7 986.853  46
   0   4  15 11650.4 1050.64  45
   0   4  15 12618.0 1162.12  47
   0   4  15 11380.1 1106.92  46
   0  -4  15 12806.4 1257.79  44
   0   4 -15 11542.6 1475.13  39
   0  -4  15 12729.3 1648.81  40
   0   4 -15 12490.0 1101.75  42
   0  -4 -15 11940.0 1187.48  43
   0  -4 -15 10522.6 1221.60  40
   0  -4 -15 11782.5 1480.98  17
   0  -4 -15 13070.1 1119.47  19
   0   4  15 12606.3 1249.03  18
   0  -4  15 13669.5 1212.89  20
   0   4 -15 12867.8 914.744  18
   0   4  15 11945.6 1574.47  39
   0   4 -15 12194.9 1117.92  35
   0  -4 -15 12132.4 956.345  33
   0  -4  15 11923.7 1053.42  31
   0   4 -15 11556.5 1080.31  27
   0   4  15 12253.6 1160.95  32
   0   4 -15 12773.5 1101.08  24
   0   4  15 12980.7 1181.72  21
   0  -4  16 46695.0 2353.96   9
   0   4 -16 44524.1 2932.49  15
   0   4 -16 49919.9 2843.78  14
   0  -4  16 46289.2 3121.96   3
   0   4  16 46585.4 3337.60   2
   0   4 -16 47287.3 2258.54  46
   0   4  16 47990.1 2637.03  47
   0   4  16 46767.0 2479.69  45
   0  -4  16 50332.9 2858.04  48
   0   4 -16 49751.1 2568.47  42
   0  -4  16 49245.7 3475.76  40
   0  -4 -16 50392.8 2730.81  43
   0  -4 -16 51370.8 2961.29  40
   0  -4  16 53617.5 2878.85  44
   0   4 -16 48215.6 2163.26  18
   0  -4 -16 52476.8 2579.04  19
   0  -4  16 49193.2 2639.65  20
   0  -4 -16 46918.1 3200.41  17
   0  -4 -16 47082.9 2277.03  33
   0   4 -16 47552.3 2562.08  35
   0   4  16 53312.7 3552.43  39
   0   4  16 48917.2 2655.85  32
   0  -4  16 46259.9 2471.25  31
   0   4 -16 50468.0 2562.22  24
   0   4  16 50042.8 2173.43  23
   0   4  16 46750.7 2627.98  21
   0   4 -17 56564.7 3074.85  14
   0   4 -17 49464.6 3199.04  15
   0  -4  17 48321.8 2495.76   9
   0  -4  17 57271.2 3488.76   3
   0   4  17 49932.5 3521.16   2
   0   4 -17 56979.4 2491.38  46
   0   4  17 50855.1 2808.59  47
   0   4  17 47872.9 2649.70  45
   0  -4  17 55909.8 3066.70  48
   0   4  17 50343.5 3287.96  41
   0  -4  17 53698.2 3000.29  44
   0  -4  17 59800.9 3884.32  40
   0   4 -17 61041.9 2859.33  42
   0  -4 -17 52506.4 2877.63  43
   0  -4 -17 54050.7 2706.77  19
   0  -4 -17 49756.0 3325.79  17
   0  -4  17 56593.8 2889.74  20
   0  -4 -17 49571.3 2403.68  33
   0  -4  17 59163.1 2714.45  33
   0   4  17 55232.7 3728.43  39
   0   4 -17 57484.7 2776.24  35
   0  -4  17 49928.6 2661.93  31
   0   4  17 50443.2 2794.48  32
   0   4 -17 54325.2 2748.10  24
   0   4  17 53573.6 2845.07  21
   0  -4 -17 57387.1 2666.45  22
   0   4  17 52455.3 2339.50  23
   0  -4  18 316806. 11739.9   9
   0   4 -18 356450. 12536.5  14
   0   4 -18 337332. 12867.0  15
   0  -4  18 344021. 13129.8   3
   0   4  18 344233. 13492.2   2
   0   4  18 336953. 12046.6  45
   0   4 -18 349809. 11612.7  46
   0  -4  18 363912. 12542.0  48
   0   4  18 338199. 12232.5  47
   0   4 -18 363718. 12138.9  42
   0  -4  18 361295. 12518.1  44
   0   4  18 334728. 12913.9  41
   0  -4 -18 345384. 12233.7  43
   0  -4  18 322378. 13484.0  40
   0  -4 -18 354753. 12030.7  19
   0   4  18 316692. 12333.4  18
   0  -4  18 350862. 12269.5  20
   0  -4 -18 341961. 13059.8  17
   0  -4 -18 329535. 11567.7  33
   0  -4  18 370150. 11933.3  33
   0   4 -18 350503. 12029.5  35
   0   4  18 363455. 13814.4  39
   0   4  18 338977. 12223.0  32
   0  -4  18 324593. 11993.1  31
   0   4 -18 350827. 12067.4  24
   0   4  18 340034. 12260.5  21
   0  -4 -18 374465. 11946.8  22
   0   4  18 341626. 11529.1  23
   0  -4  19 120561. 5142.23   9
   0   4 -19 135218. 5818.71  14
   0   4 -19 131305. 6130.61  15
   0   4  19 137851. 6730.45   2
   0  -4  19 124251. 6229.92   3
   0   4 -19 132969. 5009.90  46
   0   4  19 134353. 5608.86  47
   0  -4  19 142060. 5857.61  48
   0   4  19 137445. 5496.81  45
   0  -4  19 123085. 6657.87  40
   0   4  19 127264. 6070.23  41
   0  -4  19 129655. 5767.09  44
   0   4 -19 133690. 5456.32  42
   0  -4 -19 129412. 5558.72  43
   0  -4  19 140176. 5641.28  20
   0  -4 -19 138703. 5381.14  19
   0   4  19 137885. 5867.66  18
   0  -4  19 138466. 5223.80  33
   0   4 -19 140317. 5413.63  35
   0   4  19 149360. 7006.97  39
   0  -4  19 129115. 5398.50  31
   0   4  19 136262. 5645.29  32
   0   4  19 134685. 4999.01  23
   0   4 -19 128455. 5415.42  24
   0  -4 -19 147057. 5348.46  22
   0   4  19 139511. 5636.51  21
   0  -4  20 4616.11 644.295   9
   0   4 -20 4817.98 831.411  14
   0   4 -20 4781.99 544.308  46
   0   4  20 4295.36 743.975  47
   0   4  20 4433.20 723.242  45
   0  -4  20 4885.01 812.835  48
   0  -4 -20 3263.62 637.354  43
   0   4 -20 5142.79 730.988  42
   0  -4  20 4279.12 795.769  44
   0  -4 -20 4256.02 626.613  19
   0  -4  20 5882.82 827.782  20
   0   4  20 3172.51 713.997  18
   0   4  20 2991.26 617.372  21
   0   4 -20 4968.74 681.559  35
   0  -4  20 4800.04 602.035  33
   0   4  20 4020.56 745.234  32
   0  -4  20 5344.17 767.198  31
   0   4 -20 3909.46 670.434  24
   0   4  20 3519.80 486.987  23
   0  -4 -20 3497.33 571.387  22
   0   4 -21 253.410 342.446  14
   0  -4  21 483.684 267.005   9
   0   4  21 960.599 432.274  45
   0  -4  21 646.157 422.592  48
   0  -4 -21 273.149 299.109  43
   0  -4  21 760.229 407.478  44
   0   4 -21 464.867 347.562  42
   0   4  21 648.545 377.085  21
   0  -4  21 538.622 361.045  20
   0  -4 -21 679.159 317.702  19
   0   4  21 509.714 384.976  18
   0   4 -21 452.629 281.052  35
   0   4  21 532.284 355.937  32
   0  -4  21 603.155 367.826  31
   0  -4  21 266.689 195.018  33
   0   4 -21 459.108 287.312  24
   0  -4 -21 518.856 264.850  22
   0   4  21 504.841 214.923  23
   0  -4  22 31426.9 1904.64   9
   0   4 -22 36062.3 2378.19  14
   0   4  22 33547.9 2147.66  45
   0  -4  22 34144.4 2281.66  48
   0  -4 -22 36390.5 2185.61  43
   0   4 -22 36720.2 2181.59  42
   0  -4  22 37088.8 2414.62  44
   0   4  22 34695.3 2311.82  18
   0  -4  22 36499.0 2159.60  20
   0  -4  22 36283.5 1837.46  33
   0   4 -22 34442.7 2001.40  35
   0   4  22 34496.1 2263.46  32
   0  -4  22 34587.7 2139.40  31
   0   4 -22 34979.6 2113.23  24
   0  -4 -22 40098.3 2043.55  22
   0   4  22 36904.5 1868.09  23
   0   4  22 35204.9 2206.82  21
   0   4 -23 243.295 342.021  14
   0   4  23 211.775 273.917  45
   0   4 -23 581.861 320.853  42
   0  -4  23 413.197 320.609  44
   0  -4 -23 63.8171 269.208  43
   0   4  23 137.935 228.287  21
   0   4  23 393.393 318.818  18
   0  -4  23 374.458 263.279  20
   0   4 -23 215.682 189.387  35
   0   4  23 764.884 389.941  32
   0  -4  23 270.225 180.809  33
   0  -4  23 326.699 296.041  31
   0  -4 -23 954.230 310.874  22
   0   4 -24 20212.6 1617.66  14
   0   4  24 17399.8 1478.71  45
   0  -4  24 18724.9 1582.84  44
   0  -4 -24 17847.7 1400.03  43
   0   4 -24 18771.1 1422.45  42
   0   4  24 17367.5 1495.50  18
   0  -4 -24 18830.4 1333.99  19
   0  -4  24 21194.1 1476.82  20
   0   4 -24 19599.5 1364.71  35
   0   4  24 21324.2 1638.12  32
   0  -4  24 18368.3 1434.60  31
   0   4  24 19248.3 1490.88  21
   0  -4 -24 20946.1 1372.59  22
   0   4 -25 362.545 281.242  14
   0   4  25 127.081 246.475  47
   0   4  25 140.327 259.492  45
   0  -4 -25 233.718 236.733  43
   0   4 -25 176.303 194.442  42
   0  -4  25 374.184 290.267  44
   0   4  25 191.239 235.772  21
   0   4  25 67.5588 223.502  18
   0  -4  25 56.0774 217.544  20
   0  -4 -25 191.934 194.442  19
   0   4 -25 546.892 239.754  35
   0  -4  25 238.257 241.327  31
   0   4  25 296.944 287.938  32
   0  -4 -25 141.881 166.002  22
   0   4 -26 472.107 305.887  14
   0   4  26 956.648 366.521   5
   0  -4  26 64.7129 312.436  48
   0   4  26 663.223 323.502  47
   0   4  26 274.300 241.145  45
   0  -4  26 841.694 357.881  44
   0  -4 -26 776.705 311.559  43
   0   4 -26 550.972 258.250  42
   0  -4  26 475.120 269.593  20
   0   4  26 484.035 265.247  21
   0  -4 -26 674.414 241.509  19
   0   4  26 1004.18 338.776  18
   0   4 -26 520.632 260.127  35
   0   4  26 1010.61 430.701  32
   0  -4  26 223.697 245.256  31
   0  -4 -26 998.094 327.436  22
   0   4 -27 34343.5 2089.94  14
   0   4  27 34324.6 2146.82  45
   0  -4  27 34228.0 2031.61  48
   0   4  27 35011.1 2041.26  47
   0  -4  27 35870.7 2166.83  44
   0  -4 -27 37593.1 2005.13  43
   0   4 -27 36018.5 1972.96  42
   0   4  27 32587.8 2013.41   5
   0  -4 -27 37661.2 1859.11  19
   0  -4  27 39682.6 2000.99  20
   0   4  27 35896.0 2209.47  32
   0  -4  27 34076.5 1941.30  31
   0  -4 -27 35561.2 1850.82  22
   0   4  27 36531.8 2058.16  21
   0   4 -28 101879. 4207.53  14
   0   4  28 96716.8 4057.55   5
   0   4  28 99279.6 4121.07  47
   0   4  28 93267.6 4254.87  45
   0  -4  28 91801.4 4041.89  48
   0  -4 -28 95881.5 3999.95  43
   0  -4  28 101262. 4259.67  44
   0   4 -28 97298.2 3980.99  42
   0  -4 -28 104699. 3871.02  19
   0  -4  28 100664. 3985.76  20
   0  -4  28 98042.1 4006.87  31
   0   4  28 99350.1 4321.36  32
   0  -4 -28 99410.1 3894.99  22
   0   4  28 102428. 4141.31  21
   0   4 -29 252.669 264.261  14
   0   4  29 250.392 182.609   5
   0  -4  29 182.149 219.557  48
   0   4  29-120.060 271.862  45
   0   4  29 193.467 219.053  47
   0   4 -29 207.607 206.003  42
   0  -4 -29 43.5063 203.507  43
   0  -4  29-53.9603 267.698  44
   0  -4 -29 95.8631 149.495  19
   0  -4  29 367.196 233.728  20
   0   4  29 96.5058 218.538  21
   0   4 -29-37.3097 179.902  35
   0  -4  29 169.359 210.063  31
   0   4  29 359.149 279.971  32
   0  -4 -29 149.956 158.087  22
   0   4 -29 762.127 262.111  24
   0   4 -30 42552.8 2079.63  14
   0  -4 -30 40539.9 1964.37  43
   0   4 -30 41797.1 1940.23  42
   0  -4  30 40960.7 2110.40  44
   0   4  30 40247.0 2038.38  47
   0  -4  30 39104.8 1904.19  48
   0   4  30 38648.6 2169.87  45
   0  -4  30 41652.0 1932.18  20
   0  -4  30 36415.8 1879.63  31
   0   4  30 39827.9 2178.60  32
   0  -4 -30 40532.1 1887.34  22
   0   4 -30 41625.3 2000.97  24
   0   4  30 42277.5 2060.92  21
   0  -4  31 26.1776 133.479  48
   0   4  31 100.511 194.927  45
   0   4  31 155.104 197.664  47
   0  -4  31-31.5338 176.869  20
   0   4  31 269.704 180.242  21
   0   4 -31 499.519 215.499  14
   0   4 -31 253.307 184.472  24
   0  -4 -31 214.897 164.541  22
   0  -4 -31 34.6992 151.859  43
   0  -4  31 337.061 220.345  44
   0   4  32 52431.6 2439.73  45
   0   4  32 50914.0 2257.09  47
   0   4 -32 56976.5 2293.17  14
   0   4 -32 54073.9 2195.95  13
   0   4  32 53308.7 2274.92  21
   0  -4 -32 48713.6 2122.88  22
   0  -4 -32 51032.2 2194.39  43
   0  -4  32 51317.3 2300.59  44
   0   4  33 83.0214 161.800  47
   0   4 -33 78.0043 155.035  14
   0   4  34 4763.42 422.820  47
   0   4 -34 5151.43 416.126  14
   0  -5   0 459.240 276.934   6
   0  -5   0 594.440 336.639  48
   0   5   0 574.493 316.815  46
   0  -5   0 510.739 281.698  43
   0  -5   0 278.047 269.757  44
   0  -5   0 318.892 328.989  40
   0  -5   0 443.174 231.966  20
   0   5   0 283.841 239.543  18
   0   5   0 502.978 299.621  35
   0  -5   0 112.272 236.880  33
   0   5   0 175.231 184.975  32
   0   5   0 267.125 233.029  27
   0   5   0 316.150 345.928  14
   0  -5  -1 2155.95 450.610   6
   0  -5  -1 2937.56 593.947  48
   0  -5   1 1841.27 527.830  48
   0   5   1 2113.22 484.637  46
   0   5  -1 2263.65 503.647  46
   0  -5   1 2459.22 485.421  43
   0  -5   1 1607.75 467.745  44
   0   5   1 2637.12 687.232  41
   0  -5  -1 2107.32 607.680  40
   0  -5   1 2173.20 626.423  40
   0  -5  -1 2571.44 555.662  44
   0  -5  -1 3401.06 568.342  43
   0  -5   1 2211.21 429.999  20
   0   5   1 2883.45 531.375  18
   0   5  -1 2064.34 452.808  18
   0  -5   1 2466.25 464.565  19
   0  -5  -1 2801.00 443.939  20
   0   5   1 1909.02 433.641  35
   0   5  -1 1473.88 381.587  35
   0   5   1 2879.02 643.779  27
   0   5   1 2389.04 434.000  32
   0  -5   1 1984.06 445.333  33
   0   5  -1 2174.25 392.568  32
   0  -5  -1 3110.58 540.224  33
   0   5  -1 2284.05 567.032  27
   0   5  -1 2683.64 616.251  14
   0   5   1 1980.44 560.237  14
   0  -5  -2 21009.8 1497.45   6
   0  -5   2 26629.8 1880.01  48
   0  -5  -2 23236.4 1646.57  48
   0   5  -2 21414.0 1559.20  46
   0   5   2 21627.1 1600.75  46
   0  -5   2 22870.3 1516.96  43
   0  -5   2 22641.7 2027.77  40
   0  -5  -2 22630.9 1559.02  43
   0   5   2 24323.8 2123.25  41
   0  -5  -2 20174.9 1888.94  40
   0  -5   2 22630.0 1704.16  44
   0  -5  -2 21335.1 1640.91  44
   0  -5  -2 24699.2 1576.87  19
   0  -5  -2 21503.1 1318.77  20
   0   5  -2 24764.9 1586.29  18
   0  -5   2 25984.6 1564.84  19
   0   5   2 23129.5 1581.80  18
   0  -5   2 21358.9 1401.76  20
   0   5  -2 21952.4 1524.15  35
   0   5   2 22891.8 1492.22  35
   0  -5   2 23062.8 1562.92  33
   0  -5  -2 24030.2 1566.69  33
   0   5  -2 22355.2 1354.93  32
   0   5   2 21067.0 1818.00  27
   0   5   2 22295.5 1422.47  32
   0   5   2 22732.8 1790.85  14
   0   5  -2 21411.1 1735.66  14
   0  -5  -3 32290.0 1854.08   6
   0   5  -3 27907.7 1846.58  46
   0  -5   3 30680.6 2081.00  48
   0   5   3 29103.0 1903.31  46
   0  -5  -3 29642.9 1863.21  48
   0  -5   3 27537.4 1913.05  44
   0   5   3 30226.1 2418.89  41
   0  -5  -3 33062.0 1906.55  43
   0  -5   3 27159.1 2291.69  40
   0  -5   3 29051.7 1760.91  43
   0  -5  -3 30136.8 2299.07  40
   0  -5  -3 29212.7 1949.31  44
   0  -5   3 24504.8 1605.02  20
   0   5   3 30523.2 1874.00  18
   0  -5   3 31940.1 1789.99  19
   0  -5  -3 29415.5 1800.39  19
   0   5  -3 30010.8 1811.72  18
   0  -5  -3 28725.9 1765.65  33
   0   5  -3 27072.9 1759.92  35
   0  -5   3 32266.2 1868.48  33
   0   5  -3 28354.0 1568.29  32
   0   5   3 29328.8 2191.53  27
   0   5   3 32498.4 1770.47  32
   0  -5   3 28770.2 1685.79  10
   0   5  -3 27208.4 2007.44  14
   0  -5   4 548.121 408.973   1
   0  -5  -4 1935.52 441.908   6
   0   5  -4 1403.71 444.704  46
   0  -5   4 2054.47 564.614  48
   0  -5  -4 1637.95 413.988  48
   0   5   4 1921.40 492.963  46
   0  -5  -4 2079.18 540.270  44
   0   5   4 1381.87 524.304  41
   0  -5  -4 2178.62 493.243  43
   0  -5   4 1979.36 436.763  43
   0  -5  -4 1433.81 496.721  40
   0  -5   4 1823.74 613.152  40
   0  -5   4 1709.25 495.636  44
   0  -5  -4 2120.96 464.661  19
   0  -5   4 2034.51 440.396  20
   0   5  -4 2063.79 443.308  18
   0  -5   4 2142.44 453.575  19
   0   5   4 2151.90 495.835  18
   0   5  -4 1714.09 440.464  35
   0  -5  -4 1076.63 360.198  33
   0   5   4 2755.69 695.972  27
   0   5  -4 1926.32 360.194  32
   0  -5   4 2038.40 470.007  33
   0   5  -4 2226.92 560.234  27
   0   5   4 1937.96 426.471  32
   0  -5   4 1492.22 371.839  10
   0   5  -4 1348.32 457.559  14
   0  -5   5 168777. 7344.90   1
   0  -5  -5 174031. 6399.75   6
   0   5   5 163841. 6562.60  46
   0   5   5 162080. 6176.33  45
   0   5  -5 158685. 6512.27  46
   0  -5  -5 175041. 7260.48  40
   0  -5  -5 179406. 6568.09  43
   0  -5   5 163999. 6635.10  44
   0  -5   5 150823. 7253.87  40
   0   5   5 173390. 7493.39  41
   0   5  -5 153685. 7347.65  39
   0  -5  -5 162539. 6599.73  44
   0  -5   5 167275. 6310.47  43
   0   5   5 173627. 6576.00  18
   0  -5   5 177251. 6339.76  19
   0  -5  -5 191551. 6551.57  19
   0  -5   5 163856. 6291.32  20
   0   5  -5 165924. 6437.85  35
   0  -5  -5 166734. 6346.89  33
   0  -5   5 172807. 6516.44  33
   0   5  -5 172510. 6981.19  27
   0   5   5 162095. 7071.38  27
   0   5   5 179100. 6376.37  32
   0   5  -5 162701. 6793.48  14
   0  -5   5 164995. 6257.70  10
   0   5  -6 24935.3 1873.14  15
   0  -5   6 27770.3 1638.71  10
   0   5  -6 25763.3 1936.60  14
   0  -5   6 24707.7 2145.86   1
   0  -5  -6 25471.6 1634.75   6
   0   5   6 25651.5 1558.35  45
   0   5  -6 25676.9 1779.43  46
   0  -5  -6 23804.7 2027.86  40
   0   5  -6 26205.9 2282.64  39
   0  -5   6 24784.9 2233.49  40
   0  -5  -6 26666.5 1751.59  43
   0   5   6 23344.8 2159.73  41
   0  -5  -6 25476.1 1807.19  44
   0  -5   6 27097.7 1871.87  44
   0  -5   6 29150.5 1678.74  43
   0  -5  -6 30618.7 1793.09  19
   0  -5   6 24204.2 1605.70  20
   0   5   6 25915.4 1769.75  18
   0  -5   6 26301.9 1606.24  19
   0   5  -6 26503.5 1739.39  35
   0  -5   6 26965.5 1733.80  33
   0   5   6 27292.6 2150.22  27
   0   5   6 26397.3 1663.60  32
   0   5  -6 29342.5 2079.85  27
   0  -5  -6 24755.7 1463.63  22
   0   5  -7 189850. 7830.72  15
   0   5  -7 208086. 7962.53  14
   0  -5   7 207723. 7364.83  10
   0  -5   7 192294. 8379.02   1
   0  -5  -7 196838. 7384.71   6
   0  -5   7 203652. 7947.66  48
   0   5  -7 191114. 7551.21  46
   0   5   7 188955. 7234.30  45
   0  -5   7 201741. 7761.14  44
   0   5  -7 206560. 8646.12  39
   0  -5  -7 195854. 7681.22  44
   0   5   7 185697. 8418.09  41
   0  -5  -7 195688. 8183.51  40
   0  -5   7 209696. 7382.20  43
   0  -5  -7 204984. 7607.86  43
   0  -5   7 213146. 7361.09  19
   0  -5  -7 213941. 7557.10  19
   0   5   7 208926. 7689.33  18
   0   5  -7 202634. 7427.42  18
   0  -5   7 197032. 7409.02  20
   0  -5   7 218797. 7597.35  33
   0   5  -7 200335. 7542.97  35
   0   5   7 194533. 8218.53  27
   0   5  -7 199684. 7979.59  27
   0   5   7 206505. 7473.74  32
   0  -5  -7 200135. 7164.41  22
   0  -5  -8 34652.3 1991.47   6
   0  -5   8 39870.0 2450.98  48
   0   5  -8 32186.0 2094.01  46
   0   5   8 33099.9 1913.51  45
   0   5   8 38039.0 2270.42  46
   0  -5   8 35732.1 1952.47  43
   0  -5   8 35854.3 2245.32  44
   0  -5  -8 36629.0 2158.08  43
   0   5   8 35068.3 2684.60  41
   0  -5  -8 33682.7 2169.16  44
   0  -5  -8 30809.5 2385.27  40
   0   5  -8 33373.6 2642.98  39
   0  -5   8 39788.5 1999.27  19
   0  -5  -8 40167.4 2153.74  19
   0  -5   8 33293.3 2001.95  20
   0   5  -8 37792.2 2044.69  18
   0   5   8 36359.7 2234.87  18
   0  -5   8 35999.3 2100.81  33
   0  -5   8 36729.8 1989.17  10
   0   5  -8 32587.1 2265.12  15
   0   5  -8 34590.7 2293.47  14
   0  -5  -8 36990.7 1877.63  22
   0  -5  -9 10233.8 970.641   6
   0  -5   9 10660.6 1210.32  48
   0   5  -9 10344.2 1097.38  46
   0   5   9 9410.71 1061.41  46
   0   5   9 10624.0 960.992  45
   0  -5  -9 11698.8 1122.57  43
   0  -5   9 10283.6 1144.64  44
   0  -5  -9 11971.2 1200.15  44
   0  -5   9 11663.9 1060.56  20
   0   5  -9 11706.8 1030.11  18
   0  -5  -9 11092.6 1060.52  19
   0  -5   9 14238.2 1040.39  19
   0   5   9 11149.9 1154.98  18
   0  -5   9 11311.6 1082.66  33
   0  -5  -9 9301.66 910.470  33
   0  -5   9 11873.6 1014.58  10
   0   5  -9 13121.7 1316.37  14
   0  -5  -9 11681.3 929.315  22
   0  -5 -10 16980.4 1301.47   6
   0   5  10 17113.9 1293.99  45
   0  -5  10 20800.9 1697.06  48
   0   5  10 16874.3 1464.22  46
   0   5 -10 19494.9 1476.76  46
   0  -5 -10 18283.8 1455.31  43
   0  -5  10 18651.0 1551.52  44
   0   5  10 18953.8 1549.58  18
   0  -5  10 19763.8 1249.06  19
   0  -5 -10 20301.0 1444.11  19
   0   5 -10 19440.7 1347.28  18
   0  -5  10 21622.8 1501.55  33
   0  -5 -10 18465.7 1299.83  33
   0   5 -10 17382.0 1396.21  35
   0  -5 -10 20688.1 1297.15  22
   0  -5  10 18832.9 1337.32  10
   0   5 -10 19908.2 1640.45  14
   0   5 -11 4840.71 775.470  14
   0  -5  11 3773.13 575.031  10
   0  -5 -11 4801.16 660.134   6
   0   5  11 2872.47 528.306  45
   0  -5  11 3864.47 729.131  48
   0   5 -11 4038.17 662.260  46
   0   5  11 3216.45 608.498  46
   0  -5  11 3667.99 688.257  44
   0   5 -11 4222.68 582.537  18
   0  -5 -11 4765.62 667.704  19
   0   5  11 4137.46 724.337  18
   0  -5 -11 3382.69 534.257  33
   0   5 -11 3720.89 631.313  35
   0  -5  11 3507.51 613.540  33
   0   5  11 3221.37 607.122  32
   0  -5 -11 4249.10 553.811  22
   0   5 -12 76378.4 3803.79  14
   0  -5  12 70713.0 3308.72  10
   0  -5  12 81144.1 3912.86  48
   0   5  12 77178.0 3658.19  46
   0   5  12 77601.8 3390.55  47
   0   5 -12 71483.5 3438.37  46
   0   5  12 73796.0 3375.72  45
   0  -5  12 76285.7 3730.39  44
   0  -5 -12 83083.3 3569.40  19
   0   5  12 73988.3 3732.46  18
   0   5 -12 76336.6 3241.93  18
   0   5 -12 69813.0 3499.25  35
   0  -5  12 80707.8 3560.20  33
   0  -5 -12 73487.0 3238.61  33
   0   5  12 73182.4 3505.89  32
   0   5  12 77178.6 3557.28  21
   0  -5 -12 80207.5 3272.12  22
   0   5 -13 53782.7 2976.24  14
   0  -5  13 53481.0 2596.80  10
   0   5  13 47495.6 2727.05  46
   0   5  13 49424.6 2567.23  47
   0  -5  13 55450.7 3040.90  48
   0   5  13 50980.6 2609.28  45
   0  -5  13 51494.7 2899.94  44
   0   5  13 53070.0 2958.38  18
   0  -5 -13 53824.4 2716.87  19
   0   5 -13 56565.9 2465.87  18
   0  -5  13 54433.5 2765.68  20
   0  -5  13 54339.2 2723.37  33
   0  -5 -13 51583.1 2445.38  33
   0   5 -13 50057.7 2742.58  35
   0   5  13 52197.5 2744.14  32
   0  -5 -13 55922.7 2502.03  22
   0   5  13 48787.5 2675.16  21
   0   5 -14 400.058 362.602  14
   0  -5  14 535.612 266.080  10
   0  -5  14 161.379 327.127  48
   0   5  14 456.135 283.198  47
   0   5  14 341.647 299.270  46
   0   5  14 636.856 295.414  45
   0  -5  14 301.895 330.492  44
   0   5  14 639.360 418.135  18
   0  -5 -14 238.432 231.596  19
   0  -5  14 254.284 268.377  20
   0   5  14 584.975 304.319  21
   0   5 -14 339.655 327.794  35
   0  -5  14 853.694 370.742  33
   0   5  14 657.036 376.617  32
   0  -5 -14 525.291 229.340  33
   0  -5 -14 715.299 261.749  22
   0   5 -15 12220.5 1257.50  14
   0  -5  15 14452.3 1159.90  10
   0   5  15 14148.1 1179.40  47
   0  -5  15 15134.8 1402.25  48
   0   5  15 13214.9 1196.50  46
   0   5 -15 13052.9 1094.99  46
   0   5  15 14435.8 1193.67  45
   0  -5  15 12590.5 1271.41  44
   0  -5 -15 13359.9 1230.56  43
   0  -5 -15 14870.6 1209.36  19
   0  -5  15 13258.8 1203.62  20
   0   5  15 16331.8 1486.76  18
   0   5 -15 11711.1 1179.92  35
   0  -5 -15 14742.4 1035.07  33
   0  -5  15 15036.3 1209.30  33
   0   5  15 14179.6 1258.61  32
   0   5  15 13911.3 1231.38  21
   0  -5 -15 14382.9 1056.33  22
   0   5 -16 29213.0 2060.10  14
   0  -5  16 31291.6 1808.46  10
   0  -5  16 28395.3 2060.56  48
   0   5  16 33547.0 1930.55  47
   0   5 -16 30159.1 1765.94  46
   0   5  16 29081.0 1858.26  45
   0  -5 -16 28541.4 1896.20  43
   0  -5  16 32869.4 2112.69  44
   0  -5  16 30815.9 1939.93  20
   0   5  16 32399.4 2195.85  18
   0  -5 -16 32022.6 1881.62  19
   0   5 -16 29949.1 1971.05  35
   0  -5 -16 29866.6 1611.17  33
   0   5  16 29964.8 1952.15  32
   0   5 -16 28687.7 1724.70  24
   0  -5 -16 32918.0 1718.28  22
   0   5  16 32327.4 1994.84  21
   0   5 -17 6998.41 931.677  14
   0  -5  17 5190.48 660.274  10
   0  -5  17 5708.62 862.013  48
   0   5 -17 4708.08 607.066  46
   0   5  17 5393.26 718.151  47
   0  -5  17 5127.17 813.137  44
   0  -5 -17 4573.40 701.332  43
   0  -5  17 5821.89 776.835  20
   0  -5 -17 5462.73 699.403  19
   0   5 -17 5785.03 773.923  35
   0  -5 -17 5075.10 552.815  33
   0   5  17 4920.45 735.457  32
   0   5 -17 5072.45 640.738  24
   0  -5 -17 5585.06 620.844  22
   0   5  17 5592.20 762.929  21
   0   5 -18 526.132 340.830  14
   0  -5  18 455.699 258.676  10
   0   5  18 466.903 297.987  47
   0   5 -18 547.371 245.062  46
   0  -5  18 597.432 360.458  48
   0  -5  18 585.369 331.829  44
   0  -5 -18 714.531 327.039  43
   0  -5  18 443.722 306.111  20
   0   5  18 762.151 332.584  21
   0  -5 -18 586.088 299.303  19
   0   5 -18 437.248 292.686  35
   0   5  18 732.815 339.999  32
   0  -5  18 566.523 228.300  33
   0  -5 -18 756.602 256.002  22
   0   5 -18 606.060 271.202  24
   0   5 -19 4298.07 728.046  14
   0  -5  19 4308.45 597.042  10
   0   5  19 5522.50 707.653  47
   0  -5  19 5383.15 796.818  48
   0  -5  19 4367.49 740.139  44
   0  -5 -19 4866.45 681.416  43
   0   5  19 4590.99 788.983  18
   0  -5  19 4440.10 677.434  20
   0  -5 -19 4652.73 636.083  19
   0  -5  19 5456.27 611.079  33
   0   5 -19 4655.94 685.812  35
   0   5  19 4849.22 717.861  32
   0  -5 -19 4944.89 574.836  22
   0   5 -19 5237.93 645.631  24
   0   5  19 4329.94 658.820  21
   0  -5  20 7495.45 765.811  10
   0   5 -20 9181.71 1017.10  14
   0   5  20 8747.97 891.019  47
   0  -5  20 8008.99 959.750  48
   0  -5 -20 9931.02 929.465  43
   0  -5  20 8210.86 966.715  44
   0  -5 -20 8337.21 824.745  19
   0   5  20 8695.15 1011.71  18
   0  -5  20 8338.27 900.621  20
   0   5 -20 7766.90 857.495  35
   0  -5  20 7553.27 719.784  33
   0   5  20 7700.98 907.278  32
   0   5 -20 8296.43 822.371  24
   0  -5 -20 9545.04 795.708  22
   0   5  20 8502.39 894.404  21
   0   5 -21 88235.3 4011.57  14
   0  -5  21 83899.7 3572.94  10
   0  -5  21 87732.9 4004.73  48
   0   5  21 91819.5 3787.22  47
   0   5  21 90978.9 3882.43  45
   0  -5 -21 90550.0 3772.40  43
   0  -5  21 87982.7 4018.87  44
   0   5  21 85101.3 3997.60  18
   0  -5 -21 90317.0 3682.35  19
   0  -5  21 91497.9 3840.06  20
   0   5 -21 84029.0 3773.15  35
   0   5  21 87719.2 3943.48  32
   0   5  21 88335.6 3818.47  21
   0   5 -21 89022.9 3674.25  24
   0  -5 -21 94314.5 3566.41  22
   0   5 -22 2970.68 590.915  14
   0  -5  22 3213.85 448.886  10
   0   5  22 3022.98 510.525  47
   0   5  22 3682.58 588.814  45
   0  -5  22 2581.45 531.544  48
   0  -5 -22 3058.80 497.987  43
   0  -5  22 4067.14 636.313  44
   0  -5  22 3304.31 539.865  20
   0   5  22 3049.71 517.844  21
   0   5  22 2895.93 544.048  18
   0  -5 -22 2617.15 434.842  19
   0   5 -22 3008.76 502.893  35
   0   5  22 2256.93 517.920  32
   0  -5 -22 3340.54 458.155  22
   0   5 -22 2848.34 464.987  24
   0   5 -23 71098.3 3276.92  14
   0  -5  23 69452.2 2861.14  10
   0   5  23 67999.1 3189.06  45
   0  -5  23 73075.4 3300.87  48
   0   5  23 72519.1 3070.86  47
   0  -5 -23 69683.4 3049.96  43
   0  -5  23 75828.1 3336.85  44
   0  -5  23 72703.2 3119.19  20
   0   5  23 66151.2 3186.17  18
   0   5 -23 70852.5 3102.92  35
   0   5  23 70922.4 3280.46  32
   0   5  23 71374.5 3121.27  21
   0   5 -23 70051.4 2970.62  24
   0  -5 -23 72474.1 2887.66  22
   0   5 -24 1221.30 374.446  14
   0   5  24 1458.33 373.305  45
   0  -5  24 1139.12 390.404  48
   0   5  24 1245.69 325.418  47
   0  -5  24 1725.14 408.082  44
   0  -5  24 1450.41 345.070  20
   0   5  24 1569.69 359.115  18
   0   5 -24 1646.12 353.954  35
   0   5  24 1870.97 443.519  32
   0  -5 -24 1508.50 295.314  22
   0   5 -24 1670.50 321.106  24
   0   5 -25 84344.5 3371.10  14
   0   5  25 74264.5 3260.66   5
   0   5  25 75592.9 3348.65  45
   0  -5  25 78167.6 3332.82  48
   0   5  25 79345.5 3155.91  47
   0  -5 -25 74528.2 3143.00  43
   0  -5  25 81895.5 3383.90  44
   0  -5  25 81619.5 3228.06  20
   0  -5 -25 81965.3 3099.11  19
   0   5 -25 79552.6 3234.47  35
   0   5  25 72399.3 3362.28  32
   0   5  25 80966.3 3243.80  21
   0  -5 -25 75468.0 3006.37  22
   0   5 -26 9072.14 789.504  14
   0   5  26 8818.41 818.055  45
   0   5  26 9146.21 704.821  47
   0  -5 -26 8567.30 704.026  43
   0  -5  26 9308.04 810.671  44
   0   5 -26 9313.56 754.931  35
   0   5  26 9264.10 855.405  32
   0  -5 -26 8883.27 649.228  22
   0   5  26 9526.94 763.280  21
   0  -5  26 8962.89 740.860  20
   0   5  27 15628.7 910.922  47
   0   5 -27 17196.3 1051.40  14
   0  -5  28 2757.71 351.942  48
   0   5  28 2612.78 302.454  47
   0   5 -28 3092.47 377.618  13
   0   5 -29 1180.63 208.635  14
   0   5 -29 861.911 200.868  13
   0   6   0 58432.3 3036.65  46
   0  -6   0 56812.5 2888.46  44
   0  -6   0 63129.6 2786.16  19
   0   6   0 60980.9 2958.20  18
   0  -6   0 59213.0 2771.73  33
   0   6   0 58677.3 3105.81  14
   0  -6   0 59409.4 2671.15   6
   0  -6   1 267.160 201.692   6
   0  -6  -1 130.419 183.334   6
   0   6  -1 477.072 298.195  46
   0   6   1 206.116 241.042  46
   0  -6  -1 178.235 230.440  44
   0  -6   1 239.283 232.027  44
   0  -6  -1 145.507 212.244  19
   0  -6   1-94.0655 226.788  19
   0   6   1 368.255 287.086  18
   0   6  -1 299.216 305.027  18
   0  -6   1 399.561 240.824  33
   0  -6  -1 292.070 234.719  33
   0   6  -1 138.159 312.851  14
   0   6   1 138.909 281.352  14
   0   6   2 28048.9 1911.20  46
   0   6  -2 27581.6 1882.93  46
   0  -6   2 27934.6 1798.27  44
   0  -6  -2 28342.2 1804.71  44
   0  -6   2 31795.2 1711.80  19
   0   6   2 29179.3 1856.47  18
   0   6  -2 28873.4 1803.68  18
   0  -6  -2 29093.4 1701.55  19
   0  -6  -2 30005.1 1695.60  33
   0  -6   2 30876.3 1759.98  33
   0  -6   2 29210.3 1639.82   6
   0  -6  -2 26690.1 1562.89   6
   0   6   2 30391.9 1983.14  14
   0   6  -2 28277.1 1911.20  14
   0   6   3 14354.8 1312.36  46
   0   6  -3 14971.6 1332.37  46
   0  -6  -3 15542.7 1254.60  44
   0  -6   3 16214.2 1281.93  44
   0   6   3 14558.9 1265.65  18
   0  -6  -3 15895.9 1151.59  33
   0  -6   3 17427.9 1230.16  33
   0   6  -3 14852.1 1118.30  35
   0  -6  -3 13490.5 1023.65   6
   0  -6   3 14802.5 1098.51   6
   0   6   3 17874.2 1430.91  14
   0   6  -3 17425.4 1401.93  14
   0   6   4 18525.5 1538.74  46
   0  -6   4 23441.9 1653.97  48
   0   6  -4 21389.3 1636.84  46
   0  -6   4 23190.0 1585.77  44
   0  -6  -4 22611.8 1541.75  44
   0   6   4 24236.4 1664.74  18
   0  -6  -4 21657.8 1389.45  33
   0   6  -4 22188.5 1438.25  35
   0  -6   4 22875.3 1477.28  33
   0  -6  -4 21930.7 1341.23   6
   0  -6   4 21999.1 1379.86   6
   0   6   4 25253.6 1744.36  14
   0   6  -4 23538.9 1687.74  14
   0   6  -5 4227.29 680.162  46
   0  -6   5 5096.25 738.058  48
   0  -6   5 3874.08 641.181  44
   0  -6   5 4350.50 500.818  20
   0   6   5 4924.47 719.095  18
   0   6  -5 3403.09 567.924  18
   0  -6  -5 4922.42 634.855  19
   0   6  -5 4299.74 594.625  35
   0  -6   5 3712.78 561.074  33
   0  -6   5 5248.38 618.240   6
   0  -6  -5 3973.35 519.088   6
   0   6  -5 3895.15 642.153  14
   0   6   5 4773.57 731.199  14
   0  -6   6 33299.0 2005.18  48
   0   6   6 27900.9 1893.15  46
   0   6  -6 29784.7 1963.24  46
   0  -6   6 30310.4 1855.35  44
   0  -6  -6 31845.2 1778.36  19
   0  -6   6 27852.7 1519.67  20
   0   6  -6 31120.2 1814.52  18
   0   6   6 30701.2 1941.50  18
   0  -6   6 30708.7 1781.06  33
   0   6  -6 29713.7 1758.56  35
   0  -6   6 29891.3 1676.30   6
   0  -6  -6 27506.6 1552.89   6
   0   6   6 30521.1 1981.93  14
   0   6  -6 32281.6 1998.88  14
   0   6   7 19776.4 1513.38  46
   0  -6   7 21900.6 1576.85  48
   0   6  -7 20741.7 1555.08  46
   0  -6   7 17952.7 1382.42  44
   0   6   7 20934.4 1568.91  18
   0  -6  -7 20824.7 1365.50  19
   0   6  -7 17868.6 1310.98  18
   0  -6   7 17004.5 1137.38  20
   0  -6  -7 20011.6 1259.47  33
   0   6  -7 18688.2 1347.51  35
   0  -6   7 22282.7 1429.75  33
   0  -6   7 19359.5 1288.64   6
   0   6   7 22446.5 1624.43  14
   0   6  -7 19839.8 1507.11  14
   0   6  -8 29876.0 1919.10  46
   0   6   8 29238.0 1881.71  46
   0  -6   8 29005.6 1806.82  44
   0  -6   8 25238.2 1474.40  20
   0   6   8 29577.9 1950.45  18
   0  -6  -8 31877.8 1748.33  19
   0   6  -8 29523.0 1744.28  35
   0  -6  -8 29466.1 1578.38  33
   0  -6   8 26927.8 1670.39  33
   0   6   8 34297.4 2047.77  14
   0   6  -8 27334.6 1846.49  14
   0  -6   8 29264.2 1648.75   6
   0  -6   9 3293.38 497.346   6
   0   6   9 2910.44 558.664  46
   0   6  -9 2036.68 501.721  46
   0  -6   9 3202.86 542.457  44
   0  -6   9 2781.03 428.329  20
   0   6   9 3123.24 583.166  18
   0  -6  -9 2612.71 464.844  19
   0   6  -9 3467.60 551.134  35
   0  -6  -9 2646.94 410.305  33
   0  -6   9 2911.71 494.427  33
   0   6   9 2844.35 475.594  32
   0   6  -9 3478.51 607.425  14
   0   6   9 2893.02 605.777  14
   0  -6  10 1205.00 327.773   6
   0  -6  10 1367.81 412.722  48
   0   6 -10 723.702 317.307  46
   0   6  10 946.476 340.661  46
   0  -6  10 1803.26 423.350  44
   0   6  10 1610.09 465.383  18
   0  -6  10 936.585 268.377  20
   0  -6 -10 1321.79 359.433  19
   0   6 -10 1390.93 382.101  35
   0  -6 -10 1139.73 281.565  33
   0   6  10 1040.94 310.027  32
   0  -6  10 1113.27 306.794  33
   0   6  10 796.631 340.163  14
   0   6 -10 1423.96 429.695  14
   0  -6  11 9428.96 1000.59  48
   0   6 -11 9729.27 961.664  46
   0   6  11 10252.1 959.222  46
   0  -6  11 9905.87 966.733  44
   0  -6 -11 10248.1 893.167  19
   0   6  11 9352.11 1032.23  18
   0  -6  11 9756.71 814.835  20
   0   6 -11 9600.57 931.270  35
   0  -6 -11 9879.84 754.374  33
   0  -6  11 10478.6 918.389  33
   0   6  11 9945.18 901.270  32
   0   6 -11 10804.6 1033.68  14
   0   6  11 11814.1 1120.82  14
   0  -6  12 67336.2 3177.14  48
   0   6 -12 61891.1 3026.78  46
   0   6  12 65626.2 2992.75  46
   0  -6  12 69852.5 3132.89  44
   0  -6 -12 72517.2 2998.12  19
   0   6  12 69351.7 3327.22  18
   0  -6  12 61013.4 2784.58  20
   0  -6 -12 66579.5 2684.42  33
   0   6 -12 63815.0 3030.80  35
   0  -6  12 71264.7 3000.62  33
   0   6  12 65853.7 2970.04  32
   0   6 -12 71686.9 3214.19  14
   0   6  12 72116.6 3330.34  14
   0  -6  13 15278.9 1235.20  48
   0  -6  13 12116.1 1081.96  44
   0  -6  13 14523.2 1010.48  20
   0   6  13 14671.3 1268.79  18
   0  -6 -13 13125.6 1009.94  19
   0  -6  13 17721.5 1139.44  33
   0   6 -13 13835.8 1124.89  35
   0  -6 -13 13988.3 867.049  33
   0   6  13 15213.7 1118.32  32
   0   6  13 18036.3 1356.84  14
   0   6 -13 15664.8 1234.10  14
   0   6 -14 18193.1 1250.65  46
   0  -6  14 18372.7 1351.42  48
   0  -6  14 18601.9 1316.35  44
   0  -6  14 18539.3 1171.43  20
   0   6  14 17618.1 1399.23  18
   0  -6 -14 19251.0 1207.37  19
   0  -6  14 20639.3 1230.28  33
   0   6  14 17911.6 1239.09  32
   0   6  14 20898.3 1497.37  14
   0   6 -14 20503.8 1416.04  14
   0  -6  15-48.9675 181.060  44
   0  -6  15 74.1512 183.924  20
   0  -6 -15 75.7372 146.861  19
   0   6  15 175.791 237.340  18
   0   6 -15 42.3475 148.552  46
   0  -6  15 104.282 236.119  48
   0   6 -15 51.6133 233.729  14
   0   6  15 231.623 262.222  14
   0  -6  16 68061.2 2986.88  44
   0  -6 -16 69997.8 2808.45  19
   0   6  16 69172.3 3143.32  18
   0  -6  16 61428.5 2732.97  20
   0   6 -16 62298.2 2930.49  35
   0  -6  16 63925.0 2988.87  48
   0   6 -16 73218.3 3076.69  14
   0   6  16 73396.8 3177.14  14
   0  -6  17 229.207 227.399  48
   0  -6  17-88.1967 212.590  44
   0  -6  17 68.3205 169.456  20
   0  -6 -17-33.0240 133.761  19
   0   6 -17-88.0636 291.228  35
   0  -6  17 139.626 142.324  33
   0   6 -17 91.2447 238.554  14
   0   6  17 298.122 253.229  14
   0  -6  18 19279.4 1234.84  44
   0   6 -18 20186.5 1253.38  35
   0  -6 -18 19730.3 1123.98  19
   0  -6  18 19384.0 1258.20  48
   0   6 -18 21076.0 1287.75  14
   0   6  18 20363.5 1320.00  14
   0  -6  19 273.182 199.155  48
   0   6 -19 406.115 228.643  14
   0   6  19 324.466 264.225  14
   0  -6  20 61276.6 2679.22  48
   0   6  20 66322.0 2744.61  14
   0   6 -20 68762.2 2701.69  14
   0  -6  21 2925.57 398.342  48
   0   6 -21 3478.68 404.226  14
   0   6  21 3633.51 431.467  14
   0  -6  22 5661.99 513.448  48
   0   6 -22 6558.24 502.505  14
   0   7   0 250.341 163.808  14
   0   7  -1 186.115 162.267  14
   0   7   1 125.409 168.054  14
   0   7  -2 5343.81 535.722  14
   0   7   2 5992.15 567.789  14
   0   7   3 36992.0 1683.17  14
   0   7  -3 33915.5 1634.83  14
   0   7  -4 10788.8 750.949  14
   0   7   4 9568.14 729.212  14
   0   7   5 18634.2 1072.04  14
   0   7  -5 18363.5 1040.41  14
   0   7  -6 8671.81 649.499  14
   0   7   6 8297.30 648.820  14
   0   7   7 21290.0 1120.29  14
   0   7  -7 20720.7 1080.81  14
   0   7   8 170.098 139.400  14
   0   7  -8 338.845 149.607  14
   0   7   9 21752.0 1063.49  14
   1   0   0 228.455 51.0139  39
  -1   0   0 124.787 248.007   4
  -1   0   0 24.2317 43.2187   3
   1   0  -1 420508. 13540.2  39
   1   0   1 430857. 13487.9  39
  -1   0   1 464996. 14336.4   4
  -1   0   1 411315. 13583.0   3
  -1   0   1 450565. 13528.7   1
   1   0   2 780664. 23546.0  39
  -1   0  -2 803795. 24050.9  29
  -1   0   2 744199. 23592.1   1
   1   0   2 725303. 23595.8  40
   1   0  -2 711370. 23623.8  39
  -1   0  -3 52479.5 2116.92  29
   1   0  -3 53360.1 1999.03  28
  -1   0   3 49319.7 2032.02  29
  -1   0   3 53786.7 2275.55   4
  -1   0   3 47430.6 1948.04   2
   1   0   3 49362.5 1716.05  40
   1   0  -3 50944.4 1836.95  39
   1   0  -3 49377.8 1646.76  41
  -1   0   4 511624. 17116.7  29
  -1   0  -4 571080. 17272.9  29
   1   0  -4 581372. 17119.3  28
  -1   0  -4 556975. 17720.4   4
  -1   0   4 564564. 17178.0   2
   1   0   4 532431. 16764.9  40
   1   0  -4 479939. 16935.1  39
   1   0   5 676802. 21170.7  16
   1   0   5 624015. 21002.5  27
   1   0  -5 735439. 21339.4  28
  -1   0  -5 744878. 21515.1  29
  -1   0   5 641750. 21301.0   3
  -1   0   5 719097. 21481.1   2
  -1   0  -5 720608. 22017.0   4
   1   0   5 653314. 20967.0  40
   1   0  -6 180.992 98.6255  15
   1   0   6 434.131 150.861  16
   1   0   6 260.609 59.9730  27
  -1   0  -6 696.668 232.417  29
   1   0  -6 595.654 191.208  28
  -1   0   6 270.741 172.727   2
  -1   0  -6 442.212 281.866   4
   1   0   6 313.706 95.1105  40
   1   0   7 1400.77 215.801  16
   1   0  -7 1346.03 195.957  15
  -1   0  -7 1298.01 289.810  29
   1   0  -7 1212.77 234.552  28
  -1   0  -7 1407.74 424.861   4
  -1   0   7 1193.39 294.736   2
   1   0   7 1510.69 189.990  40
   1   0   8 41211.0 1711.94  16
   1   0  -8 40960.1 1690.61  15
   1   0   8 43377.3 1666.06  40
  -1   0  -8 42194.9 1929.75  29
   1   0  -8 43858.3 1859.85  28
  -1   0   8 41856.2 2082.11   2
   1   0   8 44200.7 1566.52   2
  -1   0  -8 41660.5 2344.30   4
   1   0  -9 6095.90 475.895  15
   1   0   9 5602.05 460.647  16
  -1   0   9 5966.89 581.927  16
   1   0   9 6061.73 468.828  40
   1   0  -9 6093.41 554.952  28
   1   0   9 6731.63 433.842   2
  -1   0   9 5502.06 660.621   2
  -1   0  -9 5293.05 780.821   4
   1   0  10 190813. 6336.32  16
   1   0 -10 183271. 6344.56  15
   1   0 -10 177923. 6801.03  17
  -1   0  10 179821. 6573.44  16
   1   0  10 193332. 6359.52  40
   1   0 -10 181634. 6497.26  28
   1   0  10 193676. 6283.52   2
  -1   0  10 194444. 6933.42   2
  -1   0 -10 187455. 7241.11   4
   1   0 -11 25678.6 1298.19  15
   1   0  11 27475.2 1287.30  16
  -1   0 -11 24555.1 1430.19  29
   1   0 -11 27814.9 1429.99  28
  -1   0  11 29231.6 1729.67   2
   1   0  11 26391.2 1266.51   2
  -1   0 -11 27595.9 1895.84   4
   1   0 -11 24389.3 1565.62  17
   1   0 -12 73011.0 2893.72  15
   1   0  12 74128.8 2833.90  16
   1   0 -12 66674.9 3162.34  17
  -1   0  12 70484.2 3105.95  16
  -1   0 -12 73062.0 3033.04  29
   1   0 -12 66716.0 2967.14  28
   1   0  12 77728.1 2891.92   2
  -1   0  12 77596.3 3416.98   2
  -1   0 -12 79033.3 3681.25   4
   1   0  13 458931. 14904.7  16
   1   0 -13 458104. 14994.3  15
   1   0 -13 440735. 15206.1  39
   1   0 -13 426223. 15263.3  17
  -1   0  13 463916. 15318.6  16
   1   0 -13 445781. 15117.7  28
  -1   0 -13 440918. 15076.4  29
   1   0  13 488192. 14978.6   2
  -1   0  13 491262. 15662.1   2
  -1   0  14 348.170 254.044  16
   1   0 -14 494.290 203.952  15
   1   0  14 388.871 185.103  16
  -1   0  14 340.251 67.3438  41
   1   0 -14 628.798 293.981  17
   1   0 -14 152.668 230.645  39
   1   0 -14 236.082 191.483  28
  -1   0 -14 327.532 185.649  29
   1   0  14 374.745 169.972   2
  -1   0  14-67.4632 193.454   2
   1   0 -15 141196. 5068.15  15
   1   0  15 131194. 4999.09  16
  -1   0  15 144894. 5667.81   2
  -1   0 -15 164688. 5402.36   8
  -1   0 -15 134976. 5747.25   4
   1   0  15 149291. 5090.89   2
  -1   0  15 138397. 5297.23   5
  -1   0  15 129175. 5307.64  45
   1   0 -15 130810. 5272.30  39
  -1   0 -15 136282. 4999.26  43
  -1   0 -15 139730. 4958.09  19
   1   0 -15 111742. 5079.54  17
  -1   0  15 123560. 5418.54  16
  -1   0 -15 145653. 5064.51  34
  -1   0 -15 132612. 5008.65  29
   1   0 -15 118113. 5140.15  28
  -1   0  15 138073. 5359.02  32
  -1   0  15 116787. 5037.47  23
  -1   0 -15 128741. 4910.29  22
   1   0  16 67149.9 3017.74  16
   1   0 -16 70415.7 3085.66  15
   1   0  16 77096.9 3121.19   2
  -1   0  16 77841.5 3639.48   2
  -1   0  16 72337.3 3279.16   5
  -1   0 -16 71731.1 3658.62   4
  -1   0  16 70719.7 3329.95  45
  -1   0 -16 71308.6 3012.24  43
   1   0 -16 69456.1 3286.34  39
  -1   0  16 65706.6 3517.13  16
  -1   0 -16 74549.6 2986.32  19
   1   0 -16 66248.0 2829.82  34
  -1   0 -16 75182.4 3137.78  34
   1   0 -16 62972.5 3123.12  28
  -1   0 -16 70280.5 3025.64  29
  -1   0  16 71849.6 3329.76  32
  -1   0  16 60183.5 3098.23  23
  -1   0 -16 70994.0 2959.95  22
   1   0 -17 43800.2 2165.41  15
   1   0  17 43100.1 2141.73  16
  -1   0  17 43743.4 1955.58   7
  -1   0 -17 44517.9 3147.59   8
   1   0  17 47617.9 2231.56   2
  -1   0 -17 45880.8 2705.34   4
  -1   0  17 45749.8 2624.36   2
  -1   0  17 45767.3 2352.04   5
  -1   0  17 43992.9 2397.77  45
  -1   0 -17 43818.6 2100.48  43
  -1   0  17 41648.2 2600.45  16
   1   0 -17 43352.6 2198.89  17
   1   0 -17 39131.5 1903.03  34
  -1   0 -17 43583.2 2183.38  34
   1   0 -17 40758.5 2214.88  28
  -1   0 -17 39328.8 2009.87  29
  -1   0  17 44558.9 2400.68  32
  -1   0  17 41330.5 2101.02  21
   1   0  17 39468.8 1752.22  23
  -1   0 -17 42857.6 2039.40  22
  -1   0  17 41883.2 2329.11  23
  -1   0 -18 26811.6 2001.31   4
  -1   0 -18 20360.6 1685.49   8
  -1   0  18 25098.4 1690.66   5
  -1   0  18 26425.4 1963.80   2
   1   0  18 27729.2 1646.38   2
  -1   0  18 25363.0 1358.67   7
  -1   0  18 26113.3 1558.00  21
  -1   0 -18 20012.4 1477.54  24
   1   0  18 26112.3 1256.64  23
  -1   0 -18 27873.4 1519.89  22
  -1   0  18 24422.2 1673.18  23
   1   0 -18 22923.6 1376.20  24
   1   0  18 25299.9 1420.10  21
  -1   0 -18 26700.9 1545.61  43
   1   0 -18 23847.8 1500.17  17
  -1   0  18 25902.9 1920.22  16
  -1   0 -18 25302.2 1550.65  34
   1   0 -18 25482.6 1380.63  34
  -1   0  18 26796.9 1779.65  32
  -1   0  18 33481.6 2056.52  31
   1   0 -18 25037.5 1635.01  28
  -1   0 -18 26334.5 1491.57  29
   1   0  18 25671.4 1563.28  16
  -1   0 -19 71807.8 3114.16  24
   1   0  19 72860.6 2880.46  23
  -1   0 -19 72007.4 3156.32  22
   1   0  19 73055.6 3107.51  21
  -1   0  19 77352.7 3499.42  23
   1   0 -19 76463.1 2859.58  22
   1   0 -19 65601.6 3005.60  24
  -1   0  19 77162.2 3307.29  21
  -1   0 -19 79298.7 3278.72  43
  -1   0  19 71446.6 3704.97  16
   1   0 -19 75718.3 3207.91  17
   1   0  19 77418.0 3332.63  16
  -1   0 -19 78904.5 3290.64  34
   1   0 -19 70215.1 2994.03  34
  -1   0  19 92219.8 3649.93  31
  -1   0  19 75231.8 3574.87  32
   1   0 -19 69010.3 3348.96  28
  -1   0 -19 75751.2 3145.36  29
  -1   0  19 72615.1 3486.05   5
  -1   0 -19 81077.1 3965.02   4
  -1   0  19 78145.4 3890.08   2
  -1   0 -19 70035.4 3378.16   8
  -1   0  19 74706.7 2987.06   7
  -1   0  20 10290.2 1059.60  23
  -1   0  20 11239.0 1004.87  21
   1   0  20 12514.2 964.981  21
   1   0 -20 10251.0 842.185  24
   1   0 -20 11203.0 759.858  22
  -1   0 -20 12106.5 913.539  24
  -1   0 -20 12993.9 1005.88  22
   1   0  20 11655.0 806.384  23
  -1   0 -20 12597.0 1024.55  43
   1   0 -20 11890.9 936.695  17
   1   0  20 11852.9 1029.49  16
  -1   0  20 10551.5 1216.27  16
  -1   0 -20 12422.9 1009.87  34
   1   0 -20 9680.34 817.386  34
  -1   0 -20 12560.0 943.540  29
  -1   0  20 12841.1 1059.47  31
   1   0 -20 10639.4 1064.41  28
  -1   0  20 11221.2 1168.74  32
  -1   0  20 11584.2 1310.87   2
  -1   0 -20 10861.0 1009.16   8
  -1   0  20 12873.2 1188.29   5
  -1   0 -20 13308.8 1380.16   4
  -1   0  20 11962.4 837.812   7
  -1   0  21 50472.8 2681.39  23
  -1   0  21 50782.6 2564.92  21
  -1   0 -21 51244.2 2306.78  24
   1   0 -21 44404.0 2232.34  24
   1   0  21 49366.3 2196.71  23
   1   0 -21 50856.9 2139.74  22
   1   0  21 51293.4 2428.45  21
  -1   0 -21 46676.0 2403.29  22
  -1   0 -21 49388.7 2514.06  43
  -1   0  21 49640.8 2921.19  16
   1   0  21 47642.2 2544.88  16
   1   0 -21 53820.2 2358.71  17
   1   0 -21 49351.1 2292.74  34
  -1   0 -21 53572.7 2503.64  34
  -1   0  21 51430.5 2829.91  32
   1   0 -21 51361.1 2674.78  28
  -1   0  21 51933.3 2489.27  31
  -1   0 -21 49583.3 2993.48   4
  -1   0  21 55744.3 2841.13   5
  -1   0  21 56688.5 2258.55   7
  -1   0  21 46621.5 3079.28   3
  -1   0 -21 48958.7 2517.69   8
  -1   0  21 52500.4 3139.18   2
  -1   0 -22 35704.8 1996.34   8
  -1   0  22 31808.0 2493.94   3
  -1   0  22 35621.0 2518.07   2
  -1   0 -22 34696.7 2368.74   4
  -1   0  22 32365.7 2113.97   5
  -1   0  22 31149.9 2130.85  45
  -1   0  22 32473.6 1899.53  44
  -1   0 -22 36143.1 1997.85  43
   1   0  22 35425.5 2067.15  16
  -1   0  22 32995.5 2292.29  16
   1   0 -22 34614.8 1729.72  17
  -1   0 -22 35622.9 1936.00  34
   1   0 -22 34559.2 1780.62  34
  -1   0  22 30360.6 2110.45  32
   1   0 -22 32167.3 2061.20  28
  -1   0  22 34170.1 1896.56  31
  -1   0 -22 36909.7 1786.02  24
  -1   0  22 33685.8 1985.64  21
  -1   0 -22 34428.7 1894.60  22
   1   0  22 33021.9 1668.67  23
  -1   0  22 29756.9 2008.12  23
   1   0 -22 30705.2 1703.34  24
   1   0 -22 33981.0 1608.70  22
   1   0  22 34210.5 1884.26  21
   1   0 -23 12253.3 1121.25  14
  -1   0  23 13471.1 1491.32   2
  -1   0  23 11585.6 1182.57   5
  -1   0  23 11108.4 1426.47   3
  -1   0 -23 10905.0 1038.01   8
  -1   0  23 12011.6 1245.89  45
  -1   0  23 12194.7 1047.21  44
   1   0  23 11420.6 1241.80  41
  -1   0 -23 12244.7 1087.09  43
  -1   0  23 12177.1 1337.89  16
   1   0 -23 10947.3 848.334  17
   1   0  23 11827.3 1126.16  16
  -1   0 -23 12778.2 1062.65  34
   1   0 -23 12147.7 939.852  34
  -1   0  23 12117.3 1017.57  31
   1   0 -23 12486.1 1195.28  28
   1   0 -23 10434.8 864.113  24
  -1   0 -23 9996.89 952.142  22
  -1   0  23 11600.0 1102.21  21
   1   0  23 10442.7 848.441  23
   1   0  23 11887.5 1028.27  21
   1   0 -23 11401.9 813.132  22
  -1   0  23 11822.4 1164.23  23
  -1   0 -23 11296.5 891.175  24
   1   0 -24 54271.0 2817.40  14
  -1   0 -24 55870.9 2732.26  14
  -1   0 -24 56940.9 2776.53   8
  -1   0  24 55187.3 3422.15   2
  -1   0  24 48581.7 3394.03   3
  -1   0  24 55515.5 3004.49   5
  -1   0  24 57218.7 2753.77  44
  -1   0  24 54468.3 3050.63  45
  -1   0 -24 56979.8 2794.76  43
   1   0  24 61020.8 3223.93  41
   1   0 -24 55983.7 2385.57  17
   1   0  24 58487.3 2981.16  16
  -1   0  24 50467.5 3129.96  16
   1   0 -24 59011.5 2596.95  34
  -1   0 -24 59127.9 2767.17  34
  -1   0  24 54076.8 2750.82  36
   1   0  24 52195.1 2418.30  31
   1   0 -24 58217.4 3021.60  28
  -1   0  24 55248.5 2646.73  31
  -1   0  24 49809.2 2851.47  23
   1   0  24 58436.7 2728.61  21
   1   0  24 52456.4 2472.43  23
  -1   0 -24 53728.3 2467.99  24
   1   0 -24 49009.5 2416.23  24
  -1   0 -24 52235.8 2632.70  22
  -1   0  24 55158.6 2824.34  21
   1   0 -24 55633.3 2353.43  22
  -1   0 -25 10819.0 1030.10  14
   1   0 -25 10963.2 1089.30  14
   1   0  25 8580.86 1186.48   3
  -1   0  25 12384.2 1469.12   2
  -1   0  25 10869.4 1462.25   3
  -1   0 -25 10699.1 1065.08   8
  -1   0  25 10803.6 914.654  47
  -1   0  25 11389.5 1237.75  45
  -1   0  25 10668.2 1023.10  44
  -1   0 -25 12508.3 1116.04  43
   1   0  25 10064.8 1103.59  16
   1   0 -25 10468.5 784.470  17
  -1   0  25 10955.8 1295.68  16
  -1   0  25 11505.6 1057.64  36
   1   0 -25 10054.7 888.055  34
  -1   0 -25 10063.1 1002.82  34
   1   0 -25 9999.20 737.245  35
   1   0  25 10211.1 871.164  31
  -1   0  25 11011.1 991.076  31
   1   0 -25 13250.8 1259.25  28
   1   0  25 10251.9 988.186  21
   1   0 -25 8759.21 823.905  24
   1   0  25 10896.6 924.497  23
  -1   0 -25 9710.62 970.492  22
  -1   0  25 10112.8 1057.30  21
  -1   0  25 10984.2 1144.94  23
  -1   0 -25 11128.3 893.436  24
  -1   0 -26 112056. 4479.70  14
   1   0 -26 104394. 4533.96  14
   1   0  26 92303.4 4946.19   3
  -1   0 -26 103983. 4462.17   8
  -1   0  26 101707. 5437.56   3
  -1   0  26 100353. 4140.35  47
  -1   0  26 102684. 4398.09  44
  -1   0  26 108740. 4870.03  45
  -1   0 -26 108519. 4489.84  43
   1   0  26 110495. 4785.30  16
  -1   0  26 101270. 5012.02  16
   1   0 -26 91232.5 3768.86  35
  -1   0 -26 112796. 4446.09  34
  -1   0  26 111928. 4433.93  36
   1   0 -26 99776.1 4158.66  34
  -1   0  26 102513. 4802.78  32
  -1   0  26 105489. 4317.45  31
   1   0  26 107047. 4123.64  31
   1   0 -26 105411. 4831.39  28
  -1   0 -26 102075. 4331.20  22
  -1   0  26 105378. 4567.73  21
   1   0 -26 101840. 4097.60  24
  -1   0 -26 104621. 4112.20  24
   1   0  26 104916. 4374.93  21
   1   0  26 109012. 4247.51  23
  -1   0  26 104878. 4674.04  23
   1   0 -27 253568. 8900.05  14
  -1   0 -27 247922. 8677.42  14
   1   0  27 217846. 9352.22   3
  -1   0 -27 233984. 8690.68   8
  -1   0  27 233524. 9909.61   3
  -1   0  27 235595. 8631.18  44
  -1   0  27 230742. 8323.06  47
  -1   0  27 232091. 9053.99  45
  -1   0 -27 243336. 8728.39  43
   1   0  27 238075. 9208.00  41
  -1   0  27 219405. 9311.34  16
   1   0  27 236669. 9050.91  16
   1   0 -27 212488. 7889.62  35
  -1   0 -27 244295. 8647.45  34
  -1   0  27 238893. 8545.91  36
   1   0 -27 260408. 8510.59  34
  -1   0  27 244417. 8554.26  31
  -1   0  27 235040. 9103.19  32
   1   0  27 231267. 8324.81  31
   1   0 -27 262013. 9239.48  28
  -1   0  27 222370. 9085.97  30
  -1   0 -27 235713. 8272.18  24
  -1   0  27 231782. 8903.56  23
  -1   0  27 246600. 8888.81  21
   1   0  27 243145. 8633.35  21
   1   0  27 238369. 8454.36  23
  -1   0 -27 240246. 8588.26  22
   1   0 -27 235939. 8293.26  24
  -1   0 -28 42507.7 2269.97  14
   1   0 -28 39630.8 2339.76  14
   1   0  28 38497.8 2289.98  44
  -1   0  28 39638.0 2512.32  45
  -1   0  28 36664.4 2166.09  44
  -1   0  28 36100.5 1952.12  47
   1   0  28 41473.9 2603.39  41
  -1   0 -28 40405.9 2298.66  43
  -1   0  28 40697.2 3067.64   3
  -1   0 -28 36141.7 2201.81   8
   1   0  28 33981.7 2608.03   3
   1   0 -28 36254.5 1654.41  35
  -1   0  28 37601.9 2077.43  36
  -1   0 -28 39018.4 2193.50  34
   1   0 -28 41025.8 2106.50  34
   1   0  28 38442.4 2005.86  31
  -1   0  28 39564.8 2560.08  30
  -1   0  28 36421.7 2085.70  31
   1   0 -28 37438.3 2498.43  28
  -1   0  28 36395.8 2463.26  32
   1   0 -28 38719.3 1971.42  24
  -1   0 -28 36096.4 2113.18  22
  -1   0  28 36721.2 2381.50  23
   1   0  28 37626.7 2167.49  21
   1   0  28 39376.9 2114.58  23
  -1   0 -28 36556.2 1921.95  24
  -1   0  28 39095.8 2342.87  21
   1   0 -29 86948.0 4010.65  14
  -1   0 -29 88525.3 3856.90  14
  -1   0  29 88741.2 4198.18  45
  -1   0  29 84522.5 3840.95  44
   1   0  29 83436.5 3938.35  44
  -1   0  29 86115.4 3569.79  47
  -1   0 -29 85150.3 3900.75  43
   1   0  29 85278.7 4266.10  41
  -1   0  29 88592.4 3673.15  36
   1   0 -29 92512.3 3743.44  34
  -1   0 -29 86143.7 3831.94  34
  -1   0 -29 86121.2 3797.60  22
   1   0  29 87052.1 3760.30  23
  -1   0  29 87077.0 4031.98  21
  -1   0  29 83475.3 4090.54  23
   1   0  29 84419.1 3815.45  21
   1   0 -29 90702.8 3591.92  24
  -1   0 -29 84345.5 3513.14  24
  -1   0  29 86904.9 4206.56  32
  -1   0  29 86095.3 3760.29  31
  -1   0  29 82589.5 4196.33  30
   1   0  29 81473.5 3619.83  31
  -1   0 -29 82020.0 3889.45   8
  -1   0 -30 36451.8 2079.06  14
   1   0 -30 36342.2 2213.49  14
  -1   0  30 33521.1 1813.96  47
  -1   0  30 34329.0 2275.24  45
   1   0  30 35760.2 2176.16  44
  -1   0  30 29347.5 1957.42  44
  -1   0 -30 35708.4 2159.82   8
   1   0 -30 36769.4 1982.16  34
  -1   0 -30 38856.1 2132.93  34
  -1   0  30 32724.3 1948.89  31
  -1   0  30 31104.7 2186.29  32
  -1   0  30 33903.1 2317.00  30
   1   0  30 37193.7 1958.49  31
  -1   0 -30 32892.7 1982.26  22
  -1   0 -30 36429.4 1830.99  24
  -1   0  30 32560.3 2208.65  23
   1   0  30 35132.9 2015.93  23
   1   0  30 35013.2 2059.61  21
  -1   0  30 32971.8 2120.24  21
   1   0 -30 36346.8 1853.38  24
   1   0 -31 15940.1 1349.33  14
  -1   0 -31 13976.0 1185.55  14
  -1   0  31 13283.1 1176.80  44
  -1   0  31 13134.6 1275.90  45
   1   0  31 15042.2 1301.37  44
   1   0  31 14593.4 994.769  20
  -1   0 -31 12458.0 1196.74   8
  -1   0 -31 13779.8 1200.81  34
  -1   0  31 13607.7 1128.01  31
  -1   0  31 13826.1 1371.38  30
  -1   0  31 13827.4 1322.40  32
   1   0  31 16549.0 1187.28  31
   1   0  31 13849.7 1183.90  21
   1   0 -31 15664.2 1095.73  24
  -1   0  31 14531.0 1302.16  21
   1   0  31 13584.8 1161.52  23
  -1   0  31 14268.7 1354.28  23
  -1   0 -32 59264.5 2784.74  14
   1   0 -32 56325.4 2906.83  14
  -1   0  32 57931.0 2806.76  44
   1   0  32 56039.6 2887.22  44
  -1   0  32 52677.6 2889.98  45
   1   0  32 56137.3 2437.89  20
  -1   0 -32 54578.4 2838.67   8
   1   0 -32 60381.8 2722.99  34
  -1   0 -32 58802.8 2831.41  34
  -1   0  32 58613.0 2724.20  31
   1   0  32 55526.7 2665.54  31
  -1   0  32 56784.3 2945.21  21
   1   0  32 55539.7 2752.68  21
  -1   0  32 56535.3 3046.47  23
   1   0 -32 54765.6 2515.29  24
   1   0  32 53416.5 2712.11  23
   1   0 -33 108488. 4483.22  14
  -1   0 -33 106086. 4267.39  14
  -1   0 -33 103143. 4436.11   8
   1   0  33 105620. 4447.10  44
  -1   0  33 98016.4 4358.42  45
  -1   0  33 103327. 4277.68  44
   1   0  33 102495. 3899.42  20
   1   0 -33 106402. 4212.34  34
  -1   0 -33 103962. 4305.80  34
  -1   0  33 101615. 4173.71  31
   1   0  33 107851. 4249.08  31
   1   0  33 102368. 4280.82  23
  -1   0  33 102350. 4455.07  21
  -1   0  33 98234.1 4544.02  23
   1   0  33 104373. 4274.32  21
   1   0 -34 531.101 308.689  14
  -1   0 -34 587.704 336.749   8
  -1   0  34 208.207 251.088  45
   1   0  34 275.141 233.878  47
  -1   0  34 351.188 268.957  44
   1   0  34 231.324 270.613  44
   1   0  34 97.6541 213.794  21
  -1   0  34 421.236 263.410  21
   1   0 -34 365.365 226.727  34
  -1   0 -34 209.337 229.125  34
   1   0  34 188.006 198.344  31
  -1   0  34 414.958 302.689  23
   1   0  34 362.557 249.846  23
  -1   0 -34 236.966 207.527  22
   1   0 -35 7531.60 816.651  14
   1   0  35 6617.93 687.745  47
   1   0  35 5410.42 694.223  44
  -1   0  35 5698.71 649.364  44
  -1   0  35 5864.19 716.061  21
   1   0  35 5348.92 629.115  21
  -1   0 -35 6545.72 756.764   8
   1   0 -35 7020.82 693.418  34
  -1   0 -35 4938.26 633.294  34
   1   0  35 6807.46 709.393  31
  -1   0  35 5864.47 749.123  30
   1   0 -35 6493.03 609.131  24
   1   0  35 5678.08 670.611  23
  -1   0  35 6410.95 812.055  23
   1   0 -36 19186.4 1319.18  14
   1   0  36 18012.8 1268.67  44
   1   0  36 20842.4 1225.50  47
   1   0  36 18993.4 1169.45  21
  -1   0  36 16576.2 1243.38  21
  -1   0 -36 18094.7 1287.09   8
  -1   0 -36 17750.8 1214.99  34
   1   0 -36 20710.7 1219.92  34
   1   0  36 18621.8 1195.94  31
  -1   0  36 18290.0 1290.02  30
   1   0 -36 18041.6 1069.57  24
  -1   0  36 18696.0 1381.41  23
   1   0  36 18713.2 1221.33  23
   1   0 -37 17766.1 1214.77  14
   1   0  37 18513.7 1208.43  44
  -1   0  37 17264.1 1191.52  21
  -1   0 -37 16875.4 1171.69   8
   1   0 -37 15906.5 1036.80   8
   1   0 -37 18624.6 1103.31  34
  -1   0 -37 16223.0 1112.72  34
   1   0  37 19275.7 1160.68  31
  -1   0  37 18738.1 1194.37  30
  -1   0  37 17066.7 1264.89  23
   1   0  37 16871.1 1097.10  23
   1   0 -37 18077.9 996.951  24
   1   0 -38 42624.3 2011.39  14
   1   0  38 42550.9 1983.62  44
  -1   0  38 40707.2 1986.48  21
  -1   0 -38 40975.7 1930.30  34
  -1   0  38 42641.4 2110.52  23
   1   0  38 45233.5 1943.93  31
  -1   0 -38 41913.8 1992.97   8
   1   0 -38 39354.5 1850.37   8
  -1   0 -39 317.215 212.627  37
   1   0 -39 251.310 172.489  14
  -1   0 -40 668.098 220.209  37
   1   0 -40 875.597 206.487  14
  -1  -1 -40 42360.8 1946.48  37
   1   1 -40 50784.1 1897.25  14
  -1  -1 -39 1060.09 305.458  37
   1   1 -39 1776.11 297.156  14
   1   1 -38 31626.6 1565.68   8
   1   1 -38 35896.8 1553.49  24
  -1   1  38 33583.9 1760.68  23
  -1   1  38 33325.3 1653.17  21
  -1  -1 -38 34354.6 1847.18  37
   1  -1  38 33400.7 1628.24  31
   1   1 -38 35511.8 1696.34  14
   1   1 -37 2434.20 371.753   8
  -1   1  37 2117.42 418.609  23
   1   1 -37 2413.04 349.229  24
   1  -1  37 1847.57 356.091  44
  -1   1  37 2136.14 382.625  21
   1   1 -37 1978.64 309.166  34
  -1  -1 -37 2289.58 360.629  34
   1  -1  37 1693.84 350.581  31
  -1   1  37 2232.02 411.385  30
   1   1 -37 2013.26 388.018  14
   1   1 -36 43015.9 2130.76  14
  -1   1  36 39092.5 2075.57  45
   1  -1  36 41078.8 2097.21  44
   1   1 -36 40075.5 1946.08   8
  -1  -1 -36 40888.4 2043.84   8
   1   1 -36 41710.1 1903.48  34
   1  -1  36 43198.1 2062.16  31
  -1   1  36 43254.2 2135.09  21
  -1   1  36 42298.5 2227.91  23
   1   1 -36 40675.0 1913.37  24
  -1  -1 -36 42672.6 2006.90  22
   1   1 -35 15608.0 1203.90  14
  -1   1  35 16362.4 1276.56  45
   1  -1  35 17296.0 1259.67  44
   1  -1  35 16669.7 1079.66  21
  -1  -1 -35 15595.0 1162.56   8
   1   1 -35 15755.1 1048.07  34
   1  -1  35 17763.1 1201.47  31
  -1  -1 -35 15636.8 1119.32  22
  -1   1  35 16301.7 1218.92  21
  -1   1  35 16482.4 1302.11  23
   1   1 -35 16309.2 1066.65  24
   1   1 -34 56800.7 2762.27  14
  -1  -1 -34 55408.5 2668.93   8
  -1   1  34 53117.0 2835.54  45
   1  -1  34 51306.5 2664.28  44
  -1   1  34 53708.2 2541.85  44
   1  -1  34 56122.0 2544.76  21
   1  -1  34 56348.3 2399.37  20
   1   1 -34 56788.0 2498.51  34
  -1   1  34 51419.2 2770.49  32
   1  -1  34 56003.1 2634.52  31
  -1   1  34 53183.4 2872.52  30
  -1   1  34 53938.0 2823.92  23
  -1  -1 -34 55443.5 2603.41  22
  -1   1  34 55784.7 2732.75  21
   1   1 -34 59408.2 2523.72  24
  -1  -1 -33 3506.98 564.055  14
   1   1 -33 3869.20 629.096  14
  -1   1  33 2950.90 642.489  45
  -1   1  33 2272.61 449.641  47
  -1  -1 -33 4137.93 627.034  43
  -1   1  33 3215.86 526.122  44
   1  -1  33 3316.12 573.660  44
   1  -1  33 3820.99 556.384  21
  -1   1  33 2719.86 529.822  21
   1  -1  33 3700.91 476.908  20
   1   1 -33 2870.24 479.180  34
  -1   1  33 3808.53 695.691  32
   1  -1  33 4035.66 588.535  31
  -1   1  33 4150.94 719.140  30
   1   1 -33 4438.85 549.911  24
  -1   1  33 2553.18 557.194  23
   1  -1  33 3255.49 495.780  23
  -1  -1 -33 3780.47 564.803  22
  -1  -1 -32 42428.4 2297.65  14
   1   1 -32 44282.6 2437.91  14
  -1   1  32 42099.7 2587.23  45
  -1   1  32 44782.5 2249.50  47
   1  -1  32 40948.3 2365.51  44
  -1   1  32 40399.0 2221.68  44
  -1  -1 -32 43632.9 2357.37  43
   1  -1  32 41629.1 2232.36  21
   1  -1  32 45764.8 2133.28  20
   1   1 -32 44456.8 2200.14  34
   1  -1  32 43929.7 2268.47  31
  -1   1  32 44622.9 2661.14  30
  -1   1  32 43483.5 2608.12  32
  -1   1  32 44671.9 2540.85  23
   1   1 -32 48743.9 2252.47  24
  -1   1  32 47342.9 2479.21  21
   1  -1  32 41983.7 2180.28  23
  -1  -1 -32 40426.1 2231.67  22
  -1  -1 -31 18276.8 1387.08  14
   1   1 -31 17187.8 1423.09  14
  -1   1  31 18430.5 1501.54   5
  -1   1  31 18233.5 1317.32  47
   1  -1  31 19628.0 1496.19  44
  -1   1  31 17770.6 1598.94  45
  -1   1  31 18027.7 1352.37  44
  -1  -1 -31 18814.6 1422.09  43
   1  -1  31 18122.8 1338.02  21
   1   1 -31 18974.2 1284.04  34
   1  -1  31 17078.3 1324.19  31
  -1   1  31 17005.7 1566.05  32
  -1   1  31 18974.0 1463.65  21
  -1  -1 -31 17081.4 1325.88  22
  -1   1  31 16268.7 1462.46  23
   1  -1  31 17262.1 1271.32  23
   1   1 -31 18896.8 1258.85  24
  -1  -1 -30 7858.35 885.316  14
   1   1 -30 8213.13 946.327  14
  -1   1  30 7338.70 950.677   5
  -1   1  30 8006.74 1052.28  45
   1  -1  30 6886.86 895.045  44
  -1   1  30 7793.34 832.402  47
  -1   1  30 5867.08 762.065  44
  -1  -1 -30 8157.75 918.857  43
   1  -1  30 6281.49 774.737  21
   1   1 -30 6988.12 589.214  35
   1   1 -30 7154.70 767.433  34
   1  -1  30 6853.84 786.349  31
  -1  -1 -30 7227.21 827.772  22
  -1   1  30 6651.53 911.049  23
   1   1 -30 7020.49 739.405  24
   1  -1  30 6609.51 761.752  23
  -1   1  30 8004.18 934.337  21
  -1  -1 -29 81271.1 3687.86  14
   1   1 -29 78137.2 3742.06  14
  -1   1  29 75652.1 3541.27  44
  -1   1  29 74407.7 3497.34  47
   1  -1  29 75323.5 3726.30  44
  -1  -1 -29 87633.4 3776.13  43
   1  -1  29 78144.9 3575.02  21
   1   1 -29 82355.2 3118.75  35
   1   1 -29 83872.7 3463.44  34
  -1   1  29 78617.7 3314.77  31
   1  -1  29 79223.2 3526.20  31
  -1   1  29 77948.9 3736.05  21
   1  -1  29 73665.6 3414.04  23
  -1  -1 -29 79231.7 3565.10  22
  -1   1  29 75976.7 3788.43  23
   1   1 -29 87515.9 3450.78  24
  -1  -1 -28 36403.1 2158.93  14
   1   1 -28 38909.4 2292.33  14
  -1   1  28 35733.9 2873.66   3
  -1   1  28 34069.0 2730.33   2
  -1   1  28 35963.6 2052.81  47
   1  -1  28 36529.9 2238.13  44
   1  -1  28 38150.2 2498.57  41
  -1  -1 -28 35211.9 2151.43  43
   1  -1  28 36518.8 2404.87  16
   1  -1  28 36250.7 1887.88  20
   1   1 -28 35176.8 1691.59  35
   1   1 -28 35773.1 1948.33  34
  -1   1  28 33455.5 2405.03  32
  -1   1  28 34469.2 1864.09  31
   1  -1  28 35728.3 2012.55  31
   1   1 -28 38436.9 2430.20  28
  -1  -1 -28 35352.5 2065.49  22
  -1   1  28 35844.8 2203.16  21
   1  -1  28 35062.9 1970.28  23
   1  -1  28 40432.3 2180.27  21
  -1   1  28 33688.3 2225.56  23
   1   1 -28 36908.5 1936.28  24
  -1  -1 -27 84031.4 3761.75  14
   1   1 -27 85577.0 3872.11  14
  -1   1  27 87641.2 4683.79   2
   1  -1  27 77217.9 4207.21   3
   1  -1  27 87278.9 3892.81  44
  -1   1  27 67819.9 3889.99  45
  -1   1  27 82628.3 3649.25  47
  -1  -1 -27 80104.3 3713.37  43
   1  -1  27 80424.4 4021.44  16
   1  -1  27 75600.2 3330.25  20
   1   1 -27 90810.2 3558.80  34
   1   1 -27 76410.2 3141.37  35
  -1   1  27 80033.9 4136.64  32
   1   1 -27 82793.3 4011.36  28
   1  -1  27 84357.4 3535.39  31
  -1   1  27 77746.8 3361.92  31
   1   1 -27 87676.0 3485.18  24
   1  -1  27 80333.0 3500.26  23
  -1   1  27 77015.5 3823.06  23
  -1  -1 -27 78842.3 3605.29  22
   1  -1  27 85928.7 3708.78  21
  -1   1  27 78154.7 3738.90  21
  -1  -1 -26 180446. 6993.44  14
   1   1 -26 187397. 7125.69  14
   1  -1  26 173460. 7578.10   3
  -1   1  26 180283. 7976.52   2
  -1   1  26 174312. 7313.24   5
  -1   1  26 182198. 7424.08  45
   1  -1  26 190122. 7124.12  44
  -1   1  26 174029. 6817.65  47
  -1  -1 -26 184691. 6949.42  43
   1  -1  26 184250. 7311.49  16
   1   1 -26 171684. 6334.98  35
   1   1 -26 198912. 6738.95  34
   1  -1  26 186980. 6723.22  31
   1   1 -26 164249. 7369.17  27
   1   1 -26 195457. 7360.59  28
  -1   1  26 180231. 7449.28  32
  -1   1  26 178822. 6574.97  31
   1   1 -26 194325. 6685.40  24
  -1   1  26 190404. 7078.11  21
   1  -1  26 181378. 6683.31  23
  -1   1  26 174163. 7068.35  23
  -1  -1 -26 180796. 6834.89  22
   1  -1  26 179094. 6880.27  21
   1   1 -25 97752.1 4285.94  14
  -1  -1 -25 96320.3 4183.22  14
  -1   1  25 101761. 5123.34   2
  -1  -1 -25 90198.2 4866.05   4
  -1   1  25 95494.2 4503.01   5
   1  -1  25 95695.3 4743.22   3
   1  -1  25 95895.7 4248.00  44
  -1   1  25 94778.7 4532.15  45
  -1   1  25 91997.2 4040.47  47
  -1  -1 -25 91468.0 4128.30  43
  -1  -1 -25 103671. 4114.69  19
   1  -1  25 96620.1 4427.27  16
  -1   1  25 101922. 4054.57  36
   1   1 -25 86087.8 3586.21  35
   1   1 -25 104787. 3943.55  34
  -1   1  25 86054.0 4421.60  32
   1   1 -25 85880.3 4549.88  27
   1   1 -25 105053. 4496.88  28
  -1   1  25 95878.0 3838.05  31
   1  -1  25 94171.1 3906.53  31
   1  -1  25 93667.1 4079.71  21
  -1  -1 -25 95543.9 4044.74  22
  -1   1  25 97083.9 4205.11  21
   1   1 -25 98344.4 3870.78  24
   1  -1  25 95781.1 3906.26  23
  -1   1  25 87447.0 4177.50  23
  -1  -1 -24 94193.3 3943.38  14
   1   1 -24 92622.2 4024.57  14
  -1   1  24 86351.3 4195.59   5
   1  -1  24 83539.0 4357.59   3
  -1  -1 -24 81633.0 4565.69   4
  -1   1  24 90011.7 4740.07   2
  -1   1  24 80993.9 4129.11  45
   1  -1  24 83985.1 3887.54  44
  -1   1  24 84703.4 3759.97  47
  -1  -1 -24 88403.2 3836.82  43
   1   1 -24 85869.2 4453.88  39
  -1  -1 -24 88307.8 3743.07  19
   1  -1  24 87092.8 4050.25  16
   1   1 -24 80707.2 3317.61  35
   1   1 -24 92013.7 3608.47  34
  -1   1  24 88533.4 3746.10  36
   1  -1  24 88076.1 3576.25  31
   1   1 -24 83664.9 4399.55  27
  -1   1  24 90335.9 3570.57  31
  -1   1  24 88493.5 4271.84  32
   1   1 -24 90228.0 4091.59  28
   1   1 -24 80172.7 3513.70  24
   1  -1  24 87279.6 3776.49  21
   1  -1  24 84495.2 3549.75  23
  -1   1  24 84965.0 3931.57  23
  -1   1  24 88646.9 3879.03  21
  -1  -1 -24 83822.4 3720.03  22
   1   1 -23 5354.14 752.164  14
  -1  -1 -23 5117.57 724.630  14
  -1  -1 -23 3673.47 825.967   4
  -1   1  23 5422.68 978.586   2
   1  -1  23 5523.74 900.390   3
  -1   1  23 6441.67 910.715   5
  -1   1  23 6511.60 916.447  45
  -1   1  23 5511.33 708.354  47
   1   1 -23 5837.76 940.036  39
  -1  -1 -23 5558.59 730.553  43
   1  -1  23 5078.58 752.908  16
   1   1 -23 7134.28 688.859  34
   1   1 -23 4833.21 528.910  35
  -1   1  23 6565.68 754.821  36
  -1   1  23 5070.53 851.145  32
   1   1 -23 6688.34 1018.65  27
   1   1 -23 6125.38 831.804  28
   1  -1  23 5004.91 593.003  31
  -1   1  23 5436.40 611.814  31
   1  -1  23 6101.31 645.621  23
  -1   1  23 5123.33 734.687  23
  -1  -1 -23 5440.33 677.447  22
   1  -1  23 5196.78 678.173  21
  -1   1  23 6702.60 797.226  21
   1   1 -23 5034.73 602.068  24
   1   1 -22 31193.1 1941.14  14
   1   1 -22 32679.6 2137.03  15
  -1  -1 -22 26542.8 2309.78   4
   1  -1  22 30471.3 2232.75   3
  -1   1  22 31245.2 2427.23   2
  -1   1  22 30461.7 2105.75   5
  -1   1  22 30935.1 2076.30  45
   1   1 -22 29010.6 2218.04  39
  -1  -1 -22 29409.0 1814.53  43
   1  -1  22 30343.0 1982.13  16
   1   1 -22 31783.9 1700.59  17
   1   1 -22 32684.6 1658.45  34
   1   1 -22 28040.5 1502.73  35
  -1   1  22 30936.1 2109.60  32
  -1   1  22 29040.6 1623.58  31
   1   1 -22 35213.0 2046.56  28
   1  -1  22 31057.5 1638.23  31
   1   1 -22 31277.0 1644.74  24
  -1   1  22 32234.5 1880.07  21
  -1  -1 -22 31311.7 1781.17  22
   1  -1  22 30953.3 1805.79  21
   1  -1  22 30874.2 1628.21  23
  -1   1  22 28481.2 1850.42  23
   1   1 -21 46233.6 2691.38  15
   1  -1  21 48390.8 2604.36  16
  -1   1  21 47109.5 3046.70   2
   1  -1  21 46593.2 2838.87   3
  -1   1  21 46610.4 2715.10   5
  -1  -1 -21 47917.3 3151.00   4
  -1   1  21 44614.8 2084.62   7
  -1   1  21 47778.6 2674.41  45
  -1  -1 -21 48596.7 2412.97  43
   1   1 -21 49150.4 2938.79  39
   1   1 -21 45835.3 2313.15  17
  -1   1  21 42782.2 2591.67  18
  -1  -1 -21 46167.2 2287.71  34
   1   1 -21 50584.9 2201.77  34
   1  -1  21 46932.9 2140.95  31
  -1   1  21 50386.6 2264.11  31
  -1   1  21 47414.8 2684.20  32
   1   1 -21 57931.0 2681.64  28
   1   1 -21 43447.6 2145.88  24
  -1  -1 -21 46776.0 2321.03  22
   1  -1  21 46055.0 2134.74  23
   1  -1  21 46464.8 2355.37  21
  -1   1  21 46829.0 2470.47  23
  -1   1  21 49215.4 2440.79  21
   1   1 -20 178597. 6991.05  15
   1  -1  20 177854. 6789.85  16
  -1   1  20 179566. 7486.67   2
  -1  -1 -20 178674. 7610.37   4
   1  -1  20 175739. 7135.95   3
  -1   1  20 173661. 7008.45   5
  -1   1  20 164043. 6226.76   7
  -1   1  20 171567. 6882.26  45
   1   1 -20 182778. 7270.11  39
  -1  -1 -20 179317. 6574.14  43
  -1   1  20 159601. 6845.03  18
  -1  -1 -20 192905. 6584.89  19
   1   1 -20 176698. 6626.78  17
   1   1 -20 181322. 6259.37  34
  -1  -1 -20 184278. 6467.55  34
  -1   1  20 176278. 6943.96  32
  -1   1  20 190918. 6477.13  31
   1  -1  20 176735. 6233.63  31
   1   1 -20 185445. 6746.19  28
   1  -1  20 171914. 6478.11  21
  -1   1  20 174440. 6676.11  23
   1   1 -20 168436. 6267.59  24
   1  -1  20 175297. 6208.86  23
  -1  -1 -20 180266. 6469.68  22
   1  -1  19 18797.8 1401.43  16
  -1   1  19 16965.8 1635.54   2
   1  -1  19 16880.8 1495.93   3
  -1   1  19 14979.0 1060.51   7
  -1   1  19 17492.2 1465.36   5
  -1  -1 -19 19416.5 1804.71   4
  -1   1  19 16245.5 1367.72  45
   1  -1  19 16983.5 1479.73  40
   1   1 -19 17686.6 1558.38  39
  -1  -1 -19 17668.2 1238.34  43
   1   1 -19 17478.2 1316.56  17
  -1  -1 -19 19782.5 1268.70  19
  -1  -1 -19 17852.1 1197.98  34
   1   1 -19 18576.6 1086.34  34
  -1   1  19 21213.9 1522.55  32
   1  -1  19 17123.8 1042.91  31
   1   1 -19 19339.1 1338.46  28
  -1   1  19 19866.8 1280.05  31
   1   1 -19 16487.0 1071.14  24
  -1  -1 -19 17772.7 1177.89  22
  -1   1  19 16633.7 1280.02  23
   1  -1  19 17258.5 1028.40  23
   1  -1  19 16857.5 1195.38  21
   1  -1  18 4139.26 617.656  16
  -1  -1 -18 3917.17 789.787   4
  -1   1  18 4053.39 662.954   5
  -1   1  18 3260.89 469.517   7
  -1   1  18 2664.82 637.276   2
   1  -1  18 2952.64 590.635   3
  -1   1  18 4625.33 686.436  45
  -1  -1 -18 3466.20 520.850  43
   1  -1  18 4403.08 706.784  40
   1   1 -18 4580.46 759.189  39
   1   1 -18 3742.41 596.790  17
  -1  -1 -18 3842.75 516.250  19
  -1  -1 -18 4259.93 543.836  34
   1   1 -18 3694.81 432.451  34
   1   1 -18 4057.44 567.780  28
   1  -1  18 3755.52 422.535  31
  -1   1  18 5147.14 732.202  32
  -1  -1 -18 4345.48 539.432  22
   1  -1  18 3784.81 511.346  21
   1  -1  18 3268.74 392.348  23
  -1   1  18 4514.96 624.384  23
   1   1 -18 3171.50 425.738  24
   1  -1  17 50887.9 2448.17  16
   1  -1  17 47681.8 2661.86   3
  -1   1  17 44169.7 2220.22   7
  -1   1  17 50643.8 2935.14   2
  -1  -1 -17 56667.7 2733.12   8
   1  -1  17 48030.3 2384.05  44
  -1   1  17 49392.6 2563.55  45
  -1  -1 -17 52939.5 2368.33  43
   1  -1  17 53600.6 2782.56  40
  -1   1  17 43445.5 2228.88  41
   1   1 -17 48260.6 2780.27  39
  -1   1  17 44642.4 2560.28  18
   1   1 -17 49391.1 2576.70  17
  -1  -1 -17 55456.6 2363.78  19
  -1  -1 -17 52201.2 2366.54  34
   1   1 -17 48401.8 2086.56  34
  -1   1  17 50684.0 2580.83  32
   1   1 -17 47144.7 2359.20  28
   1   1 -17 48219.6 2152.81  24
   1  -1  17 49322.0 2289.80  21
  -1   1  17 56061.4 2628.52  23
  -1  -1 -17 52806.2 2307.34  22
   1  -1  16 93329.9 3811.88  16
   1  -1  16 84453.6 3991.14   3
  -1   1  16 95999.1 4430.56   2
  -1  -1 -16 101053. 3949.14   8
  -1   1  16 88573.8 3956.60  45
   1  -1  16 88055.9 3747.45  44
  -1  -1 -16 93259.1 3720.90  43
   1  -1  16 89154.5 4054.72  40
   1   1 -16 97395.7 4285.25  39
  -1   1  16 92763.9 3579.71  41
  -1   1  16 90091.8 4049.49  18
   1   1 -16 92500.0 4057.33  17
  -1  -1 -16 101491. 3750.84  19
   1   1 -16 96422.1 3478.38  34
  -1  -1 -16 97920.8 3882.59  34
  -1   1  16 93794.0 4008.34  32
   1   1 -16 102933. 3834.82  28
   1   1 -16 85902.0 3508.12  24
  -1   1  16 95443.4 3711.65  21
  -1  -1 -16 93124.1 3657.41  22
   1  -1  15 155144. 5478.24  16
  -1   1  15 153806. 5750.16  45
   1  -1  15 143600. 5428.66  44
  -1  -1 -15 150784. 5413.33  43
   1  -1  15 143913. 5743.29  40
   1   1 -15 143705. 5898.86  39
  -1   1  15 146995. 5185.31  41
  -1  -1 -15 153986. 6402.22   4
   1  -1  15 144631. 5721.14   3
  -1   1  15 150339. 6139.82   2
  -1  -1 -15 151142. 5481.41   8
  -1   1  15 141921. 5754.88  18
  -1  -1 -15 155241. 5402.89  19
  -1   1  15 145302. 5654.95  32
   1   1 -15 152986. 5483.59  28
  -1   1  15 147503. 5374.63  21
  -1  -1 -15 152571. 5365.64  22
   1   1 -15 137804. 5208.63  24
   1  -1  14 145437. 5173.99  16
   1   1 -14 131141. 5260.23  15
  -1   1  14 143652. 5463.07  45
  -1   1  14 142410. 4895.04  41
  -1  -1 -14 140201. 5127.59  43
   1  -1  14 136473. 5387.06  40
   1   1 -14 132289. 5576.18  39
   1   1 -14 129368. 4942.94  24
  -1  -1 -14 147570. 5118.13  22
  -1   1  14 141385. 5509.71  18
  -1  -1 -14 152181. 5147.72  19
   1   1 -14 146018. 5174.19  28
  -1   1  14 141302. 5387.23  32
  -1   1  14 139213. 5786.72   2
   1  -1  14 137141. 5371.87   3
  -1  -1 -14 139998. 6054.35   4
   1  -1  13 97573.6 3606.78  16
   1   1 -13 88976.0 3700.92  15
   1   1 -13 87203.0 3555.90  28
   1  -1  13 90617.0 3743.78   3
  -1   1  13 94422.3 4179.19   2
  -1  -1 -13 95075.8 4439.47   4
   1  -1  13 94725.6 3834.56  40
   1   1 -13 90134.0 3965.84  39
  -1   1  13 95055.1 3350.04  41
   1  -1  12 287804. 9175.03  16
   1   1 -12 265842. 9289.30  15
   1   1 -12 250383. 9075.43  28
  -1  -1 -12 293114. 10243.6   4
   1  -1  12 271720. 9276.32   3
  -1   1  12 271491. 9795.32   2
  -1   1  12 273820. 8881.60  41
   1   1 -12 281507. 9597.68  39
   1  -1  12 260960. 9304.82  40
   1  -1  11 29375.0 1359.60  16
   1   1 -11 28643.1 1463.54  15
   1   1 -11 29385.2 1376.71  28
  -1  -1 -11 32184.6 2090.94   4
   1  -1  11 27632.6 1399.93   3
  -1   1  11 29061.5 1762.46   2
  -1   1  11 28975.0 1180.05  41
   1  -1  11 28646.0 1473.43  40
   1   1 -11 26762.3 1589.44  39
   1  -1  10 37886.7 1738.94  16
   1   1 -10 39211.0 1816.65  15
   1   1 -10 36533.5 1701.71  28
  -1   1  10 39107.5 2122.61   2
   1  -1  10 36425.2 1710.07   3
  -1  -1 -10 43702.8 2519.59   4
   1  -1  10 39414.0 1839.84  40
  -1   1  10 36655.5 1528.21  41
   1   1 -10 39667.0 1972.92  39
   1   1  -9 5099.53 529.386  15
   1  -1   9 4962.24 476.416  16
   1   1  -9 5662.07 497.441  28
  -1   1   9 5434.97 661.481   2
  -1  -1  -9 4233.00 754.426   4
   1  -1   9 4429.56 437.964   3
  -1   1   9 4464.11 368.849  41
   1  -1   9 5237.02 527.803  40
   1   1  -9 5145.61 588.473  39
   1   1  -8 240180. 8099.19  15
   1  -1   8 242571. 7996.69  16
   1   1  -8 237035. 8226.63  39
  -1   1   8 238924. 7775.03  41
   1   1  -8 225913. 7910.63  28
  -1   1   8 239219. 8419.19   2
   1  -1   8 240018. 7870.08   3
  -1  -1  -8 254163. 9080.52   4
   1  -1   7 76664.6 2844.29  16
   1   1  -7 72613.5 2920.53  15
   1  -1   7 74750.1 2405.69  17
  -1   1   7 77762.4 2678.17  41
   1   1  -7 73220.8 2995.98  39
   1   1  -7 67019.6 2744.46  28
  -1  -1  -7 73370.4 3652.93   4
   1  -1   7 73359.4 2672.39   3
  -1   1   7 79746.2 3192.27   2
   1   1  -6 89505.2 3420.25  15
   1   1  -6 87955.3 3455.15  39
  -1   1   6 91771.9 3183.22  41
   1   1  -6 88832.6 3062.14  41
   1  -1   6 95634.5 2989.56  17
   1   1  -6 86061.8 3194.76  28
  -1   1   6 84799.9 3357.77  29
   1  -1   6 89826.9 3111.81   3
  -1   1   6 92924.4 3611.45   2
  -1  -1  -6 91518.4 4143.95   4
   1   1  -5 1936.64 303.662  15
  -1   1   5 1795.85 232.007  41
   1  -1   5 1545.87 266.433  40
   1   1  -5 1512.93 180.422  41
   1  -1   5 1697.80 181.782  17
   1   1  -5 1848.03 307.737  39
   1   1  -5 1635.27 211.807  28
  -1   1   5 1616.36 287.476  29
  -1   1   5 1671.18 324.245   2
   1  -1   5 1465.76 206.092   1
   1  -1   5 1304.40 163.418   3
  -1  -1  -5 1356.57 395.498   4
   1   1  -4 443052. 14399.6  15
   1  -1   4 439920. 14100.3  17
  -1   1   4 448734. 14425.5  29
   1   1  -4 433584. 14040.8  28
  -1  -1  -4 467688. 15113.1   4
   1  -1   4 434507. 14056.8   1
  -1   1   4 455245. 14458.6   2
  -1   1   4 433223. 14183.9  41
   1   1  -4 443230. 14384.1  39
   1   1  -4 452004. 14051.6  41
   1  -1   4 452430. 14286.7  40
   1   1  -3 420238. 13524.7  15
   1   1  -3 413076. 13196.6  41
   1   1  -3 407823. 13466.0  39
   1  -1   3 431618. 13419.6  40
  -1   1   3 428181. 13586.8  29
   1   1  -3 402490. 13119.5  28
  -1  -1  -3 432947. 13458.0   1
   1  -1   3 415862. 13133.3   1
  -1   1   3 396357. 13469.1   2
  -1  -1  -3 430370. 14106.9   4
   1   1  -2 897989. 27674.6  15
   1   1  -2 879371. 27596.8  39
   1  -1   2 895473. 27552.9  40
   1   1  -2 854747. 27351.8  41
  -1   1   2 893729. 27280.7  39
   1   1  -2 867868. 27906.5  27
   1   1  -2 866642. 27227.1  28
  -1   1   2 859567. 27704.4  29
   1  -1   2 834688. 27206.5   1
  -1  -1  -2 903760. 27571.4   1
  -1  -1  -2 885245. 28150.1   4
   1   1  -1 619787. 18899.9  15
   1  -1   1 531430. 18770.8  17
  -1  -1  -1 575062. 18536.8  40
  -1   1   1 604865. 18422.3  39
   1  -1   1 590207. 18729.4  40
   1   1  -1 595927. 18766.3  39
  -1   1   1 595193. 18903.7  29
   1   1  -1 601761. 19032.5  27
   1   1  -1 629220. 18415.1  28
  -1  -1  -1 629392. 18768.9   1
   1  -1   1 533214. 18357.4   1
  -1  -1  -1 604114. 19268.5   4
   1   1   0 253557. 8143.80  15
  -1   1   0 235874. 7652.93  39
  -1  -1   0 230873. 7911.89  40
   1  -1   0 261827. 8039.59  40
   1   1   0 246056. 8007.78  39
  -1   1   0 253440. 8176.69  29
   1   1   0 228926. 8162.86  27
   1   1   0 234080. 7667.14  28
  -1  -1   0 238080. 7985.54   3
  -1  -1   0 241573. 8412.41   4
  -1  -1   0 252180. 8001.30   1
   1  -1   0 240921. 8126.37  17
  -1   1  -1 533007. 17103.4  39
   1   1   1 565111. 17461.1  39
   1   1   1 538708. 17343.8  41
   1  -1  -1 502578. 17578.1  17
  -1   1  -1 562164. 17621.5  29
   1   1   1 544985. 17592.2  27
  -1  -1   1 557500. 17837.8   4
  -1  -1   1 558718. 17455.4   3
  -1  -1   1 563667. 17461.4   1
   1   1   2 854889. 26760.5  16
  -1   1  -2 863582. 26831.4  39
   1   1   2 895586. 27107.8  41
   1  -1  -2 773029. 27295.7  17
   1   1   2 883715. 27160.0  39
  -1   1  -2 853883. 27319.7  29
   1   1   2 835907. 27247.5  27
  -1  -1   2 794386. 27421.2   4
  -1  -1   2 888494. 27188.5   3
  -1  -1   2 870642. 27166.7   1
   1   1   3 428797. 13304.2  16
   1   1   3 442367. 13684.0  41
  -1   1  -3 421075. 13408.7  39
   1  -1  -3 415358. 13910.5  17
   1   1   3 413827. 13672.9  39
  -1   1  -3 408012. 13840.4  29
   1   1   3 408265. 13681.7  27
  -1  -1   3 427812. 13725.1   1
  -1  -1   3 421596. 13729.5   3
   1   1   4 489121. 15234.8  16
  -1   1  -4 481103. 15377.1  39
   1   1   4 512132. 15647.1  41
   1  -1  -4 487445. 15866.4  17
  -1   1  -4 478052. 15746.4  29
   1  -1  -4 497947. 15761.3  28
  -1  -1   4 493477. 15699.8   3
  -1  -1   4 482230. 15653.5   1
   1   1   5 412.676 96.4200  16
  -1  -1   5 614.057 266.992  40
   1   1   5 398.548 183.035  41
   1  -1  -5 457.226 236.295  17
  -1   1  -5 728.569 171.371  39
   1  -1  -5 384.304 191.623  28
  -1   1  -5 568.869 235.315  29
  -1  -1   5 844.871 226.487   1
  -1  -1   5 666.083 226.168   3
  -1  -1   5 710.367 239.326   4
   1   1   6 85047.2 2906.88  16
   1  -1  -6 88105.4 3418.84  17
   1   1   6 92218.6 3344.41  41
  -1  -1   6 85084.5 3503.55  40
  -1   1  -6 84497.3 3097.96  39
   1  -1  -6 86751.6 3301.03  28
  -1   1  -6 78509.9 3297.61  29
   1   1   6 78491.7 2979.20  27
  -1  -1   6 86514.7 3222.92   4
  -1  -1   6 87090.1 3342.51   3
  -1  -1   6 80675.2 3257.61   1
   1   1   7 76894.3 2766.00  16
  -1  -1   7 71129.0 2864.93  16
   1  -1  -7 82845.9 3227.42  17
   1   1   7 82619.5 3155.87  41
  -1  -1   7 72325.7 3288.31  40
  -1   1  -7 82787.4 2984.92  39
  -1   1  -7 83215.5 3215.04  29
   1   1   7 76464.7 2776.01  27
   1  -1  -7 79698.3 3128.55  28
  -1  -1   7 78717.1 2943.58   4
  -1  -1   7 78325.2 3205.28   3
   1   1   8 262723. 9049.18  16
   1  -1  -8 277872. 9508.79  17
   1   1   8 308549. 9542.20  41
  -1   1  -8 289307. 9308.61  39
  -1  -1   8 259511. 9701.48  40
   1   1   8 279181. 8988.89  27
  -1   1  -8 277999. 9530.16  29
   1  -1  -8 282377. 9422.54  28
  -1  -1   8 273682. 9563.13   3
   1   1   9 5061.44 433.060  16
   1  -1  -9 4459.84 554.932  17
   1   1   9 5023.10 600.126  41
  -1   1  -9 5810.62 565.207  39
  -1  -1   9 6095.04 732.059  40
  -1   1  -9 5353.23 630.445  29
   1   1   9 5184.34 375.870  27
   1  -1  -9 4936.53 562.779  28
   1   1   9 4324.76 447.340   2
  -1  -1   9 5376.41 645.154   3
   1   1  10 32822.8 1480.50  16
   1  -1 -10 33997.9 1744.83  17
  -1   1 -10 34363.4 1687.90  39
   1   1  10 36458.6 1852.43  41
   1   1  10 33467.7 1347.20  27
  -1   1 -10 34024.7 1895.13  29
   1  -1 -10 31944.8 1700.36  28
   1   1  10 31216.5 1569.43   2
  -1  -1  10 35240.1 1908.48   3
   1   1  11 34272.4 1563.85  16
   1   1  11 35123.1 1927.94  41
  -1   1 -11 33915.0 1760.67  39
   1  -1 -11 34899.1 1795.37  28
   1   1  11 35574.4 1411.90  27
   1   1  11 32622.2 1667.34   2
  -1  -1  11 32268.3 1956.11   3
   1  -1 -11 38403.0 1848.25  17
   1   1  12 297395. 10142.8  41
  -1   1 -12 296325. 9935.82  39
   1  -1 -12 293663. 9918.44  28
   1   1  12 283828. 9373.09  27
  -1  -1  12 299056. 10346.0   3
   1   1  12 287089. 9825.24   2
   1   1  12 297062. 9601.07  16
   1  -1 -12 313838. 9937.77  17
  -1   1 -13 112613. 4234.51  39
   1   1  13 109095. 4351.36  41
   1   1  13 108758. 3881.44  16
   1  -1 -13 108590. 4090.71  17
   1  -1 -13 106062. 4182.07  28
  -1  -1  13 95611.3 4443.41   3
   1   1  13 101730. 4073.11   2
  -1  -1  14 133695. 5105.43  21
  -1   1 -14 133515. 4994.54  22
  -1  -1  14 129317. 5175.12  23
  -1   1 -14 143668. 5017.47  24
   1   1  14 142673. 5502.07  41
  -1   1 -14 148176. 5345.83  39
   1  -1 -14 133979. 5124.82  17
   1   1  14 143082. 4982.77  16
  -1   1 -14 139247. 5025.91  34
  -1  -1  14 130816. 5004.70  31
  -1  -1  14 127193. 5306.46  32
   1  -1 -14 137714. 5290.03  28
  -1  -1  14 125640. 5287.23  30
   1   1  14 130311. 5172.27   2
  -1  -1  14 155322. 4966.38   7
  -1   1 -14 133060. 5035.88   8
  -1  -1  14 140194. 5756.49   3
   1  -1 -15 142295. 5129.78  22
  -1  -1  15 139685. 5528.87  23
  -1  -1  15 145484. 5477.94  21
  -1   1 -15 140662. 5325.69  22
  -1   1 -15 164179. 5467.75  24
  -1   1 -15 140890. 5619.17  39
   1   1  15 153349. 5877.08  41
   1   1  15 153585. 5333.92  16
   1  -1 -15 156286. 5440.76  17
   1  -1 -15 136872. 5221.84  34
  -1   1 -15 148982. 5382.30  34
  -1  -1  15 133187. 5320.57  31
   1  -1 -15 137011. 5584.64  28
  -1  -1  15 133541. 5654.93  30
   1   1  15 146803. 5569.67   2
  -1  -1  15 171233. 5286.10   7
  -1  -1  15 133390. 6034.75   3
  -1   1 -15 147392. 5480.51   8
   1   1  16 95934.8 3953.03   2
  -1  -1  16 94352.6 4515.01   3
  -1   1 -16 106138. 4062.22   8
  -1  -1  16 93663.1 3754.70  44
   1   1  16 103004. 3416.53  45
  -1  -1  16 86688.4 3990.01  45
   1   1  16 98447.7 4160.70  41
  -1   1 -16 103942. 4129.39  39
   1  -1 -16 88362.2 3611.83  43
   1  -1 -16 102250. 3785.75  17
   1   1  16 99167.6 3740.16  16
   1  -1 -16 83307.1 3588.17  34
  -1   1 -16 96185.5 3790.13  34
  -1   1 -16 85077.7 3855.61  29
  -1  -1  16 90559.5 3775.40  31
   1  -1 -16 86050.7 3966.39  28
  -1  -1  16 84110.1 4021.50  30
   1   1  16 87193.9 3623.01  21
  -1   1 -16 92007.2 3717.82  22
   1  -1 -16 91952.2 3527.35  22
  -1  -1  16 87245.2 3900.95  23
  -1  -1  16 87084.5 3825.42  21
  -1   1 -16 108654. 3990.62  24
   1   1  17 53045.7 2609.18   2
  -1   1 -17 59074.0 2892.25   8
  -1  -1  17 51595.8 3108.82   3
   1   1  17 55718.9 2140.37  45
  -1  -1  17 51655.9 2701.89  45
  -1  -1  17 49751.8 2418.20  44
   1   1  17 54021.7 2779.69  41
   1  -1 -17 47162.3 2270.03  43
  -1  -1  17 36074.5 2451.73  20
   1  -1 -17 56802.6 2406.43  17
   1   1  17 54147.6 2422.95  16
  -1   1 -17 53844.1 2488.02  34
   1  -1 -17 49812.2 2333.03  34
   1  -1 -17 51087.0 2699.13  28
  -1  -1  17 45043.7 2431.14  31
  -1  -1  17 51926.4 2745.60  30
  -1   1 -17 52132.7 2569.70  29
  -1  -1  17 52968.5 2561.08  21
  -1  -1  17 48822.8 2602.24  23
  -1   1 -17 48773.3 2379.26  22
  -1   1 -17 57303.9 2777.27  24
   1  -1 -17 52860.5 2252.87  22
   1   1  17 50184.4 2327.09  21
   1   1  18 5290.55 700.044   2
  -1   1 -18 4486.47 743.205   8
  -1  -1  18 4480.65 864.427   3
  -1  -1  18 4744.78 629.357  44
  -1  -1  18 5259.26 761.099  45
   1   1  18 4972.16 479.878  45
   1   1  18 4493.24 715.407  41
   1  -1 -18 3341.23 482.282  43
  -1  -1  18 6607.18 829.646  20
   1   1  18 4776.77 601.423  16
   1  -1 -18 4257.98 562.764  34
  -1   1 -18 4642.47 637.781  34
   1  -1 -18 4069.91 692.754  28
  -1   1 -18 4457.24 627.829  29
  -1  -1  18 4100.61 699.121  30
   1   1  18 4077.80 466.388  32
  -1  -1  18 3519.04 614.256  31
  -1   1 -18 4942.22 607.266  22
  -1  -1  18 5787.24 719.807  21
   1   1  18 4713.45 577.040  21
  -1  -1  18 5241.01 746.930  23
   1  -1 -18 4392.85 515.037  22
  -1   1 -19 12410.7 1179.25   8
   1   1  19 12760.0 1140.38   2
  -1  -1  19 12958.0 1474.59   3
  -1  -1  19 13914.9 1123.55  44
  -1  -1  19 12112.4 1185.61  45
   1   1  19 10429.2 779.046  45
   1   1  19 12935.4 1257.32  41
   1  -1 -19 12005.2 936.594  43
  -1  -1  19 16318.5 1126.72  20
   1   1  19 12935.3 1048.25  16
  -1   1 -19 13827.7 1137.34  34
   1  -1 -19 11887.2 959.990  34
  -1   1 -19 12083.7 1092.03  29
  -1  -1  19 12391.1 1211.66  32
  -1  -1  19 11838.7 1177.00  31
   1   1  19 11529.4 855.750  32
  -1  -1  19 13213.2 1271.37  30
   1  -1 -19 11023.0 1167.60  28
  -1  -1  19 12028.6 1208.53  23
   1  -1 -19 12570.9 902.431  22
   1   1  19 12571.2 981.963  21
  -1  -1  19 13119.5 1156.09  21
   1   1  20 162984. 6422.13   2
  -1  -1  20 166726. 7282.80   3
  -1   1 -20 158807. 6327.30   8
  -1  -1  20 171321. 6302.37  44
   1   1  20 156544. 5779.69  45
  -1  -1  20 157307. 6486.67  45
   1   1  20 164848. 6668.51  41
   1  -1 -20 162013. 5984.86  43
  -1  -1  20 185790. 6040.23  20
   1   1  20 177197. 6312.63  16
   1  -1 -20 181325. 6009.57  17
   1  -1 -20 156594. 5989.02  34
  -1   1 -20 165894. 6287.79  34
  -1  -1  20 167346. 6491.05  31
  -1  -1  20 159291. 6531.00  32
  -1  -1  20 156471. 6581.84  30
  -1   1 -20 154894. 6283.33  29
   1  -1 -20 155956. 6495.05  28
   1   1  20 155343. 5851.79  32
  -1  -1  20 165067. 6437.02  21
   1   1  20 161758. 6083.22  21
   1   1  20 161093. 5812.07  23
   1  -1 -20 167170. 5906.22  22
  -1  -1  20 164676. 6587.28  23
   1   1  21 49005.5 2688.00   2
  -1  -1  21 56445.6 3429.60   3
  -1   1 -21 50229.9 2589.02   8
  -1  -1  21 48585.8 2537.24  44
   1   1  21 46197.9 2170.67  45
  -1  -1  21 47649.6 2698.63  45
   1  -1 -21 50333.4 2348.87  43
   1   1  21 53672.8 2926.42  41
  -1  -1  21 49838.9 2238.49  20
   1   1  21 51233.0 2602.20  16
   1  -1 -21 51733.3 2298.37  17
  -1   1 -21 51816.2 2583.59  34
   1  -1 -21 47284.7 2328.82  34
  -1  -1  21 53213.1 2719.10  31
  -1   1 -21 46422.0 2541.41  29
  -1  -1  21 49956.4 2775.33  32
  -1  -1  21 48586.9 2790.08  30
   1  -1 -21 44560.4 2693.76  28
   1   1  21 46474.4 2235.76  32
  -1  -1  21 51521.7 2717.14  21
   1   1  21 50743.6 2446.95  21
   1  -1 -21 48990.7 2242.03  22
   1   1  21 48492.8 2190.28  23
  -1  -1  21 49215.5 2789.61  23
   1  -1 -22 30328.8 1947.79  14
  -1   1 -22 30071.8 1899.42   8
  -1  -1  22 36602.2 2722.54   3
   1   1  22 33443.8 2105.85   2
  -1  -1  22 29351.1 2038.99  45
  -1  -1  22 33976.6 1983.85  44
   1   1  22 31502.3 1652.44  45
   1  -1 -22 31021.8 1738.69  43
   1   1  22 36416.4 2309.57  41
   1   1  22 29967.3 1932.87  16
   1  -1 -22 34175.5 1704.91  17
  -1  -1  22 33522.4 1641.31  20
   1  -1 -22 30624.5 1731.71  34
  -1   1 -22 32273.0 1953.30  34
  -1  -1  22 30433.9 2087.78  32
  -1  -1  22 34138.9 2034.81  31
  -1   1 -22 29842.9 1942.16  29
   1  -1 -22 31150.6 2117.84  28
  -1  -1  22 31064.5 2146.57  30
  -1  -1  22 33943.5 2082.89  21
   1  -1 -22 32825.3 1676.54  22
   1   1  22 30118.5 1633.57  23
   1   1  22 29869.1 1799.65  21
  -1  -1  22 31567.1 2129.87  23
   1  -1 -23 5767.74 786.368  14
  -1   1 -23 5732.45 730.437  14
  -1  -1  23 4660.94 962.503   3
  -1   1 -23 6302.06 810.079   8
   1   1  23 6242.02 865.978   2
  -1  -1  23 6977.58 918.128  45
   1   1  23 6525.36 671.013  45
  -1  -1  23 6255.11 826.375  48
  -1  -1  23 6037.90 790.525  44
   1  -1 -23 5176.20 636.878  43
   1   1  23 6991.26 971.273  41
  -1  -1  23 6194.03 596.441  20
   1  -1 -23 6777.23 656.497  17
   1   1  23 6562.54 837.478  16
  -1   1 -23 5977.05 775.527  34
   1  -1 -23 6369.59 693.393  34
  -1  -1  23 5447.93 767.544  31
  -1   1 -23 6055.52 777.808  29
   1  -1 -23 5000.67 798.688  28
  -1  -1  23 6553.88 927.556  30
  -1  -1  23 6527.44 916.630  23
  -1  -1  23 6737.31 861.771  21
   1   1  23 6196.59 648.790  23
   1  -1 -23 7102.22 678.197  22
   1   1  23 6780.58 781.213  21
   1  -1 -24 73400.5 3503.42  14
  -1   1 -24 71397.3 3319.54  14
  -1   1 -24 64467.7 3179.03  13
  -1  -1  24 74765.8 4364.67   3
   1   1  24 74886.7 3654.03   2
  -1   1 -24 69642.2 3382.83   8
   1   1  24 70516.9 3090.67  45
  -1  -1  24 73182.9 3513.62  48
  -1  -1  24 73297.4 3580.93  45
  -1  -1  24 75221.8 3466.90  44
   1   1  24 77520.2 3879.72  41
   1  -1 -24 74567.0 3169.09  43
   1   1  24 73060.4 3583.78  16
   1  -1 -24 75719.3 3080.22  17
   1  -1 -24 72030.1 3160.32  34
  -1   1 -24 72601.4 3380.90  34
  -1  -1  24 74530.1 3756.76  30
   1  -1 -24 72350.4 3643.57  28
  -1  -1  24 77522.9 3463.57  31
   1   1  24 72966.0 3324.95  21
   1   1  24 74324.7 3109.69  23
  -1  -1  24 74258.0 3587.91  21
   1  -1 -24 74644.0 3078.77  22
  -1  -1  24 70433.0 3654.83  23
   1  -1 -24 64788.0 2972.27  24
  -1   1 -25 96887.0 4030.52  14
   1  -1 -25 90973.7 4132.92  14
  -1   1 -25 90038.3 3897.05  13
  -1  -1  25 86925.0 4973.79   3
  -1   1 -25 88976.6 4014.65   8
  -1  -1  25 93112.8 4090.02  44
   1   1  25 90806.8 3753.15  45
  -1  -1  25 88380.0 4152.44  45
  -1  -1  25 88773.0 4121.45  48
   1   1  25 95642.7 4524.63  41
   1  -1 -25 92025.2 3778.75  43
  -1  -1  25 82493.7 4331.50  16
   1  -1 -25 93422.5 3680.18  17
   1   1  25 93844.0 4266.61  16
   1  -1 -25 92161.9 3810.51  34
  -1   1 -25 90910.6 4028.55  34
   1  -1 -25 89653.5 4308.32  28
  -1  -1  25 88219.0 4010.89  31
  -1  -1  25 91111.4 4359.63  30
   1  -1 -25 77788.1 3532.88  24
  -1   1 -25 90299.5 3926.61  22
  -1   1 -25 90396.8 3842.43  24
   1   1  25 96993.3 3795.22  23
   1  -1 -25 96442.6 3714.81  22
  -1  -1  25 94689.6 4228.74  21
   1   1  25 93097.6 3985.06  21
  -1  -1  25 90344.9 4322.80  23
  -1   1 -26 180057. 6930.85  13
   1  -1 -26 190183. 7285.15  14
  -1   1 -26 199418. 7105.97  14
  -1  -1  26 175034. 8195.84   3
  -1   1 -26 181367. 7130.61   8
  -1  -1  26 193095. 7198.74  44
  -1  -1  26 182505. 7238.69  45
   1   1  26 176877. 6797.13  45
  -1  -1  26 178004. 7169.13  48
   1  -1 -26 188177. 6817.04  43
   1   1  26 188632. 7429.22  16
   1  -1 -26 189242. 6694.99  17
  -1  -1  26 164766. 7464.61  16
  -1   1 -26 198906. 7192.59  34
   1  -1 -26 192669. 6873.90  34
   1   1  26 192250. 6687.41  31
  -1  -1  26 184279. 7100.46  31
  -1  -1  26 180891. 7435.71  30
   1  -1 -26 178409. 7433.38  28
  -1   1 -26 189937. 6927.83  24
   1   1  26 183542. 7039.76  21
   1  -1 -26 182744. 6648.31  24
   1   1  26 195414. 6876.74  23
  -1  -1  26 188020. 7452.42  23
   1  -1 -26 188925. 6713.61  22
  -1  -1  26 191660. 7324.61  21
  -1   1 -26 183398. 6985.00  22
   1  -1 -27 96282.1 4258.83  14
  -1   1 -27 94024.4 3955.69  13
  -1   1 -27 98302.6 4065.52  14
  -1  -1  27 97311.0 5195.10   3
  -1   1 -27 90364.8 4103.12   8
   1   1  27 87662.1 3810.89  45
  -1  -1  27 89087.9 4093.37  48
  -1  -1  27 95888.4 4146.41  44
  -1  -1  27 86409.1 4093.01  45
   1   1  27 89396.3 4479.84  41
   1  -1 -27 91954.2 3785.06  43
  -1  -1  27 88040.6 4199.72  21
   1   1  27 85028.2 4266.82  16
  -1  -1  27 86391.9 4489.44  16
  -1   1 -27 96096.0 4099.03  34
  -1  -1  27 85511.9 3988.72  36
   1  -1 -27 93192.6 3844.47  34
   1   1  27 90452.8 3690.91  31
  -1  -1  27 83102.3 3970.46  31
   1  -1 -27 90635.8 4402.29  28
  -1  -1  27 91265.3 4349.09  30
   1  -1 -27 87603.0 3623.09  24
  -1   1 -27 97014.7 4021.14  22
   1   1  27 90866.2 4013.03  21
   1   1  27 97156.5 3909.59  23
   1  -1 -27 92024.8 3704.35  22
  -1  -1  27 93268.8 4370.93  23
  -1   1 -27 93443.1 3911.65  24
  -1   1 -28 44043.2 2318.59  14
   1  -1 -28 42318.6 2473.15  14
  -1   1 -28 40046.2 2186.71  13
  -1   1 -28 43268.6 2409.47   8
  -1  -1  28 39041.1 3070.49   3
  -1  -1  28 35930.3 2234.48  48
   1   1  28 37492.6 2095.51  45
  -1  -1  28 38629.0 2308.08  45
  -1  -1  28 41724.3 2362.13  44
   1  -1 -28 39410.7 2061.37  43
   1   1  28 39669.8 2628.13  41
   1   1  28 40518.9 2565.11  16
  -1  -1  28 39075.4 2416.04  21
  -1  -1  28 38403.0 2652.06  16
  -1  -1  28 37793.7 2212.64  36
  -1   1 -28 43057.9 2362.33  34
   1  -1 -28 44377.1 2225.98  34
   1   1  28 39461.3 2013.08  31
  -1  -1  28 37936.7 2278.84  31
   1  -1 -28 43775.3 2669.47  28
   1  -1 -28 37444.4 1929.82  24
  -1   1 -28 40940.6 2180.08  24
   1   1  28 41052.7 2300.64  21
   1  -1 -28 41775.4 2033.58  22
  -1  -1  28 40407.8 2544.02  23
   1   1  28 42038.4 2197.13  23
   1  -1 -29 64111.5 3264.38  14
  -1   1 -29 63561.6 2965.83  13
  -1   1 -29 66266.8 3086.67  14
  -1   1 -29 61092.2 3164.75   8
  -1  -1  29 59554.2 3091.67  44
  -1  -1  29 57855.2 3013.33  45
  -1  -1  29 55835.4 2975.81  48
   1  -1 -29 64092.1 2850.47  43
  -1  -1  29 65861.9 3310.82  21
  -1  -1  29 58254.9 2939.60  36
  -1   1 -29 63514.1 3127.36  34
   1  -1 -29 69851.1 3002.87  34
   1   1  29 64996.2 2859.14  31
  -1  -1  29 62987.6 3120.00  31
  -1   1 -29 63240.7 2947.74  24
  -1  -1  29 60733.0 3350.95  23
   1   1  29 69230.4 3074.55  23
   1  -1 -29 68147.5 2832.44  22
   1   1  29 64946.1 3105.95  21
   1  -1 -29 64737.5 2757.83  24
  -1   1 -30 6789.06 811.230  14
   1  -1 -30 7909.73 952.863  14
  -1   1 -30 7901.54 805.111  13
  -1   1 -30 7030.90 889.212   8
  -1  -1  30 6513.22 819.446  44
   1  -1 -30 7084.29 716.600  43
  -1  -1  30 6126.78 867.543  21
  -1  -1  30 6457.26 747.514  36
  -1   1 -30 6371.40 807.519  34
   1  -1 -30 8579.32 839.323  34
   1   1  30 7453.23 759.155  31
  -1  -1  30 7816.82 886.572  31
   1  -1 -30 7110.59 668.409  24
   1   1  30 7240.64 837.191  21
  -1  -1  30 6279.07 894.542  23
   1   1  30 5611.27 743.130  23
  -1   1 -30 7154.49 793.606  24
   1  -1 -30 6935.90 696.990  22
  -1   1 -31 22323.1 1392.11  13
   1  -1 -31 19617.6 1573.22  14
  -1   1 -31 21687.4 1468.58  14
  -1   1 -31 19696.6 1538.63   8
  -1  -1  31 20047.7 1500.93  44
   1   1  31 21650.1 1494.27  47
   1  -1 -31 20327.7 1281.95  43
  -1  -1  31 22101.3 1647.68  21
  -1  -1  31 21056.5 1344.88  36
  -1   1 -31 22710.5 1583.01  34
   1  -1 -31 23579.5 1465.93  34
   1   1  31 23047.6 1415.87  31
  -1  -1  31 18832.6 1462.93  31
  -1  -1  31 21161.9 1652.77  30
  -1   1 -31 21750.8 1424.53  24
  -1  -1  31 22639.1 1728.21  23
   1   1  31 21591.6 1517.79  21
   1   1  31 21906.5 1505.30  23
   1  -1 -31 20789.2 1265.45  22
   1  -1 -31 20503.2 1236.67  24
  -1   1 -32 48973.9 2433.79  14
   1  -1 -32 49241.1 2670.01  14
  -1   1 -32 49047.3 2610.04   8
   1   1  32 52658.8 2563.53  47
  -1  -1  32 47978.6 2530.19  44
   1  -1 -32 48718.2 2208.97  43
  -1  -1  32 50054.6 2680.10  21
  -1   1 -32 46233.7 2503.36  34
   1  -1 -32 53004.0 2486.09  34
  -1  -1  32 49812.8 2708.25  30
   1   1  32 48070.0 2337.77  31
   1  -1 -32 47317.8 2188.83  22
   1   1  32 48048.2 2501.48  21
  -1   1 -32 46676.9 2352.83  24
   1   1  32 51005.7 2553.69  23
  -1  -1  32 48119.3 2734.39  23
   1  -1 -32 49876.6 2186.11  24
  -1   1 -33 3743.76 549.728  14
   1  -1 -33 3536.58 649.791  14
   1   1  33 4374.81 664.077  44
  -1  -1  33 4644.87 653.438  44
   1   1  33 4295.65 607.552  47
  -1  -1  33 4721.31 697.281  21
  -1   1 -33 4038.60 654.414   8
   1  -1 -33 4507.04 594.329  34
  -1   1 -33 4406.05 634.529  34
   1   1  33 5075.69 591.701  31
   1  -1 -33 4479.47 486.921  24
  -1  -1  33 4368.56 740.369  23
   1  -1 -33 4399.80 491.608  22
  -1   1 -33 4697.32 582.124  24
   1   1  33 4711.99 645.631  23
   1   1  33 4564.26 632.434  21
   1  -1 -34 55186.8 2761.76  14
   1   1  34 55161.9 2607.03  47
   1   1  34 53843.7 2688.00  44
  -1  -1  34 55132.8 2606.01  44
  -1  -1  34 51364.5 2700.47  21
  -1   1 -34 51359.4 2668.14   8
  -1   1 -34 55609.4 2659.42  34
   1  -1 -34 59181.5 2564.10  34
   1   1  34 53030.3 2442.70  31
  -1  -1  34 59504.8 2759.51  30
  -1  -1  34 52459.4 2799.48  23
   1   1  34 53235.3 2630.73  23
   1   1  34 52721.3 2562.03  21
   1  -1 -35 16673.9 1272.16  14
   1   1  35 18655.4 1213.48  47
   1   1  35 16160.2 1224.34  44
  -1  -1  35 15150.2 1138.03  44
  -1  -1  35 15578.1 1234.87  21
  -1   1 -35 18006.8 1286.22   8
  -1   1 -35 16271.7 1199.60  34
   1  -1 -35 18586.3 1181.03  34
  -1  -1  35 18522.3 1263.57  30
   1   1  35 16703.9 1152.95  21
   1   1  35 17193.5 1237.72  23
  -1  -1  35 18238.1 1373.83  23
   1  -1 -36 42481.6 2211.94  14
  -1   1 -36 46587.9 2260.98   8
   1   1  36 44082.2 2121.65  47
   1   1  36 45774.3 2221.36  44
  -1  -1  36 46760.0 2274.77  21
   1  -1 -36 47153.0 2118.20  34
  -1   1 -36 45189.0 2172.50  34
  -1  -1  36 43542.5 2114.97  31
   1   1  36 41778.6 2043.96  21
   1   1  36 43634.4 2181.84  23
  -1   1 -37 2580.52 426.071   8
   1  -1 -37 2128.83 335.964   8
   1   1  37 2543.46 395.488  47
   1   1  37 2098.83 391.554  44
  -1  -1  37 2693.82 435.267  21
  -1   1 -37 2416.16 390.097  34
   1  -1 -37 2839.16 394.810  34
   1   1  37 2316.65 345.994  31
  -1  -1  37 2328.25 389.481  31
   1  -1 -37 1900.05 395.597  14
  -1  -1  38 32624.0 1644.23  21
  -1   1 -38 31943.2 1575.07  34
   1  -1 -38 35762.1 1562.68  34
   1   1  38 31922.1 1543.21  47
   1   1  38 29775.3 1562.76  44
  -1   1 -38 31624.1 1628.29   8
   1  -1 -38 31450.9 1628.51  14
   1  -1 -39 1787.90 309.006  14
   1   1  39 1954.21 286.045  47
   1  -1 -40 46279.2 1944.39  14
   1   1  40 52289.6 1911.12  47
   1   2 -39 1419.12 209.063  14
  -1  -2 -39 1260.06 223.065  50
   1   2 -38 41846.1 1809.21  14
  -1  -2 -38 46189.1 1971.60  50
  -1  -2 -38 40969.1 1826.95  37
   1   2 -37 8118.97 625.152  24
   1   2 -37 9037.54 706.599  14
   1   2 -36 23041.9 1301.45  14
  -1   2  36 20044.2 1330.74  45
   1   2 -36 18984.1 1099.52   8
  -1   2  36 19735.2 1288.36  32
   1  -2  36 23571.8 1263.08  31
  -1   2  36 21059.1 1349.10  30
   1   2 -36 20620.4 1160.70  24
  -1  -2 -36 22295.7 1225.40  22
   1   2 -35 32100.9 1702.28  14
  -1   2  35 28878.8 1561.98  47
  -1   2  35 29943.1 1815.39  45
  -1  -2 -35 30105.0 1620.08  43
  -1  -2 -35 30255.9 1585.81  22
   1   2 -35 30177.1 1546.91  24
  -1   2  35 28818.7 1608.31  21
   1  -2  35 29672.0 1467.48  20
   1  -2  35 29939.7 1602.11  31
  -1   2  35 26880.5 1733.76  30
  -1   2  35 27705.9 1718.68  32
   1   2 -35 29744.3 1489.41   8
   1   2 -34 9604.11 774.569   8
  -1  -2 -34 10469.1 877.615  22
   1   2 -34 10193.1 830.164  24
  -1   2  34 11119.7 946.758  21
   1  -2  34 11638.7 927.099  31
   1   2 -34 10226.3 924.944  14
  -1  -2 -34 10938.3 917.918  43
  -1   2  33 35374.3 2013.50   5
  -1   2  33 34666.4 1947.50  21
   1   2 -33 38900.8 1869.99  24
  -1  -2 -33 33309.3 1853.45  22
  -1  -2 -33 34325.1 1910.42  43
   1  -2  33 33516.6 1870.38  31
   1   2 -33 34393.9 1976.67  14
   1   2 -32 22037.9 1560.29  14
  -1   2  32 25382.4 1682.62   5
  -1   2  32 23024.1 1790.68  45
   1  -2  32 22329.0 1560.40  44
  -1  -2 -32 23308.0 1535.19  43
   1  -2  32 24894.7 1425.00  20
   1  -2  32 23632.1 1411.57  21
   1   2 -32 23074.8 1290.84  34
  -1   2  32 19547.0 1669.43  32
   1  -2  32 23319.2 1495.74  31
  -1   2  32 25682.3 1616.17  21
  -1  -2 -32 20760.1 1429.12  22
   1   2 -32 22841.1 1419.87  24
   1   2 -31 71938.3 3290.35  14
  -1  -2 -31 62478.7 3088.45  14
  -1   2  31 71736.6 3419.40   5
   1  -2  31 62673.1 3161.49  44
  -1   2  31 67306.1 3540.24  45
  -1  -2 -31 65905.7 3116.78  43
   1  -2  31 68558.3 2963.08  20
   1  -2  31 64680.2 2969.99  21
  -1  -2 -31 63890.9 2868.86  34
   1   2 -31 66170.0 2820.72  34
   1   2 -31 71336.8 2746.79  35
  -1   2  31 65298.7 3508.27  32
   1  -2  31 66149.1 3077.32  31
   1   2 -31 73512.3 3061.79  24
  -1   2  31 66802.7 3186.31  21
  -1  -2 -31 68782.5 3098.88  22
  -1  -2 -30 6951.81 847.975  14
   1   2 -30 7862.37 929.217  14
  -1   2  30 8171.38 1086.02  45
  -1   2  30 5761.28 795.867  47
   1  -2  30 6842.96 869.567  44
  -1  -2 -30 7147.55 834.414  43
   1  -2  30 8029.95 824.438  21
   1  -2  30 7516.07 753.369  20
  -1  -2 -30 7005.20 720.619  34
   1   2 -30 6930.25 637.495  35
   1   2 -30 6710.11 678.410  34
  -1   2  30 7390.26 1000.45  32
   1  -2  30 7391.03 825.353  31
   1   2 -30 7672.87 786.904  24
  -1   2  30 7640.76 879.811  21
  -1  -2 -30 7556.79 823.549  22
  -1  -2 -29 12094.6 1159.10  14
   1   2 -29 12791.8 1231.53  14
  -1  -2 -29 14010.9 1129.61   8
  -1   2  29 12920.1 1375.47  45
  -1   2  29 10655.8 1086.12  47
   1  -2  29 12416.8 1207.51  44
  -1  -2 -29 13109.3 1175.65  43
   1  -2  29 12938.9 1038.46  20
   1  -2  29 12392.5 1081.00  21
   1   2 -29 13451.4 925.984  35
  -1  -2 -29 13448.9 1035.11  34
   1   2 -29 12678.5 977.449  34
   1  -2  29 13223.2 1124.46  31
  -1   2  29 13604.1 1404.48  32
  -1   2  29 13686.5 1208.83  21
   1   2 -29 12893.8 1043.68  24
  -1  -2 -29 14377.7 1173.16  22
  -1  -2 -28 36416.1 2232.70  14
   1   2 -28 40394.3 2372.31  14
  -1  -2 -28 36347.6 2084.02   8
   1  -2  28 36058.6 2276.47  44
  -1   2  28 39565.4 2584.82  45
  -1   2  28 34029.7 2169.47  47
  -1  -2 -28 37067.3 2210.25  43
   1  -2  28 37810.1 2035.26  20
   1  -2  28 38768.2 2155.27  21
  -1  -2 -28 40095.0 2160.79  19
  -1  -2 -28 39149.7 2010.73  34
   1   2 -28 37836.5 1856.89  35
   1   2 -28 40894.3 1994.53  34
   1  -2  28 38487.4 2142.40  31
  -1   2  28 36138.0 2490.38  32
  -1  -2 -28 35612.7 2102.06  22
   1   2 -28 42004.4 2099.05  24
  -1   2  28 38875.6 2262.54  21
  -1  -2 -27 65887.8 3397.26  14
   1   2 -27 72247.1 3534.72  14
  -1   2  27 73014.1 3766.94   5
  -1  -2 -27 69469.3 3234.68   8
  -1   2  27 72990.8 3833.00  45
  -1   2  27 67998.9 3379.50  47
   1  -2  27 61329.7 3353.20  44
  -1  -2 -27 69763.9 3369.87  43
   1  -2  27 72709.5 3175.75  20
   1  -2  27 71795.5 3314.36  21
  -1  -2 -27 71514.9 3112.63  34
   1   2 -27 71713.3 3056.08  34
   1  -2  27 70153.9 3253.44  31
  -1   2  27 72212.0 3834.37  32
   1   2 -27 75266.9 3197.48  24
  -1   2  27 73406.0 3447.07  21
  -1  -2 -27 70981.2 3265.78  22
   1   2 -26 19857.1 1567.70  14
  -1  -2 -26 15921.0 1389.60  14
  -1   2  26 17667.7 1659.70   5
  -1   2  26 17116.2 1900.24   2
  -1  -2 -26 16547.5 1297.04   8
  -1  -2 -26 16271.3 1874.62   4
   1  -2  26 16513.3 1760.42   1
  -1   2  26 14063.3 1476.14  45
  -1   2  26 16718.0 1411.10  47
  -1  -2 -26 19263.3 1443.79  43
   1   2 -26 17309.8 1794.45  39
   1  -2  26 18389.1 1571.28  16
   1  -2  26 15910.8 1197.20  20
   1  -2  26 17193.0 1354.58  21
   1   2 -26 19132.9 1237.26  34
  -1  -2 -26 17222.6 1225.14  34
  -1   2  26 16261.7 1611.61  32
   1   2 -26 18204.1 1287.06  24
  -1  -2 -26 18222.6 1343.46  22
  -1   2  26 16325.6 1382.36  21
   1   2 -25 76139.9 3650.29  14
   1   2 -25 67428.3 3867.25  15
  -1  -2 -25 72193.7 3543.11  14
  -1   2  25 80475.7 4494.19   2
   1  -2  25 68805.0 4090.09   1
  -1   2  25 75058.9 3910.52   5
  -1  -2 -25 65024.4 4281.30   4
  -1  -2 -25 73952.7 3348.15   8
  -1   2  25 69697.4 3767.29  45
  -1   2  25 70369.5 3475.85  47
  -1  -2 -25 73341.0 3443.54  43
   1   2 -25 69869.9 4108.10  39
  -1   2  25 66176.9 3691.56  18
   1  -2  25 72709.2 3684.98  16
   1  -2  25 75527.6 3430.25  21
   1  -2  25 71132.2 3195.71  20
  -1  -2 -25 72502.1 3162.30  34
   1   2 -25 75341.4 3153.28  34
   1   2 -25 72990.8 3730.78  27
  -1   2  25 71505.9 3825.17  32
  -1  -2 -25 75384.2 3352.44  22
   1   2 -25 79611.0 3278.42  24
   1   2 -24 45502.9 2613.04  14
  -1  -2 -24 42635.2 2503.59  14
  -1  -2 -24 45071.2 3328.12   4
  -1   2  24 42693.5 3155.32   2
  -1  -2 -24 41982.9 2298.66   8
   1  -2  24 45099.4 2892.41   3
  -1   2  24 46048.7 2846.59   5
   1  -2  24 46805.1 3097.92   1
  -1   2  24 44783.0 2751.85  45
  -1   2  24 42710.7 2478.76  47
   1   2 -24 37078.3 1758.21  46
   1   2 -24 41985.6 2995.11  39
  -1  -2 -24 42813.8 2394.75  43
   1  -2  24 45029.8 2425.57  21
  -1   2  24 40312.6 2664.03  18
   1  -2  24 47511.9 2267.90  20
   1  -2  24 49071.5 2733.31  16
  -1  -2 -24 47986.3 2453.71  19
  -1  -2 -24 43454.2 2164.83  34
   1   2 -24 45252.7 2159.68  34
   1   2 -24 44532.5 2067.97  35
   1   2 -24 40357.9 2648.49  27
  -1   2  24 44014.8 2743.88  32
  -1  -2 -24 43298.4 2295.39  22
   1   2 -24 47436.3 2245.78  24
  -1   2  24 46739.6 2489.53  23
  -1  -2 -23 143.486 237.691  14
   1  -2  23 764.915 346.675  16
   1   2 -23 222.758 260.847  14
  -1  -2 -23 395.637 238.700   8
   1  -2  23 502.384 352.726   3
  -1   2  23 260.800 305.267   2
  -1  -2 -23 285.978 334.675   4
  -1   2  23 468.796 363.864   5
   1  -2  23 455.414 352.490   1
  -1   2  23 925.083 450.825  45
   1   2 -23 390.573 156.989  46
  -1   2  23 555.063 314.516  47
   1  -2  23 564.036 373.331  40
  -1  -2 -23 426.474 276.262  43
   1  -2  23 601.273 270.771  20
  -1   2  23 985.801 480.386  18
  -1  -2 -23 471.949 301.002  19
   1  -2  23 495.174 280.656  21
   1   2 -23 344.277 268.739  39
   1   2 -23 703.656 229.579  35
  -1  -2 -23 405.934 217.911  34
   1   2 -23 429.145 213.364  34
  -1   2  23 601.909 362.774  32
   1   2 -23 740.220 405.040  27
  -1  -2 -23 539.784 252.857  22
   1   2 -23 365.447 239.292  24
  -1   2  23 877.337 336.075  23
  -1  -2 -22 24741.9 1763.22  14
   1   2 -22 24616.3 1790.64  14
   1  -2  22 27291.3 1903.95  16
   1   2 -22 24416.1 2020.35  15
  -1  -2 -22 22468.5 2260.98   4
   1  -2  22 28212.9 2138.91   3
  -1  -2 -22 22723.6 1547.87   8
   1  -2  22 23005.0 2056.10   1
  -1   2  22 25287.7 2279.06   2
  -1   2  22 25060.0 1769.69  47
  -1   2  22 22803.5 1827.34  45
  -1  -2 -22 25286.7 1676.51  43
   1  -2  22 28145.2 2265.27  40
   1   2 -22 21384.6 2037.33  39
   1  -2  22 25880.1 1686.99  21
   1  -2  22 22142.4 1451.76  20
  -1  -2 -22 25987.1 1654.04  19
   1   2 -22 25021.2 1433.05  34
   1   2 -22 23734.9 1361.08  35
  -1  -2 -22 26618.9 1495.31  34
   1   2 -22 24820.0 2001.23  27
  -1   2  22 23073.6 1829.13  32
  -1  -2 -22 21810.0 1493.07  22
  -1   2  22 25297.2 1669.92  23
   1   2 -22 25962.0 1515.60  24
  -1  -2 -21 16728.5 1435.46  14
   1   2 -21 18674.4 1695.40  15
   1   2 -21 18139.1 1496.40  14
   1  -2  21 18653.8 1549.86  16
  -1  -2 -21 21292.9 2126.35   4
  -1   2  21 15868.6 1768.96   2
  -1  -2 -21 16288.1 1276.77   8
   1  -2  21 19971.0 1757.91   3
  -1   2  21 16527.7 1428.02  47
  -1   2  21 17521.2 1513.84  45
  -1  -2 -21 16286.6 1299.55  43
   1   2 -21 17565.0 1803.76  39
   1  -2  21 19122.7 1829.69  40
   1  -2  21 17867.0 1353.18  21
  -1  -2 -21 18256.0 1345.41  19
   1  -2  21 18648.6 1224.39  20
  -1  -2 -21 18887.8 1210.38  34
   1   2 -21 18953.9 1141.18  35
   1   2 -21 19698.4 1200.42  34
   1   2 -21 16368.0 1614.81  27
   1  -2  21 17829.6 1233.42  31
  -1   2  21 17684.7 1538.18  32
  -1   2  21 18791.2 1387.32  23
  -1  -2 -21 17918.1 1262.77  22
   1   2 -21 17866.6 1198.88  24
   1   2 -20 29878.2 2184.85  15
   1   2 -20 31971.0 2051.16  14
   1  -2  20 32664.7 2096.89  16
  -1  -2 -20 28635.2 2538.06   4
   1  -2  20 34931.2 2340.87   3
  -1  -2 -20 29057.0 1793.51   8
  -1   2  20 28334.9 2424.65   2
  -1   2  20 30352.6 2046.46  45
  -1   2  20 31124.3 2039.64  47
  -1  -2 -20 32880.9 1895.60  43
   1  -2  20 31389.3 2376.52  40
   1   2 -20 29725.5 2363.28  39
  -1  -2 -20 34685.4 1888.70  19
   1  -2  20 30168.1 1698.04  20
   1  -2  20 29285.1 1820.88  21
  -1  -2 -20 31624.8 1670.45  34
   1   2 -20 30138.7 1582.94  35
   1   2 -20 34128.2 1671.40  34
   1  -2  20 33887.9 1762.47  31
   1   2 -20 29731.3 2296.87  27
  -1   2  20 30245.5 2049.44  32
   1   2 -20 30275.9 1656.86  24
  -1   2  20 33584.1 1927.56  23
  -1  -2 -20 33103.1 1804.13  22
   1  -2  19 58594.8 3010.24  16
   1   2 -19 59718.5 3227.33  15
  -1   2  19 56962.6 3562.96   2
   1  -2  19 61864.6 3275.05   3
  -1  -2 -19 59458.7 2804.14   8
  -1   2  19 55681.3 2982.27  45
  -1   2  19 59779.2 3089.61  47
  -1  -2 -19 60454.7 2811.89  43
   1  -2  19 55305.5 3326.33  40
   1   2 -19 57113.8 3442.64  39
  -1   2  19 55624.4 3156.62  18
  -1  -2 -19 61037.9 2787.52  19
   1  -2  19 56644.7 2743.65  21
   1   2 -19 54728.6 2881.79  17
   1  -2  19 59080.3 2611.23  20
  -1  -2 -19 56376.1 2550.50  34
   1   2 -19 54459.3 2461.42  35
   1   2 -19 62913.2 2549.74  34
   1  -2  19 63219.0 2677.26  31
   1   2 -19 52461.1 3267.77  27
  -1   2  19 57156.9 3038.76  32
   1   2 -19 63417.1 2629.72  24
  -1   2  19 63347.9 2870.00  23
  -1   2  19 55121.3 2733.75  21
  -1  -2 -19 58965.4 2684.86  22
   1   2 -18 52703.9 2937.74  15
   1  -2  18 53840.0 2751.54  16
   1  -2  18 54360.1 2970.73   3
  -1  -2 -18 50099.7 3442.37   4
  -1   2  18 53923.0 3361.93   2
  -1  -2 -18 56111.5 2623.33   8
  -1   2  18 52007.0 2785.04  45
   1  -2  18 49906.8 2643.61  44
  -1  -2 -18 53687.6 2600.87  43
   1  -2  18 54101.9 3170.69  40
   1   2 -18 50964.6 3137.91  39
  -1   2  18 57261.4 2849.12  41
   1  -2  18 49527.6 2493.62  21
  -1   2  18 52578.9 2972.41  18
  -1  -2 -18 59681.5 2631.69  19
  -1  -2 -18 54489.7 2403.39  34
   1   2 -18 49519.6 2276.43  35
   1  -2  18 56300.6 2439.40  31
  -1   2  18 52582.3 2809.28  32
   1   2 -18 55517.4 3241.91  27
  -1   2  18 56817.2 2670.63  23
  -1   2  18 52374.9 2565.65  21
  -1  -2 -18 54497.9 2493.73  22
   1   2 -18 56058.8 2410.40  24
   1  -2  17 22944.3 1541.52  16
   1   2 -17 24327.3 1758.56  15
  -1   2  17 23441.4 2027.21   2
   1  -2  17 24785.5 1751.21   3
   1  -2  17 21579.3 1765.52   1
  -1   2  17 19611.7 1342.86   7
  -1  -2 -17 24819.3 2231.82   4
  -1  -2 -17 28202.5 1555.87   8
   1  -2  17 22658.5 1520.01  44
  -1   2  17 21983.1 1605.93  45
  -1   2  17 24084.2 1719.73  41
  -1  -2 -17 23429.4 1479.17  43
   1  -2  17 23601.0 1874.87  40
   1   2 -17 24561.4 1950.28  39
  -1   2  17 22397.1 1730.87  18
  -1  -2 -17 25685.5 1506.52  19
   1  -2  17 23454.2 1441.86  21
  -1  -2 -17 25789.5 1404.26  34
   1   2 -17 24019.1 1307.58  35
  -1  -2 -17 23338.7 1421.85  33
  -1   2  17 21988.9 1604.05  32
   1  -2  17 24974.0 1372.27  31
  -1   2  17 22355.7 1447.82  21
  -1   2  17 26263.6 1617.64  23
  -1  -2 -17 23437.0 1401.73  22
   1   2 -17 23572.3 1328.85  24
   1  -2  16 94588.7 3804.63  16
   1   2 -16 87733.0 4008.39  15
  -1   2  16 86433.6 3626.67   7
   1  -2  16 91035.8 4034.25   3
  -1   2  16 85156.9 4466.10   2
  -1  -2 -16 91174.0 4806.76   4
   1  -2  16 87627.1 4135.50   1
  -1  -2 -16 92812.8 3619.54   8
  -1   2  16 84144.4 3936.86  46
  -1   2  16 86244.1 3879.45  45
   1  -2  16 85575.1 3703.50  44
  -1   2  16 89822.7 3902.09  41
  -1  -2 -16 91755.0 3694.89  43
   1   2 -16 84979.0 4283.78  39
   1  -2  16 90357.5 4240.41  40
  -1   2  16 91302.3 4129.89  18
  -1  -2 -16 91917.7 3668.36  19
   1  -2  16 87459.2 3585.54  21
   1   2 -16 78864.3 3355.12  35
  -1  -2 -16 82024.9 3535.96  34
   1  -2  16 91600.6 3507.30  31
  -1   2  16 89591.5 3900.35  32
  -1   2  16 92507.7 3678.41  21
  -1   2  16 104687. 4034.86  23
  -1  -2 -16 92722.3 3590.90  22
   1   2 -15 190268. 7028.70  15
   1  -2  15 184534. 6669.96  16
  -1  -2 -15 188564. 7917.12   4
  -1   2  15 172694. 6565.76   7
  -1  -2 -15 198390. 6522.30   8
  -1   2  15 182338. 7552.70   2
   1  -2  15 193513. 6970.79   3
   1  -2  15 181859. 7067.53   1
   1  -2  15 182921. 6640.48  44
  -1   2  15 178337. 6824.23  45
  -1   2  15 176360. 6942.52  46
  -1  -2 -15 179793. 6583.45  43
  -1   2  15 185385. 6770.57  41
   1  -2  15 176137. 7126.49  40
   1   2 -15 198239. 7412.43  39
  -1   2  15 183413. 7049.53  18
  -1  -2 -15 203709. 6648.68  19
   1  -2  15 185003. 6491.12  21
   1   2 -15 183324. 6344.68  35
   1  -2  15 197521. 6426.99  31
   1   2 -15 185070. 7541.48  27
  -1   2  15 177019. 6787.79  32
  -1   2  15 174460. 6534.59  21
  -1  -2 -15 195148. 6513.70  22
   1   2 -14 30018.1 1819.03  15
   1  -2  14 25085.7 1510.28  16
  -1  -2 -14 30407.5 2385.14   4
   1  -2  14 27250.0 1788.86   1
  -1   2  14 28027.0 2087.21   2
   1  -2  14 27693.1 1716.24   3
  -1   2  14 23193.1 1492.75   7
   1  -2  14 25425.5 1514.55  44
  -1   2  14 25178.6 1725.33  46
  -1   2  14 24925.8 1624.82  45
   1   2 -14 30423.6 2006.13  39
   1  -2  14 23711.2 1743.92  40
  -1   2  14 27167.5 1596.48  41
  -1   2  14 25568.2 1766.50  18
  -1  -2 -14 28691.0 1537.55  19
  -1  -2 -14 27875.8 1508.63  33
   1   2 -14 25153.1 1344.98  35
   1   2 -14 28962.6 2111.38  27
  -1   2  14 27004.2 1638.95  32
   1  -2  14 28479.8 1400.21  31
  -1   2  14 27029.7 1505.11  21
   1   2 -14 27137.2 1382.81  24
   1  -2  13 251315. 8333.00  16
   1   2 -13 246893. 8671.23  15
  -1  -2 -13 226486. 8295.53   6
  -1   2  13 232312. 8372.21   7
  -1   2  13 236644. 9116.03   2
   1  -2  13 254493. 8555.63   3
  -1  -2 -13 255864. 9684.46   4
   1  -2  13 226136. 8586.93   1
  -1   2  13 224489. 8603.23  46
   1  -2  13 229804. 8243.72  44
  -1   2  13 240027. 8553.53  45
   1   2 -13 243334. 8968.21  39
  -1   2  13 243863. 8372.90  41
  -1   2  13 229072. 8640.32  18
  -1  -2 -13 253920. 8302.15  19
   1   2 -13 221127. 8036.30  35
  -1  -2 -13 242182. 8222.80  33
   1  -2  13 249281. 8069.05  31
   1   2 -13 242782. 9189.67  27
  -1   2  13 233308. 8434.20  32
   1   2 -13 245214. 8072.30  24
  -1   2  13 232384. 8204.85  21
   1   2 -12 22895.8 1530.87  15
   1  -2  12 24791.0 1364.42  16
  -1  -2 -12 21716.8 1319.55   6
  -1  -2 -12 22833.2 1994.15   4
  -1   2  12 23096.4 1756.37   2
   1  -2  12 26167.4 1505.29   3
   1  -2  12 21776.8 1488.61   1
  -1   2  12 22071.3 1533.31  46
   1  -2  12 22895.8 1309.72  44
  -1   2  12 22856.9 1494.17  45
  -1  -2 -12 23171.3 1336.99  43
  -1   2  12 22900.1 1371.47  41
   1   2 -12 23487.9 1695.22  39
  -1   2  12 21909.6 1518.99  18
  -1  -2 -12 23748.9 1326.12  19
  -1  -2 -12 21284.2 1255.09  33
   1   2 -12 21568.9 1190.85  35
   1   2 -12 23061.3 1801.32  27
  -1   2  12 24184.4 1448.71  32
  -1  -2 -12 22480.4 1268.67  22
   1   2 -12 22092.1 1177.14  24
  -1   2  12 20792.7 1249.51  21
   1   2 -11 30563.6 1806.82  15
   1  -2  11 29352.6 1592.12  16
   1  -2  11 28435.9 1719.67   1
  -1  -2 -11 39269.6 2578.57   4
   1  -2  11 31455.9 1696.88   3
  -1  -2 -11 31480.4 1635.28   6
  -1   2  11 30927.3 2035.38   2
  -1   2  11 32587.3 1872.65  45
  -1   2  11 28268.2 1778.08  46
   1   2 -11 31268.9 1955.90  39
  -1  -2 -11 30676.1 1595.46  43
  -1   2  11 31931.1 1663.78  41
  -1   2  11 29232.0 1792.19  18
  -1  -2 -11 33835.7 1634.11  19
  -1  -2 -11 32689.4 1578.78  33
   1   2 -11 30993.2 1483.04  35
   1   2 -11 30261.1 2081.50  27
  -1   2  11 30183.7 1674.96  32
  -1  -2 -11 34043.8 1587.74  22
   1   2 -10 196484. 6825.79  15
   1  -2  10 191225. 6496.47  16
  -1  -2 -10 167697. 5977.01  40
   1   2 -10 185418. 6967.32  39
   1  -2  10 192253. 6820.28  40
  -1   2  10 190528. 6536.98  41
  -1   2  10 188911. 6769.72  18
  -1  -2 -10 185443. 6413.65  19
  -1  -2 -10 184380. 6366.60  33
   1   2 -10 166590. 6230.15  35
   1   2 -10 190503. 7251.67  27
  -1   2  10 175586. 6508.18  32
  -1   2  10 182128. 6229.92  29
  -1   2  10 187712. 7068.42   2
  -1  -2 -10 190172. 6472.79   6
   1  -2  10 200189. 6587.24   3
   1  -2  10 188601. 6662.37   1
   1   2  -9 65502.6 2997.73  15
   1  -2   9 63357.0 2746.69  16
  -1   2   9 68817.1 2827.27  41
   1   2  -9 68234.7 3161.83  39
   1  -2   9 70693.7 3053.62  40
  -1  -2  -9 65316.6 2378.43  40
  -1   2   9 65778.9 2935.32  18
  -1  -2  -9 69181.6 2728.43  19
  -1  -2  -9 66556.9 2673.00  33
   1   2  -9 60641.6 2572.09  35
   1   2  -9 69082.6 3324.32  27
  -1   2   9 65707.1 2635.12  29
  -1  -2  -9 65722.0 2624.42   9
   1  -2   9 66993.6 2876.99   1
  -1  -2  -9 68815.2 2758.50   6
   1  -2   9 69543.0 2801.16   3
  -1   2   9 71021.2 3237.65   2
   1   2  -8 51060.4 2441.29  15
   1  -2   8 53084.5 2224.83  16
   1  -2   8 41898.8 1762.72  17
   1   2  -8 47929.9 2491.24  39
  -1  -2  -8 50024.5 1863.88  40
   1  -2   8 52413.2 2440.65  40
  -1   2   8 50642.5 2244.28  41
   1   2  -8 53026.3 2706.72  27
  -1   2   8 53351.8 2184.03  29
  -1   2   8 51598.7 2581.86   2
   1  -2   8 53439.4 2314.70   1
   1  -2   8 56314.0 2249.25   3
   1   2  -7 12580.5 990.644  15
   1  -2   7 10879.1 813.108  16
   1  -2   7 10638.1 592.675  17
  -1   2   7 11939.8 868.146  41
   1   2  -7 11140.7 996.804  39
  -1  -2  -7 11182.4 624.010  40
   1  -2   7 11590.9 956.239  40
   1   2  -7 11965.1 815.455  41
   1   2  -7 11169.7 1088.95  27
  -1   2   7 10985.4 820.508  29
   1  -2   7 11188.1 847.195   1
   1  -2   7 11098.4 798.740   3
  -1   2   7 11921.0 1010.16   2
   1   2  -6 20591.2 1323.90  15
   1  -2   6 20295.8 911.780  17
   1   2  -6 19260.2 1364.66  39
   1   2  -6 18163.0 1102.08  41
  -1   2   6 20380.4 1211.60  41
  -1  -2  -6 18697.4 928.910  40
   1  -2   6 21129.1 1309.90  40
  -1   2   6 21580.9 1221.13  29
   1   2  -6 20362.9 1489.46  27
   1  -2   6 21631.1 1190.29   1
   1   2  -5 97015.1 3875.76  15
   1  -2   5 95500.7 3812.69  40
   1   2  -5 88662.1 3547.08  41
  -1  -2  -5 91232.8 3346.40  40
   1   2  -5 96394.0 3953.35  39
   1  -2   5 98048.5 3293.08  17
   1   2  -5 94607.1 4017.93  27
  -1   2   5 98007.2 3720.31  29
   1  -2   5 96008.2 3613.67   1
   1   2  -4 171876. 6214.40  15
   1   2  -4 165217. 5904.09  41
   1   2  -4 168130. 6251.38  39
   1  -2   4 168947. 6132.10  40
  -1  -2  -4 156475. 5690.96  40
   1  -2   4 174036. 5610.91  17
  -1   2   4 171550. 5941.93  39
   1   2  -4 162180. 6309.20  27
  -1  -2  -4 173909. 6216.01   1
   1  -2   4 178131. 5911.91   1
   1   2  -3 320968. 10929.6  15
  -1   2   3 297546. 10701.1  41
   1   2  -3 317720. 10621.8  41
   1  -2   3 324024. 10823.2  40
  -1  -2  -3 318283. 10453.1  40
   1   2  -3 314748. 10938.8  39
   1  -2   3 330024. 10312.9  17
  -1   2   3 324302. 10609.2  39
   1   2  -3 290717. 10977.0  27
   1  -2   3 330593. 10584.1   1
  -1  -2  -3 328635. 10927.3   1
   1   2  -2 46826.7 2190.44  15
   1  -2   2 46111.9 1724.91  17
   1   2  -2 44520.9 2173.37  39
  -1  -2  -2 42579.0 1836.33  40
   1  -2   2 44247.8 2081.52  40
  -1   2   2 41900.2 2029.15  41
  -1   2   2 42169.8 1885.28  39
  -1   2   2 41875.7 2030.20  29
  -1   2   2 41797.7 2099.13  27
   1   2  -2 40366.2 2149.35  27
   1  -2   2 43714.7 1876.00   1
  -1  -2  -2 44880.3 2130.39   1
   1   2  -1 28631.1 1604.29  15
  -1   2   1 26286.4 1002.08  15
   1  -2   1 27078.5 1206.58  17
  -1   2   1 27821.1 1528.24  27
  -1   2   1 27468.3 1496.05  29
   1   2  -1 27640.8 1572.37  27
  -1  -2  -1 28921.6 1580.72   1
   1  -2   1 26759.5 1310.69   1
  -1   2   1 26641.5 1346.41  39
   1   2  -1 29001.5 1603.39  39
  -1  -2  -1 29566.8 1384.87  40
  -1   2   1 27031.0 1505.76  41
   1  -2   1 26996.8 1495.38  40
   1   2   0 10813.7 913.204  15
  -1   2   0 11341.8 593.868  15
   1   2   0 11044.0 916.709  39
  -1  -2   0 11530.3 799.645  40
  -1   2   0 10489.3 736.762  39
   1  -2   0 10839.0 866.065  40
  -1   2   0 10753.0 851.172  27
   1   2   0 10798.0 900.850  27
  -1   2   0 10949.1 870.200  29
  -1  -2   0 11195.8 904.127   1
   1  -2   0 10220.8 709.178   1
  -1  -2   0 10428.3 1057.53   4
   1   2   1 36318.6 1933.41  15
  -1   2  -1 43033.1 1681.07  15
   1  -2  -1 38250.6 1596.54  17
   1  -2  -1 34487.7 1832.83  40
  -1   2  -1 35788.2 1666.17  39
  -1  -2   1 35857.3 1756.64  40
   1   2   1 38351.5 1942.21  39
   1   2   1 38249.1 1789.79  41
  -1   2  -1 34775.5 1836.37  29
   1   2   1 36164.0 1856.95  27
  -1  -2   1 38599.2 1927.59   1
   1   2   2 49416.6 2358.61  15
  -1   2  -2 47080.7 2106.43  15
   1  -2  -2 47166.9 2263.41  40
   1   2   2 47551.4 2295.04  39
  -1  -2   2 50748.3 2223.70  40
  -1   2  -2 45332.6 2024.77  39
   1   2   2 47473.9 2165.11  41
   1  -2  -2 57879.1 2058.92  17
   1   2   2 45229.8 2188.65  27
  -1   2  -2 47922.2 2247.24  29
  -1  -2   2 46356.6 2436.48   4
  -1  -2   2 47541.8 2296.60   1
  -1  -2   2 50634.4 2312.48   3
  -1   2  -3 264191. 10701.0  15
   1   2   3 337538. 11197.9  15
   1   2   3 346344. 10975.3  41
   1  -2  -3 334635. 11060.0  40
  -1  -2   3 314046. 10996.5  40
  -1   2  -3 321831. 10764.3  39
   1  -2  -3 378166. 10794.1  17
   1   2   3 327953. 11108.7  39
   1   2   3 313191. 10887.4  27
  -1   2  -3 306078. 10971.0  29
   1  -2  -3 323527. 11030.3  28
  -1   2  -3 362133. 11053.6  27
  -1  -2   3 335545. 11246.4   4
  -1  -2   3 324464. 11105.9   1
  -1  -2   3 327444. 11096.3   3
  -1   2  -4 159769. 5800.16  15
   1   2   4 162908. 5956.71  41
   1  -2  -4 170996. 6039.75  40
  -1   2  -4 164925. 5777.63  39
   1  -2  -4 189815. 5816.38  17
   1   2   4 161309. 6040.43  39
  -1   2  -4 181550. 6055.44  27
   1   2   4 150269. 5792.30  27
  -1   2  -4 155507. 5959.68  29
   1  -2  -4 169541. 6025.82  28
  -1  -2   4 153041. 6029.94   4
  -1  -2   4 166103. 6094.04   1
  -1  -2   4 155141. 6044.25   3
  -1   2  -5 86954.2 3549.82  15
   1   2   5 89559.0 3689.82  41
  -1   2  -5 90816.4 3537.40  39
   1  -2  -5 107770. 3607.30  17
   1   2   5 88654.5 3761.95  39
  -1   2  -5 90457.4 3761.14  29
   1  -2  -5 90657.3 3712.04  28
  -1   2  -5 115286. 3986.02  27
   1   2   5 86080.0 3506.99  27
  -1  -2   5 88659.7 3718.41   4
  -1  -2   5 95476.5 3868.08   1
  -1  -2   5 93088.5 3836.30   3
  -1   2  -6 16453.3 1057.83  15
   1   2   6 16196.5 1119.56  41
  -1   2  -6 16088.5 1025.73  39
   1  -2  -6 19752.0 1068.67  17
   1   2   6 13132.5 1083.61  39
  -1   2  -6 14769.3 1130.66  29
   1  -2  -6 15761.4 1112.58  28
  -1   2  -6 16026.8 1172.85  27
  -1  -2   6 14040.2 1131.09   1
  -1  -2   6 13719.3 1010.67   4
  -1  -2   6 15851.4 1184.22   3
  -1   2  -7 11150.8 867.942  39
  -1  -2   7 13418.1 1111.92  40
   1   2   7 11461.5 948.574  41
  -1   2  -7 11267.3 880.543  15
   1  -2  -7 11934.5 832.059  17
   1  -2  -7 11555.5 932.351  28
  -1   2  -7 9773.08 794.878  27
  -1  -2   7 10807.5 831.011   4
  -1  -2   7 11184.7 1020.75   1
  -1  -2   7 12606.9 1062.87   3
  -1   2  -8 52890.8 2325.20  39
   1   2   8 51851.1 2471.20  41
  -1  -2   8 47722.3 2557.33  40
  -1   2  -8 57998.7 2429.70  15
  -1  -2   8 46080.8 1910.25  16
   1  -2  -8 60837.2 2309.16  17
   1   2   8 45580.4 1782.70  16
   1  -2  -8 53647.5 2441.67  28
  -1   2  -8 52377.4 2118.49  27
   1   2   8 51435.3 2138.84  27
  -1  -2   8 49251.0 2538.48   1
  -1  -2   8 44730.4 2072.98   4
  -1  -2   8 50373.8 2556.83   3
  -1  -2   9 66186.0 2646.85   4
  -1  -2   9 75190.0 3408.38   3
  -1  -2   9 70415.5 3357.14   1
  -1   2  -9 71286.1 2912.82  24
   1   2   9 77103.1 3309.29  41
  -1  -2   9 73313.0 3474.51  40
  -1   2  -9 73855.9 3104.48  39
  -1  -2   9 70420.4 2719.49  16
   1  -2  -9 82862.8 3036.76  17
  -1  -2   9 67235.8 2928.30  21
   1   2   9 69926.8 2601.52  16
  -1  -2   9 69050.8 2956.27  31
   1   2   9 78587.8 2896.10  27
   1  -2  -9 79608.7 3217.86  28
  -1  -2   9 78870.1 3122.01  30
  -1   2  -9 70778.5 2727.65  27
  -1   2  -9 76863.5 3187.73  15
  -1  -2  10 185866. 7042.68   1
  -1  -2  10 185541. 7061.44   3
  -1   2 -10 176689. 6425.41  24
   1  -2 -10 172507. 6402.58  43
  -1  -2  10 169721. 7089.99  40
   1   2  10 193788. 6923.60  41
  -1   2 -10 193904. 6747.85  39
  -1  -2  10 174939. 6284.70  16
   1   2  10 179884. 6168.06  16
   1  -2 -10 204498. 6550.86  17
  -1  -2  10 182775. 6536.51  21
  -1  -2  10 179573. 6369.01  20
  -1   2 -10 200926. 6524.23  35
  -1   2 -10 179019. 6451.84  34
   1   2  10 195665. 6412.04  27
  -1  -2  10 180129. 6517.40  31
   1  -2 -10 196406. 6793.12  28
  -1  -2  10 192803. 6691.62  30
  -1   2 -10 172708. 6130.93  27
  -1   2 -10 189158. 6760.99  15
  -1   2 -11 24382.9 1560.18  15
  -1  -2  11 29111.5 1870.59   3
  -1  -2  11 26166.4 1804.35   1
  -1  -2  11 25340.8 1409.03  44
   1  -2 -11 23536.2 1353.78  43
   1   2  11 28893.3 1769.32  41
  -1  -2  11 24884.6 1843.33  40
  -1   2 -11 25736.6 1570.62  39
  -1  -2  11 25635.8 1347.60  20
  -1  -2  11 25584.1 1332.46  16
   1  -2 -11 25912.2 1414.24  17
  -1  -2  11 25718.5 1464.86  21
   1   2  11 27232.1 1271.91  16
  -1   2 -11 22342.3 1344.66  34
  -1   2 -11 21899.8 1072.47  27
  -1  -2  11 24429.0 1433.07  31
   1   2  11 29006.5 1378.95  27
   1  -2 -11 26224.7 1591.84  28
  -1  -2  11 27101.9 1574.48  30
  -1   2 -11 24943.9 1384.61  24
   1  -2 -11 23763.3 1261.79  22
  -1  -2  11 23430.8 1469.66  23
  -1  -2  12 24313.5 1815.80   1
  -1  -2  12 23939.0 1804.08   3
  -1   2 -12 25834.8 1401.05   8
  -1  -2  12 24893.6 1443.68  44
   1   2  12 26520.5 1780.63  41
  -1  -2  12 23986.6 1875.73  40
  -1   2 -12 27538.8 1678.63  39
   1   2  12 26364.0 1342.55  16
   1  -2 -12 31437.2 1531.74  17
  -1  -2  12 22943.6 1469.44  21
  -1  -2  12 25458.2 1432.43  16
  -1   2 -12 25882.9 1452.54  34
  -1  -2  12 28096.8 1635.81  30
  -1  -2  12 25520.1 1501.88  31
   1  -2 -12 28379.4 1686.06  28
   1   2  12 26694.4 1383.25  27
  -1   2 -12 24998.0 1443.97  24
  -1  -2  12 25608.6 1560.52  23
   1  -2 -12 26713.9 1343.29  22
   1   2  13 219394. 8196.03   2
  -1   2 -13 211703. 7791.63   8
  -1  -2  13 219125. 8632.76   3
  -1  -2  13 229136. 8646.69   1
  -1  -2  13 232772. 7964.99  44
   1   2  13 243404. 8535.95  41
  -1  -2  13 220048. 8800.41  40
  -1   2 -13 228834. 8274.96  39
  -1  -2  13 215700. 7989.00  16
   1  -2 -13 258329. 7960.83  17
   1  -2 -13 223146. 7571.86  19
   1   2  13 224456. 7772.58  16
  -1  -2  13 230487. 8053.10  21
  -1   2 -13 228162. 7909.77  34
  -1  -2  13 223608. 7996.47  31
  -1  -2  13 237899. 8230.54  30
   1   2  13 236016. 7814.68  27
   1  -2 -13 221565. 8195.85  28
   1   2  13 224591. 7601.97  32
   1  -2 -13 215643. 7692.25  22
  -1   2 -13 224759. 7907.74  24
  -1  -2  13 220253. 8085.10  23
   1   2  14 25932.6 1714.30   2
  -1  -2  14 28583.4 2027.70   3
  -1  -2  14 27779.8 2009.64   1
  -1   2 -14 23995.0 1424.61   8
  -1  -2  14 24902.0 1506.17  44
   1   2  14 25173.8 1856.87  41
  -1  -2  14 27447.9 2073.55  40
  -1   2 -14 24246.2 1690.83  39
  -1  -2  14 22112.0 1635.35  16
  -1  -2  14 27223.4 1616.43  21
   1   2  14 23006.8 1375.57  16
   1  -2 -14 27579.8 1483.96  17
   1  -2 -14 25113.4 1253.21  19
  -1   2 -14 28454.1 2201.56  35
  -1   2 -14 24842.7 1468.51  34
  -1  -2  14 26704.1 1584.22  31
  -1  -2  14 27305.2 1698.26  30
   1   2  14 24379.1 1396.14  27
   1  -2 -14 24370.9 1633.05  28
   1   2  14 26317.0 1304.12  32
  -1   2 -14 26480.3 1518.41  24
   1  -2 -14 23623.6 1330.21  22
  -1  -2  14 25185.0 1614.84  23
   1   2  15 185510. 7421.28   2
  -1  -2  15 190780. 7908.83   3
  -1   2 -15 189913. 6998.71   8
  -1  -2  15 192203. 7844.27   1
   1   2  15 224718. 6726.35  45
  -1  -2  15 190908. 7098.23  44
   1   2  15 208024. 7709.44  41
  -1  -2  15 192211. 7982.18  40
  -1   2 -15 205292. 7533.14  39
  -1  -2  15 186123. 8002.27  16
   1  -2 -15 212794. 7043.95  17
   1  -2 -15 201245. 6702.16  19
   1   2  15 191986. 6962.94  16
  -1  -2  15 194930. 7206.68  21
  -1   2 -15 195255. 7051.05  34
   1   2  15 191145. 6939.07  27
  -1  -2  15 194455. 7167.18  31
  -1  -2  15 205954. 7412.72  30
   1  -2 -15 188998. 7334.90  28
   1   2  15 206453. 6796.32  32
   1  -2 -15 194504. 6853.15  22
  -1   2 -15 202054. 7126.80  24
  -1  -2  15 190262. 7267.62  23
   1   2  16 82887.8 4000.09   2
  -1  -2  16 89905.3 4475.99   3
  -1  -2  16 85579.7 4399.44   1
  -1   2 -16 84937.4 3654.23   8
  -1  -2  16 82114.7 3694.91  44
   1   2  16 98254.1 3393.97  45
   1   2  16 85926.2 4189.69  41
  -1  -2  16 80228.9 4442.64  40
  -1   2 -16 91875.4 4096.11  39
   1  -2 -16 99761.6 3675.11  17
   1   2  16 85013.0 3616.64  16
   1  -2 -16 87249.4 3333.97  19
  -1  -2  16 73869.1 3553.82  20
  -1  -2  16 80493.6 3756.06  21
  -1   2 -16 86927.0 3680.64  34
   1  -2 -16 87612.8 3578.44  34
  -1   2 -16 91007.0 3797.64  35
   1   2  16 93128.5 3472.30  32
  -1  -2  16 82215.3 3749.44  31
  -1  -2  16 89701.9 3970.34  30
   1  -2 -16 87749.5 4002.07  28
   1  -2 -16 88769.2 3519.15  22
  -1   2 -16 93403.9 3799.08  24
  -1  -2  16 83159.5 3853.16  23
  -1  -2  17 28092.9 2244.42   3
  -1  -2  17 27195.0 2208.73   1
   1   2  17 28534.5 2004.48   2
  -1   2 -17 28403.5 1740.67   8
   1   2  17 34551.0 1557.64  45
  -1   2 -17 28876.6 1966.04  39
   1   2  17 32348.6 2178.30  41
   1  -2 -17 29328.3 1646.28  17
   1   2  17 28694.3 1697.18  16
  -1  -2  17 25211.8 1698.16  20
  -1  -2  17 38557.6 2284.44  16
   1  -2 -17 28702.3 1445.77  19
  -1  -2  17 30666.5 1878.58  21
   1  -2 -17 28438.9 1632.20  34
  -1   2 -17 31056.5 1772.89  34
  -1   2 -17 29232.3 1687.53  35
  -1   2 -17 24140.7 1849.45  29
   1   2  17 29040.2 1542.95  32
  -1  -2  17 28624.7 1826.42  31
   1  -2 -17 25769.2 1875.59  28
  -1  -2  17 31311.4 1995.77  30
   1  -2 -17 26175.9 1541.73  22
  -1  -2  17 29347.2 1891.25  23
  -1   2 -17 29194.6 1817.99  24
   1   2  18 48528.8 2855.37   2
  -1   2 -18 47708.2 2582.72   8
  -1  -2  18 47855.0 3216.67   3
  -1  -2  18 49876.3 3220.89   1
   1   2  18 57303.0 2353.48  45
  -1   2 -18 53848.2 2909.25  39
   1   2  18 52263.4 3008.69  41
  -1  -2  18 48665.9 2680.57  21
  -1  -2  18 59521.5 2941.36  16
   1   2  18 47941.5 2501.45  16
   1  -2 -18 56295.5 2490.84  17
   1  -2 -18 53760.5 2238.88  19
  -1  -2  18 54906.0 2789.24  20
   1  -2 -18 49215.6 2446.14  34
  -1   2 -18 51202.2 2428.57  35
  -1   2 -18 50299.1 2565.13  34
   1   2  18 52259.4 2370.86  32
  -1  -2  18 46760.8 2634.98  31
   1  -2 -18 47196.1 2800.93  28
  -1  -2  18 52591.5 2844.62  30
  -1   2 -18 52126.6 2717.56  24
   1  -2 -18 48960.4 2383.26  22
  -1  -2  18 49397.4 2746.75  23
  -1   2 -19 56744.8 2918.44  24
   1  -2 -19 58018.9 2634.64  22
  -1  -2  19 53260.6 2937.64  23
   1   2  19 60354.5 3252.66  41
   1  -2 -19 53814.8 2697.91  43
  -1   2 -19 56419.8 3069.26  39
  -1  -2  19 61158.6 2863.46  20
  -1  -2  19 57874.9 2972.25  16
   1   2  19 54251.8 2719.58  16
   1  -2 -19 62174.9 2672.28  17
   1  -2 -19 54884.6 2366.67  19
  -1  -2  19 55080.1 2926.64  21
   1  -2 -19 50538.5 2635.04  34
  -1   2 -19 57251.8 2582.15  35
  -1   2 -19 56069.9 2787.11  34
  -1   2 -19 53534.2 2949.36  29
   1  -2 -19 51881.4 3065.43  28
  -1  -2  19 58511.4 3067.57  30
  -1  -2  19 51854.5 2864.69  31
   1   2  19 55819.2 2574.81  32
  -1  -2  19 51195.7 3444.91   3
  -1  -2  19 50129.5 3392.25   1
   1   2  19 54143.4 3068.63   2
  -1   2 -19 52474.4 2835.25   8
  -1   2 -20 40212.3 2255.44  24
   1  -2 -20 36573.6 1947.43  22
  -1  -2  20 32972.2 2239.02  23
   1   2  20 37645.7 2490.07  41
   1  -2 -20 35373.0 2048.77  43
  -1   2 -20 33606.9 2313.51  39
   1   2  20 35754.5 2102.09  16
  -1  -2  20 37213.2 2240.95  16
  -1  -2  20 34015.2 2228.68  21
  -1  -2  20 42207.7 2128.50  20
   1  -2 -20 33795.9 1941.29  34
  -1   2 -20 39087.2 1933.22  35
  -1   2 -20 36439.6 2148.14  34
  -1   2 -20 33822.4 2233.43  29
  -1  -2  20 33826.0 2228.16  31
  -1  -2  20 36556.6 2340.92  30
   1  -2 -20 31012.9 2260.49  28
   1   2  20 36359.4 1937.82  32
   1   2  20 35239.8 2365.58   2
  -1  -2  20 35868.2 2763.00   1
  -1  -2  20 38994.2 2874.31   3
  -1   2 -20 34319.0 2146.99   8
  -1  -2  21 19175.8 2003.95   3
   1   2  21 16928.1 1570.45   2
  -1  -2  21 17542.7 1932.09   1
  -1   2 -21 15140.4 1376.46   8
  -1   2 -21 21592.9 1534.52  24
   1   2  21 18409.8 1170.19  23
   1  -2 -21 17449.3 1261.71  22
  -1  -2  21 18287.5 1601.80  23
   1   2  21 20294.9 1764.83  41
   1  -2 -21 18263.1 1375.38  43
  -1   2 -21 17558.5 1585.83  39
  -1  -2  21 19315.3 1328.45  20
  -1  -2  21 19272.1 1604.37  21
   1   2  21 18049.7 1422.90  16
  -1  -2  21 19828.7 1561.44  16
  -1   2 -21 19165.2 1492.11  34
  -1   2 -21 19874.9 1262.19  35
   1  -2 -21 16377.1 1259.11  34
  -1   2 -21 17537.8 1533.51  29
  -1  -2  21 18052.4 1549.29  31
  -1  -2  21 21848.5 1695.32  30
   1  -2 -21 16912.8 1563.05  28
   1   2  21 18820.9 1307.97  32
  -1   2 -21 17498.7 1380.41  14
   1  -2 -21 21267.1 1620.04  14
  -1   2 -22 31965.8 1921.43  14
   1  -2 -22 26630.9 1951.42  14
  -1  -2  22 32142.3 2666.75   3
   1   2  22 26222.7 2037.46   2
  -1  -2  22 30699.7 2637.66   1
  -1   2 -22 27537.6 1886.66   8
  -1  -2  22 28315.9 1987.90  48
  -1   2 -22 31923.5 2226.19  39
   1  -2 -22 29211.9 1822.66  43
   1   2  22 29154.5 2206.21  41
  -1  -2  22 29139.5 1707.31  20
  -1  -2  22 25839.4 1915.64  16
   1  -2 -22 33024.9 1810.57  17
   1   2  22 27857.4 1889.97  16
  -1  -2  22 26278.1 2008.53  21
  -1   2 -22 29993.6 1939.46  34
  -1   2 -22 30086.3 1647.11  35
   1  -2 -22 28866.6 1745.94  34
  -1   2 -22 28913.2 2068.00  29
   1   2  22 27788.8 1723.52  32
  -1  -2  22 28124.2 2007.82  31
   1  -2 -22 26873.6 2030.41  28
  -1  -2  22 30271.1 2087.03  30
   1  -2 -22 28139.1 1567.18  24
  -1  -2  22 31052.3 2149.82  23
  -1   2 -22 29959.9 1921.93  24
   1  -2 -22 31521.1 1757.56  22
   1   2  22 30438.6 1626.05  23
  -1  -2  23 77.9747 223.484  16
   1   2  23 145.737 225.579  16
  -1   2 -23 377.357 275.277  14
   1  -2 -23 460.288 310.833  14
  -1  -2  23 278.280 281.908   1
  -1  -2  23 278.070 281.695   3
   1   2  23 91.6982 262.762   2
   1   2  23 393.892 223.126  45
  -1  -2  23 156.018 273.761  48
   1   2  23 291.681 254.339  41
   1  -2 -23 468.991 274.309  43
  -1  -2  23 240.948 218.389  20
   1  -2 -23 320.461 197.666  17
  -1  -2  23 321.868 266.246  21
  -1   2 -23 68.8984 241.824  34
  -1   2 -23 670.048 233.732  35
   1  -2 -23 252.340 220.955  34
   1  -2 -23 171.102 245.167  28
  -1   2 -23 82.8042 193.824  29
   1   2  23 771.321 295.320  32
  -1  -2  23 385.842 312.670  31
   1  -2 -23 386.376 202.215  24
  -1   2 -23 449.194 290.713  24
   1   2  23 171.586 187.862  23
  -1  -2  23 602.682 376.754  23
   1  -2 -24 50654.8 2885.28  14
  -1   2 -24 56009.8 2777.71  14
  -1  -2  24 53987.4 3721.34   3
  -1  -2  24 54216.8 3696.63   1
  -1  -2  24 49284.1 2861.03  48
   1   2  24 50657.4 2525.96  45
   1   2  24 48866.5 3110.33  41
   1  -2 -24 52625.3 2665.36  43
  -1  -2  24 50045.7 2866.58  16
  -1  -2  24 53526.5 2487.82  20
   1  -2 -24 49813.1 2556.23  17
  -1  -2  24 53122.7 2970.04  21
   1  -2 -24 51563.6 2536.25  34
  -1   2 -24 54478.4 2860.64  34
  -1   2 -24 51599.8 2413.64  35
  -1   2 -24 52190.0 2975.82  29
  -1  -2  24 55911.8 2944.12  31
   1  -2 -24 52692.8 3013.22  28
   1   2  24 48340.5 2566.03  32
   1  -2 -24 47817.4 2274.94  24
  -1   2 -24 56650.0 2786.76  24
   1   2  24 55756.7 2505.24  23
  -1  -2  24 52757.1 3048.29  23
  -1   2 -25 71688.7 3303.44  14
   1  -2 -25 67124.5 3481.04  14
  -1  -2  25 68249.5 4283.00   1
  -1  -2  25 74494.9 4414.90   3
  -1  -2  25 62145.2 3393.36  48
   1   2  25 70054.2 3142.62  45
   1   2  25 73890.1 3279.91  47
   1  -2 -25 72181.8 3233.01  43
   1  -2 -25 71078.3 3193.32  17
  -1  -2  25 72918.7 3579.49  21
  -1  -2  25 66046.1 2964.51  20
  -1  -2  25 62626.7 3422.79  16
   1  -2 -25 64225.1 3046.29  34
  -1   2 -25 65370.8 2914.13  35
  -1   2 -25 67551.0 3349.12  34
  -1  -2  25 68874.4 3447.46  31
  -1   2 -25 62227.1 3462.12  29
   1  -2 -25 64800.2 3534.05  28
   1   2  25 67656.2 3178.76  32
   1  -2 -25 63306.8 2779.92  24
  -1  -2  25 74667.3 3698.57  23
  -1   2 -25 70819.8 3299.06  24
   1   2  25 71795.9 3050.19  23
  -1   2 -26 11383.4 1089.89  14
   1  -2 -26 10737.2 1192.54  14
  -1  -2  26 13791.1 1735.17   3
  -1  -2  26 13449.3 1705.69   1
  -1  -2  26 11867.1 1240.54  48
   1   2  26 12454.2 1127.82  47
   1   2  26 12301.9 1079.39  45
   1  -2 -26 13027.7 1119.57  43
  -1  -2  26 13046.4 1001.74  20
  -1  -2  26 12271.6 1298.96  21
   1  -2 -26 10691.3 1026.82  17
  -1  -2  26 10453.0 1202.46  16
   1  -2 -26 11753.4 1015.44  34
  -1   2 -26 12518.7 1210.47  34
  -1  -2  26 12963.6 1250.45  31
   1  -2 -26 12535.3 1311.17  28
   1   2  26 13878.6 1167.23  32
   1  -2 -26 12158.2 874.565  24
  -1   2 -26 12358.6 1146.89  24
   1   2  26 13130.2 1057.56  23
  -1  -2  26 13701.0 1359.11  23
   1  -2 -27 73094.5 3724.79  14
  -1   2 -27 72023.7 3444.88  14
  -1   2 -27 71759.0 3455.29  13
   1   2  27 79807.8 3539.68  47
   1   2  27 76399.5 3442.53  45
  -1  -2  27 73065.5 3685.70  48
   1  -2 -27 77043.0 3416.54  43
  -1  -2  27 76792.6 3203.06  20
  -1  -2  27 83530.6 3860.65  21
  -1   2 -27 76520.7 3608.76  34
   1  -2 -27 80166.5 3371.89  34
   1   2  27 72100.3 3087.14  31
  -1  -2  27 75013.0 3664.76  31
   1   2  27 70838.4 3387.61  32
  -1  -2  27 78463.9 3785.42  30
   1  -2 -27 73215.1 3001.10  24
   1   2  27 79461.4 3405.46  23
  -1  -2  27 77957.2 3840.20  23
  -1   2 -27 79118.2 3554.48  24
  -1   2 -28 37470.2 2104.74  14
  -1   2 -28 32898.0 2034.29  13
   1  -2 -28 35467.8 2303.14  14
  -1  -2  28 37637.8 2289.70  48
   1   2  28 37542.4 2132.19  47
   1   2  28 34888.7 2059.77  45
   1  -2 -28 37648.7 2055.11  43
  -1  -2  28 38325.1 2378.62  21
   1  -2 -28 36193.0 1972.99  34
  -1   2 -28 36774.1 2184.92  34
   1   2  28 35333.3 1806.19  31
  -1  -2  28 38809.2 2285.51  31
  -1  -2  28 38235.0 2333.87  30
   1   2  28 32651.4 1987.87  32
   1  -2 -28 35823.2 1698.39  24
   1   2  28 36346.6 2048.96  23
   1  -2 -28 37870.8 1969.09  22
  -1  -2  28 36606.9 2349.26  23
  -1   2 -28 37426.5 2151.81  24
   1  -2 -29 19350.8 1570.73  14
  -1   2 -29 18652.1 1401.46  13
  -1   2 -29 19901.8 1422.07  14
   1   2  29 22620.3 1528.91  47
  -1  -2  29 16330.3 1429.56  48
   1   2  29 18700.9 1405.89  45
   1  -2 -29 21041.7 1404.55  43
  -1  -2  29 18620.5 1550.81  21
  -1   2 -29 18655.3 1458.74  34
   1  -2 -29 19035.8 1326.04  34
   1   2  29 21080.3 1250.48  31
  -1  -2  29 19909.3 1554.45  31
  -1  -2  29 18409.2 1561.48  23
  -1   2 -29 20339.1 1457.95  24
   1   2  29 23605.7 1486.20  23
   1  -2 -29 20626.4 1326.49  22
   1  -2 -30 6282.00 892.121  14
  -1   2 -30 7058.73 781.240  14
  -1   2 -30 5698.31 724.998  13
   1   2  30 6297.92 768.248  45
   1   2  30 5776.02 764.516  47
  -1  -2  30 7376.38 867.277  48
   1  -2 -30 6711.62 724.778  43
  -1  -2  30 8154.38 954.365  21
   1  -2 -30 6847.54 729.324  34
  -1   2 -30 7861.76 887.344  34
  -1  -2  30 5917.42 723.154  36
   1   2  30 7038.31 669.851  31
  -1  -2  30 6940.63 865.061  31
  -1   2 -30 6674.80 806.243  24
   1   2  30 7008.05 787.115  23
   1  -2 -30 6662.89 700.894  22
  -1  -2  30 7034.92 921.321  23
   1  -2 -31 63776.6 3281.71  14
  -1   2 -31 67284.6 3077.29  13
  -1   2 -31 69469.6 3064.28  14
  -1  -2  31 69857.1 3242.38  44
  -1  -2  31 66596.1 3138.88  48
   1   2  31 69397.0 3154.43  47
   1   2  31 67659.5 3118.39  45
   1  -2 -31 69726.5 2983.58  43
  -1  -2  31 70959.3 3375.03  21
   1  -2 -31 71143.7 3027.65  34
  -1  -2  31 68237.0 2997.77  36
  -1   2 -31 68689.1 3205.53  34
   1   2  31 69017.4 2865.47  31
  -1  -2  31 66539.7 3238.57  31
   1   2  31 67668.7 3169.21  21
  -1   2 -31 67043.9 3121.32  24
   1   2  31 67789.0 3120.87  23
   1  -2 -31 68752.3 2939.11  22
  -1  -2  31 65764.1 3305.39  23
   1  -2 -32 22069.3 1594.73  14
  -1   2 -32 21912.9 1400.70  13
  -1  -2  32 23299.6 1532.42  44
   1   2  32 20535.9 1400.99  45
   1   2  32 24313.9 1520.53  47
  -1  -2  32 20711.8 1385.38  48
   1  -2 -32 22993.7 1344.64  43
  -1  -2  32 19616.4 1509.06  21
   1  -2 -32 24067.2 1412.37  34
  -1  -2  32 21787.8 1285.05  36
  -1   2 -32 24487.9 1549.94  34
   1   2  32 22331.4 1277.89  31
  -1  -2  32 20432.2 1506.44  31
   1   2  32 22715.6 1488.93  21
   1   2  32 24129.2 1514.09  23
  -1  -2  32 20818.4 1531.68  23
   1  -2 -32 23587.4 1340.45  22
  -1   2 -32 21037.5 1426.51  24
   1  -2 -33 30817.0 1922.81  14
  -1   2 -33 34168.6 1746.70  13
   1   2  33 33307.9 1846.65  47
   1  -2 -33 31736.8 1621.98  43
  -1  -2  33 34883.6 1886.56  44
  -1  -2  33 35637.0 2001.63  21
  -1   2 -33 32019.9 1835.05  34
   1  -2 -33 33189.8 1737.86  34
  -1  -2  33 30849.4 1857.42  31
  -1  -2  33 31517.3 1888.98  23
   1   2  33 33358.1 1834.08  21
   1   2  33 34639.3 1880.61  23
   1  -2 -33 31530.6 1619.48  22
  -1   2 -34 10697.5 790.931  13
   1  -2 -34 10593.1 971.985  14
   1   2  34 11295.0 924.933  47
   1  -2 -34 9234.97 702.238  43
  -1  -2  34 10678.3 889.288  44
  -1  -2  34 9523.98 923.789  21
   1  -2 -34 10479.5 820.869  34
  -1   2 -34 10401.4 898.032  34
  -1  -2  34 9294.84 883.017  31
   1   2  34 9776.09 846.798  21
   1   2  34 9769.41 886.022  23
   1  -2 -34 10131.2 746.285  22
  -1  -2  34 9748.60 892.100  23
   1   2  35 28112.8 1542.54  47
   1   2  35 28569.5 1591.94  44
  -1  -2  35 28047.1 1516.50  44
  -1  -2  35 30137.6 1655.90  21
   1  -2 -35 28628.7 1456.57  34
  -1   2 -35 27909.2 1531.88  34
  -1   2 -35 27394.3 1477.40  24
   1   2  35 28167.4 1582.05  23
   1   2  35 26933.4 1483.18  21
  -1  -2  35 30164.6 1583.89  23
   1  -2 -35 25853.0 1304.19  22
  -1   2 -35 25847.9 1287.01  13
   1  -2 -35 27465.7 1623.07  14
   1  -2 -36 21026.3 1381.33  14
  -1   2 -36 25458.3 1401.94   8
   1   2  36 25916.6 1428.75  44
   1   2  36 26310.0 1400.35  47
  -1   2 -36 26614.3 1402.07  42
   1  -2 -36 25700.1 1318.98  34
  -1  -2  36 26016.3 1435.67  31
   1   2  36 26545.7 1448.40  23
  -1  -2  36 25143.9 1446.35  21
   1   2  37 8306.92 648.802  47
   1  -2 -37 6577.07 632.055  14
   1   2  37 6541.62 618.856  23
  -1  -2  37 7707.72 661.257  21
   1   2  38 39763.9 1634.50  47
   1  -2 -38 32886.9 1592.76  14
   1   2  39 1388.80 206.984  47
  -1   3  36 22992.8 1114.04  47
  -1  -3 -36 22775.6 1144.28  50
  -1  -3 -36 24120.1 1289.18  26
   1   3 -36 25665.2 1173.33  14
  -1   3  35 12891.2 852.112  47
   1   3 -35 14747.9 900.911  14
   1   3 -34 49214.8 2089.53  14
  -1   3  34 43126.6 2014.96  47
  -1   3  34 45100.9 2259.10  45
  -1  -3 -34 47455.0 2029.09  43
   1  -3  34 44600.5 1910.52  20
  -1   3  34 43138.3 2187.86  32
  -1  -3 -34 46030.3 1975.31  22
   1   3 -34 46773.7 1972.17  24
  -1   3  33 39867.7 1755.75  11
   1   3 -33 45085.5 2076.09  14
  -1   3  33 42651.8 2045.95   5
  -1   3  33 44411.3 2316.13  45
  -1  -3 -33 39822.2 2155.99  50
  -1   3  33 41942.2 2032.91  47
  -1  -3 -33 41237.4 1972.19  43
   1  -3  33 40622.6 1998.77  44
   1  -3  33 42591.9 1901.41  20
  -1  -3 -33 39364.1 1911.45  37
   1  -3  33 38836.8 1857.78  31
  -1   3  33 40566.9 2208.30  32
  -1  -3 -33 40997.2 1926.35  22
   1   3 -33 41526.2 1923.82  24
  -1   3  33 43236.5 1982.02  21
  -1   3  32 16910.9 1036.26  11
   1   3 -32 17767.3 1224.66  14
  -1   3  32 17282.4 1246.17   5
  -1   3  32 16248.8 1169.14  47
  -1  -3 -32 17820.8 1362.07  50
  -1   3  32 18770.3 1430.54  45
  -1  -3 -32 15229.8 1093.89  43
   1  -3  32 14960.4 1038.07  20
   1   3 -32 17493.6 986.783  35
  -1  -3 -32 17487.1 1180.40  37
   1  -3  32 14172.7 1015.49  31
  -1   3  32 15882.0 1327.35  32
   1   3 -32 17701.8 1110.30  24
  -1   3  32 16960.7 1139.32  21
  -1  -3 -32 16404.8 1096.26  22
   1   3 -31 34581.6 1945.79  14
  -1   3  31 34731.9 2031.41   5
  -1   3  31 33791.0 2162.46  45
  -1   3  31 33580.7 1915.63  47
  -1  -3 -31 36352.1 2178.23  50
  -1  -3 -31 33554.2 1837.39  43
   1  -3  31 38137.3 1833.34  20
  -1  -3 -31 34121.7 1926.38  37
   1   3 -31 34773.5 1645.78  35
  -1   3  31 31043.1 2095.84  32
   1  -3  31 34515.9 1787.48  31
  -1   3  31 33563.6 1845.87  21
  -1  -3 -31 34734.6 1814.76  22
   1   3 -31 33419.6 1763.24  24
   1   3 -30 4097.27 620.704  14
  -1   3  30 3207.27 638.412  45
  -1   3  30 3595.92 584.196  47
  -1  -3 -30 2347.04 462.087  43
   1  -3  30 3294.76 484.846  20
  -1  -3 -30 3147.10 487.118  19
  -1  -3 -30 2692.46 541.137  37
  -1   3  30 2430.76 583.335  32
   1  -3  30 2437.24 432.679  31
   1   3 -30 3279.82 480.835  24
  -1  -3 -30 3820.92 533.111  22
   1   3 -29 19359.6 1460.32  14
   1   3 -29 16033.4 1052.54   8
  -1   3  29 19091.1 1622.55  45
  -1   3  29 20291.9 1466.55  47
  -1  -3 -29 20883.9 1400.42  43
   1  -3  29 20457.7 1317.47  20
  -1  -3 -29 21624.9 1553.49  37
  -1   3  29 18407.0 1622.05  32
   1  -3  29 18942.2 1300.30  31
   1   3 -29 20236.3 1314.49  24
  -1  -3 -29 18192.6 1283.61  22
   1   3 -28 42132.0 2390.71  14
  -1   3  28 37355.0 2466.33   5
   1   3 -28 40584.9 1908.61   8
  -1   3  28 41767.3 2606.60  45
  -1   3  28 41434.9 2374.90  47
  -1  -3 -28 43477.3 2283.95  43
   1  -3  28 43273.3 2169.67  20
   1   3 -28 41808.5 2000.12  35
   1  -3  28 39393.6 1917.69  33
  -1  -3 -28 43233.4 2475.14  37
   1  -3  28 39381.8 2135.73  31
  -1   3  28 40301.5 2599.07  32
   1   3 -28 45350.9 2194.85  24
  -1  -3 -28 41247.2 2166.39  22
   1   3 -27 18701.0 1527.54  14
  -1   3  27 20815.2 1757.52   5
  -1   3  27 20965.3 1752.72  45
  -1   3  27 18461.0 1500.31  47
  -1  -3 -27 22340.8 1519.37  43
  -1   3  27 18322.1 1597.60  18
  -1  -3 -27 20129.6 1430.13  19
   1  -3  27 20076.5 1363.57  21
   1  -3  27 21496.4 1403.80  20
   1  -3  27 19111.3 1197.80  33
  -1  -3 -27 22549.5 1700.47  37
   1   3 -27 17717.4 1204.10  35
   1  -3  27 19072.9 1369.34  31
  -1   3  27 20550.7 1754.96  32
  -1   3  27 19145.0 1400.00  23
  -1  -3 -27 20253.9 1391.44  22
   1   3 -27 21029.8 1384.06  24
  -1  -3 -26 16892.2 1498.38  14
   1   3 -26 22335.1 1704.35  14
  -1   3  26 21526.5 1843.63   5
   1  -3  26 21453.3 1448.26  48
  -1   3  26 22196.2 1838.37  45
  -1   3  26 21773.8 1673.20  47
  -1  -3 -26 21652.6 1542.73  43
   1  -3  26 24465.9 1535.55  20
   1  -3  26 23237.2 1530.01  21
  -1   3  26 20301.6 1785.37  18
  -1  -3 -26 25253.4 1621.96  19
   1   3 -26 22498.6 1358.23  35
  -1  -3 -26 24248.8 1824.48  37
   1  -3  26 21493.7 1329.09  33
  -1   3  26 21634.1 1816.85  32
   1  -3  26 20766.7 1455.62  31
  -1  -3 -26 24028.8 1539.38  22
  -1   3  26 21899.7 1516.88  23
   1   3 -25 21777.8 1715.40  14
  -1  -3 -25 19205.6 1604.10  14
  -1   3  25 21552.6 1895.49   5
  -1   3  25 21191.8 1821.15  45
  -1   3  25 22079.0 1695.25  47
   1  -3  25 23308.0 1554.55  48
  -1  -3 -25 22567.5 1585.21  43
  -1   3  25 20419.3 1829.11  18
  -1  -3 -25 25488.6 1667.05  19
   1  -3  25 21607.5 1521.33  21
   1  -3  25 23129.4 1535.95  20
   1  -3  25 20314.6 1331.53  33
   1   3 -25 23002.5 1393.29  35
  -1  -3 -25 25965.1 1934.58  37
  -1   3  25 23629.5 1894.66  32
   1  -3  25 20931.3 1480.68  31
  -1  -3 -25 22581.5 1510.35  22
  -1   3  25 22429.7 1547.10  23
  -1  -3 -24 8419.58 1071.17  14
   1   3 -24 14107.7 1332.24  14
   1  -3  24 11616.6 1083.21  48
  -1   3  24 9821.59 1219.58  45
  -1   3  24 10706.6 1165.21  47
   1   3 -24 12371.3 774.171  46
  -1  -3 -24 12110.2 1120.50  43
  -1  -3 -24 13162.9 1164.25  19
   1  -3  24 13423.5 1159.47  21
   1  -3  24 11979.9 1082.68  20
   1  -3  24 11947.7 969.641  33
   1   3 -24 12986.8 978.754  35
  -1  -3 -24 12167.9 1334.41  37
   1  -3  24 12605.7 1088.58  31
  -1   3  24 11172.4 1305.27  32
  -1   3  24 13019.3 1170.92  21
  -1   3  24 10404.1 1020.38  23
  -1  -3 -24 11650.1 1060.98  22
   1   3 -23 2118.71 613.868  15
  -1  -3 -23 1588.15 476.426  14
   1   3 -23 1530.07 518.483  14
   1  -3  23 1510.02 435.762  16
  -1  -3 -23 1470.46 690.841   4
  -1   3  23 2278.50 688.587   2
  -1   3  23 1755.72 583.078  45
   1  -3  23 2175.85 487.859  48
   1   3 -23 1736.91 283.539  46
  -1   3  23 1795.00 572.354  47
   1  -3  23 1706.71 616.325  40
  -1  -3 -23 1692.06 466.496  43
   1  -3  23 1827.10 442.304  20
  -1   3  23 1208.46 410.815  21
  -1  -3 -23 1858.20 461.144  19
   1  -3  23 1723.27 438.410  21
   1   3 -23 1602.55 354.908  35
  -1  -3 -23 1341.95 493.533  37
   1   3 -23 1820.75 664.964  39
  -1   3  23 1428.94 555.123  32
   1  -3  23 2829.65 502.421  31
  -1   3  23 1390.71 380.999  23
  -1  -3 -23 2014.15 425.567  22
   1   3 -22 119504. 5062.17  14
  -1  -3 -22 92834.5 4732.61  14
   1  -3  22 113005. 4899.78  16
   1   3 -22 99572.8 5278.29  15
  -1  -3 -22 114143. 6179.56   4
  -1   3  22 109775. 5814.75   2
   1  -3  22 102767. 5388.21   1
   1  -3  22 117255. 4768.83  48
   1   3 -22 109136. 4014.80  46
  -1   3  22 106429. 4892.68  47
  -1   3  22 109808. 5029.31  45
  -1  -3 -22 106603. 4605.10  43
   1  -3  22 97697.6 5488.09  40
   1   3 -22 110450. 5723.62  39
   1  -3  22 111014. 4572.34  20
  -1  -3 -22 121132. 4714.88  19
   1  -3  22 120238. 4769.24  21
   1   3 -22 114895. 4348.93  35
  -1  -3 -22 115640. 5187.92  37
   1   3 -22 96856.1 4770.64  27
   1  -3  22 111893. 4540.33  31
  -1   3  22 107901. 5034.24  32
  -1   3  22 110965. 4664.92  21
  -1   3  22 111239. 4536.52  23
  -1  -3 -22 108179. 4459.08  22
  -1  -3 -21 8605.47 1075.62  14
   1  -3  21 9253.55 1065.99  16
   1   3 -21 10840.1 1183.62  14
   1   3 -21 10106.9 1299.22  15
   1  -3  21 8832.07 1245.11   1
  -1   3  21 10228.1 1488.63   2
  -1   3  21 9856.01 1179.72  45
   1   3 -21 10438.0 738.128  46
  -1   3  21 8535.44 1080.18  47
   1  -3  21 10308.8 1065.09  48
  -1  -3 -21 9143.00 986.669  43
   1  -3  21 8189.30 1305.13  40
   1   3 -21 10208.7 1425.54  39
  -1   3  21 8907.53 1207.35  18
  -1  -3 -21 10644.3 1036.37  19
   1  -3  21 10451.5 1028.18  21
   1  -3  21 10998.3 1001.05  20
  -1  -3 -21 8482.01 1133.93  37
   1   3 -21 10523.0 866.227  35
   1  -3  21 10595.0 924.487  33
   1  -3  21 9368.91 923.175  31
  -1   3  21 10707.2 1197.64  32
   1   3 -21 8973.86 1099.44  27
   1   3 -21 10535.0 941.924  24
  -1   3  21 10058.8 1017.99  21
  -1   3  21 8105.12 868.584  23
  -1  -3 -21 9470.67 912.994  22
   1  -3  20 57953.6 3132.44  16
  -1  -3 -20 54037.6 3131.82  14
   1   3 -20 63069.0 3274.32  14
   1   3 -20 52925.7 3376.25  15
   1  -3  20 57415.5 3537.72   1
  -1   3  20 59423.7 3908.90   2
  -1  -3 -20 47494.9 3838.88   4
   1  -3  20 61890.8 3029.38  48
  -1   3  20 58157.1 3184.97  45
   1   3 -20 59560.7 2447.76  46
  -1   3  20 54173.1 3163.19  47
  -1  -3 -20 61454.7 2974.05  43
   1  -3  20 57531.4 3715.38  40
   1   3 -20 64668.3 3918.90  39
  -1   3  20 57599.7 3434.19  18
  -1  -3 -20 57044.4 2919.48  19
   1  -3  20 59460.5 2939.51  21
   1  -3  20 68240.6 2971.13  20
   1   3 -20 69034.7 2754.96  35
  -1  -3 -20 60371.7 3377.98  37
   1  -3  20 55659.6 2773.41  31
  -1   3  20 60155.2 3243.21  32
   1   3 -20 54794.2 3245.99  27
   1   3 -20 63910.5 2829.23  24
  -1   3  20 57073.3 2907.39  21
  -1   3  20 59912.0 2844.83  23
  -1  -3 -19 4694.18 776.094  14
   1   3 -19 4030.91 748.689  14
   1   3 -19 4491.51 846.812  15
   1  -3  19 4070.58 720.887  16
  -1  -3 -19 8424.28 1412.75   4
   1  -3  19 4271.20 841.639   1
  -1   3  19 4828.93 1031.22   2
  -1   3  19 5265.40 830.375  45
   1  -3  19 4600.57 699.619  48
   1   3 -19 5283.03 511.836  46
  -1   3  19 6499.98 919.877  47
   1  -3  19 3583.51 862.686  40
  -1  -3 -19 5247.51 716.580  43
   1  -3  19 5040.52 770.969  44
  -1   3  19 4978.28 887.032  18
   1  -3  19 4282.68 629.414  20
  -1  -3 -19 5893.50 754.037  19
   1  -3  19 4118.96 622.088  21
  -1  -3 -19 5137.76 672.363  33
   1   3 -19 4789.38 576.157  35
  -1  -3 -19 4895.17 831.299  37
   1   3 -19 4913.07 985.503  39
   1  -3  19 3861.80 589.678  31
   1   3 -19 5672.74 894.835  27
  -1   3  19 5678.05 858.303  32
   1   3 -19 4541.89 592.672  24
  -1   3  19 4497.00 667.235  21
  -1   3  19 5909.66 711.002  23
  -1  -3 -18 111756. 5404.66  14
   1   3 -18 133853. 5933.97  15
   1  -3  18 127625. 5478.11  16
   1   3 -18 132406. 5604.58  14
  -1   3  18 128941. 6459.36   2
  -1  -3 -18 136602. 6904.21   4
   1  -3  18 133460. 6005.46   1
   1  -3  18 135293. 5832.51   3
   1  -3  18 142140. 5393.82  48
  -1   3  18 126211. 5615.24  46
  -1   3  18 125997. 5580.53  47
  -1   3  18 131336. 5586.63  45
   1   3 -18 126563. 4749.04  46
   1  -3  18 132443. 6206.83  40
   1   3 -18 133918. 6327.70  39
   1  -3  18 129659. 5418.18  44
  -1   3  18 124163. 5816.45  18
  -1  -3 -18 140643. 5327.64  19
   1  -3  18 130494. 5230.24  21
   1  -3  18 140900. 5283.42  20
   1   3 -18 140127. 5028.26  35
  -1  -3 -18 132439. 5189.06  33
  -1  -3 -18 143165. 5851.67  37
   1   3 -18 123421. 5823.82  27
   1  -3  18 128087. 5103.15  31
  -1   3  18 134378. 5615.56  32
  -1   3  18 133458. 5298.42  21
   1   3 -18 141253. 5125.01  24
  -1   3  18 138759. 5257.17  23
   1  -3  17 145880. 5785.48  16
  -1  -3 -17 124156. 5728.05  14
   1   3 -17 131133. 5781.36  14
   1   3 -17 137157. 6171.96  15
  -1  -3 -17 136481. 7072.13   4
  -1   3  17 135767. 6710.76   2
   1  -3  17 152318. 6351.17   1
   1  -3  17 152398. 6153.88   3
  -1   3  17 144496. 5890.04  45
  -1   3  17 135000. 5948.97  46
  -1   3  17 142712. 5912.95  47
   1   3 -17 130663. 5052.49  46
   1  -3  17 162295. 5743.63  48
  -1   3  17 140746. 6091.16  41
   1  -3  17 147482. 6537.06  40
   1  -3  17 150775. 5793.17  44
   1   3 -17 141430. 6556.28  39
  -1   3  17 140386. 6170.45  18
  -1  -3 -17 143511. 5583.01  19
   1  -3  17 146490. 5555.13  21
   1  -3  17 151376. 5580.05  20
   1   3 -17 146804. 5330.39  35
  -1  -3 -17 139422. 5473.31  33
  -1  -3 -17 150860. 6073.45  37
   1  -3  17 139991. 5391.10  31
   1   3 -17 135622. 6190.35  27
  -1   3  17 138659. 5827.81  32
  -1   3  17 140702. 5578.68  21
   1   3 -17 147483. 5403.95  24
  -1  -3 -17 144652. 5413.17  22
  -1   3  17 154146. 5622.83  23
  -1  -3 -16 35169.5 2262.12  14
   1  -3  16 38333.9 2217.96  16
   1   3 -16 39605.1 2544.70  15
   1  -3  16 37726.4 2527.30   1
  -1   3  16 38465.0 2892.73   2
   1  -3  16 43019.8 2541.34   3
  -1  -3 -16 39719.0 3203.70   4
   1  -3  16 41266.8 2163.65  48
  -1   3  16 36355.2 2282.17  47
  -1   3  16 37792.5 2305.40  45
  -1   3  16 35568.2 2385.75  46
  -1   3  16 41926.4 2647.13  41
   1   3 -16 42470.4 2856.16  39
   1  -3  16 38125.4 2219.20  44
  -1   3  16 37682.7 2490.75  18
  -1  -3 -16 45486.4 2264.84  19
   1  -3  16 39271.3 2093.89  21
   1  -3  16 42142.9 2156.61  20
   1   3 -16 43139.2 1994.22  35
   1  -3  16 35929.4 1945.52  31
   1   3 -16 39121.7 2637.51  27
  -1   3  16 37885.4 2292.13  32
   1   3 -16 43770.6 2062.24  24
  -1   3  16 38522.2 2140.37  21
  -1  -3 -16 42313.3 2057.66  22
   1   3 -15 49568.0 2939.58  15
   1  -3  15 56934.2 3097.04   1
  -1   3  15 53658.8 3424.02   2
  -1  -3 -15 49439.7 2628.21   6
   1  -3  15 58215.3 2974.42   3
  -1  -3 -15 53834.5 3802.74   4
  -1   3  15 50835.4 2555.66   7
  -1   3  15 51073.0 2752.99  45
  -1   3  15 51726.9 2756.13  47
  -1   3  15 52107.6 2934.74  46
   1  -3  15 54682.0 2679.31  44
  -1  -3 -15 49794.2 2541.28  43
  -1   3  15 53216.7 3006.47  41
   1   3 -15 48708.6 3186.48  39
  -1   3  15 51930.4 2978.84  18
  -1  -3 -15 52512.2 2576.54  19
   1  -3  15 51771.3 2490.67  21
   1  -3  15 54474.5 2540.90  20
   1   3 -15 53318.2 2371.64  35
   1  -3  15 47958.3 2323.74  31
  -1   3  15 48846.9 2695.87  32
  -1  -3 -15 54285.5 2436.88  22
   1   3 -15 53827.6 2403.21  24
  -1   3  15 53039.7 2591.65  21
   1   3 -14 27893.1 2005.93  15
  -1  -3 -14 31497.2 2693.58   4
  -1   3  14 25082.7 1666.28   7
  -1   3  14 25413.9 2204.10   2
   1  -3  14 29689.7 2044.31   1
  -1  -3 -14 26714.7 1725.91   6
   1  -3  14 30993.2 1994.93   3
  -1   3  14 30485.9 2036.15  46
  -1   3  14 26202.2 1766.85  47
   1   3 -14 26123.9 1398.40  46
  -1  -3 -14 27135.1 1663.77  43
   1   3 -14 25893.6 2142.94  39
  -1   3  14 27187.6 1975.86  41
   1  -3  14 28373.1 1739.95  44
  -1   3  14 26503.4 1946.06  18
  -1  -3 -14 26656.3 1644.85  19
   1  -3  14 30874.1 1677.83  20
   1   3 -14 27800.9 1517.68  35
  -1  -3 -14 27165.6 1613.63  33
   1  -3  14 28835.6 1513.97  31
  -1   3  14 29138.2 1833.76  32
   1   3 -14 28225.6 1521.70  24
  -1  -3 -14 27614.3 1534.89  22
  -1   3  14 27842.3 1666.81  21
   1   3 -13 24880.0 1860.83  15
  -1   3  13 26852.2 1685.61   7
  -1  -3 -13 23029.0 2320.78   4
   1  -3  13 30518.3 1914.27   3
   1  -3  13 26592.6 1887.26   1
  -1  -3 -13 22860.7 1555.02   6
  -1   3  13 26278.9 2157.79   2
  -1   3  13 25235.7 1841.73  46
   1   3 -13 25881.7 1354.08  46
   1  -3  13 27027.4 1656.17  44
   1   3 -13 26555.4 2088.16  39
  -1  -3 -13 23699.3 1538.61  43
   1  -3  13 26907.8 2043.05  40
  -1   3  13 22867.8 1751.02  41
   1  -3  13 25526.4 1501.71  20
  -1  -3 -13 25657.9 1590.49  19
  -1   3  13 28113.2 1927.75  18
  -1  -3 -13 23125.4 1472.36  33
   1   3 -13 27016.0 1461.31  35
   1   3 -13 29139.6 2097.79  27
  -1   3  13 25296.8 1664.28  32
   1   3 -13 24786.7 1386.02  24
  -1  -3 -13 25513.0 1449.38  22
  -1   3  13 25369.7 1550.40  21
   1   3 -12 15664.1 1397.45  15
  -1   3  12 16166.8 1254.30   7
   1  -3  12 16437.7 1398.76   1
  -1  -3 -12 15228.2 1180.34   6
  -1   3  12 14403.7 1526.12   2
  -1   3  12 13750.2 1309.88  46
   1   3 -12 12959.3 913.342  46
  -1   3  12 15546.6 1301.53  45
  -1  -3 -12 13905.0 1090.54  43
   1   3 -12 15708.5 1533.27  39
  -1   3  12 14529.8 1308.10  41
   1  -3  12 14252.8 1419.42  40
   1  -3  12 14784.2 1150.75  44
  -1   3  12 14097.2 1310.12  18
  -1  -3 -12 14093.6 1105.66  19
  -1  -3 -12 14669.5 1087.47  33
   1   3 -12 16291.3 1051.01  35
   1   3 -12 16722.9 1521.39  27
  -1   3  12 15189.8 1221.54  32
   1   3 -12 17345.8 1024.72  24
  -1  -3 -12 17188.8 1082.62  22
  -1   3  12 14987.9 1093.34  21
   1   3 -11 147098. 6106.73  15
  -1   3  11 150511. 5845.74   7
  -1  -3 -11 149393. 5671.42   6
  -1   3  11 153569. 6481.31   2
   1  -3  11 154067. 6050.60   1
   1   3 -11 137137. 5290.02  46
  -1   3  11 157631. 5995.60  45
  -1  -3 -11 146105. 5575.00  43
   1   3 -11 142731. 6349.21  39
   1  -3  11 152474. 6256.60  40
   1  -3  11 144797. 5615.15  44
  -1   3  11 152241. 6009.65  41
  -1   3  11 146443. 5995.91  18
  -1  -3 -11 156459. 5647.08  19
   1   3 -11 153030. 5412.37  35
  -1   3  11 154601. 6148.32  39
  -1  -3 -11 147893. 5535.58  33
   1   3 -11 143525. 6220.96  27
   1   3 -11 147500. 5286.60  24
  -1  -3 -11 155218. 5448.34  22
  -1   3  11 150081. 5522.82  21
   1   3 -10 205640. 7860.99  15
  -1   3  10 201374. 7538.33   7
   1  -3  10 211141. 7714.81   1
  -1  -3 -10 209874. 7389.29   6
  -1   3  10 191205. 8011.84   2
  -1   3  10 230088. 7948.41  45
   1   3 -10 196515. 6992.74  46
  -1  -3 -10 194264. 7241.32  43
   1   3 -10 201568. 8113.61  39
  -1   3  10 212079. 7731.43  41
   1  -3  10 209470. 7987.80  40
   1  -3  10 191948. 7256.23  44
  -1  -3 -10 204131. 7403.54  44
  -1  -3 -10 190984. 7114.54  20
  -1   3  10 194672. 7598.53  18
  -1  -3 -10 212805. 7335.31  19
   1  -3  10 202065. 7112.85  20
  -1  -3 -10 196194. 7195.99  33
   1   3 -10 215374. 7088.57  35
  -1   3  10 204693. 7775.84  39
   1   3 -10 203315. 7950.42  27
   1   3 -10 211175. 6959.98  24
  -1  -3 -10 211562. 7129.82  22
  -1   3  10 194961. 7136.47  21
   1   3  -9 14692.2 1393.84  15
  -1   3   9 15111.4 1457.56   2
  -1  -3  -9 18659.8 1242.61   6
   1  -3   9 18555.4 1403.04   1
  -1   3   9 17554.9 1342.68   7
  -1   3   9 16307.6 1355.91  46
  -1   3   9 20195.4 1699.38  45
   1   3  -9 16753.2 1018.19  46
  -1  -3  -9 17671.4 1181.28  43
   1   3  -9 16303.4 1525.24  39
   1  -3   9 18920.3 1546.48  40
   1  -3   9 16866.2 1176.84  44
  -1   3   9 15881.8 1330.50  41
  -1  -3  -9 16156.8 1195.66  44
  -1   3   9 16569.7 1311.22  18
   1  -3   9 17006.4 1063.48  20
  -1  -3  -9 16185.0 1152.82  19
  -1  -3  -9 17015.2 1114.79  20
  -1   3   9 16522.0 1358.98  39
   1   3  -9 17132.6 1041.69  35
  -1  -3  -9 18319.6 1170.73  33
   1   3  -9 18154.9 1532.09  27
  -1   3   9 16875.3 1210.49  32
  -1   3   9 17983.0 1116.89  21
  -1  -3  -9 17628.5 1099.52  22
   1   3  -8 60524.5 3161.70  15
  -1  -3  -8 63476.3 2656.24   9
  -1  -3  -8 67309.4 2867.19   6
  -1   3   8 63876.9 3032.90   7
   1  -3   8 65517.9 3063.68   1
  -1   3   8 73044.4 4089.84  45
  -1   3   8 62666.2 3037.48  46
   1   3  -8 63189.2 2556.91  46
  -1  -3  -8 63492.7 2759.66  43
   1   3  -8 65053.5 3406.14  39
  -1  -3  -8 59590.1 2664.33  40
   1  -3   8 60510.9 3221.57  40
   1  -3   8 59518.8 2730.75  44
  -1   3   8 61659.0 3062.74  41
  -1  -3  -8 62226.6 2835.21  44
  -1   3   8 63675.9 2981.18  18
  -1  -3  -8 70441.6 2839.17  19
  -1  -3  -8 61593.3 2688.21  20
   1  -3   8 61706.9 2589.40  20
  -1   3   8 66792.2 3120.59  39
  -1  -3  -8 63829.4 2728.66  33
  -1   3   8 57529.0 2829.70  35
  -1   3   8 62468.5 2814.36  32
   1   3  -8 58174.6 3177.16  27
  -1   3   8 59675.8 2689.73  29
  -1  -3  -8 67253.2 2729.68  22
  -1   3   7 31042.8 1875.86   7
   1  -3   7 33974.0 1915.87   1
  -1  -3  -7 30746.7 1712.35   6
  -1  -3  -7 33099.2 1615.69   9
  -1   3   7 29656.7 1847.93  46
   1   3  -7 30557.4 1476.52  46
  -1   3   7 29241.8 2050.14  45
  -1  -3  -7 31661.9 1732.02  44
  -1  -3  -7 32071.9 1655.19  43
   1   3  -7 31219.0 2128.11  39
   1  -3   7 30841.6 2020.62  40
   1   3  -7 29695.2 1800.71  41
   1  -3   7 30865.0 1661.43  44
  -1   3   7 30183.5 1908.36  41
  -1   3   7 31616.1 1815.87  18
  -1  -3  -7 34838.4 1713.12  19
   1  -3   7 24747.5 1439.17  17
   1  -3   7 31632.6 1512.87  20
   1  -3   7 30601.3 1562.30  33
  -1   3   7 29017.5 1729.99  35
  -1  -3  -7 31667.7 1633.03  33
  -1   3   7 32018.0 1913.08  39
   1   3  -7 26748.2 1942.26  27
  -1   3   7 31757.7 1709.35  29
   1   3  -7 29572.1 1956.43  15
  -1  -3  -6 160146. 5719.72   6
  -1  -3  -6 153660. 5509.38   9
   1  -3   6 162361. 5928.55   1
  -1   3   6 149207. 5878.02  46
   1   3  -6 143950. 5323.75  46
  -1   3   6 157904. 5897.45  45
  -1  -3  -6 159677. 5711.59  44
   1   3  -6 156661. 5890.20  41
  -1  -3  -6 154256. 5549.27  43
  -1   3   6 157396. 5957.78  39
  -1  -3  -6 150502. 5564.98  40
   1  -3   6 154732. 6152.78  40
   1   3  -6 153534. 6310.42  39
   1  -3   6 144911. 5547.35  44
  -1   3   6 151625. 5791.28  18
   1  -3   6 143864. 5449.56  17
   1  -3   6 149981. 5358.35  20
   1  -3   6 145477. 5430.63  33
   1   3  -6 158324. 5339.57  35
  -1  -3  -6 156382. 5563.69  33
  -1   3   6 146717. 5734.61  35
  -1   3   6 157975. 5755.45  29
   1   3  -6 155155. 6145.57  27
  -1   3   6 156043. 5682.10  32
  -1  -3  -6 153956. 5623.11  10
   1   3  -6 159124. 6184.70  15
   1  -3   5 79571.6 3263.72   1
  -1  -3  -5 71747.9 2867.71   9
  -1  -3  -5 71481.8 2997.02   6
  -1   3   5 67463.9 3124.03  46
   1   3  -5 63320.6 2659.40  46
  -1   3   5 69056.3 3184.64  39
   1   3  -5 70058.1 3167.59  41
   1  -3   5 67451.4 2889.56  44
  -1  -3  -5 68059.8 2920.46  40
  -1   3   5 65577.9 2860.84  42
   1  -3   5 69864.8 3384.56  40
   1   3  -5 69619.4 3528.12  39
  -1  -3  -5 65005.3 2950.32  44
  -1   3   5 72579.9 3104.25  18
   1  -3   5 67930.3 2843.93  17
   1  -3   5 70287.7 2705.69  20
   1  -3   5 72287.9 2814.01  33
  -1  -3  -5 69243.8 2878.94  33
   1   3  -5 70021.6 2667.49  35
  -1   3   5 70137.0 3077.31  35
  -1   3   5 69552.6 3073.12  29
  -1   3   5 72938.7 3009.83  32
  -1   3   5 67458.0 3351.51  27
   1   3  -5 70645.9 3371.80  27
  -1  -3  -5 66410.8 2935.37  10
   1   3  -5 69274.9 3373.27  15
   1  -3   4 28675.6 1682.99   1
  -1  -3  -4 30655.5 1933.56   1
  -1  -3  -4 27694.8 1462.02   9
   1   3  -4 26424.6 1301.07  46
  -1   3   4 27105.7 1661.26  46
   1   3  -4 31763.1 2038.16  39
   1  -3   4 24965.4 1445.28  44
  -1  -3  -4 28801.1 1580.43  44
  -1   3   4 25711.0 1654.58  39
   1   3  -4 26776.2 1664.59  41
  -1  -3  -4 29098.5 1565.26  40
   1  -3   4 25500.7 1774.75  40
  -1   3   4 25077.9 1448.04  42
  -1  -3  -4 26026.9 1456.63  20
  -1  -3  -4 28532.2 1498.69  19
  -1   3   4 28503.0 1600.55  18
   1  -3   4 24246.8 1409.48  17
   1  -3   4 26408.3 1299.97  20
  -1  -3  -4 27549.6 1468.38  33
   1  -3   4 27342.3 1387.19  33
   1   3  -4 30561.5 1320.18  35
  -1   3   4 25147.6 1563.19  35
  -1   3   4 26544.5 1619.84  29
  -1   3   4 26829.7 1798.53  27
   1   3  -4 28809.6 1826.10  27
  -1   3   4 27916.8 1568.16  32
   1   3  -4 28453.5 1849.60  15
  -1  -3  -4 26472.1 1503.47  10
  -1  -3  -3 146869. 5765.22   1
   1  -3   3 155306. 5488.66   1
  -1  -3  -3 137325. 5106.47   9
  -1   3   3 144362. 5419.19  46
   1   3  -3 134420. 4876.28  46
  -1   3   3 138672. 5423.65  39
   1   3  -3 142533. 5831.35  39
  -1  -3  -3 132430. 5213.92  40
   1  -3   3 143376. 5674.71  40
  -1   3   3 140084. 5172.89  42
  -1   3   3 143621. 5645.18  41
   1  -3   3 134810. 5110.79  44
   1   3  -3 137027. 5431.99  41
  -1  -3  -3 141054. 5244.36  44
   1  -3   3 146829. 5163.74  17
  -1  -3  -3 133016. 5120.54  20
  -1  -3  -3 151552. 5160.51  19
  -1   3   3 141053. 5271.57  18
   1  -3   3 133247. 4979.18  33
  -1  -3  -3 136900. 5099.62  33
   1   3  -3 147581. 4866.03  35
  -1   3   3 137402. 5421.98  29
  -1   3   3 147722. 5698.09  27
   1   3  -3 138011. 5572.80  27
   1   3  -3 146572. 5715.00  15
  -1  -3  -3 137122. 5187.73  10
  -1  -3  -2 36974.7 1823.36   9
  -1  -3  -2 39177.3 2318.59   1
   1  -3   2 40305.3 2071.65   1
  -1   3   2 38102.1 2039.18  46
   1   3  -2 36851.9 1634.15  46
  -1   3   2 40665.0 2093.55  39
  -1   3   2 41314.5 2269.87  41
   1   3  -2 35597.7 2257.16  39
   1   3  -2 34268.7 2013.13  41
   1  -3   2 39538.7 2248.38  40
  -1  -3  -2 38002.9 1972.50  40
  -1   3   2 40239.3 1908.52  42
   1  -3   2 34026.2 1783.15  44
  -1  -3  -2 39666.4 1954.24  44
   1  -3   2 38216.8 1844.20  17
  -1  -3  -2 37504.3 1858.21  20
  -1  -3  -2 41593.4 1858.35  19
  -1  -3  -2 39013.8 1836.73  33
   1   3  -2 38977.3 1613.21  35
  -1   3   2 41382.9 2125.34  29
  -1   3   2 40909.7 2236.14  27
   1   3  -2 34156.5 2109.32  27
  -1  -3  -2 37408.7 1890.93  10
   1   3  -2 39822.7 2276.83  15
   1  -3   1 46374.4 2290.42   1
  -1  -3  -1 43642.4 2476.59   1
  -1  -3  -1 44028.1 2065.84   9
  -1   3   1 44157.9 2230.69  46
   1   3  -1 41194.9 1824.99  46
   1   3  -1 44152.9 2541.13  39
  -1   3   1 46940.5 2311.24  39
  -1  -3  -1 43870.4 2215.14  40
  -1  -3  -1 43841.3 2140.32  44
  -1   3   1 46000.0 2131.05  42
  -1   3   1 48272.2 2516.95  41
   1  -3   1 43990.4 2046.48  44
   1  -3   1 45194.3 2445.46  40
  -1   3   1 47695.8 2165.95  18
  -1  -3  -1 44388.8 2081.20  20
  -1  -3  -1 48846.8 2072.63  19
   1  -3   1 44663.1 2091.00  17
  -1  -3  -1 43401.2 2027.57  33
  -1   3   1 45008.0 2208.71  35
  -1   3   1 44200.7 2385.92  27
  -1   3   1 47537.6 2362.55  29
   1   3  -1 42962.2 2326.25  27
  -1  -3  -1 45443.5 2076.19  31
   1   3  -1 43398.5 2486.78  15
  -1  -3  -1 46934.4 2167.31  10
  -1  -3   0 23525.9 1668.90   1
   1  -3   0 21888.8 1414.22   1
  -1  -3   0 20308.6 1247.41   9
  -1   3   0 22813.0 1413.77  46
   1   3   0 22274.5 1075.51  46
  -1   3   0 20839.2 1401.62  39
  -1  -3   0 22837.6 1435.57  40
  -1   3   0 21700.3 1304.56  42
   1   3   0 21146.9 1620.94  39
   1  -3   0 20285.5 1217.21  44
  -1  -3   0 20235.6 1287.20  44
   1  -3   0 20983.3 1527.07  40
  -1  -3   0 22396.7 1292.53  20
  -1   3   0 21668.6 1284.66  18
   1  -3   0 22620.3 1285.94  17
  -1  -3   0 24863.7 1273.45  19
   1  -3   0 21018.5 1130.54  33
  -1   3   0 21601.8 1345.55  35
  -1  -3   0 21765.7 1235.08  33
   1   3   0 21832.9 1480.99  27
  -1  -3   0 22633.8 1286.59  31
  -1  -3   0 22499.6 1329.83  10
   1   3   0 24605.2 1668.44  15
   1   3   1 61244.0 3042.37  15
  -1  -3   1 56401.6 2581.67  10
  -1   3  -1 57822.4 2566.92  15
  -1  -3   1 56435.4 2981.06   1
  -1  -3   1 57499.5 2546.19   9
  -1   3  -1 60501.5 2717.59  46
   1   3   1 54414.7 2776.02  41
  -1   3  -1 57741.6 2741.70  39
  -1  -3   1 55002.9 2724.24  40
  -1   3  -1 60976.9 2613.64  42
   1   3   1 57022.2 3006.78  39
   1  -3  -1 57367.3 2490.11  44
   1  -3  -1 60756.8 2974.34  40
   1  -3  -1 63150.4 2594.95  17
  -1   3  -1 63679.8 2604.57  18
  -1  -3   1 59018.0 2547.17  20
  -1  -3   1 57976.1 2481.12  33
  -1   3  -1 61296.3 2687.91  35
   1  -3  -1 59834.0 2366.56  33
  -1  -3   1 55918.7 2520.75  31
   1   3   1 53253.3 2734.19  27
  -1   3  -1 58382.3 2578.88  24
   1   3   2 41505.3 2365.02  15
  -1  -3   2 38602.3 1971.85  10
  -1   3  -2 37494.0 1912.26  15
  -1  -3   2 44074.5 2430.74   1
  -1  -3   2 38197.0 1923.77   9
  -1   3  -2 42445.4 2117.73  46
   1   3   2 42996.6 2257.01  41
   1   3   2 41098.6 2407.77  39
  -1  -3   2 36962.4 2120.58  40
  -1   3  -2 43496.6 2030.97  42
   1  -3  -2 39143.4 1879.90  44
  -1   3  -2 38722.0 2100.26  39
   1  -3  -2 43515.0 2348.21  40
  -1   3  -2 47138.3 2032.01  18
  -1  -3   2 40327.9 1942.58  20
   1   3   2 38396.6 1801.64  18
   1  -3  -2 39892.9 1750.53  33
  -1  -3   2 42416.0 1905.89  33
  -1   3  -2 40141.8 2018.27  35
  -1   3  -2 37657.0 2154.27  29
  -1  -3   2 36272.4 1899.60  31
   1   3   2 40229.1 2136.61  27
  -1   3  -2 42804.7 2253.10  27
  -1   3  -2 37052.2 1930.95  24
   1   3   3 131116. 5410.03  15
  -1  -3   3 129632. 4924.97  10
  -1  -3   3 124157. 4846.99   9
  -1   3  -3 124456. 4835.52  15
  -1  -3   3 134869. 5585.76   4
  -1  -3   3 139839. 5487.32   1
   1   3   3 127797. 4495.96  46
  -1   3  -3 135880. 5076.05  46
   1   3   3 122344. 5372.26  39
  -1  -3   3 127255. 5210.28  40
   1  -3  -3 125734. 4752.62  44
  -1   3  -3 132911. 4911.99  42
  -1   3  -3 121544. 5022.77  39
   1   3   3 135302. 5262.63  41
   1  -3  -3 125815. 5302.41  40
  -1  -3   3 127687. 4822.98  20
  -1   3  -3 148731. 4966.60  18
   1  -3  -3 126859. 4675.78  19
   1   3   3 122519. 4641.79  18
  -1  -3   3 135308. 4779.09  33
   1  -3  -3 124549. 4560.66  33
  -1   3  -3 136414. 4964.67  35
   1   3   3 134391. 5072.85  27
  -1   3  -3 127958. 5186.56  29
  -1  -3   3 124749. 4837.09  31
  -1   3  -3 148753. 5348.21  27
  -1   3  -3 129155. 4886.18  24
  -1  -3   4 19690.2 1576.68   4
  -1  -3   4 23263.1 1687.37   1
  -1   3  -4 21812.3 1439.77  46
   1   3   4 23287.1 1065.23  46
  -1  -3   4 22732.8 1570.10  40
   1  -3  -4 19394.3 1203.21  44
  -1   3  -4 20818.7 1309.05  42
   1   3   4 21998.5 1659.49  39
  -1   3  -4 20247.0 1409.37  39
   1   3   4 19937.3 1483.71  41
   1  -3  -4 21491.7 1562.80  40
  -1  -3   4 21722.0 1297.56  20
  -1   3  -4 25305.2 1416.45  18
   1  -3  -4 20854.6 1322.47  17
   1  -3  -4 19212.8 1139.58  19
   1   3   4 20380.8 1149.74  18
  -1   3  -4 20333.5 1311.07  35
   1  -3  -4 20249.0 1083.89  33
   1   3   4 23148.1 1430.98  27
  -1   3  -4 20637.7 1495.74  29
  -1   3  -4 24666.3 1633.94  27
  -1  -3   4 21824.0 1330.02  31
   1   3   4 22028.8 1634.26  15
  -1  -3   4 22445.8 1372.04  10
  -1  -3   4 19989.9 1278.03   9
  -1   3  -4 21455.6 1322.12  15
  -1  -3   5 69610.7 3411.39   4
  -1  -3   5 78824.1 3647.83   1
  -1   3  -5 83949.7 3441.64  46
   1   3   5 70560.2 2693.59  46
   1   3   5 66679.1 3508.70  39
  -1  -3   5 70977.8 3446.92  40
  -1   3  -5 73719.9 3116.77  42
  -1   3  -5 67772.5 3224.07  39
   1   3   5 72051.8 3389.49  41
   1  -3  -5 68225.8 2949.16  44
   1  -3  -5 70858.9 3424.61  40
  -1   3  -5 97681.1 3507.33  18
   1  -3  -5 83557.0 3230.79  17
   1  -3  -5 71083.4 2892.12  19
  -1  -3   5 70639.7 3032.12  20
   1   3   5 66509.0 2818.87  18
   1  -3  -5 68902.9 2765.66  33
  -1   3  -5 74653.4 3142.31  35
   1   3   5 68582.1 3171.03  27
  -1   3  -5 73999.9 3447.84  29
  -1   3  -5 94840.4 3911.92  27
   1   3   5 73594.8 3555.32  15
  -1   3  -5 78017.6 3191.09  15
  -1  -3   5 72431.3 3101.79   9
  -1  -3   6 164870. 6285.97   4
  -1  -3   6 162371. 6537.69   3
  -1  -3   6 166390. 6601.43   1
   1   3   6 163930. 5502.63  46
  -1   3  -6 154704. 6146.48  39
   1   3   6 159142. 6500.67  39
   1  -3  -6 167169. 6423.06  40
  -1  -3   6 151129. 6386.08  40
  -1   3  -6 156335. 5940.14  42
   1  -3  -6 151612. 5774.28  44
   1   3   6 174277. 6452.03  41
   1  -3  -6 171300. 6067.41  17
   1  -3  -6 152370. 5673.57  19
  -1  -3   6 158683. 5890.64  20
   1  -3  -6 147592. 5528.39  33
  -1   3  -6 162378. 5967.42  35
  -1  -3   6 165062. 5784.77  33
   1   3   6 176690. 6100.56  27
  -1   3  -6 155009. 6345.46  29
   1   3   6 161756. 6499.86  15
  -1  -3   6 156877. 5947.26   9
  -1   3  -6 159664. 6032.41  15
  -1  -3   7 30367.3 1738.55   9
   1   3   7 34208.2 2160.85  15
  -1   3  -7 32303.5 1818.09  15
  -1  -3   7 30719.8 1831.08   4
  -1  -3   7 31519.4 2131.25   1
  -1  -3   7 33165.7 2144.30   3
  -1   3  -7 39443.0 2546.51  46
   1   3   7 32847.2 1399.73  46
  -1   3  -7 29428.2 1836.71  39
  -1  -3   7 31098.9 2081.76  40
  -1   3  -7 31655.7 1750.17  42
   1   3   7 35251.9 2113.70  41
   1  -3  -7 30348.7 1620.68  44
   1  -3  -7 31848.7 2019.36  40
  -1  -3   7 33022.0 1721.67  20
   1  -3  -7 34538.5 1836.96  17
   1  -3  -7 30179.2 1533.26  19
  -1  -3   7 32349.7 1612.88  33
   1  -3  -7 30675.5 1433.19  33
  -1   3  -7 34120.3 1793.35  35
   1   3   7 33678.5 2169.80  39
  -1   3  -7 32602.2 2116.51  29
   1   3   7 30026.2 1730.33  27
  -1   3  -7 20243.3 2011.02  27
  -1   3  -7 29876.3 1691.57  24
   1   3   8 71592.8 3463.93  15
  -1   3  -8 61939.4 2992.72  15
  -1  -3   8 66565.9 3455.08   1
  -1  -3   8 72162.8 3491.20   3
   1   3   8 70881.6 2509.83  46
   1  -3  -8 62617.3 3211.66  40
   1  -3  -8 63503.0 2874.20  43
  -1   3  -8 66022.3 3114.44  39
  -1  -3   8 62515.0 3355.75  40
  -1   3  -8 65237.2 2906.50  42
   1  -3  -8 61883.7 2748.78  44
   1   3   8 73628.3 3393.88  41
   1   3   8 70937.9 2676.09  18
   1  -3  -8 64133.0 2656.68  19
  -1  -3   8 67650.9 2885.24  20
   1  -3  -8 68751.8 3048.42  17
   1   3   8 68736.3 3430.57  39
   1  -3  -8 60738.9 2493.21  33
  -1   3  -8 64249.2 2898.96  35
  -1  -3   8 69876.2 2780.25  33
  -1   3  -8 66595.7 3208.05  27
  -1   3  -8 62650.1 2867.87  24
   1   3   9 15023.5 1397.94  15
  -1   3  -9 14571.5 1198.26  15
  -1  -3   9 16016.4 1483.36   1
  -1  -3   9 14448.1 1389.07   3
  -1   3  -9 14629.8 1291.50  46
   1   3   9 14004.1 816.277  46
   1  -3  -9 13459.3 1068.22  43
   1  -3  -9 16698.2 1418.22  40
  -1   3  -9 15033.7 1129.02  42
  -1   3  -9 15192.1 1260.64  39
   1   3   9 15238.1 1383.47  41
   1   3   9 14886.5 944.175  18
  -1  -3   9 15677.5 1115.05  20
   1  -3  -9 16100.7 1201.29  17
   1  -3  -9 13853.8 948.938  19
  -1  -3   9 15931.8 1190.24  21
   1   3   9 13145.4 1339.84  39
  -1  -3   9 15636.1 1031.43  33
  -1   3  -9 15878.5 1163.76  35
  -1  -3   9 15553.9 1174.39  31
  -1   3  -9 16863.2 1201.25  27
   1  -3  -9 14645.2 1000.17  22
  -1   3  -9 14832.0 1115.31  24
   1   3  10 213696. 8112.17  15
  -1   3 -10 210752. 7615.48  15
  -1  -3  10 205392. 8141.81   1
  -1  -3  10 205466. 8066.85   3
  -1   3 -10 198292. 7430.32  46
   1   3  10 197426. 6813.89  46
  -1   3 -10 202513. 7654.88  39
   1  -3 -10 195682. 7294.22  43
   1  -3 -10 204264. 7872.21  40
  -1   3 -10 202295. 7366.34  42
   1   3  10 211561. 7967.93  41
   1   3  10 205787. 7043.81  18
  -1  -3  10 199300. 7303.10  20
   1  -3 -10 213052. 7496.49  17
  -1  -3  10 212303. 7471.28  21
   1   3  10 201550. 7985.31  39
  -1   3 -10 206561. 7425.65  35
  -1  -3  10 203682. 7173.66  33
  -1  -3  10 206472. 7447.61  31
  -1   3 -10 209036. 7259.73  27
   1   3  10 211166. 7418.94  27
   1   3  10 199419. 7028.21  32
   1  -3 -10 197276. 7112.76  22
  -1   3 -10 193478. 7317.99  24
  -1   3 -11 172165. 6364.84  15
  -1  -3  11 154596. 6696.55   3
  -1  -3  11 158166. 6819.70   1
  -1   3 -11 157172. 5981.34  46
   1  -3 -11 167346. 6062.88  43
   1  -3 -11 165767. 6634.74  40
  -1   3 -11 163410. 6061.02  42
  -1   3 -11 155412. 6330.68  39
   1   3  11 169586. 6703.71  41
  -1  -3  11 151909. 5951.73  20
   1   3  11 164541. 5713.50  18
   1  -3 -11 163253. 6164.93  17
  -1  -3  11 157143. 6116.56  21
  -1  -3  11 149021. 5847.37  33
  -1   3 -11 168903. 6165.67  35
   1   3  11 151780. 6620.39  39
  -1  -3  11 160193. 6117.59  31
   1   3  11 171909. 6107.45  27
  -1   3 -11 158262. 5789.98  27
   1   3  11 157695. 5708.41  32
   1  -3 -11 162946. 5830.24  22
  -1   3 -11 169224. 6085.38  24
  -1  -3  11 148244. 5957.95  23
  -1   3 -12 15485.1 1300.89  15
  -1  -3  12 12982.4 1431.71   1
  -1  -3  12 13168.0 1414.33   3
  -1   3 -12 12641.2 1020.90  46
   1  -3 -12 12936.2 1072.31  43
   1  -3 -12 13874.6 1364.48  40
  -1   3 -12 13494.4 1100.52  42
  -1   3 -12 13879.3 1282.85  39
   1   3  12 12650.9 1346.21  41
   1   3  12 14817.9 953.871  18
   1  -3 -12 12301.8 1100.09  17
   1  -3 -12 13685.3 940.376  19
  -1  -3  12 13458.5 1079.27  20
  -1  -3  12 13488.3 1162.55  21
  -1  -3  12 11280.1 1005.05  33
  -1   3 -12 13851.9 1181.75  35
   1   3  12 13598.1 1407.55  39
  -1  -3  12 14743.6 1187.47  31
   1   3  12 14002.9 1113.49  27
   1   3  12 12802.6 921.100  32
  -1   3 -12 13191.2 1089.06  24
   1  -3 -12 13592.8 994.053  22
  -1  -3  12 14062.0 1123.82  23
  -1   3 -13 31809.1 2044.81  15
  -1  -3  13 29936.9 2306.38   1
  -1  -3  13 28685.0 2244.71   3
   1   3  13 30921.0 1520.35  45
  -1   3 -13 31422.9 1701.33  46
   1  -3 -13 29779.2 1785.46  43
   1  -3 -13 29656.3 2149.08  40
  -1  -3  13 27637.5 2320.24  40
  -1   3 -13 30387.9 2050.24  39
   1   3  13 30325.1 2230.87  41
  -1  -3  13 29644.8 1763.10  20
   1  -3 -13 30557.5 1854.89  17
   1  -3 -13 28096.3 1536.76  19
  -1  -3  13 31794.3 1921.92  21
   1   3  13 31620.3 1589.61  18
   1   3  13 32397.3 2322.39  39
  -1   3 -13 32985.3 2006.76  35
  -1  -3  13 29383.8 1850.83  33
  -1  -3  13 29964.6 1860.49  31
   1   3  13 29354.7 1791.55  27
   1   3  13 29977.9 1585.84  32
  -1   3 -13 31002.8 1828.12  24
   1  -3 -13 29330.7 1649.65  22
  -1  -3  13 29073.3 1783.87  23
  -1   3 -14 32605.0 2112.63  15
  -1  -3  14 33727.1 2459.82   1
  -1  -3  14 28236.6 2323.81   3
   1   3  14 28820.3 2100.27   2
  -1  -3  14 30111.6 2016.51  48
  -1   3 -14 31942.4 1710.41  46
   1   3  14 30712.5 1563.10  45
   1  -3 -14 29846.2 1825.35  43
   1  -3 -14 33157.4 2276.41  40
  -1  -3  14 29781.4 2445.32  40
  -1   3 -14 29689.6 2075.18  39
   1   3  14 31026.6 2283.87  41
  -1  -3  14 29477.4 1803.06  20
   1   3  14 30493.1 1631.25  18
   1  -3 -14 31877.0 1630.37  19
   1  -3 -14 30774.9 1905.72  17
  -1  -3  14 30871.7 1935.20  21
  -1  -3  14 35825.4 1902.90  33
  -1   3 -14 32018.4 2118.68  35
  -1  -3  14 29685.4 1901.55  31
   1   3  14 28641.5 1823.63  27
   1   3  14 30024.6 1628.11  32
   1  -3 -14 28821.2 1673.52  22
  -1   3 -14 31886.5 1892.54  24
  -1  -3  14 29465.8 1828.75  23
  -1  -3  15 58486.0 3508.00   1
  -1  -3  15 56423.7 3455.56   3
   1   3  15 50917.8 3089.94   2
  -1   3 -15 55149.9 2567.35   8
  -1   3 -15 57698.5 2576.04  46
   1   3  15 61097.4 2513.37  45
  -1  -3  15 52904.3 2959.49  48
   1  -3 -15 57648.3 2796.93  43
   1  -3 -15 59577.0 3313.36  40
   1   3  15 56390.4 3382.26  41
  -1  -3  15 49754.2 3448.18  40
  -1   3 -15 54355.3 3110.96  39
  -1  -3  15 50359.8 2720.03  20
   1   3  15 58273.8 2557.06  18
   1  -3 -15 59140.3 2880.55  17
   1  -3 -15 59468.5 2536.75  19
  -1  -3  15 58229.1 2923.09  21
  -1   3 -15 52799.0 3012.07  35
  -1  -3  15 63046.5 2642.84  33
  -1  -3  15 56308.1 2897.59  31
   1   3  15 58145.0 2579.78  32
   1   3  15 53443.1 2790.33  27
   1  -3 -15 56306.7 2615.50  22
   1   3  15 51922.0 2678.13  21
  -1   3 -15 59826.0 2867.09  24
  -1  -3  15 51156.6 2744.45  23
  -1   3 -16 41890.3 2357.97  14
  -1  -3  16 46812.9 3114.66   1
  -1  -3  16 43009.5 3003.42   3
   1   3  16 44146.4 2786.17   2
  -1   3 -16 37332.4 2093.24   8
  -1  -3  16 42411.4 2552.30  48
   1   3  16 46019.2 2302.04  47
   1   3  16 48399.8 2144.70  45
   1   3  16 47350.4 2995.86  41
   1  -3 -16 45466.1 2875.04  40
  -1  -3  16 44005.0 3201.11  40
   1  -3 -16 43116.2 2357.94  43
  -1   3 -16 41600.0 2655.40  39
  -1  -3  16 39979.2 2383.52  44
  -1  -3  16 44502.1 2498.95  21
   1   3  16 46790.1 2192.20  18
   1  -3 -16 43564.9 2082.70  19
   1  -3 -16 46634.7 2471.60  17
  -1  -3  16 41604.0 2354.77  20
  -1  -3  16 44252.0 2051.68  33
  -1   3 -16 42408.6 2303.63  34
  -1   3 -16 39350.9 2425.19  35
  -1  -3  16 40773.1 2429.68  31
  -1   3 -16 40889.2 2685.81  29
   1   3  16 43852.5 2417.69  27
   1   3  16 47918.3 2226.64  32
  -1   3 -16 40967.5 2361.01  24
   1  -3 -16 43024.8 2186.38  22
   1   3  16 45154.9 2361.75  21
  -1  -3  16 38594.9 2303.11  23
  -1   3 -17 124878. 5167.12  14
  -1  -3  17 127831. 6133.27   1
  -1   3 -17 121840. 4896.49   8
  -1  -3  17 121879. 6025.06   3
   1   3  17 119176. 5649.85   2
  -1  -3  17 120860. 5369.55  48
   1   3  17 125584. 4984.04  47
   1   3  17 129684. 4845.33  45
   1   3  17 128284. 5884.57  41
   1  -3 -17 122033. 5126.43  43
   1  -3 -17 132993. 5843.78  40
  -1  -3  17 125641. 6253.36  40
  -1   3 -17 127467. 5632.87  39
  -1  -3  17 124728. 5243.22  44
  -1  -3  17 114083. 5093.31  20
   1   3  17 126891. 4867.26  18
   1  -3 -17 143036. 5327.39  17
  -1  -3  17 121751. 5303.12  21
   1  -3 -17 130288. 4781.94  19
  -1   3 -17 126761. 5219.19  35
  -1   3 -17 131328. 5129.52  34
   1   3  17 134515. 4954.61  32
  -1   3 -17 117635. 5548.86  29
  -1  -3  17 114690. 5213.03  31
  -1   3 -17 127673. 5250.61  24
   1  -3 -17 124023. 4921.07  22
   1   3  17 122496. 5074.12  21
  -1   3 -17 123365. 5087.31  25
  -1  -3  17 116825. 5108.25  23
   1  -3 -18 125930. 5637.36  14
  -1   3 -18 130439. 5430.08  14
  -1  -3  18 142720. 6615.16   1
   1   3  18 124088. 5944.41   2
  -1   3 -18 123734. 5162.17   8
   1   3  18 141428. 5333.76  47
   1   3  18 137983. 5137.34  45
  -1  -3  18 136731. 5717.05  48
   1   3  18 143319. 6246.57  41
   1  -3 -18 129861. 5423.22  43
   1  -3 -18 142921. 6217.84  40
  -1  -3  18 136455. 6622.39  40
  -1   3 -18 132627. 5874.61  39
  -1  -3  18 129265. 5527.84  44
  -1  -3  18 133613. 5559.91  20
   1  -3 -18 143346. 5545.34  17
  -1  -3  18 137605. 5674.84  21
   1   3  18 133599. 5154.96  18
   1  -3 -18 143734. 5094.91  19
  -1   3 -18 133445. 5375.01  34
  -1   3 -18 124673. 5843.55  29
  -1  -3  18 130182. 5587.48  31
   1  -3 -18 117298. 5681.86  28
  -1   3 -18 127643. 5530.33  24
   1  -3 -18 130792. 5238.02  22
   1   3  18 135935. 5425.80  21
  -1   3 -18 128791. 5348.12  25
  -1  -3  18 131223. 5459.94  23
   1  -3 -19 7647.28 1045.49  14
  -1   3 -19 6687.44 867.157  14
  -1  -3  19 8146.62 1282.35   1
  -1  -3  19 9045.62 1399.90   3
   1   3  19 8268.89 1155.48   2
  -1   3 -19 7756.45 851.232   8
   1   3  19 7795.53 860.499  47
   1   3  19 8522.00 833.876  45
  -1  -3  19 8390.00 1054.10  48
   1   3  19 8073.02 1165.47  41
   1  -3 -19 7797.76 910.430  43
  -1  -3  19 7032.77 940.939  44
  -1   3 -19 6790.00 1007.32  39
  -1  -3  19 6331.75 877.141  20
   1  -3 -19 9268.23 995.482  17
   1  -3 -19 7270.89 740.136  19
  -1  -3  19 8302.28 1027.94  21
  -1   3 -19 7756.19 903.482  34
  -1   3 -19 7828.92 1108.17  29
  -1  -3  19 7276.90 985.818  31
   1  -3 -19 7401.85 1034.57  28
  -1   3 -19 7032.56 933.529  24
   1   3  19 8216.30 943.130  21
   1  -3 -19 8249.02 868.874  22
  -1  -3  19 7114.73 923.306  23
  -1   3 -19 7331.80 872.470  25
   1  -3 -20 55326.0 3235.17  14
  -1   3 -20 61474.8 3106.01  14
   1   3  20 57081.5 3495.12   2
  -1  -3  20 63468.6 4028.74   1
  -1  -3  20 64073.7 4005.80   3
  -1   3 -20 57855.4 2897.26   8
  -1  -3  20 59996.9 3251.31  48
   1   3  20 58269.5 2891.28  47
   1   3  20 57757.4 2760.17  45
   1  -3 -20 59483.0 3049.88  43
  -1   3 -20 63571.1 3448.66  39
  -1  -3  20 58546.2 3173.80  44
   1   3  20 62584.8 3653.14  41
   1  -3 -20 64858.9 3182.51  17
  -1  -3  20 60884.6 3068.66  20
   1  -3 -20 62795.7 2730.78  19
  -1  -3  20 62337.4 3295.70  21
  -1   3 -20 57946.8 3007.88  34
  -1   3 -20 58374.2 2900.91  35
  -1  -3  20 57781.5 3223.50  31
   1  -3 -20 51556.6 3163.14  28
  -1   3 -20 57801.2 3149.32  24
   1  -3 -20 60233.0 2888.15  22
   1   3  20 59370.4 2644.32  23
  -1  -3  20 63044.4 3179.39  23
   1   3  20 58779.2 3032.75  21
  -1   3 -20 58311.5 2968.44  25
  -1   3 -21 9579.78 1047.38  14
   1  -3 -21 10357.1 1237.82  14
   1   3  21 10889.0 1348.36   2
  -1  -3  21 9915.89 1509.99   1
  -1  -3  21 10538.5 1547.30   3
  -1   3 -21 10334.8 1035.68   8
  -1  -3  21 10787.1 1207.95  48
   1   3  21 9167.53 964.555  47
   1   3  21 11464.7 996.094  45
  -1  -3  21 10589.5 1196.20  44
   1  -3 -21 11170.5 1358.60  40
   1  -3 -21 9269.95 1046.93  43
  -1   3 -21 10297.2 1220.46  39
   1   3  21 9819.06 1296.40  41
   1  -3 -21 11074.1 897.579  19
  -1  -3  21 9373.54 1144.00  21
   1  -3 -21 11706.6 1158.46  17
  -1   3 -21 10135.6 1076.69  34
  -1   3 -21 9458.80 952.246  35
  -1  -3  21 9807.65 1181.12  31
   1  -3 -21 9542.93 1154.39  28
   1   3  21 9991.93 1001.58  32
  -1   3 -21 12299.1 1238.13  24
   1  -3 -21 10286.9 970.689  22
   1   3  21 9360.99 836.157  23
  -1  -3  21 10078.6 1115.55  23
   1   3  21 9374.79 1020.24  21
   1  -3 -22 87611.2 4546.51  14
  -1   3 -22 105695. 4472.56  14
   1   3  22 93001.4 4846.80   2
  -1   3 -22 90289.3 4211.25   8
  -1  -3  22 101384. 5571.91   1
  -1  -3  22 102191. 5539.20   3
   1   3  22 109014. 4364.51  47
  -1  -3  22 99991.7 4665.98  48
   1   3  22 98737.6 4138.30  45
   1  -3 -22 95842.4 4908.47  40
   1  -3 -22 97916.0 4371.56  43
  -1   3 -22 93707.1 4694.46  39
   1   3  22 105033. 5114.40  41
   1  -3 -22 103067. 3977.95  19
  -1  -3  22 100271. 4697.64  21
  -1   3 -22 96508.6 4397.09  34
  -1   3 -22 99099.6 4210.98  35
  -1  -3  22 99188.9 4695.05  31
   1  -3 -22 91579.3 4559.10  28
   1   3  22 103681. 4332.47  32
  -1   3 -22 95487.7 4793.90  29
   1   3  22 96648.8 4374.97  21
  -1   3 -22 106281. 4584.92  24
   1  -3 -22 98646.7 4214.53  22
   1   3  22 104334. 4017.60  23
  -1  -3  22 104571. 4583.61  23
  -1   3 -23 2246.54 517.782  14
   1  -3 -23 1724.85 535.447  14
  -1   3 -23 1078.48 380.861   8
  -1  -3  23 1358.74 488.480  48
   1   3  23 1851.52 458.576  47
   1   3  23 1125.34 363.111  45
   1   3  23 1416.29 527.108  41
   1  -3 -23 1127.23 524.180  40
   1  -3 -23 1738.41 458.033  43
   1  -3 -23 1734.41 354.351  19
   1  -3 -23 1571.27 448.322  17
   1   3  23 1575.86 441.056  21
  -1  -3  23 1384.66 487.326  21
  -1   3 -23 1335.24 413.272  34
  -1   3 -23 923.978 392.084  39
  -1   3 -23 789.628 332.760  35
   1   3  23 2170.27 485.741  32
  -1   3 -23 1954.97 537.926  29
  -1  -3  23 1199.44 512.734  31
   1   3  23 1372.70 346.337  23
  -1  -3  23 1057.21 416.546  23
   1  -3 -23 1964.99 435.154  22
  -1   3 -23 2013.34 517.738  24
   1  -3 -24 12352.3 1293.83  14
  -1   3 -24 12415.0 1160.99  14
  -1  -3  24 11663.1 1273.55  48
   1   3  24 10703.1 1042.09  45
  -1  -3  24 13136.3 1107.69  20
  -1  -3  24 13396.7 1362.94  21
  -1   3 -24 10221.8 1040.68   8
  -1   3 -24 11633.1 1053.60  35
  -1   3 -24 11013.7 1138.94  34
  -1  -3  24 11077.7 1264.20  31
   1   3  24 13614.7 1185.56  32
   1   3  24 13487.0 1245.21  21
  -1   3 -24 12962.9 1253.63  24
   1  -3 -24 10780.5 1001.43  22
   1   3  24 11843.4 972.690  23
  -1  -3  24 13076.5 1246.21  23
   1  -3 -25 21415.3 1769.57  14
  -1   3 -25 22900.9 1621.38  14
   1   3  25 24273.4 1620.97  45
  -1  -3  25 22206.4 1501.16  20
  -1  -3  25 22653.9 1798.37  21
  -1   3 -25 23911.2 1628.95   8
  -1   3 -25 22057.6 1500.10  35
  -1   3 -25 25339.0 1735.66  34
  -1  -3  25 22258.6 1774.21  31
   1   3  25 25149.9 1689.97  32
  -1   3 -25 26092.2 1798.33  24
   1   3  25 25108.9 1721.44  21
  -1  -3  25 21783.3 1654.15  23
   1  -3 -25 23451.7 1531.01  22
   1   3  25 27928.8 1567.71  23
   1  -3 -26 18421.4 1605.99  14
  -1   3 -26 21147.1 1497.17  14
   1   3  26 19709.6 1460.04  45
  -1  -3  26 20160.9 1364.73  20
  -1  -3  26 22120.1 1717.77  21
  -1   3 -26 20529.8 1451.18   8
  -1   3 -26 19898.4 1356.80  35
  -1   3 -26 19745.3 1503.94  34
   1   3  26 18270.6 1099.14  31
  -1  -3  26 20766.7 1673.31  31
   1   3  26 21603.9 1532.44  32
  -1   3 -26 19279.5 1511.80  24
   1   3  26 18577.1 1469.64  21
   1  -3 -26 22397.5 1423.94  22
   1   3  26 21173.0 1369.31  23
  -1  -3  26 20262.7 1524.72  23
  -1   3 -27 15222.3 1209.77  14
   1  -3 -27 12956.8 1295.85  14
  -1   3 -27 13735.8 1146.32   8
  -1  -3  27 15162.0 1376.08  48
  -1  -3  27 12783.3 1053.21  20
  -1  -3  27 15480.9 1412.53  21
  -1   3 -27 16265.0 1291.94  34
  -1  -3  27 15856.5 1387.37  31
   1   3  27 13520.5 1198.42  32
  -1   3 -27 13639.4 1234.01  24
   1   3  27 15876.2 1284.06  21
   1  -3 -27 15356.2 1134.04  22
   1   3  27 14784.7 1119.70  23
  -1  -3  27 13664.1 1197.17  23
   1  -3 -28 36828.2 2377.85  14
  -1   3 -28 43595.0 2234.65  14
  -1  -3  28 41702.1 2455.60  48
   1   3  28 40800.2 2271.58  47
   1  -3 -28 42507.5 2229.26  43
  -1   3 -28 41320.8 2201.60   8
  -1  -3  28 44152.2 2124.12  20
  -1  -3  28 46196.5 2543.92  21
  -1  -3  28 41888.7 2437.26  31
   1   3  28 43771.2 2318.74  32
  -1   3 -28 41679.1 2351.38  24
  -1  -3  28 43363.8 2280.82  23
   1   3  28 41390.9 2290.97  21
   1   3  28 43853.1 2180.53  23
   1  -3 -28 42249.1 2135.98  22
   1  -3 -29 20213.4 1597.06  14
  -1   3 -29 26321.0 1633.65  13
  -1   3 -29 25905.6 1533.66  14
  -1  -3  29 22724.4 1650.43  48
   1   3  29 26914.5 1648.02  47
   1   3  29 22166.5 1552.65  45
   1  -3 -29 24546.5 1518.11  43
  -1   3 -29 26210.6 1545.46   8
  -1  -3  29 23759.4 1715.10  21
   1   3  29 24112.8 1570.20  32
  -1  -3  29 21291.9 1600.51  31
  -1  -3  29 22676.7 1474.98  23
  -1   3 -29 24233.9 1623.60  24
   1   3  29 24543.9 1497.54  23
   1  -3 -29 24966.4 1464.55  22
  -1   3 -30 3236.72 541.787  13
   1  -3 -30 2676.15 542.589  14
  -1   3 -30 3278.01 497.206   8
   1   3  30 3770.61 578.840  45
  -1  -3  30 2900.15 539.456  48
   1   3  30 3212.65 554.151  47
   1  -3 -30 2941.72 475.117  43
  -1   3 -30 2076.38 452.095  42
  -1  -3  30 2313.97 501.786  21
   1   3  30 2724.63 478.044  32
  -1  -3  30 3526.45 600.084  31
   1  -3 -30 2774.74 455.451  22
  -1   3 -30 3189.87 540.543  24
   1   3  30 3618.49 519.098  23
   1  -3 -31 26598.1 1766.30  14
  -1   3 -31 32551.9 1646.69   8
   1   3  31 29392.4 1758.89  45
   1   3  31 32100.7 1758.08  47
  -1  -3  31 29585.7 1748.53  48
   1  -3 -31 29907.2 1613.83  43
  -1   3 -31 33354.2 1812.14  42
  -1  -3  31 33195.6 1820.63  44
  -1  -3  31 30195.8 1831.07  21
  -1  -3  31 27679.3 1545.97  36
  -1  -3  31 31137.3 1830.46  31
  -1   3 -31 29453.6 1745.42  24
   1   3  31 31928.8 1715.45  23
   1  -3 -32 11547.9 1024.20  14
  -1   3 -32 11735.2 864.330   8
   1   3  32 14559.5 1048.58  47
   1   3  32 11894.0 985.450  45
  -1  -3  32 11833.1 942.974  48
   1  -3 -32 13791.7 924.635  43
  -1   3 -32 13154.5 1017.31  42
  -1  -3  32 14710.3 1056.43  44
  -1  -3  32 13105.7 1064.88  21
  -1  -3  32 12739.4 824.952  36
  -1  -3  32 12089.0 1026.16  31
   1   3  32 14192.1 1010.90  23
  -1   3 -32 13661.2 1030.03  24
  -1   3 -33 40747.9 1918.36  13
   1   3  33 39456.5 1966.93  45
   1   3  33 41160.2 1978.38  47
  -1  -3  33 38099.6 1796.33  48
   1  -3 -33 42327.2 1826.97  43
  -1   3 -33 40154.9 1991.26  42
  -1  -3  33 39490.4 1941.03  44
  -1  -3  33 41422.1 2050.14  21
   1  -3 -33 41143.4 1803.50  34
  -1  -3  33 41403.1 2049.35  31
   1   3  33 40279.0 1935.99  21
   1  -3 -33 40163.6 1807.85  22
  -1   3 -33 42581.4 2007.40  24
   1   3  33 42641.8 1981.99  23
  -1   3 -34 41303.0 1890.54  13
   1   3  34 46405.8 2035.40  47
  -1  -3  34 44231.0 2074.26  31
  -1   3 -34 45178.7 2028.47  24
   1   3  34 47048.3 2039.84  23
  -1   3 -34 41507.3 1996.97  42
   1   3  35 13007.7 829.370  47
  -1   3 -35 12021.8 699.516  13
   1   3  36 23290.8 1128.31  47
  -1   4  33 42219.6 1695.19  47
  -1  -4 -33 39053.5 1828.09  26
   1   4 -33 40103.9 1632.98  14
  -1   4  32 16308.9 963.379  47
  -1  -4 -32 16458.8 1117.78  26
   1   4 -32 16220.7 920.593  14
  -1   4  31 62107.0 2656.05  47
  -1  -4 -31 58292.0 2478.25  50
  -1  -4 -31 66510.9 2946.41  26
   1   4 -30 2041.73 365.367  14
  -1   4  30 2444.65 427.793   5
  -1   4  30 2216.02 447.806  45
  -1  -4 -30 2538.02 391.397  50
  -1   4  30 2164.93 388.098  47
   1  -4  30 1661.94 307.463  20
   1   4 -30 1773.69 307.260  35
  -1   4  30 2541.73 483.832  32
  -1  -4 -30 2658.21 356.827  22
   1   4 -29 35906.0 1882.51  14
  -1  -4 -29 37824.3 1898.68  50
  -1   4  29 35117.7 2053.51  45
  -1   4  29 36381.3 1931.04  47
   1  -4  29 35230.4 1834.87  44
   1  -4  29 35301.9 1772.86  20
   1   4 -29 40770.0 1780.87  35
  -1   4  29 38233.4 2126.49  32
   1   4 -29 37768.3 1741.13  24
   1   4 -28 11485.1 970.412  14
  -1  -4 -28 9661.90 918.841  50
   1  -4  28 9010.21 710.221  48
  -1   4  28 11884.2 999.939  47
  -1   4  28 10893.6 1079.06  45
   1  -4  28 11199.2 941.739  44
   1  -4  28 11627.6 883.304  20
  -1  -4 -28 11282.6 874.907  19
   1   4 -28 10191.8 787.218  35
  -1   4  28 10576.7 1054.15  32
   1   4 -28 9470.99 770.498  24
  -1  -4 -28 9571.49 778.977  22
   1   4 -27 27737.1 1710.03  14
  -1   4  27 30512.8 1932.96   5
   1  -4  27 25769.5 1491.16  48
  -1   4  27 29056.6 1903.99  45
  -1   4  27 25577.9 1692.27  47
  -1  -4 -27 26891.8 1738.39  50
   1  -4  27 29126.1 1715.52  44
   1  -4  27 28886.3 1600.03  20
  -1  -4 -27 31720.2 1670.66  19
   1   4 -27 28981.6 1530.52  35
  -1   4  27 27980.8 1868.04  32
   1   4 -27 29012.5 1543.74  24
  -1  -4 -27 25536.1 1476.88  22
  -1   4  27 28291.6 1576.46  21
   1   4 -26 6985.57 825.064  14
  -1   4  26 8452.71 684.035  11
  -1   4  26 7022.79 921.351   5
  -1   4  26 6901.20 830.169  47
  -1  -4 -26 7735.36 900.458  50
   1  -4  26 7932.36 778.436  48
  -1   4  26 7213.90 922.150  45
   1  -4  26 7726.47 853.224  44
   1  -4  26 7532.65 777.297  20
  -1   4  26 5835.64 839.092  18
  -1  -4 -26 8049.69 800.620  19
   1  -4  26 7500.60 670.381  33
   1   4 -26 9082.81 782.469  35
  -1   4  26 6878.23 914.573  32
   1   4 -26 7837.35 733.474  24
  -1   4  26 8282.21 786.898  21
  -1  -4 -26 6830.26 691.655  22
   1   4 -25 14482.5 1244.16  14
  -1   4  25 13217.3 988.655  11
  -1   4  25 13960.9 1378.91   5
   1  -4  25 13837.6 1123.31  48
  -1   4  25 15527.5 1380.24  45
  -1   4  25 12354.3 1195.73  47
  -1  -4 -25 15072.9 1334.14  50
   1  -4  25 15160.3 1251.20  44
   1  -4  25 14855.9 1136.83  20
  -1   4  25 12668.1 1317.40  18
  -1  -4 -25 17497.6 1236.66  19
   1   4 -25 14590.6 1050.14  35
   1  -4  25 14461.2 1004.09  33
  -1   4  25 13920.7 1327.55  32
   1   4 -25 14196.4 1053.63  24
  -1   4  25 14475.4 1106.52  21
  -1  -4 -25 13880.5 1033.80  22
   1   4 -24 9104.68 1014.99  14
  -1   4  24 11848.7 945.749  11
   1  -4  24 9775.31 985.209  48
  -1   4  24 10672.5 1156.11  45
  -1  -4 -24 10948.1 1193.83  50
  -1   4  24 9562.93 1053.66  47
   1  -4  24 11354.3 1112.66  44
   1  -4  24 11042.1 990.113  20
  -1  -4 -24 11372.2 1013.68  19
   1  -4  24 11210.5 893.574  33
   1   4 -24 10931.4 918.468  35
  -1   4  24 10565.4 1165.36  32
   1   4 -24 10608.9 910.353  24
  -1  -4 -24 10161.7 893.941  22
  -1   4  24 10013.5 931.055  21
  -1   4  23 6710.92 750.348  11
   1   4 -23 8574.83 987.238  14
   1  -4  23 7654.41 893.041  48
  -1   4  23 7483.93 984.302  45
  -1  -4 -23 7844.92 1036.87  50
  -1   4  23 7528.15 939.537  47
   1  -4  23 7556.22 933.679  44
   1  -4  23 7494.64 837.436  20
  -1  -4 -23 8744.32 909.408  19
   1   4 -23 8119.07 789.909  35
  -1   4  23 7569.55 985.931  32
   1   4 -23 9085.04 841.440  24
  -1  -4 -23 7704.90 776.629  22
  -1   4  23 7770.39 829.864  21
   1   4 -22 42076.4 2551.24  14
  -1   4  22 46819.2 2357.29  11
  -1   4  22 42809.8 2646.64  45
   1   4 -22 46840.0 2012.98  46
   1  -4  22 47581.7 2547.67  48
  -1  -4 -22 41448.7 2672.70  50
  -1   4  22 43509.6 2601.53  47
   1  -4  22 45370.4 2608.98  44
   1  -4  22 48318.4 2431.52  20
  -1   4  22 39077.4 2757.25  18
  -1  -4 -22 44946.8 2397.49  19
   1  -4  22 45754.9 2252.18  33
   1   4 -22 45206.1 2248.90  35
  -1   4  22 44413.4 2698.17  32
  -1  -4 -22 43434.5 2199.76  22
   1   4 -22 43264.3 2244.45  24
  -1   4  22 44022.7 2350.12  21
  -1   4  21 2608.79 507.584  11
   1   4 -21 1825.58 496.081  14
   1  -4  21 2564.35 556.907  48
  -1   4  21 2058.35 559.812  47
  -1  -4 -21 2474.21 646.693  50
   1   4 -21 2309.15 354.183  46
  -1   4  21 1790.51 534.463  45
  -1  -4 -21 2282.73 499.815  43
   1  -4  21 2933.93 625.922  44
   1  -4  21 2873.18 531.280  20
   1   4 -21 1972.35 352.449  18
  -1   4  21 2938.00 727.594  18
  -1   4  21 3534.26 571.119  21
  -1  -4 -21 2662.68 519.884  19
   1   4 -21 2103.12 429.893  35
   1  -4  21 1646.88 393.388  33
  -1   4  21 1889.09 539.289  32
  -1  -4 -21 2091.97 414.510  22
   1   4 -21 2260.26 450.948  24
   1   4 -20 78147.9 3899.81  14
  -1   4  20 83650.7 3675.84  11
  -1   4  20 79382.9 3956.77  45
   1  -4  20 82747.0 3878.10  48
   1   4 -20 81116.7 3205.99  46
  -1  -4 -20 77437.9 4114.68  50
  -1   4  20 73214.7 3911.42  47
  -1  -4 -20 80376.0 3594.35  43
   1  -4  20 85379.3 3929.32  44
   1   4 -20 71934.4 3227.16  18
   1  -4  20 85674.3 3697.45  20
  -1   4  20 78731.1 4224.54  18
  -1  -4 -20 85247.1 3699.49  19
   1  -4  20 82066.3 3547.98  33
   1   4 -20 88936.0 3550.26  35
  -1   4  20 82552.7 4006.74  32
   1   4 -20 78954.8 3467.93  24
  -1   4  20 80437.1 3620.52  21
  -1  -4 -20 78785.9 3414.22  22
   1   4 -19 77003.5 3937.15  14
  -1   4  19 81865.8 3705.06  11
  -1   4  19 66265.2 3725.85  46
  -1   4  19 80198.8 4028.22  47
   1   4 -19 88729.8 3301.43  46
  -1  -4 -19 85886.2 4271.23  50
  -1  -4 -19 86242.7 3686.28  43
   1  -4  19 79870.4 3870.80  44
   1  -4  19 91134.8 3800.46  20
  -1   4  19 75745.5 4255.10  18
  -1  -4 -19 87694.3 3782.52  19
   1   4 -19 74319.3 3315.25  18
   1   4 -19 92152.0 3610.38  35
  -1  -4 -19 78378.9 3525.02  33
   1  -4  19 83659.1 3601.58  33
  -1   4  19 78539.5 3961.58  32
  -1   4  19 76363.3 3602.77  21
   1   4 -19 81988.7 3517.59  24
  -1  -4 -19 80423.4 3452.54  22
   1   4 -18 32205.0 2228.98  14
  -1   4  18 36183.1 2132.19  11
  -1   4  18 34381.4 2307.17  46
  -1   4  18 30227.9 2196.03  47
   1   4 -18 33047.6 1707.47  46
  -1  -4 -18 36372.5 2503.67  50
  -1  -4 -18 35425.3 2039.98  43
   1  -4  18 36244.1 2242.96  44
   1  -4  18 33572.9 2061.85  20
  -1   4  18 34251.5 2477.32  18
  -1  -4 -18 35527.9 2090.98  19
   1   4 -18 32101.7 1817.07  18
   1   4 -18 36815.7 1983.37  35
  -1  -4 -18 34954.2 1976.71  33
   1  -4  18 36854.6 2041.36  33
  -1   4  18 36495.9 2315.51  32
  -1   4  18 34831.2 2047.04  21
   1   4 -18 35859.7 1927.62  24
  -1  -4 -18 34365.4 1857.47  22
   1  -4  17 40372.0 2395.98  16
   1   4 -17 45867.8 2689.74  14
  -1   4  17 44258.7 2471.95  11
   1   4 -17 45315.6 2993.58  15
  -1  -4 -17 39996.0 3508.32   4
  -1   4  17 40427.3 3239.77   2
   1  -4  17 43051.4 2557.40  48
  -1   4  17 38891.0 2630.18  46
  -1   4  17 40942.8 2607.09  47
  -1  -4 -17 48488.3 2929.91  50
  -1   4  17 42360.3 2953.32  39
   1  -4  17 45179.6 2576.00  44
  -1  -4 -17 50081.8 2475.82  43
   1   4 -17 44344.3 3217.00  39
   1  -4  17 42902.7 2391.99  20
  -1   4  17 40873.9 2839.60  18
  -1  -4 -17 50374.5 2533.78  19
  -1  -4 -17 45301.6 2360.68  33
   1   4 -17 48874.9 2373.63  35
   1  -4  17 45787.0 2415.07  33
  -1   4  17 43374.0 2636.75  32
  -1   4  17 42054.6 2365.23  21
   1   4 -17 46170.1 2263.35  24
  -1  -4 -17 48972.9 2276.16  22
   1   4 -16 29470.7 2043.81  14
   1  -4  16 29660.4 1896.81  16
  -1   4  16 28436.9 1871.95  11
   1   4 -16 27446.8 2225.91  15
  -1  -4 -16 22482.9 2562.11   4
  -1   4  16 26129.5 2469.52   2
   1  -4  16 31023.6 1985.72  48
  -1   4  16 27760.2 2121.39  46
   1   4 -16 31157.3 1574.64  46
  -1   4  16 29031.0 2045.86  47
  -1  -4 -16 27984.2 2150.58  50
  -1   4  16 28128.2 1996.58  45
  -1   4  16 28918.4 2294.37  39
   1   4 -16 26893.0 2418.10  39
  -1  -4 -16 28232.5 1774.24  43
   1  -4  16 26566.3 1880.94  44
  -1   4  16 25297.0 2117.06  18
  -1  -4 -16 27388.4 1797.43  19
   1   4 -16 33639.4 1813.49  35
   1  -4  16 29265.3 1815.49  33
   1   4 -16 26254.1 2029.38  27
  -1   4  16 27610.5 1966.45  32
   1   4 -16 28748.8 1645.41  24
  -1  -4 -16 26486.9 1582.44  22
  -1   4  16 26285.4 1748.31  21
   1   4 -15 31786.1 2418.25  15
   1  -4  15 33135.1 2014.38  16
   1   4 -15 35606.4 2257.70  14
  -1   4  15 33241.4 2040.03  11
   1  -4  15 38240.2 2538.93   1
  -1  -4 -15 30277.2 2971.58   4
  -1   4  15 29905.8 2659.62   2
  -1   4  15 31264.4 2294.14  46
  -1   4  15 30595.9 2132.75  47
   1  -4  15 35522.8 2164.55  48
   1   4 -15 36815.1 1793.44  46
  -1   4  15 33838.5 2206.43  45
  -1  -4 -15 34491.9 2372.42  50
  -1  -4 -15 33070.6 1943.63  43
   1  -4  15 29878.4 2554.16  40
  -1   4  15 27869.8 2316.09  39
   1  -4  15 31933.1 2065.56  44
  -1   4  15 32997.7 2505.38  41
   1   4 -15 35780.0 2765.72  39
  -1   4  15 29925.6 2322.01  18
  -1  -4 -15 32611.3 2002.07  19
   1   4 -15 36889.6 1961.34  35
   1  -4  15 31763.3 1942.60  33
   1   4 -15 36989.8 2426.74  27
   1   4 -15 34696.5 1812.11  24
  -1  -4 -15 31648.4 1757.26  22
  -1   4  15 31934.1 1962.50  21
   1  -4  14 89337.9 3856.49  16
   1   4 -14 83150.6 4050.34  14
  -1   4  14 92024.5 3946.51  11
   1   4 -14 81167.2 4401.10  15
  -1  -4 -14 85584.3 5371.01   4
   1  -4  14 87139.0 4390.66   1
  -1   4  14 87882.2 4923.99   2
  -1  -4 -14 80936.9 3846.48   6
  -1   4  14 83397.9 4079.16  45
   1  -4  14 97763.3 4057.17  48
  -1   4  14 88745.0 4347.92  46
  -1   4  14 87319.8 4074.74  47
   1   4 -14 89413.3 3523.14  46
  -1  -4 -14 88078.2 4313.17  50
   1   4 -14 83152.0 4729.78  39
  -1   4  14 85661.4 4446.76  39
   1  -4  14 91123.6 4018.32  44
  -1   4  14 89884.5 4628.12  41
  -1  -4 -14 83915.0 3761.97  43
   1  -4  14 86280.7 4721.79  40
   1  -4  14 85768.4 3748.33  20
  -1   4  14 82256.2 4317.58  18
  -1  -4 -14 88154.5 3858.90  19
   1  -4  14 87522.2 3817.05  33
   1   4 -14 88389.7 3732.14  35
  -1  -4 -14 80492.6 3719.88  33
   1   4 -14 86424.3 4330.45  27
  -1  -4 -14 88098.7 3567.83  22
  -1   4  14 88360.3 3847.19  21
   1   4 -13 38419.1 2615.37  15
   1  -4  13 33070.1 2005.66  16
   1   4 -13 36991.7 2301.52  14
  -1   4  13 38451.7 2184.83  11
   1  -4  13 32623.1 2392.05   1
  -1   4  13 33975.1 2072.72   7
  -1  -4 -13 39165.9 3347.54   4
  -1  -4 -13 37113.4 2180.53   6
  -1   4  13 34906.9 2798.91   2
  -1   4  13 37402.3 2349.16  45
  -1   4  13 38312.7 2534.50  46
  -1   4  13 37106.0 2297.73  47
   1  -4  13 39482.4 2224.28  48
   1   4 -13 43151.7 1968.52  46
  -1  -4 -13 37427.1 2456.46  50
   1   4 -13 40971.4 2943.72  39
  -1  -4 -13 39202.8 2120.18  43
  -1   4  13 34911.0 2507.28  39
   1  -4  13 32372.7 2609.51  40
   1  -4  13 38116.3 2219.78  44
  -1   4  13 33092.6 2536.44  41
   1  -4  13 38194.6 2059.95  20
  -1   4  13 32971.9 2421.77  18
  -1  -4 -13 38803.9 2174.31  19
   1  -4  13 34011.1 2044.25  33
  -1  -4 -13 37359.4 2076.98  33
   1   4 -13 41764.7 2078.15  35
   1   4 -13 35435.1 2457.47  27
  -1  -4 -13 41529.0 1958.24  22
  -1   4  13 34704.4 2052.16  21
   1  -4  12 47782.4 2454.97  16
  -1   4  12 49489.4 2587.31  11
   1   4 -12 49131.9 3037.31  15
  -1   4  12 51369.7 2673.43   7
  -1  -4 -12 43158.9 3626.79   4
   1  -4  12 50658.5 3014.74   1
  -1   4  12 46109.7 3264.48   2
  -1  -4 -12 48941.8 2634.64   6
  -1   4  12 51273.5 2846.71  45
  -1   4  12 48928.7 2964.77  46
  -1  -4 -12 47875.5 2864.07  50
   1   4 -12 54235.7 2352.30  46
   1   4 -12 49289.2 3342.14  39
  -1  -4 -12 50095.9 2522.01  43
   1  -4  12 48154.4 3238.40  40
  -1   4  12 46713.3 3071.18  41
   1  -4  12 51548.5 2684.32  44
  -1   4  12 48038.0 3004.97  39
   1  -4  12 50927.5 2466.40  20
  -1   4  12 50386.2 2999.43  18
  -1  -4 -12 51194.8 2602.46  19
   1  -4  12 47260.0 2496.87  33
   1   4 -12 52252.4 2454.24  35
  -1  -4 -12 49151.7 2504.34  33
  -1   4  12 51258.9 2715.99  32
  -1  -4 -12 49267.3 2310.31  22
  -1   4  12 48740.4 2493.10  21
  -1   4  11 65378.5 3060.30  11
   1  -4  11 60624.6 2872.24  16
   1   4 -11 65636.2 3583.57  15
  -1  -4 -11 64904.9 4441.38   4
  -1   4  11 62026.9 3142.67   7
   1  -4  11 66512.7 3516.78   1
  -1  -4 -11 58142.3 3043.79   6
  -1   4  11 60398.9 3776.23   2
  -1  -4 -11 65719.3 3404.17  50
  -1   4  11 70735.9 3453.99  45
   1   4 -11 66498.0 2789.27  46
  -1  -4 -11 64675.0 2979.69  43
   1   4 -11 68802.4 3952.15  39
   1  -4  11 56111.9 3585.59  40
  -1   4  11 61732.9 3488.75  39
  -1   4  11 62109.3 3593.79  41
   1  -4  11 61873.8 3069.74  44
   1  -4  11 61848.3 2875.96  20
  -1   4  11 61899.3 3410.07  18
  -1  -4 -11 66275.4 3065.70  19
   1  -4  11 61347.7 2941.86  33
  -1  -4 -11 63756.0 2973.18  33
   1   4 -11 66389.8 3492.60  27
  -1   4  11 61844.5 3133.73  32
  -1  -4 -11 65707.2 2768.59  22
  -1   4  11 60291.4 2903.55  21
  -1   4  10 71086.5 3220.21  11
   1  -4  10 71048.2 3074.38  16
   1   4 -10 68069.7 3712.19  15
  -1   4  10 69224.6 3379.42   7
   1  -4  10 73077.4 3679.35   1
  -1  -4 -10 66387.5 3228.98   6
  -1   4  10 69939.3 4021.21   2
  -1  -4 -10 68150.8 3517.83  50
   1   4 -10 74545.2 2993.81  46
  -1   4  10 74466.3 3655.84  45
  -1  -4 -10 65290.4 3073.49  43
  -1   4  10 66777.6 3730.86  41
   1   4 -10 64025.4 3895.43  39
  -1   4  10 72964.6 3740.22  39
   1  -4  10 72881.1 4000.41  40
   1  -4  10 65578.1 3210.79  44
  -1  -4 -10 67149.9 3289.49  44
   1  -4  10 67194.5 3005.33  20
  -1   4  10 69503.8 3602.74  18
  -1  -4 -10 69122.5 3202.20  19
   1  -4  10 68098.0 3144.38  33
  -1  -4 -10 64365.6 3095.58  33
  -1   4  10 68058.3 3294.11  32
   1   4 -10 72078.4 3674.57  27
  -1   4  10 67580.2 3058.87  21
  -1  -4 -10 62063.2 2850.46  22
   1   4  -9 77976.9 3940.05  15
  -1   4   9 74684.3 3350.28  11
   1  -4   9 73268.6 3200.13  16
  -1   4   9 75634.5 3599.51   7
  -1   4   9 72570.4 4109.86   2
   1  -4   9 78120.0 3836.51   1
  -1  -4  -9 72680.6 3402.88   6
  -1   4   9 79492.9 3889.32  45
  -1   4   9 73130.0 3775.81  46
  -1  -4  -9 77213.9 3727.34  50
  -1   4   9 68421.7 3417.45  47
   1   4  -9 77690.3 3132.24  46
  -1  -4  -9 73644.8 3268.40  43
  -1   4   9 72791.0 3812.14  39
   1   4  -9 70032.0 4122.58  39
   1  -4   9 72902.1 4051.57  40
  -1   4   9 75873.5 3969.44  41
   1  -4   9 68211.2 3342.13  44
  -1  -4  -9 72085.4 3499.98  44
   1  -4   9 71757.1 3130.61  20
  -1  -4  -9 76015.8 3211.03  20
  -1   4   9 74318.0 3698.54  18
  -1  -4  -9 79881.8 3448.45  19
   1  -4   9 68808.0 3223.76  33
   1   4  -9 77125.1 3162.75  35
  -1  -4  -9 71760.1 3318.02  33
  -1   4   9 71269.0 3403.85  32
   1   4  -9 71240.9 3732.42  27
  -1   4   9 73981.9 3220.80  21
   1  -4   8 99306.4 4500.71   1
  -1  -4  -8 90797.0 4063.36   6
  -1   4   8 102645. 4393.06   7
  -1   4   8 97292.1 4361.09  45
  -1   4   8 92796.3 4435.27  46
  -1   4   8 98046.2 4201.44  47
   1   4  -8 97642.7 3775.54  46
  -1  -4  -8 94555.1 4350.08  50
   1  -4   8 95675.0 4094.14  44
  -1   4   8 93451.4 4498.47  39
  -1  -4  -8 88159.1 3871.80  43
   1   4  -8 84838.2 4778.18  39
   1  -4   8 93108.0 4768.26  40
  -1   4   8 92941.6 4657.90  41
  -1  -4  -8 91049.9 4131.02  44
   1  -4   8 90650.4 3774.25  20
  -1  -4  -8 97068.7 3894.17  20
  -1   4   8 96980.1 4399.90  18
  -1  -4  -8 92011.9 3995.34  19
   1   4  -8 90901.0 3882.11  18
   1  -4   8 101680. 3999.63  33
   1   4  -8 98534.2 3816.93  35
  -1  -4  -8 92755.1 3976.83  33
  -1   4   8 97178.7 4129.77  32
   1   4  -8 98783.0 4517.32  27
   1   4  -8 96777.3 4636.94  15
  -1   4   8 98274.1 4040.28  11
   1  -4   8 97599.0 3892.64  16
   1  -4   7 812.080 368.241   1
  -1   4   7 219.967 257.910   7
  -1  -4  -7 879.003 343.121   6
  -1   4   7 443.798 278.030  45
   1   4  -7 880.476 276.588  46
  -1   4   7 641.333 375.421  46
  -1  -4  -7 591.197 335.196  50
  -1   4   7 436.554 301.265  47
  -1  -4  -7 942.887 382.379  44
  -1   4   7 946.510 414.525  41
   1  -4   7 508.126 336.629  40
  -1  -4  -7 831.714 292.315  43
   1  -4   7 458.543 284.981  44
   1  -4   7 928.500 259.247  20
  -1  -4  -7 1187.77 333.857  20
   1   4  -7 1001.35 320.849  18
  -1   4   7 585.987 332.253  18
   1   4  -7 784.774 393.714  39
  -1   4   7 337.093 242.127  39
   1   4  -7 827.020 261.188  35
  -1   4   7 184.090 259.405  35
  -1   4   7 406.803 254.971  32
   1   4  -7 979.844 394.105  27
   1  -4   7 673.493 264.525  33
  -1  -4  -7 471.214 294.217  33
  -1   4   7 264.694 224.005  11
   1   4  -7 543.160 367.162  15
   1  -4   7 1010.46 289.836  16
  -1   4   6 9253.71 1046.92   7
   1  -4   6 8971.21 1056.50   1
  -1  -4  -6 8208.67 885.332   6
  -1  -4  -6 8021.51 748.846   9
  -1   4   6 10626.2 1153.75  46
  -1   4   6 8360.29 905.540  47
  -1  -4  -6 7949.42 959.304  50
   1   4  -6 7481.95 697.748  46
  -1  -4  -6 6934.01 739.731  43
   1   4  -6 6830.45 1096.00  39
   1  -4   6 7144.34 1070.81  40
   1   4  -6 6760.44 939.875  41
  -1   4   6 7241.34 976.873  39
  -1   4   6 8934.61 1135.66  41
   1  -4   6 7539.87 840.004  44
  -1  -4  -6 6521.68 820.623  44
   1  -4   6 7706.72 704.637  20
  -1  -4  -6 7505.85 775.060  20
  -1   4   6 7386.72 934.306  18
   1  -4   6 8085.55 795.433  19
   1   4  -6 6693.57 721.558  18
   1  -4   6 7810.31 782.655  33
  -1  -4  -6 7405.49 794.975  33
   1   4  -6 6520.81 661.492  35
  -1   4   6 9152.48 962.020  35
   1  -4   6 8375.27 961.311  28
  -1   4   6 7478.31 840.723  32
   1   4  -6 7608.34 964.920  27
   1   4  -6 6454.66 961.419  15
  -1   4   6 7948.16 815.175  11
   1  -4   6 8429.99 788.198  16
   1   4  -6 7188.58 864.832  14
  -1  -4  -5 66530.4 3135.26   6
   1  -4   5 68729.8 3454.60   1
  -1  -4  -5 66242.3 2889.06   9
  -1   4   5 63098.3 3344.35  46
  -1   4   5 64462.8 3131.10  47
   1   4  -5 72058.7 2875.61  46
  -1  -4  -5 63297.2 3275.36  50
  -1  -4  -5 68182.2 3212.90  44
  -1  -4  -5 68904.8 2977.64  43
   1  -4   5 66544.2 3095.61  44
  -1   4   5 63428.6 3407.17  39
   1  -4   5 68899.8 3729.41  40
   1   4  -5 70561.6 3906.23  39
   1   4  -5 69784.9 3542.46  41
   1  -4   5 66721.4 2797.85  20
  -1  -4  -5 64031.1 2967.68  20
  -1   4   5 66735.7 3289.50  18
   1  -4   5 68791.5 2989.42  19
  -1  -4  -5 72151.0 3094.17  19
   1   4  -5 65900.2 2958.03  18
   1  -4   5 66474.1 2956.31  33
  -1  -4  -5 68261.6 3057.32  33
   1   4  -5 70867.8 2835.20  35
  -1   4   5 63370.6 3186.16  35
   1   4  -5 69200.9 3462.68  27
   1  -4   5 65655.6 3291.33  28
  -1   4   5 68531.8 3153.60  32
   1   4  -5 70703.9 3674.23  15
   1  -4   5 65168.1 2918.11  16
  -1   4   5 63164.9 2976.15  11
   1   4  -5 62660.7 3148.78  14
  -1  -4  -4 10784.7 891.231   9
   1  -4   4 12425.0 1234.78   1
  -1  -4  -4 11252.6 1055.03   6
  -1   4   4 10017.6 1108.47  46
  -1   4   4 11219.9 1051.58  47
   1   4  -4 11362.4 859.003  46
   1  -4   4 12229.2 1043.75  44
  -1   4   4 11484.5 1202.71  39
  -1   4   4 11758.0 974.112  42
   1  -4   4 9714.52 1217.37  40
   1   4  -4 10172.6 1162.07  41
   1   4  -4 9012.09 1256.79  39
  -1  -4  -4 10299.7 1032.31  44
  -1   4   4 10610.5 1079.76  18
   1  -4   4 10888.6 818.618  20
  -1  -4  -4 10372.5 927.069  20
   1  -4   4 10614.9 924.388  19
  -1  -4  -4 11115.8 954.073  19
   1   4  -4 10105.6 890.347  18
   1  -4   4 11282.1 1052.66  17
  -1  -4  -4 11175.0 977.560  33
   1   4  -4 11728.5 849.722  35
  -1   4   4 9071.51 1000.23  35
   1  -4   4 11049.1 918.354  33
   1   4  -4 12440.1 1221.74  27
   1  -4   4 10923.6 1091.91  28
  -1   4   4 10410.7 1037.26  29
  -1   4   4 15051.5 1173.64  32
   1   4  -4 10571.4 1219.12  15
  -1   4   4 10032.0 918.399  11
   1  -4   4 11191.4 913.562  16
   1   4  -4 11397.5 1069.00  14
  -1  -4  -3 100352. 4008.09   9
  -1  -4  -3 100531. 4277.50   6
   1  -4   3 101799. 4581.81   1
  -1   4   3 104940. 4553.30  46
  -1   4   3 95891.1 4200.08  47
   1   4  -3 112652. 3945.57  46
  -1  -4  -3 100160. 4649.40  49
  -1   4   3 98963.3 4559.29  39
  -1  -4  -3 97718.5 4434.05  40
  -1   4   3 100120. 4086.92  42
   1   4  -3 99035.9 4665.68  41
   1  -4   3 111311. 5014.50  40
   1  -4   3 101077. 4186.08  44
  -1  -4  -3 102146. 4311.28  44
   1   4  -3 101058. 5003.56  39
   1  -4   3 92171.5 3761.40  20
  -1   4   3 101923. 4362.41  18
   1  -4   3 101242. 4053.90  19
  -1  -4  -3 110006. 4178.02  19
   1   4  -3 97849.0 4009.34  18
   1  -4   3 89478.5 4239.51  17
  -1  -4  -3 103386. 4169.42  33
   1  -4   3 104049. 4038.12  33
   1   4  -3 108909. 3896.34  35
  -1   4   3 98104.3 4322.17  35
  -1   4   3 97540.4 4369.94  29
   1  -4   3 99823.9 4386.56  28
  -1   4   3 102941. 4857.68  27
  -1   4   3 101953. 4322.01  32
   1   4  -3 97359.5 4505.22  27
  -1  -4  -3 103024. 4213.10  10
  -1   4   3 94951.4 4047.59  11
   1   4  -3 97511.7 4262.53  14
   1  -4   3 102311. 4048.47  16
   1   4  -3 107426. 4835.24  15
  -1  -4  -2 10872.6 1281.59   1
  -1  -4  -2 10015.5 853.901   9
  -1   4   2 9101.39 1029.36  46
   1   4  -2 8836.74 744.876  46
  -1   4   2 9527.41 937.025  47
  -1  -4  -2 9844.63 1130.56  49
   1   4  -2 8519.16 1189.28  39
  -1   4   2 7251.72 956.486  39
  -1  -4  -2 9845.68 1056.12  40
  -1   4   2 9546.31 887.741  42
   1   4  -2 9241.61 1109.18  41
   1  -4   2 8559.75 1147.78  40
   1  -4   2 9063.00 891.114  44
  -1  -4  -2 8533.22 926.677  44
   1  -4   2 7793.79 800.849  19
  -1  -4  -2 10692.4 911.477  19
   1  -4   2 8602.38 959.559  17
   1   4  -2 9684.57 857.160  18
  -1  -4  -2 11214.0 950.012  33
   1  -4   2 9101.44 816.849  33
   1   4  -2 9206.96 729.543  35
  -1   4   2 9049.13 984.391  35
   1   4  -2 10049.3 1088.14  27
  -1   4   2 10594.8 1077.60  29
   1  -4   2 10676.4 1047.99  28
  -1   4   2 9063.52 977.020  32
  -1  -4  -2 9686.39 933.528  10
   1   4  -2 8444.11 904.687  14
   1  -4   2 9571.76 845.273  16
   1   4  -2 8954.70 1110.62  15
  -1  -4  -1 53964.2 2501.90   9
  -1  -4  -1 59820.7 3379.16   1
  -1   4   1 49817.2 2812.35  46
  -1   4   1 52397.0 2636.77  47
   1   4  -1 58540.8 2397.88  46
  -1  -4  -1 58568.4 3087.98  49
  -1   4   1 49076.1 2867.69  39
   1   4  -1 52724.9 3281.38  39
  -1  -4  -1 54554.1 2932.73  40
  -1   4   1 53869.3 2584.65  42
   1  -4   1 58590.6 3247.76  40
   1   4  -1 56599.7 3090.28  41
   1  -4   1 56089.2 2656.62  44
  -1  -4  -1 53076.0 2740.39  44
  -1  -4  -1 51225.5 2567.00  20
   1  -4   1 52848.3 2497.85  19
  -1  -4  -1 57104.2 2587.41  19
   1  -4   1 54208.1 2838.10  17
   1   4  -1 55360.2 2520.27  18
  -1  -4  -1 56012.2 2620.57  33
   1   4  -1 55446.2 2325.07  35
   1   4  -1 56721.8 2958.46  27
  -1   4   1 50161.8 2830.79  29
   1  -4   1 53053.7 2777.96  28
  -1  -4  -1 52486.7 2653.58  10
   1   4  -1 52963.7 2713.33  14
   1   4  -1 53671.0 3129.81  15
   1  -4   1 52389.9 2500.44  16
  -1  -4   0 8534.29 1135.66   1
  -1  -4   0 8049.94 1269.77   4
  -1  -4   0 9634.98 840.028   9
  -1   4   0 8882.00 1002.19  46
  -1   4   0 8273.50 859.193  47
  -1  -4   0 8402.06 1022.78  49
   1   4   0 9145.58 729.970  46
   1   4   0 7992.72 1136.15  39
  -1  -4   0 7207.16 941.571  40
  -1   4   0 7088.71 924.953  39
  -1   4   0 8914.66 855.077  42
   1  -4   0 10558.2 1224.28  40
  -1  -4   0 7881.69 886.469  44
   1  -4   0 8655.81 856.513  44
  -1  -4   0 8386.18 842.246  20
  -1   4   0 9293.39 947.578  18
   1  -4   0 9440.56 823.548  19
  -1  -4   0 8980.26 827.255  19
   1  -4   0 8298.87 944.139  17
   1   4   0 8084.75 767.197  18
  -1  -4   0 7586.39 789.213  33
  -1   4   0 8859.37 1019.43  29
   1   4   0 7540.83 936.881  27
  -1   4   0 7860.85 1024.41  27
   1  -4   0 8700.14 940.785  28
   1   4   0 7664.33 1033.04  15
   1   4   0 6996.87 845.164  14
  -1  -4   0 8703.64 876.785  10
  -1  -4   1 61196.8 2725.43   9
  -1  -4   1 59860.4 3712.54   4
  -1  -4   1 61177.7 3471.56   1
   1   4   1 63510.2 2565.71  46
  -1   4  -1 58834.7 3055.47  46
  -1   4  -1 55203.8 2746.42  47
  -1  -4   1 66767.9 3271.42  49
   1   4   1 56943.6 3498.00  39
  -1  -4   1 55893.5 3111.64  40
  -1   4  -1 58284.4 2779.49  42
   1  -4  -1 62611.3 3392.20  40
  -1   4  -1 52955.7 3036.28  39
   1  -4  -1 57529.7 2768.20  44
  -1  -4   1 60709.0 2958.81  44
  -1  -4   1 62001.6 2852.04  20
  -1   4  -1 61958.4 2940.18  18
   1  -4  -1 55058.6 2650.38  19
  -1  -4   1 62520.3 2770.93  19
   1  -4  -1 57098.5 3036.03  17
   1   4   1 60133.7 2670.61  18
  -1  -4   1 63523.7 2816.66  33
  -1   4  -1 54435.6 2885.70  35
   1  -4  -1 55857.7 2573.36  33
  -1   4  -1 59590.3 3148.04  29
  -1   4  -1 61008.8 3320.74  27
   1   4   1 63977.7 3133.39  27
   1  -4  -1 60599.2 2983.94  28
   1   4   1 61803.4 3385.75  15
   1   4   1 59213.3 2887.11  14
  -1  -4   1 60642.0 2869.47  10
  -1  -4   2 9428.54 1260.02   4
  -1  -4   2 9717.81 1246.08   1
  -1  -4   2 9405.41 857.094   9
  -1   4  -2 9001.16 1029.03  46
  -1   4  -2 10463.6 932.805  47
  -1  -4   2 8693.67 1037.53  49
   1   4   2 11052.7 1324.20  39
  -1  -4   2 8566.75 1070.62  40
  -1   4  -2 9653.66 914.176  42
  -1   4  -2 9408.07 1071.21  39
   1  -4  -2 10219.5 1217.03  40
  -1  -4   2 7858.80 886.416  44
   1  -4  -2 9224.66 910.801  44
  -1  -4   2 8989.13 902.162  20
  -1   4  -2 10235.2 992.697  18
   1  -4  -2 9433.40 860.390  19
  -1  -4   2 9722.38 888.987  19
   1  -4  -2 10275.1 1074.98  17
   1   4   2 9965.70 851.144  18
  -1  -4   2 10761.6 943.491  33
   1  -4  -2 9828.37 813.092  33
  -1   4  -2 10349.3 1028.95  35
  -1   4  -2 9242.63 1140.14  27
  -1   4  -2 11372.9 1188.95  29
   1   4   2 9843.33 1043.61  27
   1  -4  -2 10229.5 1008.86  28
  -1   4  -2 9958.27 999.438  14
  -1  -4   2 8493.51 896.830  10
   1   4   2 13012.5 1336.94  15
  -1  -4   3 94778.9 4689.71   4
  -1  -4   3 94570.5 3838.89   9
  -1  -4   3 101464. 4731.14   1
  -1   4  -3 93211.5 4234.65  46
  -1  -4   3 82928.1 4395.30  48
  -1   4  -3 88017.3 3798.40  47
  -1  -4   3 94320.3 4282.42  49
   1   4   3 96770.3 3609.60  46
   1  -4  -3 86439.1 3826.60  44
  -1  -4   3 93581.2 4061.34  44
   1  -4  -3 87908.4 4483.28  40
  -1  -4   3 85898.2 4335.94  40
  -1   4  -3 87130.1 3861.97  42
  -1   4  -3 92366.3 4291.51  39
   1   4   3 91805.8 4649.69  39
   1   4   3 89763.4 4420.92  41
   1  -4  -3 88665.2 3726.33  19
  -1  -4   3 95262.9 3951.40  20
  -1   4  -3 102927. 4139.19  18
  -1  -4   3 85561.1 3831.45  19
   1   4   3 94909.5 3755.95  18
   1  -4  -3 99341.9 4303.05  17
  -1  -4   3 93482.4 3859.03  33
   1  -4  -3 89655.7 3634.09  33
  -1   4  -3 92183.6 4065.29  35
  -1   4  -3 97990.6 4584.98  27
  -1   4  -3 92040.8 4352.22  29
   1   4   3 92243.7 4167.54  27
   1  -4  -3 99846.2 4153.42  28
  -1  -4   3 89919.7 3803.44  31
   1   4   3 95141.9 4578.34  15
  -1  -4   3 93678.4 3984.32  10
  -1   4  -3 95002.4 4058.16  14
  -1  -4   4 14195.7 1458.55   4
  -1  -4   4 15825.3 1593.06   1
  -1  -4   4 12286.0 1039.05   9
  -1   4  -4 15650.9 1395.52  46
  -1  -4   4 17850.8 1719.28  48
  -1   4  -4 13143.5 1054.81  47
   1   4   4 13795.5 935.563  46
  -1  -4   4 14294.1 1317.66  49
  -1  -4   4 12925.5 1360.61  40
  -1   4  -4 13280.1 1297.61  39
   1   4   4 13463.8 1492.89  39
  -1  -4   4 14069.3 1213.53  44
   1  -4  -4 16418.1 1530.40  40
   1   4   4 12842.0 1374.18  41
   1  -4  -4 13424.3 1114.94  44
   1  -4  -4 16121.8 1397.04  17
   1   4   4 12953.2 1009.21  18
  -1  -4   4 13944.0 1148.65  20
  -1   4  -4 15133.3 1270.80  18
   1  -4  -4 13957.3 1048.07  19
  -1  -4   4 17463.7 1266.83  19
   1  -4  -4 13267.0 958.905  33
  -1   4  -4 15224.0 1272.71  35
  -1  -4   4 13823.7 1098.82  33
  -1   4  -4 16376.7 1573.79  27
  -1   4  -4 13046.1 1340.96  29
   1   4   4 15234.2 1314.95  27
   1  -4  -4 16289.5 1289.51  28
  -1  -4   4 11947.2 1031.76  31
  -1  -4   4 12945.2 1142.86  10
  -1   4  -4 14007.0 1203.93  14
  -1  -4   5 64514.7 3070.35  10
  -1   4  -5 65026.3 3101.90  14
  -1  -4   5 63284.7 2923.75   9
  -1  -4   5 68547.9 3711.11   1
  -1   4  -5 66529.2 3388.88  46
  -1  -4   5 68996.7 3630.10  48
  -1   4  -5 59488.3 2802.82  47
   1   4   5 65282.5 2681.48  46
  -1  -4   5 60694.0 3214.82  49
   1  -4  -5 64367.0 3037.06  43
  -1   4  -5 61052.0 3280.32  39
  -1  -4   5 65191.9 3541.72  40
   1   4   5 58361.4 3572.83  39
   1  -4  -5 60244.3 2911.80  44
  -1  -4   5 64341.4 3125.91  44
   1  -4  -5 62700.6 3500.41  40
   1   4   5 65814.4 3540.14  41
   1  -4  -5 60415.3 3275.69  17
   1   4   5 64503.5 2807.83  18
  -1  -4   5 64636.2 3011.42  20
  -1   4  -5 66636.4 3247.17  18
   1  -4  -5 61008.1 2796.59  19
  -1  -4   5 65860.3 2946.39  33
  -1   4  -5 61639.3 3093.65  35
   1  -4  -5 66399.2 2725.85  33
  -1   4  -5 63041.7 3659.78  27
   1   4   5 67081.2 3235.09  27
   1  -4  -5 61989.3 3093.74  28
  -1  -4   5 63141.5 2924.80  31
  -1   4  -5 65917.5 3498.67  29
  -1   4  -5 58613.9 2920.47  24
  -1  -4   6 4018.39 629.454  10
  -1   4  -6 3992.14 648.377  14
  -1  -4   6 4402.16 884.344   1
  -1  -4   6 2995.27 511.387   9
  -1  -4   6 4354.71 802.533  48
  -1   4  -6 4025.57 559.111  47
  -1   4  -6 4838.48 818.095  46
   1   4   6 4201.58 493.147  46
  -1  -4   6 3422.55 660.753  49
   1  -4  -6 4898.21 680.942  43
  -1  -4   6 3383.67 734.841  40
   1   4   6 4779.11 829.688  41
   1  -4  -6 5694.07 908.914  40
   1  -4  -6 4268.15 617.995  44
  -1  -4   6 4300.84 679.081  44
   1   4   6 4223.23 550.478  18
  -1  -4   6 3702.90 605.500  20
   1  -4  -6 4996.26 595.017  19
  -1   4  -6 3893.14 698.726  18
   1   4   6 4556.15 867.657  39
  -1   4  -6 4563.52 684.072  35
  -1   4  -6 3587.89 677.755  39
   1  -4  -6 4043.56 498.900  33
  -1  -4   6 4322.49 601.242  33
  -1   4  -6 3981.58 847.623  27
   1   4   6 4212.22 682.582  27
   1  -4  -6 4537.82 668.589  28
  -1  -4   6 2682.43 502.218  31
   1  -4  -6 4707.14 585.734  22
  -1   4  -6 4220.05 640.314  24
  -1  -4   7 1185.63 365.753  10
  -1   4  -7 819.943 338.967  14
  -1  -4   7 1394.85 517.918   1
  -1  -4   7 923.412 312.245   9
  -1  -4   7 823.154 397.696  48
   1   4   7 1023.24 268.132  46
  -1   4  -7 572.368 418.160  46
   1  -4  -7 431.421 276.100  44
  -1  -4   7 907.470 441.893  40
   1   4   7 862.809 372.689  41
   1  -4  -7 664.797 334.163  40
   1  -4  -7 836.127 343.104  43
  -1  -4   7 1244.28 427.131  44
   1  -4  -7 452.037 270.781  19
  -1  -4   7 1162.83 354.212  20
   1   4   7 1008.12 304.331  18
  -1   4  -7 1227.25 373.728  18
   1   4   7 752.714 398.450  39
  -1   4  -7 523.108 276.911  35
  -1   4  -7 808.701 367.152  39
   1  -4  -7 1237.39 358.124  28
   1   4   7 991.870 299.033  32
  -1   4  -7 1385.26 483.605  27
  -1  -4   7 1391.31 380.328  31
   1  -4  -7 542.463 204.491  33
   1   4   7 969.569 344.549  27
   1  -4  -7 682.779 262.056  22
  -1   4  -7 922.141 331.172  24
  -1  -4   8 99264.9 4321.61  10
  -1   4  -8 99927.1 4304.88  14
  -1  -4   8 100012. 5022.08   1
  -1  -4   8 93031.2 4111.90   9
   1   4   8 101236. 3770.51  45
   1   4   8 99765.4 3834.24  46
  -1  -4   8 98292.4 4350.31  44
   1  -4  -8 104929. 4291.05  43
  -1   4  -8 94831.7 4527.94  39
   1  -4  -8 102214. 4176.16  44
   1   4   8 90999.8 4917.33  39
  -1  -4   8 90016.7 4783.53  40
   1  -4  -8 109765. 4954.13  40
   1   4   8 96383.5 4816.59  41
   1  -4  -8 104131. 4721.90  17
   1   4   8 96048.5 3955.49  18
  -1  -4   8 96422.4 4207.46  20
  -1   4  -8 105632. 4178.51  18
   1  -4  -8 97945.6 3981.39  19
  -1   4  -8 105909. 4435.29  35
   1  -4  -8 100030. 3810.40  33
  -1   4  -8 101681. 4559.10  27
  -1   4  -8 101153. 4924.03  29
   1   4   8 94280.2 3895.58  32
  -1  -4   8 91198.0 4121.23  31
   1  -4  -8 97041.2 4315.97  28
   1  -4  -8 100918. 4022.82  22
  -1   4  -8 98688.3 4222.13  24
   1   4   9 76854.2 4024.43  15
  -1   4  -9 68233.4 3384.38  14
  -1  -4   9 67178.0 3408.14  10
  -1  -4   9 73845.9 4162.41   1
  -1  -4   9 72103.3 3323.32   9
   1   4   9 79770.5 3009.63  45
   1   4   9 76838.1 3037.77  46
   1  -4  -9 70963.6 3366.46  43
  -1   4  -9 67828.2 3639.13  39
  -1  -4   9 72457.6 4095.72  40
   1   4   9 69438.5 4032.40  39
  -1  -4   9 74749.6 3528.87  44
   1  -4  -9 71768.6 3891.43  40
   1   4   9 77080.5 4043.54  41
   1  -4  -9 80358.6 3945.15  17
  -1  -4   9 73601.1 3406.53  20
   1  -4  -9 69239.3 3127.88  19
  -1  -4   9 71125.4 3249.97  33
  -1   4  -9 73034.6 3503.28  35
   1  -4  -9 71295.0 2936.92  33
  -1   4  -9 72451.5 4063.13  29
  -1  -4   9 71897.7 3353.51  31
   1  -4  -9 71974.6 3467.36  28
   1   4   9 71639.8 3113.81  32
   1  -4  -9 71849.6 3164.69  22
  -1   4  -9 70612.0 3352.66  24
  -1  -4  10 65368.9 3220.03  10
  -1  -4  10 65724.9 3118.02   9
   1   4  10 60733.1 3640.99  15
  -1   4 -10 62229.3 3154.18  14
  -1  -4  10 76331.5 4053.88   1
  -1   4 -10 66969.3 3318.27  46
  -1  -4  10 66969.6 3440.65  48
   1   4  10 69574.5 2787.72  45
   1   4  10 62123.3 2726.34  46
  -1   4 -10 65626.2 3487.54  39
   1   4  10 66221.6 3740.36  41
   1  -4 -10 61934.1 3123.55  43
  -1  -4  10 60305.8 3753.69  40
   1   4  10 66234.3 3852.82  39
  -1  -4  10 64226.2 3229.39  44
   1  -4 -10 66406.7 3682.72  40
   1  -4 -10 68138.2 3617.39  17
  -1  -4  10 64809.2 3163.85  20
   1  -4 -10 65753.7 2911.11  19
  -1   4 -10 67466.8 3272.25  35
   1  -4 -10 63045.0 2661.99  33
  -1  -4  10 58850.5 2963.86  33
  -1   4 -10 67786.1 3977.78  29
  -1  -4  10 64694.9 3134.91  31
   1   4  10 63032.2 3251.51  27
   1  -4 -10 60174.0 3146.63  28
   1   4  10 63232.6 2860.88  32
   1  -4 -10 65844.4 2944.30  22
  -1   4 -10 63809.9 3124.75  24
   1   4  11 65243.5 3590.71  15
  -1   4 -11 54865.1 2883.47  14
  -1  -4  11 59225.7 2996.82  10
  -1  -4  11 56618.4 2838.52   9
  -1  -4  11 59952.0 3618.32   1
  -1   4 -11 55586.8 2927.04  46
  -1  -4  11 58682.3 3150.35  48
   1   4  11 62387.7 2566.72  45
   1   4  11 54940.2 2484.37  46
   1  -4 -11 54374.1 2833.95  43
  -1  -4  11 54085.8 3544.22  40
  -1   4 -11 53147.8 2831.40  42
  -1  -4  11 57828.5 3021.30  44
   1   4  11 60220.3 3526.97  41
   1  -4 -11 54407.7 3318.17  40
  -1   4 -11 54704.9 3146.20  39
   1   4  11 55271.5 3539.09  39
  -1  -4  11 58543.1 2922.86  20
   1   4  11 62987.6 2727.31  18
   1  -4 -11 54390.8 2598.57  19
   1  -4 -11 54729.1 3259.45  17
  -1  -4  11 56419.7 2794.38  33
  -1   4 -11 52195.8 2968.80  35
  -1   4 -11 53804.9 3684.62  29
   1   4  11 58506.6 2634.55  32
  -1  -4  11 57528.8 2892.67  31
   1  -4 -11 50258.9 2875.27  28
   1   4  11 60419.7 3093.77  27
   1  -4 -11 54954.5 2643.98  22
  -1   4 -11 54041.8 2842.37  24
  -1   4 -11 52659.9 2869.54  25
   1   4  12 51152.6 3118.03  15
  -1  -4  12 45877.9 2555.76  10
  -1   4 -12 44117.9 2468.93  14
  -1  -4  12 42509.0 2395.40   9
  -1  -4  12 47362.6 3183.14   1
  -1   4 -12 45428.6 2470.68  46
  -1  -4  12 40800.6 2595.31  48
   1   4  12 49354.4 2195.70  45
   1  -4 -12 44963.6 2926.22  40
   1   4  12 47897.1 3078.09  41
   1  -4 -12 42275.1 2402.71  43
   1   4  12 42912.3 3025.57  39
  -1  -4  12 37170.3 2939.68  40
  -1   4 -12 43562.3 2431.30  42
  -1  -4  12 46458.1 2582.88  44
  -1   4 -12 40410.7 2633.46  39
  -1  -4  12 40857.7 2395.03  20
   1   4  12 43490.5 2212.63  18
   1  -4 -12 41136.5 2156.60  19
   1  -4 -12 42381.1 2782.73  17
  -1   4 -12 41799.0 2560.02  35
  -1  -4  12 43706.5 2382.15  33
   1  -4 -12 38143.9 2053.35  34
  -1   4 -12 47204.9 3362.56  29
  -1  -4  12 44139.2 2460.05  31
   1   4  12 44387.9 2228.21  32
   1  -4 -12 41109.7 2475.55  28
   1   4  12 44256.1 2580.87  27
   1  -4 -12 42037.6 2226.60  22
  -1   4 -12 42059.7 2437.23  25
   1   4  13 25946.8 2224.53  15
  -1   4 -13 27772.5 1871.49  14
  -1  -4  13 29192.1 1870.23   9
  -1  -4  13 30448.1 2534.13   1
  -1  -4  13 30436.9 2117.84  48
  -1   4 -13 25531.6 1763.81  46
   1   4  13 30881.1 1679.63  45
   1  -4 -13 29860.4 1887.06  43
  -1  -4  13 27160.0 2442.20  40
  -1   4 -13 26319.6 1814.82  42
  -1  -4  13 29665.2 2003.17  44
  -1   4 -13 27754.5 2100.69  39
   1   4  13 31449.1 2431.87  41
   1   4  13 25395.2 2322.98  39
   1  -4 -13 27829.2 2147.69  17
  -1  -4  13 28082.5 1879.07  20
   1   4  13 29358.2 1724.33  18
   1  -4 -13 26442.0 1617.67  19
  -1   4 -13 25300.5 1937.93  35
  -1  -4  13 33815.7 1923.75  33
   1  -4 -13 27288.8 1605.24  34
  -1   4 -13 26099.2 2391.39  29
  -1  -4  13 30553.0 1945.11  31
   1  -4 -13 24175.4 1849.66  28
   1   4  13 32328.0 1778.21  32
   1   4  13 26921.1 1960.10  27
   1  -4 -13 24891.0 1647.89  22
  -1   4 -13 28614.9 1872.17  25
   1   4  14 92068.5 4743.01  15
  -1  -4  14 86294.0 3957.10   9
  -1   4 -14 85860.2 3989.58  14
  -1  -4  14 86580.8 4841.77   1
   1   4  14 84053.7 4543.94   2
  -1   4 -14 90625.8 3915.10  46
  -1  -4  14 76036.1 4083.33  48
   1   4  14 90635.5 3727.90  45
   1  -4 -14 84544.3 3952.81  43
   1   4  14 86673.8 4816.80  39
  -1  -4  14 84535.9 4920.62  40
  -1   4 -14 90058.8 4035.04  42
  -1   4 -14 85877.5 4347.99  39
  -1  -4  14 86319.4 4104.25  44
   1   4  14 89083.3 4756.40  41
   1  -4 -14 96926.7 4559.05  17
  -1  -4  14 85287.5 4002.04  20
   1   4  14 91766.0 3813.14  18
   1  -4 -14 84257.6 3629.55  34
  -1   4 -14 82581.1 4207.35  35
  -1  -4  14 90206.0 3804.86  33
  -1   4 -14 86704.4 4760.38  29
  -1  -4  14 91720.3 4086.84  31
   1  -4 -14 83329.2 4128.85  28
   1   4  14 94866.2 3826.62  32
   1   4  14 82832.7 4143.31  27
   1  -4 -14 90774.3 3807.41  22
  -1   4 -14 90102.6 3992.51  25
  -1  -4  15 38350.2 2294.57   9
   1   4  15 42109.4 2896.39  15
  -1   4 -15 38135.9 2314.30  14
  -1  -4  15 39249.7 2933.90   3
  -1  -4  15 39570.0 2982.04   1
   1   4  15 36219.1 2716.30   2
  -1  -4  15 37363.5 2474.14  48
  -1   4 -15 36538.5 2121.95  46
   1   4  15 39922.8 2106.08  45
   1  -4 -15 37489.2 2305.57  43
  -1  -4  15 36585.8 2962.61  40
  -1   4 -15 38695.7 2323.52  42
   1   4  15 43255.6 3102.62  39
  -1   4 -15 37970.4 2567.87  39
  -1  -4  15 40700.2 2457.15  44
   1   4  15 38586.3 2848.82  41
   1  -4 -15 41161.6 2670.64  17
   1   4  15 40194.2 2171.17  18
  -1  -4  15 41072.7 2378.41  20
  -1  -4  15 42752.0 2121.18  33
  -1   4 -15 38454.2 2548.30  35
   1  -4 -15 34757.1 1984.74  34
  -1   4 -15 39888.8 2866.67  29
   1   4  15 40658.8 2535.81  27
   1   4  15 41657.0 2199.69  32
  -1  -4  15 39079.9 2365.08  31
   1  -4 -15 35241.1 2389.20  28
  -1   4 -15 39665.2 2274.70  25
   1   4  15 40656.1 2305.61  21
   1  -4 -15 34764.1 2064.93  22
   1   4  16 30233.2 2420.96  15
  -1   4 -16 28434.4 1931.46  14
  -1  -4  16 30277.6 1958.64   9
  -1  -4  16 27533.2 2461.39   3
  -1  -4  16 32179.1 2643.28   1
   1   4  16 26488.7 2280.44   2
  -1  -4  16 31696.0 2193.88  48
  -1   4 -16 27484.7 1742.13  46
   1   4  16 29235.6 1748.85  47
   1   4  16 28432.3 1694.23  45
   1  -4 -16 27991.0 1917.33  43
  -1  -4  16 28689.3 2587.11  40
   1   4  16 26259.8 2424.06  39
  -1   4 -16 27802.0 1900.12  42
  -1  -4  16 29454.1 2054.96  44
   1  -4 -16 26800.3 2246.63  40
   1   4  16 27075.0 2383.74  41
   1  -4 -16 28717.2 2192.95  17
  -1  -4  16 29026.8 1959.50  20
   1   4  16 27416.3 1752.85  18
   1  -4 -16 28903.3 1701.58  19
  -1  -4  16 29167.5 1631.58  33
   1  -4 -16 26676.2 1630.02  34
  -1   4 -16 28350.6 2053.09  35
  -1   4 -16 29028.9 2350.77  29
   1   4  16 29746.8 2118.20  27
   1   4  16 30410.6 1829.00  32
   1  -4 -16 24980.6 1941.44  28
  -1   4 -16 24660.5 1852.82  24
   1  -4 -16 27181.1 1744.82  22
   1   4  16 28643.8 1887.88  21
  -1   4 -16 28968.8 1866.02  25
  -1  -4  17 51348.8 2804.98   9
   1   4  17 50780.6 3366.29  15
  -1   4 -17 51963.5 2817.62  14
   1   4  17 50385.2 3312.17   2
  -1  -4  17 51552.6 3018.41  48
  -1   4 -17 48639.1 2520.62  46
   1   4  17 51511.0 2610.34  47
   1   4  17 51843.5 2576.23  45
   1  -4 -17 48508.2 2750.43  43
  -1  -4  17 46447.3 3506.47  40
  -1   4 -17 53347.9 2840.66  42
   1   4  17 57959.5 3757.08  39
  -1  -4  17 53557.3 2978.27  44
   1   4  17 58786.8 3599.99  41
   1  -4 -17 51551.5 3299.75  40
   1  -4 -17 58535.9 3269.14  17
  -1  -4  17 51175.4 2839.43  20
   1   4  17 56860.3 2726.24  18
   1  -4 -17 53339.9 2551.16  19
  -1  -4  17 54848.7 2418.34  33
   1  -4 -17 48383.9 2424.74  34
  -1   4 -17 50540.2 2884.90  35
  -1   4 -17 48627.2 3267.86  29
   1   4  17 57440.0 2771.30  32
  -1   4 -17 48168.1 2801.64  24
   1  -4 -17 50374.4 2629.22  22
   1   4  17 54281.9 2349.44  23
   1   4  17 52935.4 2798.50  21
  -1   4 -17 49440.4 2681.36  25
  -1   4 -18 30760.4 2064.57  14
  -1  -4  18 31834.1 2101.35   9
  -1  -4  18 30006.9 2232.95  48
   1   4  18 34662.1 1997.66  47
   1   4  18 35091.1 1931.29  45
   1  -4 -18 32593.7 2108.07  43
  -1   4 -18 32227.3 2138.44  42
  -1  -4  18 32175.3 2213.99  44
  -1  -4  18 29759.3 2088.52  20
   1   4  18 36529.5 2063.55  18
   1  -4 -18 34218.5 1879.17  19
  -1  -4  18 31395.8 1668.72  33
   1  -4 -18 34137.4 1796.82  34
  -1   4 -18 32695.7 2171.55  35
   1   4  18 35337.0 2085.04  32
  -1   4 -18 31785.6 2131.34  24
   1  -4 -18 32433.1 1947.67  22
  -1   4 -18 29360.5 1927.21  25
   1   4  18 35835.5 1733.76  23
   1   4  18 34584.6 2139.37  21
  -1  -4  19 80326.3 3903.64   9
  -1   4 -19 86645.7 3956.55  14
  -1  -4  19 93059.6 4260.75  48
   1   4  19 85711.1 3750.22  47
   1   4  19 78403.8 3619.14  45
   1  -4 -19 80653.7 3922.31  43
  -1  -4  19 88571.8 4155.84  44
  -1   4 -19 82940.6 3981.35  42
  -1  -4  19 85861.2 4004.57  20
   1   4  19 80016.5 3710.49  18
   1  -4 -19 87219.1 3618.74  19
  -1   4 -19 83427.2 3947.21  35
   1  -4 -19 82424.9 3455.12  34
   1   4  19 86117.0 3867.84  32
  -1   4 -19 81370.3 3970.90  24
   1  -4 -19 83444.4 3705.18  22
   1   4  19 87379.3 3411.16  23
   1   4  19 82863.6 3915.64  21
  -1   4 -19 83948.3 3772.16  25
  -1  -4  20 70655.7 3647.95   9
  -1   4 -20 83400.6 3774.59  14
   1   4  20 79435.0 3494.19  45
  -1  -4  20 72549.8 3860.45  48
   1   4  20 79044.9 3533.18  47
   1  -4 -20 75764.6 3684.50  43
  -1   4 -20 76084.5 3764.66  42
  -1  -4  20 71989.6 3794.45  44
  -1  -4  20 81980.6 3754.53  20
   1   4  20 76577.2 3526.24  18
   1  -4 -20 81533.7 3398.97  19
   1  -4 -20 77985.2 3236.40  34
  -1   4 -20 80688.5 3734.14  35
   1   4  20 75725.9 3610.51  32
   1   4  20 83224.6 3760.65  21
  -1   4 -20 71547.3 3761.39  24
   1  -4 -20 79523.5 3514.16  22
   1   4  20 82217.9 3234.16  23
  -1   4 -21 2047.78 488.213  14
  -1  -4  21 1605.02 462.264   9
  -1  -4  21 1423.00 529.579  48
   1   4  21 1279.56 388.155  47
   1   4  21 1848.22 432.515  45
   1  -4 -21 1294.28 439.303  43
  -1   4 -21 1396.00 441.086  42
  -1  -4  21 975.091 438.445  44
  -1  -4  21 2069.16 514.362  20
   1   4  21 1644.59 470.033  21
   1  -4 -21 2134.58 412.882  19
   1  -4 -21 1697.02 343.017  34
  -1   4 -21 1986.60 498.456  35
   1   4  21 1353.97 416.132  32
   1  -4 -21 1708.66 407.896  22
  -1   4 -21 2530.88 569.482  24
   1   4  21 1828.55 350.279  23
  -1  -4  22 50275.6 2787.30   9
  -1   4 -22 55598.2 2766.88  14
  -1  -4  22 51378.1 2935.82  48
   1   4  22 49365.1 2566.89  47
   1   4  22 49535.4 2577.01  45
   1  -4 -22 49329.3 2697.86  43
  -1   4 -22 52014.4 2821.45  42
  -1  -4  22 55711.0 3012.46  44
  -1  -4  22 52673.8 2681.71  20
   1  -4 -22 52972.8 2422.81  19
   1  -4 -22 49006.9 2288.49  34
   1   4  22 54440.3 2751.81  32
   1   4  22 48466.0 2699.82  21
  -1   4 -22 51737.4 2829.77  24
   1  -4 -22 53600.3 2576.41  22
   1   4  22 51738.3 2352.36  23
  -1  -4  23 9491.77 1125.95  48
   1   4  23 8392.84 884.908  47
   1   4  23 8326.36 883.670  45
   1  -4 -23 8485.28 944.528  43
  -1   4 -23 8354.19 971.380  42
  -1  -4  23 9524.95 1094.30  44
  -1  -4  23 7297.13 849.375  20
   1  -4 -23 9590.35 796.347  19
   1  -4 -23 8331.87 719.066  34
   1   4  23 9495.49 987.584  21
  -1   4 -23 8070.37 961.966  24
   1  -4 -23 9295.98 859.027  22
   1   4  23 8498.58 753.688  23
  -1   4 -23 8341.47 905.297  14
  -1  -4  23 7195.09 920.365   9
  -1   4 -24 7990.51 846.333  14
  -1  -4  24 5209.72 818.293  48
   1   4  24 6839.30 810.928  45
   1   4  24 6411.15 753.721  47
   1  -4 -24 7071.38 815.576  43
  -1   4 -24 6259.90 824.457  42
  -1  -4  24 6767.03 899.527  44
  -1  -4  24 7231.44 784.165  20
   1  -4 -24 7393.96 671.520  19
  -1   4 -24 7708.99 835.970  35
  -1  -4  24 7398.79 935.013  31
   1   4  24 6850.65 824.155  21
  -1   4 -24 6565.95 855.370  24
   1  -4 -24 6565.29 704.737  22
   1   4  24 7324.02 694.832  23
  -1   4 -25 15210.6 1268.32  13
  -1   4 -25 17018.5 1232.62  14
  -1  -4  25 15891.3 1285.71   9
  -1  -4  25 15390.4 1380.48  48
   1   4  25 16682.7 1227.34  47
   1   4  25 16951.5 1287.64  45
   1  -4 -25 15555.9 1230.90  43
  -1   4 -25 16344.4 1324.07  42
  -1  -4  25 16796.8 1388.68  44
   1  -4 -25 18368.8 1055.53  19
  -1   4 -25 17352.9 1262.99  35
  -1  -4  25 17201.9 1412.20  31
   1   4  25 16303.6 1301.65  32
   1   4  25 16479.5 1283.63  21
  -1   4 -25 16458.6 1326.89  24
   1  -4 -25 18440.4 1193.72  22
   1   4  25 17878.3 1149.33  23
  -1   4 -26 7980.44 835.798  13
  -1  -4  26 9840.26 926.526   9
  -1  -4  26 7636.15 914.044  48
   1   4  26 7470.09 829.968  45
   1   4  26 9305.19 859.076  47
   1  -4 -26 7485.65 794.305  43
  -1   4 -26 8972.44 908.719  42
  -1   4 -26 9120.93 843.692  35
  -1  -4  26 7198.11 862.673  31
   1   4  26 7519.50 843.635  32
  -1   4 -26 8365.55 897.581  24
   1   4  26 7947.44 842.363  21
   1  -4 -26 7651.90 739.549  22
   1   4  26 8109.37 726.387  23
  -1  -4  27 26282.4 1573.39   9
  -1   4 -27 23853.7 1551.73  13
   1  -4 -27 25912.8 1519.94  43
  -1   4 -27 23562.1 1568.13  42
  -1  -4  27 25836.7 1717.62  48
   1   4  27 26965.3 1531.26  47
   1   4  27 26706.6 1630.39  45
  -1  -4  27 26007.4 1468.86  20
  -1  -4  27 24949.5 1623.93  31
   1   4  27 26324.7 1609.44  32
  -1   4 -27 25055.8 1597.88  24
   1   4  27 25347.9 1559.71  21
   1  -4 -27 25887.4 1436.25  22
   1   4  27 26032.2 1422.64  23
  -1   4 -28 10668.9 928.604  13
  -1  -4  28 9530.60 832.528   9
   1  -4 -28 9348.51 820.757  43
  -1   4 -28 11210.2 942.743  42
   1   4  28 9847.68 832.219  47
   1   4  28 9460.00 897.895  45
  -1  -4  28 12080.8 855.676  20
  -1  -4  28 11052.0 954.286  31
   1   4  28 9488.56 881.462  32
  -1   4 -28 11591.0 963.493  24
   1   4  28 10544.8 896.320  21
   1   4  28 10306.9 795.053  23
   1  -4 -28 9497.54 774.599  22
  -1  -4  29 37902.1 1830.63   9
  -1  -4  29 40381.7 1999.19  10
  -1   4 -29 37783.6 1914.70  13
   1   4  29 38270.8 1977.67  45
   1   4  29 40236.1 1843.33  47
  -1  -4  29 37405.7 1940.97  31
   1   4  29 35254.6 1866.34  32
  -1   4 -29 36724.2 1930.67  24
   1   4  29 38281.3 1784.13  23
   1  -4 -29 36303.9 1739.87  22
   1   4  29 38526.8 1894.03  21
  -1   4 -29 37637.1 1908.77  42
   1   4  30 2282.07 409.484  45
  -1  -4  30 1509.97 361.218  48
   1   4  30 2337.71 353.538  47
  -1   4 -30 2801.28 428.463  13
  -1  -4  30 2349.06 378.338  10
  -1   4 -30 2273.32 396.864  24
   1  -4 -30 2182.33 327.028  22
   1  -4 -30 2620.82 373.184  43
  -1   4 -30 2564.16 393.776  42
  -1  -4  30 2776.04 407.828  44
   1   4  31 59217.3 2288.68  47
  -1  -4  31 54527.8 2350.64  48
  -1   4 -31 57707.8 2406.96  13
   1   4  32 12953.2 728.390  47
  -1   4 -32 15713.2 879.765  13
  -1   4 -33 39383.3 1591.37  13
  -1  -5 -28 817.765 203.921  49
  -1   5  28 526.235 155.273  47
   1   5 -28 771.622 165.233  14
  -1   5  27 12664.1 773.159  47
  -1  -5 -27 12651.3 881.264  49
  -1  -5 -27 10442.4 744.822  26
   1   5 -27 11806.6 741.093  14
   1  -5  26 12848.1 784.649  48
  -1   5  26 15801.9 944.890  47
  -1  -5 -26 15135.8 1070.36  49
  -1  -5 -26 13480.0 954.740  26
   1   5 -26 16067.0 941.363  14
   1   5 -25 19759.8 1186.67  14
   1  -5  25 20171.1 1136.32  48
  -1   5  25 22577.2 1257.05  47
  -1  -5 -25 22474.5 1201.03  19
  -1   5  25 22280.7 1381.06   5
   1   5 -25 20119.8 1156.37  35
  -1   5  25 20157.8 1308.19  32
  -1  -5 -25 19951.7 1281.79  26
   1   5 -24 22307.2 1318.53  14
  -1   5  24 19058.9 1401.99   5
   1  -5  24 20375.3 1245.45  48
  -1   5  24 22839.6 1341.38  47
  -1  -5 -24 24236.1 1305.77  19
   1   5 -24 22565.7 1263.75  35
   1  -5  24 22137.6 1129.62  33
  -1   5  24 18818.7 1333.71  32
  -1  -5 -24 22304.5 1426.89  26
   1   5 -23 3688.20 519.822  14
  -1   5  23 2887.38 534.219   5
   1  -5  23 3175.35 497.500  48
  -1   5  23 2144.72 440.419  47
   1  -5  23 2454.44 425.543  44
  -1  -5 -23 3474.10 483.967  19
   1   5 -23 4234.40 506.500  35
  -1   5  23 2668.80 512.773  32
  -1  -5 -23 2306.15 493.263  26
   1   5 -22 70344.9 3065.69  14
  -1   5  22 65541.5 3022.34  47
   1  -5  22 66412.6 2967.66  44
  -1   5  22 64088.5 3257.30  18
  -1  -5 -22 67678.7 2922.87  19
   1   5 -22 75846.8 2973.78  35
  -1   5  22 63096.1 3094.87  32
  -1  -5 -22 66767.5 3203.06  26
   1  -5  21 40187.5 2168.99  48
   1  -5  21 42975.6 2179.75  44
  -1   5  21 39514.5 2382.22  18
  -1  -5 -21 41148.1 2088.07  19
   1   5 -21 41181.7 2054.21  35
   1  -5  21 42463.5 1980.65  33
   1   5 -21 39480.9 2169.32  14
  -1  -5 -21 38589.0 2311.38  26
   1  -5  20 145493. 5599.69  48
   1   5 -20 137644. 5072.27  46
   1  -5  20 145961. 5552.90  44
   1  -5  20 132281. 5284.10  20
  -1   5  20 127366. 5790.66  18
  -1  -5 -20 151369. 5427.89  19
   1  -5  20 148905. 5303.01  33
   1   5 -20 150771. 5410.28  35
   1   5 -20 137259. 5548.43  14
  -1  -5 -20 134587. 5735.65  26
   1  -5  19 39413.5 2163.93  48
   1   5 -19 33700.9 1703.86  46
   1  -5  19 38531.4 2091.85  44
   1  -5  19 36349.0 1917.53  20
  -1   5  19 32069.0 2234.28  18
  -1  -5 -19 34923.5 1925.66  19
   1  -5  19 37809.8 1905.22  33
   1   5 -19 33286.6 1879.76  35
  -1  -5 -19 32121.7 2173.10  26
   1   5 -19 30578.2 1994.46  14
   1   5 -18 6808.27 858.048  14
   1  -5  18 7305.16 893.597  48
   1  -5  18 7682.21 869.271  44
   1  -5  18 6212.50 724.646  20
  -1   5  18 7590.69 1033.25  18
  -1  -5 -18 6467.33 752.455  19
  -1  -5 -18 6785.73 691.181  33
   1  -5  18 7726.60 778.659  33
   1   5 -18 6289.17 738.156  35
  -1   5  18 7380.35 883.920  32
  -1  -5 -18 7109.37 966.275  26
   1   5 -17 7026.90 875.069  14
   1  -5  17 7715.08 934.660  48
  -1   5  17 5954.18 823.962  46
   1  -5  17 7628.17 870.185  44
   1   5 -17 7478.33 667.118  18
   1  -5  17 6227.18 722.260  20
  -1   5  17 6675.37 963.942  18
  -1  -5 -17 6945.34 773.346  19
   1  -5  17 7255.91 769.641  33
   1   5 -17 6114.52 737.293  35
  -1  -5 -17 5978.94 680.610  33
  -1   5  17 6274.65 832.663  32
  -1  -5 -17 6159.79 932.451  26
   1   5 -16 3705.11 657.929  14
   1  -5  16 3367.01 675.679  48
  -1   5  16 4792.76 706.500  47
  -1   5  16 2832.86 619.013  46
   1   5 -16 3529.04 505.807  46
   1  -5  16 3694.19 632.793  44
   1   5 -16 4450.72 531.261  18
   1  -5  16 3098.20 510.229  20
  -1  -5 -16 4384.90 642.592  19
  -1   5  16 4209.78 778.967  18
   1  -5  16 3964.66 616.022  33
  -1  -5 -16 4259.79 573.737  33
   1   5 -16 4211.10 597.683  35
  -1   5  16 4223.97 676.025  32
  -1  -5 -16 4274.55 769.768  26
   1  -5  15 9028.35 1051.87  48
  -1   5  15 9689.80 1157.72  46
  -1   5  15 10116.2 1054.18  47
   1   5 -15 9473.38 841.250  46
   1  -5  15 9762.11 1002.00  44
   1   5 -15 8805.61 808.491  18
   1  -5  15 8611.63 854.542  20
   1  -5  15 10437.4 842.199  19
  -1   5  15 8980.74 1161.67  18
  -1  -5 -15 9511.66 937.600  19
   1  -5  15 10290.3 988.475  33
  -1   5  15 9474.85 1031.22  32
  -1  -5 -15 9155.54 1089.52  26
   1   5 -14 12168.4 1183.70  14
   1  -5  14 12164.3 1239.03  48
  -1   5  14 12523.3 1337.77  46
  -1   5  14 11155.5 1122.03  47
   1   5 -14 12281.2 989.897  46
   1  -5  14 11725.7 1129.02  44
   1   5 -14 12568.2 992.861  18
   1  -5  14 11180.9 970.186  20
   1  -5  14 12896.3 983.576  19
  -1   5  14 10825.7 1311.06  18
  -1  -5 -14 13109.0 1124.77  19
   1  -5  14 11224.0 1048.00  33
  -1   5  14 12106.7 1166.12  32
  -1   5  14 10937.1 975.418  21
  -1  -5 -14 10677.3 1178.64  26
   1   5 -13 5989.49 851.904  14
   1  -5  13 8406.62 977.976  48
  -1   5  13 5961.22 837.164  47
  -1   5  13 5662.39 916.368  46
   1   5 -13 6882.81 737.776  46
   1  -5  13 9261.65 971.471  44
   1  -5  13 7362.55 761.740  20
   1  -5  13 7301.98 763.416  19
  -1   5  13 6898.57 1021.06  18
  -1  -5 -13 7844.09 847.153  19
   1  -5  13 7283.92 829.251  33
   1   5 -13 5108.43 681.546  35
  -1  -5 -13 6503.92 769.292  33
  -1   5  13 6053.70 818.105  32
  -1  -5 -13 7270.52 944.159  26
  -1   5  13 6803.39 746.092  21
   1   5 -12 35906.3 2220.66  14
  -1  -5 -12 30726.9 1990.36   6
   1  -5  12 37351.2 2283.22  48
  -1   5  12 35583.2 2439.92  46
  -1   5  12 35144.6 2132.73  47
   1   5 -12 37190.0 1949.39  46
   1  -5  12 36049.7 2129.66  44
   1  -5  12 33060.7 1848.64  20
   1  -5  12 35628.7 1939.50  19
  -1   5  12 31858.5 2338.33  18
  -1  -5 -12 35556.4 2044.03  19
   1  -5  12 36215.4 2074.42  33
  -1  -5 -12 33826.8 1978.84  33
   1   5 -12 35677.1 1991.00  35
  -1   5  12 33183.2 2096.36  32
  -1  -5 -12 38289.6 2279.38  26
  -1   5  12 35041.5 1954.15  21
   1   5 -11 18077.2 1500.10  14
  -1  -5 -11 16185.9 1347.94   6
   1   5 -11 18053.0 1282.01  46
   1  -5  11 18463.3 1544.61  48
  -1   5  11 19191.6 1470.33  47
  -1  -5 -11 15254.1 1568.18  49
   1  -5  11 17103.9 1378.86  44
   1  -5  11 16460.9 1188.25  20
   1  -5  11 18531.4 1307.62  19
  -1   5  11 19528.6 1731.21  18
  -1  -5 -11 19955.1 1433.30  19
   1   5 -11 18323.1 1308.40  18
  -1  -5 -11 17699.9 1337.45  33
   1  -5  11 16929.7 1328.52  33
   1   5 -11 17411.4 1282.81  35
  -1   5  11 17781.7 1422.56  32
  -1   5  11 17061.3 1257.73  21
   1   5 -10 6596.41 894.683  14
  -1   5  10 8085.18 886.393   7
  -1  -5 -10 8157.67 909.354   6
   1  -5  10 9091.15 1029.85  48
  -1   5  10 8063.90 939.939  47
   1   5 -10 7237.67 813.468  46
  -1  -5 -10 9585.40 1193.34  49
   1  -5  10 8308.91 928.549  44
   1  -5  10 7660.51 760.471  20
  -1   5  10 10037.9 1211.53  18
   1  -5  10 8589.81 867.946  19
  -1  -5 -10 7609.84 858.532  19
   1   5 -10 8467.60 854.075  18
  -1  -5 -10 8014.13 865.287  33
   1  -5  10 8047.11 870.147  33
   1   5 -10 7638.60 798.983  35
  -1   5  10 8110.01 929.335  32
  -1   5  10 7984.49 817.518  21
   1   5  -9 41956.2 2473.91  14
  -1   5   9 45785.1 2470.51   7
  -1  -5  -9 38820.2 2324.42   6
   1  -5   9 52007.5 2659.95  48
  -1   5   9 41353.5 2742.14  46
  -1   5   9 43794.0 2408.30  47
  -1  -5  -9 45823.3 2795.87  49
   1   5  -9 40921.4 2204.21  46
   1  -5   9 43219.5 2394.47  44
   1   5  -9 40344.8 2204.21  18
   1  -5   9 39322.3 2055.90  20
  -1   5   9 46499.9 2832.30  18
  -1  -5  -9 41928.7 2295.11  33
   1  -5   9 45184.5 2337.03  33
   1   5  -9 44746.7 2242.73  35
  -1   5   9 43890.5 2423.54  32
  -1   5   9 41763.8 2188.59  21
   1   5  -8 101097. 4610.85  14
  -1   5   8 99901.1 4577.51   7
  -1  -5  -8 108859. 4549.74   6
  -1   5   8 107161. 5054.16  46
  -1   5   8 107351. 4537.74  47
   1  -5   8 118227. 4773.92  48
   1   5  -8 111289. 4357.53  46
  -1  -5  -8 109034. 4988.05  49
   1  -5   8 109716. 4568.84  44
   1   5  -8 111525. 4405.86  18
   1  -5   8 101207. 4108.31  20
  -1   5   8 97777.8 4856.94  18
   1  -5   8 109614. 4478.25  33
   1   5  -8 110358. 4337.49  35
  -1  -5  -8 103966. 4450.71  33
  -1   5   8 105179. 4541.27  32
  -1   5   8 101004. 4255.00  21
   1   5  -7 47070.4 2797.03  14
  -1   5   7 61923.1 3097.37   7
  -1  -5  -7 51853.1 2801.35   6
  -1   5   7 55273.6 3283.78  46
   1  -5   7 64503.4 3061.48  48
  -1   5   7 56358.0 2824.87  47
   1   5  -7 59901.1 2717.94  46
  -1  -5  -7 57662.2 3227.17  49
   1  -5   7 54322.4 2823.46  44
  -1  -5  -7 53829.9 2906.23  44
   1   5  -7 56085.1 2700.52  18
   1  -5   7 53563.6 2458.27  20
  -1   5   7 53139.2 3114.19  18
  -1  -5  -7 55059.0 2761.53  19
   1  -5   7 59366.9 2776.26  33
   1   5  -7 58896.6 2676.76  35
  -1  -5  -7 57072.8 2801.33  33
  -1   5   7 55571.8 2857.16  32
  -1   5   7 55167.4 2620.03  21
  -1   5   6 88401.5 4125.73   7
  -1  -5  -6 91106.0 3973.67   6
  -1   5   6 84713.4 4353.81  46
  -1   5   6 87635.1 3844.10  47
  -1  -5  -6 92598.8 4351.32  49
   1   5  -6 93228.3 3773.98  46
   1  -5   6 82287.7 3847.77  44
  -1  -5  -6 91301.2 4090.22  44
   1   5  -6 90690.7 3784.07  18
  -1  -5  -6 88262.7 3661.88  20
  -1   5   6 89030.9 4291.53  18
   1  -5   6 86217.0 3758.81  19
  -1  -5  -6 94871.9 3907.78  19
   1  -5   6 81755.5 3730.39  33
   1   5  -6 92872.5 3693.10  35
  -1  -5  -6 86039.3 3870.63  33
  -1   5   6 87921.5 3922.04  32
   1  -5   6 81265.0 3457.96  22
  -1   5   6 79799.0 3578.00  21
  -1   5   5 6604.92 1020.93  46
  -1   5   5 6846.78 824.954  47
  -1  -5  -5 6269.56 924.784  49
   1   5  -5 7658.22 814.800  46
   1  -5   5 7835.08 888.671  44
  -1  -5  -5 6745.99 890.518  44
   1   5  -5 6693.96 778.221  18
  -1  -5  -5 5687.97 700.691  20
  -1   5   5 6798.18 991.259  18
   1  -5   5 8456.57 858.416  19
  -1  -5  -5 6753.82 802.602  19
   1  -5   5 8906.61 881.249  33
   1   5  -5 6445.23 707.947  35
  -1  -5  -5 8025.00 865.840  33
  -1   5   5 9058.02 1057.70   7
  -1  -5  -5 5156.31 744.306   6
   1  -5   5 8543.12 753.283  22
  -1   5   4 14569.1 1507.32  46
   1   5  -4 15436.4 1180.37  46
  -1   5   4 15624.7 1230.96  47
  -1  -5  -4 17271.9 1549.02  49
   1  -5   4 14685.2 1259.39  44
  -1  -5  -4 17694.6 1439.36  44
   1   5  -4 16861.2 1237.90  18
  -1  -5  -4 16243.5 1207.01  20
  -1   5   4 14636.5 1434.67  18
   1  -5   4 15300.3 1204.80  19
  -1  -5  -4 18713.5 1342.07  19
  -1  -5  -4 17405.1 1314.34  33
   1   5  -4 15531.1 1121.32  35
   1  -5   4 13518.0 1138.04  33
  -1   5   4 13747.5 1267.01  35
  -1  -5  -4 16908.4 1373.97   6
  -1   5   4 16190.3 1470.65   7
   1  -5   4 13924.5 1048.22  22
  -1   5   3 57948.4 3341.78  46
  -1   5   3 55323.0 2786.56  47
   1   5  -3 62596.5 2817.94  46
  -1  -5  -3 57137.3 3184.36  49
   1  -5   3 62094.1 2983.75  44
  -1  -5  -3 57715.6 3056.20  44
   1   5  -3 63879.9 2882.67  18
  -1  -5  -3 59775.6 2826.11  20
   1  -5   3 64261.6 2896.57  19
  -1  -5  -3 58257.7 2865.38  19
  -1  -5  -3 60088.9 2921.77  33
   1  -5   3 62295.3 2855.88  33
  -1   5   3 53967.4 2966.07  35
   1   5  -3 58031.7 2653.61  35
  -1   5   3 58915.4 3245.52   7
  -1  -5  -3 59831.7 3003.94   6
   1  -5   3 62193.8 2696.18  22
  -1   5   2 6757.36 1031.16  46
  -1   5   2 6073.88 736.114  47
   1   5  -2 6473.62 579.361  45
  -1  -5  -2 6480.85 914.243  49
   1   5  -2 6699.54 750.056  46
   1  -5   2 6554.54 844.264  43
   1  -5   2 5381.84 748.668  44
  -1  -5  -2 6275.47 855.906  44
   1   5  -2 6888.97 770.136  18
  -1  -5  -2 6556.23 766.984  20
   1  -5   2 6100.75 749.664  19
  -1  -5  -2 6141.85 761.528  19
  -1  -5  -2 6913.19 833.319  33
   1  -5   2 5399.17 695.890  33
  -1   5   2 5568.90 822.147  35
  -1  -5  -2 6835.99 873.988   6
   1  -5   2 5601.40 645.190  22
  -1   5   1 27289.0 2108.09  46
  -1   5   1 29135.0 1701.32  47
   1   5  -1 27820.7 1422.91  45
  -1  -5  -1 26907.6 1945.11  49
   1   5  -1 28447.9 1666.53  46
   1  -5   1 28259.4 1875.41  43
   1  -5   1 29561.7 1837.57  44
  -1  -5  -1 26059.8 1856.84  44
   1   5  -1 31218.9 1774.28  18
  -1  -5  -1 25028.6 1668.33  20
  -1   5   1 26885.2 1979.99  18
   1  -5   1 30603.8 1787.09  19
  -1  -5  -1 27504.6 1723.25  19
  -1  -5  -1 29822.9 1839.12  33
  -1   5   1 27861.6 1926.05  35
   1  -5   1 30513.4 1634.99  22
  -1  -5  -1 25471.4 1818.12   6
  -1  -5  -1 23343.0 1463.98   9
  -1  -5   0 334.512 302.990   6
  -1  -5   0 255.264 179.411   9
   1   5   0 49.9337 202.298  46
  -1   5   0 91.4399 338.116  46
  -1   5   0 344.591 263.799  47
  -1  -5   0 155.318 272.438  49
   1   5   0 99.5758 145.283  45
  -1  -5   0 286.527 290.163  44
   1  -5   0 306.668 248.460  44
   1  -5   0 131.196 230.139  43
  -1  -5   0 114.642 241.688  20
   1   5   0 263.407 238.604  18
  -1   5   0 78.6438 243.323  18
   1  -5   0-53.3535 197.322  19
  -1  -5   0 224.298 196.744  19
  -1   5   0 290.843 268.877  35
  -1  -5   0 120.161 281.023  33
   1  -5   0 89.7768 174.132  22
  -1  -5   1 26731.4 1813.41  10
  -1  -5   1 30342.6 1958.58   6
  -1  -5   1 29085.2 1622.01   9
  -1  -5   1 28540.8 1889.05  48
  -1   5  -1 32437.9 2288.96  46
  -1   5  -1 29803.2 1692.39  47
   1   5   1 31867.2 1573.53  45
  -1  -5   1 29731.6 2037.53  49
   1   5   1 27292.0 1685.57  46
   1  -5  -1 30995.4 1964.45  43
  -1   5  -1 30530.8 1776.23  42
  -1  -5   1 30091.8 2011.32  44
   1  -5  -1 28001.3 1822.54  44
   1   5   1 31403.9 1831.00  18
  -1   5  -1 32405.7 2149.87  18
   1  -5  -1 33278.5 1855.44  19
  -1  -5   1 28455.3 1777.39  19
  -1  -5   1 30847.3 1887.47  33
  -1   5  -1 29730.7 2016.89  35
   1  -5  -1 31393.1 1750.02  33
   1   5   1 27103.2 1630.54  32
   1  -5  -1 31260.2 1705.27  22
  -1  -5   2 6647.44 819.494  10
  -1  -5   2 6559.17 685.313   9
  -1   5  -2 6508.14 982.389  46
  -1   5  -2 5313.33 637.135  47
   1   5   2 7709.53 682.862  45
  -1  -5   2 5840.79 856.544  49
   1  -5  -2 8545.18 959.358  43
   1  -5  -2 7182.10 839.377  44
  -1   5  -2 6377.72 752.665  42
  -1  -5   2 7063.99 921.307  44
   1   5   2 7494.31 810.173  18
  -1   5  -2 6696.71 938.237  18
   1  -5  -2 7861.49 821.994  19
  -1  -5   2 7890.33 823.569  19
  -1  -5   2 6054.20 787.965  33
   1  -5  -2 7588.70 765.605  33
   1   5   2 7267.09 746.076  32
   1  -5  -2 7169.69 743.109  22
  -1  -5   3 57880.5 2896.57  10
  -1  -5   3 54292.9 2587.95   9
  -1  -5   3 52450.5 3022.64  48
  -1   5  -3 58793.6 3343.13  46
   1   5   3 62049.4 2581.81  45
   1   5   3 54702.7 2708.50  46
   1  -5  -3 58175.4 2967.83  43
  -1   5  -3 60930.2 2830.67  42
  -1  -5   3 60477.6 3094.22  44
   1  -5  -3 58764.9 2888.34  44
   1   5   3 62409.2 2832.49  18
  -1   5  -3 56212.9 3133.32  18
   1  -5  -3 60261.6 2820.62  19
   1  -5  -3 60103.4 2696.54  33
  -1  -5   3 59185.9 2899.28  33
   1   5   3 54626.2 2643.80  32
   1  -5  -3 60418.4 2711.52  22
  -1  -5   4 23054.8 1581.98  10
  -1   5  -4 19910.8 1581.81  14
  -1  -5   4 20663.5 1325.61   9
  -1  -5   4 20404.0 1701.95  48
  -1   5  -4 19665.0 1790.37  46
   1   5   4 24644.0 1355.46  45
   1   5   4 23604.2 1463.36  46
   1  -5  -4 21412.5 1571.21  43
  -1   5  -4 18810.2 1385.57  42
  -1  -5   4 19626.6 1595.32  44
   1  -5  -4 20146.2 1487.83  44
   1   5   4 23799.2 1531.79  18
  -1  -5   4 20864.6 1545.42  20
  -1   5  -4 18950.6 1642.31  18
   1  -5  -4 19538.3 1401.99  19
   1  -5  -4 19778.8 1303.72  33
  -1  -5   4 20420.5 1482.27  33
   1   5   4 21605.4 1376.71  32
   1  -5  -4 21889.4 1391.14  22
  -1  -5   5 5415.92 750.688  10
  -1   5  -5 7036.70 886.005  14
   1   5   5 5214.19 764.105  14
  -1  -5   5 5846.47 656.883   9
  -1   5  -5 7734.71 1106.66  46
  -1  -5   5 6065.89 958.997  48
   1   5   5 4945.27 655.876  46
   1   5   5 4431.47 566.957  45
   1  -5  -5 5675.77 784.691  43
  -1   5  -5 7413.82 805.073  42
  -1  -5   5 5627.55 830.293  44
   1  -5  -5 6037.19 765.034  44
   1   5   5 5768.53 714.103  18
  -1  -5   5 5039.99 736.368  20
  -1   5  -5 6510.19 884.521  18
   1  -5  -5 6231.36 734.979  19
   1  -5  -5 5711.44 641.090  33
  -1  -5   5 6291.63 794.370  33
  -1   5  -5 7660.90 971.879  35
   1   5   5 4477.25 616.089  32
   1  -5  -5 7044.46 740.584  22
  -1   5  -6 69812.9 3554.35  14
   1   5   6 69955.3 3499.06  14
  -1  -5   6 70785.7 3465.73  10
  -1  -5   6 73382.2 3191.49   9
  -1  -5   6 80783.8 4018.87  48
  -1   5  -6 70105.2 3961.89  46
   1   5   6 83300.5 3247.61  45
   1   5   6 76664.0 3300.36  46
   1  -5  -6 67983.3 3431.61  43
  -1   5  -6 74985.7 3384.67  42
  -1  -5   6 81822.3 3754.67  44
   1   5   6 84148.6 3480.79  18
  -1  -5   6 77855.2 3534.27  20
  -1   5  -6 71935.0 3522.88  18
   1  -5  -6 76957.0 3370.09  19
  -1  -5   6 79771.9 3512.07  33
  -1   5  -6 64069.5 3554.86  35
   1  -5  -6 72567.2 3113.72  33
   1   5   6 79009.7 3315.83  32
   1  -5  -6 71631.4 3243.20  22
  -1   5  -7 61589.9 3086.46  14
   1   5   7 53720.3 2914.28  14
  -1  -5   7 57858.7 2945.69  10
  -1  -5   7 57328.1 2658.20   9
  -1  -5   7 56751.5 3255.54  48
  -1   5  -7 56223.5 3399.92  46
   1   5   7 61821.6 2690.64  45
   1   5   7 57487.4 2727.08  46
   1  -5  -7 55746.7 2940.53  43
  -1   5  -7 60711.8 2866.25  42
  -1  -5   7 53959.7 3015.47  44
   1   5   7 58708.3 2837.77  18
  -1  -5   7 57701.7 2943.72  20
  -1   5  -7 62284.0 2954.35  18
   1  -5  -7 60756.0 2803.99  19
  -1  -5   7 59830.5 2907.20  33
  -1   5  -7 56271.8 3086.86  35
   1  -5  -7 55097.6 2532.63  33
   1   5   7 58473.5 2748.90  32
   1  -5  -7 58992.4 2742.66  22
  -1   5  -8 108540. 4697.79  14
  -1  -5   8 113167. 4655.11  10
  -1  -5   8 108679. 4301.74   9
  -1  -5   8 107397. 4982.42  48
  -1   5  -8 97362.1 4981.99  46
   1   5   8 106399. 4264.18  45
   1   5   8 111692. 4386.59  46
   1  -5  -8 102322. 4567.80  43
  -1   5  -8 106964. 4478.93  42
  -1  -5   8 107580. 4765.64  44
   1   5   8 115564. 4535.91  18
  -1  -5   8 114945. 4687.14  20
   1  -5  -8 104835. 4393.86  19
   1  -5  -8 102813. 4106.51  33
  -1   5  -8 104744. 4794.95  35
   1   5   8 111032. 4416.95  32
   1  -5  -8 108538. 4391.94  22
  -1   5  -8 111134. 4692.51  25
  -1   5  -9 44871.0 2308.15  13
  -1   5  -9 46752.9 2588.06  14
  -1  -5   9 41314.3 2423.03  10
  -1  -5   9 43592.6 2220.86   9
  -1  -5   9 42842.2 2714.59  48
   1   5   9 44174.9 2199.18  45
   1   5   9 43041.5 2247.98  46
   1  -5  -9 44136.5 2495.45  43
  -1   5  -9 46716.3 2423.90  42
  -1  -5   9 44523.3 2598.62  44
  -1  -5   9 43941.5 2486.22  20
   1   5   9 45408.0 2397.99  18
   1  -5  -9 49276.6 2389.21  19
   1  -5  -9 43564.8 2065.71  33
  -1   5  -9 45935.2 2666.02  35
   1   5   9 48003.0 2353.79  32
   1  -5  -9 47518.9 2348.47  22
  -1   5  -9 46655.6 2536.16  25
  -1   5 -10 12792.4 1088.95  13
  -1   5 -10 12484.2 1201.89  14
  -1  -5  10 11092.0 1103.98  10
  -1  -5  10 9019.59 887.885   9
   1   5  10 11577.8 988.953  46
   1  -5 -10 12399.3 1169.38  43
  -1   5 -10 11517.7 1065.67  42
  -1  -5  10 11525.3 1195.56  44
  -1  -5  10 10598.9 1094.13  20
   1  -5 -10 13372.1 1071.27  19
   1  -5 -10 11299.2 844.505  33
  -1   5 -10 12007.4 1243.78  35
   1   5  10 11770.2 1035.18  32
  -1   5 -10 12908.2 1165.91  25
  -1   5 -11 14789.6 1205.07  13
  -1   5 -11 11487.8 1174.72  14
  -1  -5  11 13438.1 1220.38  10
  -1  -5  11 14814.4 1112.78   9
  -1   5 -11 13775.7 1327.11  46
   1  -5 -11 15473.5 1309.77  43
  -1   5 -11 16225.7 1271.19  42
  -1  -5  11 13399.0 1287.25  44
  -1  -5  11 13597.0 1259.72  20
   1  -5 -11 15061.3 1163.61  19
  -1  -5  11 14654.0 1229.85  33
  -1   5 -11 14347.4 1391.09  35
   1   5  11 14583.2 1158.51  32
  -1  -5  11 14556.0 1138.78  31
  -1   5 -11 13696.1 1205.26  25
  -1   5 -12 39548.4 2300.15  14
  -1  -5  12 41520.8 2310.53  10
  -1  -5  12 36205.7 1983.42   9
  -1  -5  12 41406.1 2507.38  48
  -1   5 -12 34418.0 2264.06  46
   1  -5 -12 33864.5 2163.17  43
  -1   5 -12 37926.8 2156.92  42
  -1  -5  12 43897.9 2462.01  44
  -1  -5  12 37916.1 2246.04  20
   1   5  12 37842.0 2161.54  18
   1  -5 -12 36576.7 2024.38  19
  -1  -5  12 40116.2 2180.02  33
  -1   5 -12 36441.3 2394.89  35
  -1  -5  12 36515.8 2023.22  31
   1   5  12 41077.3 2163.92  32
  -1   5 -12 37181.4 2153.48  25
  -1  -5  13 9426.56 1033.04  10
  -1   5 -13 11347.7 1110.28  14
  -1  -5  13 9635.21 894.889   9
  -1  -5  13 11150.8 1192.90  48
  -1   5 -13 11180.3 1131.20  46
   1   5  13 9588.86 905.425  45
   1  -5 -13 11574.0 1108.59  43
  -1   5 -13 11902.1 1065.85  42
  -1  -5  13 10453.1 1112.75  44
   1   5  13 9337.08 981.910  18
   1  -5 -13 11950.5 1010.17  19
  -1  -5  13 8453.40 992.336  20
  -1   5 -13 11398.9 1255.30  35
  -1  -5  13 12133.7 1024.19  33
   1   5  13 10536.1 1009.56  32
  -1  -5  13 9713.02 928.215  31
   1   5  13 9676.05 1015.39  21
  -1   5 -13 10222.2 992.787  25
  -1   5 -14 12002.5 1125.46  14
  -1  -5  14 8989.65 1006.89  10
  -1  -5  14 10775.2 934.282   9
  -1  -5  14 12062.9 1241.31  48
  -1   5 -14 10160.1 1054.41  46
   1   5  14 10227.8 928.611  45
   1  -5 -14 11736.2 1127.36  43
  -1   5 -14 11860.7 1073.19  42
  -1  -5  14 11404.6 1161.04  44
  -1  -5  14 10941.7 1102.67  20
   1   5  14 11470.5 1078.21  18
   1  -5 -14 11104.5 966.515  19
  -1  -5  14 10083.7 917.593  33
  -1   5 -14 9422.93 1148.09  35
   1   5  14 11998.1 1064.65  32
  -1  -5  14 11206.2 989.835  31
   1  -5 -14 9815.77 940.959  22
   1   5  14 11057.2 1070.69  21
  -1   5 -14 10974.6 999.977  25
  -1   5 -15 12045.9 1091.74  13
  -1   5 -15 9919.96 1020.69  14
  -1  -5  15 10092.7 1044.67  10
  -1  -5  15 9611.90 882.368   9
  -1  -5  15 8102.65 1061.09  48
   1   5  15 10077.2 920.553  45
   1  -5 -15 10804.4 1076.46  43
  -1   5 -15 11651.7 1046.11  42
  -1  -5  15 10928.1 1141.53  44
   1   5  15 9468.35 983.048  18
   1  -5 -15 12163.3 989.037  19
  -1  -5  15 8963.64 1008.84  20
  -1  -5  15 10586.1 880.201  33
  -1   5 -15 11136.7 1225.86  35
   1   5  15 11203.4 1048.94  32
  -1  -5  15 7483.94 823.031  31
   1  -5 -15 10093.4 929.164  22
   1   5  15 11243.3 1068.98  21
  -1   5 -15 10682.8 964.585  25
  -1   5 -16 2836.73 555.144  13
  -1  -5  16 4687.01 690.272  10
  -1   5 -16 3694.97 632.778  14
  -1  -5  16 3510.24 527.154   9
  -1  -5  16 3613.52 692.255  48
   1   5  16 3658.73 555.381  45
  -1  -5  16 4776.80 745.902  44
   1  -5 -16 3889.66 643.870  43
  -1   5 -16 4469.94 651.444  42
   1   5  16 3631.12 595.678  18
  -1  -5  16 3979.72 664.366  20
  -1   5 -16 3955.18 700.885  35
  -1  -5  16 3827.78 567.959  31
   1   5  16 4086.80 623.244  32
   1  -5 -16 4010.30 569.153  22
   1   5  16 4405.56 664.939  21
  -1   5 -16 3673.32 549.243  25
  -1  -5  17 7366.34 864.848  10
  -1   5 -17 7543.85 863.961  14
  -1  -5  17 7583.65 755.136   9
  -1  -5  17 8628.08 1010.34  48
   1   5  17 7393.48 778.243  45
   1  -5 -17 7783.87 877.477  43
  -1   5 -17 7571.12 845.223  42
  -1  -5  17 7233.02 898.968  44
  -1  -5  17 7328.46 909.352  20
   1   5  17 7142.67 847.272  18
  -1   5 -17 8839.23 1019.41  35
  -1  -5  17 6468.99 757.790  31
   1   5  17 7208.68 826.764  32
  -1   5 -17 6823.00 809.314  24
   1  -5 -17 8148.54 789.192  22
   1   5  17 7193.61 861.998  21
  -1   5 -17 8233.07 795.484  25
  -1  -5  18 4170.22 651.730  10
  -1   5 -18 3519.09 603.131  14
  -1  -5  18 3185.05 487.078   9
  -1  -5  18 2920.20 633.872  48
   1   5  18 3861.17 561.186  45
  -1  -5  18 4195.84 681.339  44
   1  -5 -18 4465.83 655.951  43
  -1   5 -18 3214.03 558.111  42
   1   5  18 3678.31 589.573  18
  -1  -5  18 3994.75 660.806  20
   1  -5 -18 4431.94 559.925  19
   1   5  18 3406.21 602.011  21
  -1   5 -18 3855.75 659.307  35
   1   5  18 3058.86 572.395  32
  -1  -5  18 4255.97 588.917  31
   1  -5 -18 4033.81 530.570  22
  -1   5 -18 3699.81 596.727  24
  -1  -5  19 28991.4 1838.94  10
  -1   5 -19 30799.0 1811.23  14
  -1  -5  19 28130.3 1596.38   9
  -1  -5  19 28956.6 1952.20  48
   1   5  19 28078.3 1686.60  45
   1  -5 -19 31056.5 1832.35  43
  -1   5 -19 31380.8 1816.97  42
  -1  -5  19 31122.5 1963.94  44
  -1  -5  19 32132.2 1898.86  20
   1   5  19 27226.8 1704.91  18
   1  -5 -19 30307.6 1626.85  19
  -1   5 -19 30488.8 1924.21  35
  -1  -5  19 27587.4 1673.09  31
   1   5  19 31751.5 1862.56  32
  -1   5 -19 27528.4 1766.67  24
   1  -5 -19 33514.2 1697.81  22
   1   5  19 30462.0 1848.47  21
  -1   5 -20 130276. 5200.91  13
  -1  -5  20 140155. 5409.15  10
  -1  -5  20 132580. 4980.99   9
  -1  -5  20 126908. 5443.67  48
   1   5  20 139886. 5234.51  45
   1  -5 -20 126883. 5206.46  43
  -1   5 -20 139362. 5279.13  42
  -1  -5  20 141881. 5523.37  44
  -1  -5  20 145719. 5381.59  20
   1  -5 -20 138886. 5004.49  19
  -1   5 -20 127989. 5346.90  35
  -1  -5  20 129662. 5129.56  31
   1   5  20 142970. 5367.71  32
   1   5  20 139086. 5344.06  21
  -1   5 -20 125366. 5237.38  24
   1  -5 -20 141634. 5071.30  22
  -1   5 -21 40710.9 2089.15  13
  -1  -5  21 41977.9 2180.48  10
  -1  -5  21 38587.0 1852.60   9
  -1  -5  21 38828.3 2271.46  48
   1   5  21 41144.7 2092.27  45
   1  -5 -21 41906.6 2113.96  43
  -1   5 -21 43180.4 2127.38  42
  -1  -5  21 42327.5 2259.88  44
  -1  -5  21 41337.7 2132.91  20
   1  -5 -21 39013.0 1864.08  19
  -1   5 -21 40408.1 2181.45  35
  -1  -5  21 38394.3 1997.89  31
   1   5  21 37460.6 2109.13  32
   1   5  21 40596.4 2141.82  21
  -1   5 -21 37687.6 2081.09  24
   1  -5 -21 41513.3 1935.24  22
  -1   5 -22 75019.5 3293.72  13
  -1  -5  22 77380.3 3374.94  10
  -1  -5  22 83403.0 3591.34  48
   1   5  22 80695.2 3371.44  45
   1  -5 -22 72599.5 3248.17  43
  -1   5 -22 78610.0 3304.65  42
  -1  -5  22 86538.2 3546.35  44
  -1  -5  22 84976.0 3395.98  20
   1  -5 -22 73518.6 3027.16  19
  -1   5 -22 75382.3 3374.57  35
  -1  -5  22 80615.8 3254.90  31
   1   5  22 82110.2 3446.80  32
   1   5  22 81004.9 3391.73  21
   1  -5 -22 81269.0 3158.40  22
  -1   5 -23 3289.81 488.798  13
   1   5  23 2749.16 467.906  45
  -1  -5  23 2829.65 528.552  48
   1  -5 -23 2247.14 399.470  43
  -1   5 -23 2620.38 424.447  42
  -1  -5  23 3138.27 456.047  20
   1   5  23 2502.68 441.533  21
  -1   5 -23 2532.38 446.644  35
   1   5  23 2942.41 486.018  32
   1  -5 -23 2055.93 347.392  22
  -1   5 -24 14087.8 1020.77  13
   1  -5 -24 15234.7 1018.82  43
  -1   5 -24 15822.9 1017.17  42
  -1  -5  24 15922.1 1179.42  48
   1   5  24 15656.2 1102.15  45
  -1  -5  24 18056.7 1082.11  20
   1   5  24 16745.7 1143.06  32
   1   5  24 17320.4 1110.28  21
   1  -5 -24 15761.1 947.891  22
   1   5  25 21483.4 1268.87  45
  -1  -5  25 20137.1 1297.93  48
  -1  -5  25 19575.2 1128.54  20
  -1   5 -25 21208.0 1211.02  13
   1   5  25 21686.6 1215.60  21
   1  -5 -25 19696.0 1065.90  22
   1  -5 -25 20805.6 1157.76  43
  -1  -5  26 13751.0 957.352  48
   1   5  26 11286.6 691.394  14
  -1   5 -26 14329.0 896.294  13
  -1  -5  27 12125.3 830.165  48
  -1   5 -27 12224.8 784.613  13
  -1  -5  28 1102.77 210.102  48
  -1   5 -28 1140.69 211.488  13
   1  -6  20 14225.1 804.275  48
   1   6 -20 12375.0 716.246  14
   1  -6  19 15835.9 941.576  48
   1   6 -19 15519.9 875.074  14
  -1   6  19 15923.6 914.590  14
   1  -6  18 10325.4 764.444  48
   1   6 -18 8317.84 661.289  14
  -1   6  18 10248.5 737.950  14
   1  -6  17 17618.9 1104.70  48
   1   6 -17 17943.7 1037.95  14
  -1   6  17 19537.7 1113.27  14
  -1   6  16 4203.91 593.575  18
   1  -6  16 4574.36 561.536  48
  -1  -6 -16 3591.89 427.316  49
   1   6 -16 4465.97 527.431  14
  -1   6  16 5010.96 574.154  14
   1  -6  16 4707.50 485.348  33
  -1   6  15 20326.7 1459.73  18
  -1  -6 -15 26228.3 1310.52  19
   1  -6  15 23016.3 1389.35  48
  -1   6  15 18735.6 1006.47  47
  -1  -6 -15 20190.8 1205.17  49
   1   6 -15 25033.7 1309.39  46
   1   6 -15 23535.6 1341.96  14
  -1   6  15 23439.0 1387.39  14
   1  -6  15 23019.1 1245.21  33
  -1   6  14 5639.65 726.995  18
   1  -6  14 5192.16 652.739  48
  -1   6  14 5647.32 464.320  47
  -1  -6 -14 4685.60 544.885  49
   1   6 -14 6170.30 610.903  46
   1   6 -14 6104.59 648.691  14
  -1   6  14 5650.64 664.847  14
   1  -6  14 5547.42 575.016  33
  -1  -6 -14 5365.29 526.821  33
  -1   6  13 35799.4 2084.00  18
   1  -6  13 37516.5 1799.04  33
  -1  -6 -13 37469.9 1724.37  33
   1  -6  13 37620.8 1984.57  48
  -1   6  13 30896.0 1508.00  47
  -1  -6 -13 33364.2 1761.83  49
   1   6 -13 38583.4 1857.96  46
   1   6 -13 35688.9 1865.70  14
  -1   6  13 38318.2 1977.13  14
   1  -6  12 5375.23 595.586  44
   1   6 -12 6701.99 610.793  18
  -1   6  12 6566.18 827.515  18
   1  -6  12 6132.59 631.117  33
   1  -6  12 6541.28 747.361  48
  -1   6  12 5693.29 501.188  47
  -1   6  12 6202.66 769.860  46
  -1  -6 -12 5859.73 639.359  49
   1   6 -12 5907.19 661.134  46
   1   6 -12 6213.32 693.857  14
  -1   6  12 7585.36 784.266  14
   1  -6  11 3633.27 498.408  44
   1   6 -11 4078.96 494.992  18
  -1   6  11 4710.75 707.773  18
  -1  -6 -11 4722.31 532.979  19
   1  -6  11 4237.13 530.143  33
   1  -6  11 4636.07 657.547  48
  -1   6  11 3299.39 396.253  47
  -1   6  11 3809.50 630.198  46
  -1  -6 -11 4003.88 534.396  49
   1   6 -11 3938.80 555.227  46
   1   6 -11 3690.82 542.007  14
  -1   6  11 4168.68 599.346  14
   1  -6  10 27523.4 1490.03  44
  -1   6  10 23513.0 1694.46  18
  -1  -6 -10 25165.4 1415.61  19
  -1  -6 -10 24199.2 1418.46  33
   1  -6  10 26292.5 1464.91  33
   1  -6  10 25438.6 1646.37  48
  -1   6  10 25216.9 1750.40  46
  -1  -6 -10 22346.8 1427.76  49
   1   6 -10 27034.0 1569.30  46
   1   6 -10 22431.9 1491.72  14
  -1   6  10 28412.5 1668.18  14
   1  -6   9 30050.8 1698.16  44
  -1   6   9 32467.2 2066.98  18
  -1  -6  -9 35550.7 1755.59  19
   1  -6   9 31806.6 1720.82  33
  -1  -6  -9 34212.9 1768.95  33
   1  -6   9 36830.0 2054.79  48
  -1  -6  -9 31166.9 1741.52  49
   1   6  -9 34487.6 1861.16  46
   1   6  -9 30929.6 1823.48  14
  -1   6   9 37061.5 1988.48  14
   1  -6   8 6269.00 796.027  48
  -1  -6  -8 6783.11 713.539  49
   1   6  -8 7525.97 790.075  46
   1  -6   8 7593.70 741.018  44
   1   6  -8 7667.72 734.483  18
  -1   6   8 7470.13 910.271  18
   1  -6   8 7238.93 672.840  19
  -1  -6  -8 7001.01 714.448  33
   1  -6   8 8416.04 759.042  33
  -1  -6  -8 6794.15 709.723   6
   1   6  -8 6680.77 754.591  14
  -1   6   8 7324.91 811.762  14
   1  -6   7 30077.3 1853.73  48
  -1   6   7 25597.5 1907.07  46
  -1  -6  -7 28164.0 1602.23  49
   1   6  -7 28955.4 1718.62  46
   1  -6   7 29270.8 1627.86  44
   1   6  -7 31057.2 1670.94  18
  -1   6   7 29268.9 1943.90  18
   1  -6   7 29234.7 1568.86  19
  -1  -6  -7 29638.1 1658.32  33
   1  -6   7 32247.9 1658.74  33
  -1  -6  -7 26520.6 1608.85   6
   1   6  -7 26537.8 1673.77  14
  -1   6   7 28979.4 1778.01  14
   1  -6   6 25558.2 1659.07  48
  -1   6   6 24721.2 1806.06  46
   1   6  -6 19333.7 1393.04  46
   1  -6   6 23903.3 1408.83  44
   1   6  -6 20580.6 1356.07  18
  -1   6   6 23061.7 1680.83  18
   1  -6   6 24849.5 1382.76  19
  -1  -6  -6 20584.2 1362.58  33
   1  -6   6 24135.2 1389.15  33
  -1  -6  -6 20982.0 1381.07   6
   1   6  -6 17845.8 1364.52  14
   1  -6   5 45496.8 2355.10  48
  -1   6   5 37404.6 2418.00  46
   1   6  -5 41579.1 2155.32  46
   1  -6   5 40642.5 2056.11  43
   1  -6   5 36865.0 1975.85  44
   1   6  -5 43670.4 2122.94  18
  -1  -6  -5 41250.1 2091.10  33
   1  -6   5 38676.3 1956.74  33
  -1  -6  -5 39182.9 2057.24   6
   1   6  -5 37343.1 2108.45  14
   1  -6   4 11850.4 982.955  43
   1  -6   4 11268.6 941.221  44
   1   6  -4 13261.7 1027.40  18
   1  -6   4 11489.8 913.536  33
  -1  -6  -4 11471.3 980.045  33
  -1   6   4 11575.8 1228.52  46
   1   6  -4 11751.4 1029.57  46
  -1   6   4 12255.7 1025.49   7
  -1  -6  -4 12092.0 1001.34   6
   1  -6   3 14309.8 1103.17  43
   1  -6   3 13656.7 1069.73  44
   1   6  -3 17330.4 1197.78  18
  -1   6   3 14031.7 1309.84  18
   1  -6   3 15719.8 1101.76  19
  -1  -6  -3 15636.2 1163.22  33
  -1   6   3 15472.7 1427.03  46
   1   6  -3 16724.3 1222.70  46
  -1   6   3 14044.0 1158.76   7
  -1  -6  -3 14446.9 1121.96   6
   1  -6   2 4152.11 573.885  43
   1  -6   2 4347.59 568.039  44
  -1  -6  -2 4081.18 617.753  44
   1   6  -2 4314.99 584.475  18
   1  -6   2 4918.13 591.918  19
  -1   6   2 4118.37 695.211  18
  -1  -6  -2 4836.71 623.729  33
   1  -6   2 4618.60 711.303  48
   1   6  -2 3211.10 533.620  46
  -1   6   2 4036.12 748.621  46
  -1   6   2 5142.30 692.237   7
  -1  -6  -2 3425.72 535.384   6
   1  -6   1 53012.2 2615.54  48
  -1   6   1 46556.3 2831.85  46
   1   6  -1 50527.3 2486.13  46
   1  -6   1 47284.1 2399.05  43
  -1  -6  -1 50448.9 2553.71  44
   1  -6   1 50321.3 2374.28  44
   1   6  -1 54421.5 2495.51  18
  -1   6   1 44192.2 2613.04  18
   1  -6   1 51801.9 2377.08  19
   1  -6   1 48655.4 2254.44  33
  -1  -6  -1 48597.7 2418.45  33
   1   6  -1 53317.8 2298.92  32
  -1   6   1 49203.1 2589.06   7
  -1  -6  -1 49655.6 2450.93   6
   1  -6   0 16371.6 1278.34  48
  -1   6   0 17581.4 1555.65  46
   1  -6   0 16900.8 1235.82  43
  -1  -6   0 16979.6 1303.46  44
   1   6   0 17229.5 1233.89  18
  -1  -6   0 17440.2 1105.50  20
  -1   6   0 14378.9 1323.42  18
   1  -6   0 19443.2 1240.30  19
   1  -6   0 16539.4 1089.32  33
  -1  -6   0 16496.2 1220.57  33
   1   6   0 18275.5 1152.46  32
  -1   6   0 16819.2 1354.82   7
  -1  -6   0 17612.1 1268.73   6
  -1   6  -1 50141.2 2920.15  46
   1  -6  -1 47709.3 2448.64  43
  -1  -6   1 53549.8 2647.56  44
   1   6   1 56860.0 2588.75  18
  -1  -6   1 51912.0 2324.66  20
   1  -6  -1 50070.4 2395.77  19
  -1  -6   1 51168.3 2480.82  33
   1  -6  -1 46528.3 2234.21  33
   1   6   1 53249.0 2362.97  32
  -1   6  -1 50788.3 2704.17   7
  -1  -6   1 57191.9 2592.13   6
  -1   6  -2 4218.20 745.006  46
   1   6   2 3711.88 562.668  46
  -1  -6   2 3722.05 605.597  44
  -1  -6   2 3004.97 458.409  20
   1  -6  -2 3988.38 534.540  19
   1   6   2 3238.35 531.161  18
   1  -6  -2 3376.58 451.372  33
  -1   6  -2 3276.09 546.715  35
   1   6   2 4480.47 546.259  32
  -1  -6   2 3161.08 502.741  33
  -1   6  -2 4943.39 728.816   7
  -1  -6   2 3694.69 561.258   6
  -1   6  -3 17671.0 1415.33   7
  -1  -6   3 15509.6 1182.68   6
   1   6   3 16078.5 1198.79  46
  -1   6  -3 14285.0 1429.12  46
  -1  -6   3 17856.9 1324.45  44
   1   6   3 16237.6 1222.79  18
  -1  -6   3 16825.9 1109.87  20
   1  -6  -3 16356.4 1143.74  19
   1  -6  -3 13411.5 946.798  33
  -1  -6   3 15932.5 1182.52  33
  -1   6  -3 15725.9 1218.20  35
   1   6   3 17921.2 1158.78  32
  -1   6  -3 14115.9 1129.72  25
   1   6   4 15448.0 1151.57  46
  -1   6  -4 13632.3 1406.91  46
  -1  -6   4 13688.7 1184.84  44
   1   6   4 17058.0 1237.60  18
  -1  -6   4 14226.7 1040.58  20
   1  -6  -4 17492.9 1152.70  19
   1  -6  -4 13973.5 932.099  33
  -1  -6   4 15491.9 1153.11  33
  -1   6  -4 12618.3 1113.33  35
  -1  -6   4 15531.5 1182.80   6
  -1   6  -4 15177.3 1129.87  25
   1   6   5 43833.5 2167.09  46
  -1   6  -5 37301.3 2498.89  46
  -1  -6   5 45303.0 2321.06  44
  -1  -6   5 43237.6 2090.02  20
   1  -6  -5 45240.7 2130.02  19
   1   6   5 44589.2 2237.61  18
   1  -6  -5 36644.0 1807.09  33
  -1  -6   5 41384.7 2138.15  33
  -1   6  -5 37356.9 2175.36  35
  -1   6  -5 42539.9 2121.52  25
  -1  -6   5 47445.6 2277.87   6
  -1   6  -6 27523.4 1822.11   7
  -1  -6   6 23526.3 1509.13   6
   1   6   6 19420.7 1361.19  46
  -1   6  -6 23440.5 1843.92  46
   1  -6  -6 26575.3 1561.39  43
  -1  -6   6 21686.4 1507.33  44
   1   6   6 21333.8 1467.40  18
  -1  -6   6 22964.0 1399.42  20
   1  -6  -6 25202.5 1454.08  19
   1  -6  -6 23174.9 1201.50  33
  -1  -6   6 21172.4 1407.46  33
  -1   6  -6 25159.9 1615.17  35
  -1   6  -6 24652.0 1451.79  25
  -1   6  -6 25120.9 1567.99  14
  -1   6  -7 29927.8 1725.77  14
  -1  -6   7 27923.4 1699.17   6
   1   6   7 27961.4 1621.14  46
  -1   6  -7 28114.0 1994.05  46
   1  -6  -7 29233.6 1699.99  43
  -1  -6   7 27154.4 1722.58  44
  -1  -6   7 30010.1 1641.72  20
   1   6   7 32402.4 1799.10  18
   1  -6  -7 30206.2 1650.34  19
  -1  -6   7 29226.5 1667.59  33
  -1   6  -7 25591.0 1702.96  35
   1   6   7 29607.8 1650.55  32
  -1   6  -7 27030.3 1561.89  25
  -1   6  -8 6987.05 759.438  14
   1   6   8 6644.35 765.782  14
   1   6   8 6814.13 689.081  46
  -1   6  -8 7035.93 910.685  46
   1  -6  -8 7568.15 777.051  43
  -1  -6   8 5859.20 730.781  44
  -1   6  -8 7956.25 720.885  25
   1   6   8 7114.28 779.437  18
   1  -6  -8 7781.71 733.817  19
   1   6   8 6126.97 697.466  32
  -1  -6   8 7224.92 782.025   6
  -1  -6   9 40325.3 2057.81   6
   1   6   9 40731.5 2049.47  21
  -1   6  -9 31022.9 1724.18  25
   1  -6  -9 33593.3 1925.11  43
  -1  -6   9 36430.6 2044.91  44
   1   6   9 41728.4 2110.78  18
   1  -6  -9 38429.9 1893.97  19
   1   6   9 41139.4 2003.63  32
  -1   6  -9 36927.4 1971.02  14
   1   6   9 38161.3 2028.23  14
  -1   6 -10 21039.9 1357.05  14
   1   6  10 20756.2 1380.82  14
  -1  -6  10 22982.7 1429.27   6
  -1   6 -10 20061.0 1487.87  46
   1  -6 -10 20458.7 1348.50  43
  -1  -6  10 23816.8 1494.49  44
   1  -6 -10 22875.8 1315.75  19
  -1  -6  10 21062.7 1288.88  33
  -1   6 -10 20074.3 1447.39  35
   1   6  10 19205.9 1305.21  32
   1   6  10 20716.4 1366.14  21
  -1   6 -10 19417.6 1167.80  25
   1   6  11 6318.94 709.500  14
  -1  -6  11 7607.27 774.502   6
  -1   6 -11 6414.63 769.450  46
   1  -6 -11 7569.86 764.182  43
  -1  -6  11 6722.46 753.042  44
  -1  -6  11 7061.20 714.465  20
   1  -6 -11 7925.10 701.813  19
  -1  -6  11 7546.62 676.733  33
  -1   6 -11 6223.28 764.779  35
   1   6  11 7338.52 737.307  32
  -1   6 -11 6109.15 571.880  25
   1   6  11 7117.86 740.197  21
  -1  -6  12 6569.52 708.304   6
   1   6  12 6204.62 689.482  21
  -1   6 -12 4945.73 491.832  25
   1  -6 -12 6127.35 675.409  43
  -1  -6  12 7777.43 780.294  44
  -1  -6  12 5916.33 655.378  20
   1   6  12 7239.98 781.857  18
   1  -6 -12 6726.39 646.358  19
  -1   6 -12 5900.55 738.093  35
   1   6  12 6282.22 682.472  32
   1   6  12 5908.08 687.252  14
  -1  -6  13 34577.3 1810.08   6
   1   6  13 34514.6 1798.58  21
   1  -6 -13 28045.6 1651.05  43
  -1  -6  13 33205.3 1812.47  44
  -1  -6  13 33313.1 1731.74  20
   1   6  13 34183.2 1825.66  18
   1  -6 -13 33093.4 1636.49  19
  -1   6 -13 28953.4 1816.78  35
   1   6  13 34146.5 1759.32  32
   1   6  13 31558.2 1722.52  14
  -1  -6  14 6052.02 657.906   6
   1   6  14 6131.76 661.120  21
   1  -6 -14 5834.43 621.634  43
  -1  -6  14 6819.09 708.810  44
  -1  -6  14 6568.21 660.320  20
   1   6  14 7563.88 739.442  18
   1  -6 -14 6433.22 594.011  19
  -1   6 -14 5636.74 701.914  35
   1   6  14 6094.29 644.033  32
   1   6  14 5563.70 604.001  14
  -1  -6  15 26251.9 1457.03   6
   1   6  15 24907.7 1421.56  21
   1  -6 -15 21595.8 1305.34  43
  -1  -6  15 23103.3 1404.82  44
  -1  -6  15 25400.4 1411.90  20
   1  -6 -15 23975.7 1263.87  19
  -1   6 -15 24321.7 1513.55  35
   1   6  15 25694.9 1440.21  32
   1   6  15 25567.7 1367.93  14
   1   6  16 4491.52 489.386  14
  -1  -6  16 4459.53 526.447   6
  -1  -6  16 4135.05 536.992  48
   1  -6 -16 3399.02 437.881  43
  -1   6 -16 4444.22 565.284  35
   1   6  16 4694.86 545.285  32
   1   6  16 3820.62 490.248  21
  -1  -6  16 4086.55 487.697  20
  -1  -6  17 14624.6 1011.80  48
   1   6  17 14737.0 888.410  14
  -1  -6  18 9878.96 785.904  48
   1   6  18 10396.5 649.089  14
  -1  -6  19 10340.4 768.732  48
  -1  -6  20 15339.3 900.336  48
  -2   0   0 181359. 6507.77   8
  -2   0   0 199723. 7676.12   4
   2   0   0 187450. 6380.21  15
  -2   0   0 190444. 6928.55  29
   2   0   0 189729. 6245.32  40
   2   0   0 173431. 6163.09  41
  -2   0   1 8087.83 711.806   8
  -2   0  -1 9169.49 762.141   8
  -2   0  -1 7794.73 1073.11   4
   2   0  -1 9349.69 671.508  15
   2   0   1 8451.24 677.191  15
   2   0  -1 9186.61 809.487  28
  -2   0   1 8478.91 864.999  29
  -2   0  -1 7512.35 851.451  29
   2   0   1 8601.65 558.363  40
   2   0  -1 7722.41 514.477  41
   2   0   1 8559.81 617.970  41
  -2   0  -2 2101.13 380.658   8
  -2   0  -2 2399.56 619.718   4
   2   0  -2 2622.67 331.686  15
  -2   0   2 2863.75 515.420  29
  -2   0  -2 2873.02 514.503  29
   2   0  -2 2944.34 454.834  28
   2   0  -2 2418.88 228.993  41
   2   0   2 2605.61 261.679  40
  -2   0  -3 149171. 5202.77   8
  -2   0   3 141747. 5344.82   7
  -2   0  -3 150487. 6303.30   4
   2   0  -3 145305. 4865.95  15
   2   0  -3 146874. 5261.87  28
  -2   0  -3 154442. 5650.56  29
  -2   0  -4 46135.6 2187.08   8
  -2   0   4 49971.7 2376.74   7
  -2   0   4 44087.4 1703.64   3
  -2   0  -4 49887.0 3068.16   4
  -2   0   4 46645.3 2300.27  45
   2   0   4 43264.8 2109.17  27
   2   0  -4 52134.7 2327.82  28
  -2   0  -4 48562.0 2548.61  29
   2   0  -4 45353.9 1891.42  15
  -2   0  -5 42334.9 2061.26   8
  -2   0   5 44206.7 2217.74   7
  -2   0   5 40777.9 1663.80   3
  -2   0  -5 45661.3 2926.35   4
  -2   0   5 42016.2 2187.15  45
   2   0   5 37145.5 1838.20  27
   2   0  -5 45692.7 2149.16  28
  -2   0  -5 45352.1 2398.21  29
   2   0  -5 39628.0 1713.03  15
   2   0  -6 66.1338 81.5383  15
   2   0   6 136.536 132.384  16
  -2   0  -6 174.958 204.574   8
  -2   0  -6-111.765 345.742   4
  -2   0   6 24.9596 92.3123   3
  -2   0   6 52.1977 202.425   7
  -2   0   6 216.823 253.519  45
  -2   0  -6 131.437 230.525  29
   2   0   6 270.322 125.264  27
   2   0  -6-45.6687 160.204  28
  -2   0   6 42.1182 163.342  23
  -2   0   7 93931.0 4005.93   7
  -2   0  -7 98362.8 3912.73   8
  -2   0   7 92512.5 3603.34   3
  -2   0   7 105240. 4001.56   5
  -2   0  -7 106058. 5143.36   4
  -2   0   7 96690.7 3865.44  23
   2   0  -7 103980. 3984.72  28
  -2   0  -7 101296. 4333.38  29
   2   0   7 91846.2 3689.60  16
   2   0  -7 91970.7 3440.41  15
  -2   0   8 2054.91 471.108  45
  -2   0  -8 3789.65 873.557   4
  -2   0   8 2550.77 387.480   3
  -2   0   8 2163.08 468.076   7
  -2   0  -8 3207.38 505.312   8
  -2   0   8 2854.13 492.771   5
   2   0  -8 2839.75 475.119  28
  -2   0  -8 2745.76 564.727  29
  -2   0   8 3211.67 496.054  30
   2   0   8 2771.94 396.246  16
   2   0  -8 2788.95 316.051  15
  -2   0   9 104553. 4328.73  45
   2   0  -9 99557.4 4653.74  17
  -2   0   9 96597.0 3577.85   1
  -2   0   9 97249.6 4110.16   7
  -2   0   9 95859.9 3843.57   3
  -2   0  -9 98466.3 4004.95   8
  -2   0   9 102768. 4175.77   5
  -2   0  -9 104716. 5308.84   4
  -2   0   9 99715.0 4224.14  32
   2   0  -9 106581. 4089.80  28
  -2   0   9 98481.3 4019.53  30
   2   0   9 100251. 3780.94  16
   2   0  -9 87522.8 3481.18  15
  -2   0  10 54907.5 2860.97  45
   2   0 -10 52429.3 3130.29  17
  -2   0  10 51750.4 2265.28   1
  -2   0  10 53504.6 2736.82   5
  -2   0  10 55000.6 2711.34   7
  -2   0  10 58273.9 2576.68   3
  -2   0 -10 53246.4 2575.33   8
  -2   0 -10 58164.5 3734.53   4
  -2   0 -10 53860.2 2391.10  34
  -2   0  10 55238.6 2814.22  32
  -2   0  10 51850.4 2314.27  31
   2   0 -10 61497.9 2701.26  28
  -2   0  10 53726.6 2638.13  30
   2   0 -10 49290.3 2140.91  15
   2   0  10 56535.4 2404.19  16
   2   0  11 358224. 11448.1  16
  -2   0  11 334732. 12062.5  45
   2   0 -11 323432. 12344.6  17
  -2   0  11 325234. 11751.6   7
  -2   0  11 332731. 11694.1   3
  -2   0 -11 344941. 11718.4   8
  -2   0  11 331215. 11352.8   1
  -2   0 -11 364692. 13537.2   4
  -2   0 -11 345592. 11442.4  34
  -2   0  11 320727. 11978.0  32
  -2   0  11 345697. 11362.3  31
   2   0 -11 363290. 11782.3  28
  -2   0  11 329042. 11785.0  30
  -2   0 -11 347089. 12226.1  29
  -2   0 -11 334676. 11327.8  24
   2   0  12 32691.4 1678.23  16
  -2   0  12 31874.5 2103.21  45
   2   0 -12 29368.5 2172.16  17
  -2   0 -12 32168.2 1852.10   8
  -2   0  12 31680.3 1886.66   3
  -2   0  12 30387.7 1867.02   7
  -2   0  12 29954.9 1645.92   1
  -2   0 -12 31500.9 2732.68   4
  -2   0 -12 30359.5 1652.91  34
  -2   0  12 30364.9 2032.30  32
  -2   0  12 30174.4 1596.04  31
   2   0 -12 32545.5 1883.11  28
  -2   0  12 29360.1 1891.33  30
  -2   0 -12 30277.5 2057.37  29
  -2   0 -12 31826.0 1727.42  22
  -2   0 -12 28668.4 1557.33  24
  -2   0  12 27603.1 1776.61  23
   2   0  13 6885.68 693.605  16
  -2   0  13 5535.12 880.620  45
   2   0 -13 5926.29 924.514  17
  -2   0 -13 7884.54 1336.10   4
  -2   0  13 6023.94 775.011   7
  -2   0  13 5577.15 756.374   3
  -2   0  13 6401.70 859.233   5
  -2   0 -13 6680.06 798.833   8
  -2   0 -13 6563.04 697.249  34
  -2   0  13 5759.19 902.705  32
  -2   0  13 6457.93 654.599  31
   2   0 -13 6104.36 761.001  28
  -2   0 -13 6221.89 872.134  29
  -2   0  13 4652.99 688.741  23
  -2   0 -13 6546.54 720.238  22
  -2   0 -13 6135.80 624.027  24
   2   0  14 227636. 7772.32  16
  -2   0  14 207995. 8470.17  45
   2   0 -14 198627. 8493.10  17
  -2   0  14 205748. 7967.37   7
  -2   0  14 210489. 8226.02   3
  -2   0  14 238607. 8428.75   5
  -2   0 -14 221291. 9560.43   4
  -2   0 -14 240634. 8151.21   8
  -2   0 -14 230001. 7818.53  34
   2   0 -14 221250. 7605.76  34
  -2   0  14 196848. 8341.78  32
  -2   0  14 212953. 7651.01  31
   2   0 -14 216321. 8069.95  28
  -2   0 -14 219188. 8314.07  29
  -2   0 -14 217930. 7875.11  22
  -2   0 -14 207430. 7600.24  24
  -2   0  14 220949. 8097.46  23
   2   0  15 59438.5 2769.23  16
  -2   0  15 58412.1 3348.37  45
   2   0 -15 53796.8 3250.25  17
  -2   0  15 58547.9 2626.11  21
  -2   0 -15 62280.3 3030.93   8
  -2   0  15 60153.6 2935.59   7
  -2   0  15 55970.8 3152.24   3
  -2   0  15 63185.9 3244.94   5
  -2   0 -15 61602.9 4040.91   4
  -2   0 -15 65003.4 2859.39  34
   2   0 -15 59800.5 2631.51  34
  -2   0  15 61601.9 2707.96  31
   2   0 -15 57592.8 2992.76  28
  -2   0  15 52271.2 3090.78  30
  -2   0  15 53031.2 3214.85  32
  -2   0 -15 61877.7 3141.26  29
  -2   0 -15 62363.5 2909.87  22
  -2   0 -15 55965.0 2628.99  24
  -2   0  15 60564.9 3035.74  23
   2   0  16 61142.7 2882.21  16
  -2   0  16 56901.0 3402.94  45
   2   0 -16 54426.4 3280.33  17
  -2   0  16 56800.8 2685.41  21
  -2   0  16 60611.5 2932.13   7
  -2   0  16 56168.8 3272.45   3
  -2   0  16 70557.8 3377.16   5
  -2   0 -16 62512.8 3147.47   8
   2   0 -16 56220.4 2666.91  34
  -2   0 -16 60561.1 2868.51  34
  -2   0  16 57491.9 3378.68  32
  -2   0  16 62164.7 2775.49  31
  -2   0  16 56217.2 3232.82  30
  -2   0 -16 58689.1 3078.72  29
  -2   0 -16 58607.2 2946.28  22
  -2   0 -16 65996.0 2822.28  24
  -2   0  16 58884.5 3079.26  23
   2   0  17 127464. 5131.58  16
  -2   0  17 125332. 5093.01   7
  -2   0  17 114401. 5626.65   3
  -2   0 -17 140658. 5598.26   8
  -2   0  17 133331. 5600.02   5
  -2   0 -17 132726. 6578.41   4
  -2   0  17 117903. 5743.73  45
  -2   0  17 125270. 5434.36  48
   2   0 -17 131459. 5703.81  17
   2   0 -17 119154. 4856.32  34
  -2   0  17 124774. 5297.65  36
  -2   0 -17 141877. 5276.40  34
  -2   0  17 121558. 5716.44  32
  -2   0  17 129525. 5005.83  31
  -2   0  17 123804. 5585.45  30
   2   0 -17 120606. 5375.48  28
  -2   0 -17 129120. 5318.81  29
  -2   0 -17 128969. 5273.37  22
  -2   0 -17 134874. 5063.59  24
  -2   0  17 116869. 4905.82  21
  -2   0  17 123066. 5413.07  23
  -2   0 -18 2458.76 539.688  13
   2   0  18 1860.22 470.660  16
  -2   0 -18 1475.41 625.427   4
  -2   0  18 2492.09 504.249   7
  -2   0 -18 2425.89 624.937   8
  -2   0  18 1322.98 503.531   3
  -2   0  18 2220.77 572.707   5
  -2   0  18 2595.16 740.107  45
   2   0  18 1835.27 419.020  44
  -2   0  18 1898.05 430.348  21
   2   0 -18 1785.02 515.414  17
  -2   0 -18 2297.57 537.817  34
   2   0 -18 1547.68 393.190  34
  -2   0  18 2313.59 538.644  36
  -2   0  18 2868.28 563.917  38
   2   0 -18 1846.80 518.381  28
  -2   0  18 2058.90 610.113  32
  -2   0 -18 2518.16 519.855  29
  -2   0  18 3165.61 552.242  31
  -2   0  18 2509.51 605.537  30
  -2   0  18 2509.92 619.020  23
  -2   0 -18 2273.60 461.925  24
  -2   0 -18 1729.60 488.465  22
  -2   0 -19 26859.1 1825.12  13
   2   0  19 23417.0 1731.94  16
  -2   0  19 25360.6 2227.94   3
  -2   0  19 26134.9 1698.18   7
  -2   0  19 29769.8 2120.43   5
  -2   0 -19 26582.0 2506.23   4
  -2   0 -19 36550.6 2692.60   8
   2   0  19 31792.5 1806.10  44
  -2   0  19 29981.0 2336.68  45
   2   0  19 29678.4 2183.78  41
   2   0 -19 25966.2 1574.96  34
  -2   0  19 25938.2 1870.45  36
  -2   0  19 29560.1 1852.23  38
  -2   0  19 24941.2 2135.73  32
  -2   0  19 25777.3 1801.98  31
  -2   0  19 25860.1 2018.38  30
   2   0 -19 26359.2 1947.71  28
  -2   0  19 28027.1 1797.64  21
  -2   0 -19 26879.7 1887.45  22
  -2   0  19 22418.2 1969.90  23
  -2   0 -19 28522.0 2254.95  26
   2   0 -20 2796.41 556.513  14
  -2   0 -20 2555.60 566.871  13
   2   0  20 2319.75 516.643  16
  -2   0 -20 3474.95 1153.55   8
  -2   0 -20 3493.42 887.713   4
  -2   0  20 2580.74 690.142   3
  -2   0  20 2984.40 658.333   5
  -2   0  20 2451.97 687.101  45
   2   0  20 3374.02 717.056  41
   2   0  20 2846.51 505.104  44
  -2   0  20 2623.01 524.003  21
   2   0 -20 2303.74 439.726  34
  -2   0  20 2454.87 582.127  36
  -2   0  20 2410.00 509.014  38
   2   0 -20 2200.17 533.436  28
  -2   0  20 2769.93 698.304  32
  -2   0  20 1780.17 593.787  31
  -2   0  20 2476.37 602.078  30
  -2   0  20 1610.28 591.299  23
   2   0  20 2428.95 365.545  23
  -2   0 -20 2289.06 553.896  22
  -2   0 -20 2712.08 699.115  26
  -2   0 -21 73778.6 3521.86  13
   2   0 -21 83203.2 3623.52  14
   2   0  21 74906.7 3578.42  16
  -2   0  21 74299.7 4223.11   3
  -2   0  21 77821.9 3956.54   5
  -2   0 -21 80414.3 4647.18   4
  -2   0  21 73429.9 4067.61  45
   2   0  21 90197.9 3605.61  44
  -2   0  21 71033.4 3691.28  48
   2   0  21 80940.3 4141.90  41
   2   0 -21 72744.9 3641.07  17
  -2   0  21 73090.5 3481.35  21
   2   0 -21 68610.5 3164.87  34
  -2   0  21 77009.9 3417.00  38
  -2   0  21 77167.3 3690.04  36
  -2   0  21 69048.3 3933.82  32
  -2   0  21 95394.2 4607.77  31
  -2   0  21 72889.8 3901.08  30
   2   0 -21 72944.7 3714.94  28
   2   0 -21 70614.5 3340.90  24
  -2   0 -21 74054.7 3580.17  22
   2   0  21 75641.5 3002.54  23
  -2   0  21 78407.6 4543.05  23
  -2   0 -21 74738.3 3952.94  26
  -2   0 -22 1045.11 390.000  13
   2   0 -22 659.229 327.703  14
   2   0  22 493.867 298.183  16
  -2   0 -22 122.181 452.244   8
  -2   0 -22 979.516 491.282   4
  -2   0  22 236.134 309.410   3
  -2   0  22 917.191 314.971   7
  -2   0  22 698.567 382.599   5
  -2   0  22 323.476 341.576  48
  -2   0  22 312.802 456.640  45
   2   0  22 202.235 265.219  41
   2   0  22 673.316 312.681  44
  -2   0  22 633.910 315.171  21
   2   0 -22 838.535 337.535  17
   2   0 -22 1072.12 304.194  34
  -2   0  22 822.923 371.711  36
  -2   0  22 1121.44 331.074  38
   2   0 -22 548.691 304.704  28
  -2   0  22 1184.26 541.626  32
  -2   0  22 441.109 310.178  31
  -2   0  22 1390.30 497.067  30
   2   0  22 767.783 224.506  23
  -2   0  22 1207.48 582.485  23
   2   0 -22 766.465 307.722  24
  -2   0 -22 771.706 367.446  22
  -2   0 -22 816.474 411.355  26
   2   0 -23 173257. 6321.21  14
  -2   0 -23 155789. 6144.61  13
  -2   0  23 147291. 6956.34   3
  -2   0  23 160725. 5872.83   7
  -2   0 -23 149146. 7234.59   4
  -2   0 -23 153964. 6814.67   8
  -2   0  23 150359. 6785.65  45
   2   0  23 175193. 6234.82  44
  -2   0  23 144315. 6329.69  48
   2   0  23 153513. 6848.41  41
   2   0  23 156313. 6289.49  16
   2   0 -23 156154. 6173.47  17
  -2   0  23 152898. 6098.98  21
   2   0 -23 154811. 5814.81  34
  -2   0  23 153517. 6328.41  36
  -2   0  23 162226. 5945.85  38
  -2   0  23 148152. 6734.29  32
  -2   0  23 173516. 6401.09  31
  -2   0  23 151063. 6611.81  30
   2   0 -23 151439. 6362.84  28
  -2   0  23 161028. 6992.61  23
   2   0 -23 139375. 5890.60  24
  -2   0 -23 158610. 6245.36  22
   2   0  23 159030. 5641.64  23
  -2   0 -23 159303. 6570.17  26
  -2   0 -24 5496.11 757.842  13
   2   0 -24 6200.06 823.981  14
  -2   0  24 4764.50 946.826   3
  -2   0 -24 6797.61 1010.38   8
  -2   0  24 4431.33 881.805  45
   2   0  24 6138.20 793.404  44
  -2   0  24 5757.48 865.318  48
   2   0  24 4852.02 894.977  41
   2   0  24 6528.45 874.296  16
   2   0 -24 5119.83 695.889  17
  -2   0  24 5853.09 757.430  21
   2   0 -24 5732.94 657.817  34
  -2   0  24 4890.78 791.292  36
  -2   0  24 6150.72 664.942  38
  -2   0  24 4076.82 866.096  32
  -2   0  24 6641.46 816.976  31
   2   0 -24 5918.91 847.630  28
  -2   0  24 5609.12 940.305  30
   2   0 -24 4695.19 638.206  24
  -2   0  24 6292.14 1025.45  23
  -2   0 -24 4255.11 719.858  22
   2   0  24 5019.05 561.616  23
  -2   0 -24 5790.08 869.566  26
  -2   0 -25 137098. 5387.47  13
   2   0 -25 151047. 5664.70  14
  -2   0 -25 130485. 5839.69   8
  -2   0  25 127535. 6008.07  45
  -2   0  25 128396. 5605.28  48
   2   0  25 150549. 5586.18  44
  -2   0  25 129761. 5391.07  21
   2   0 -25 132420. 5155.74  34
  -2   0  25 148060. 5144.60  38
  -2   0  25 136261. 5359.23  31
  -2   0  25 128631. 5907.68  30
   2   0 -25 129224. 5227.49  24
   2   0  25 134645. 5039.02  23
  -2   0  25 135415. 6011.81  23
  -2   0 -25 126891. 5607.48  26
  -2   0 -26 1504.39 401.303  13
   2   0 -26 2878.59 549.179  14
  -2   0 -26 2834.83 626.760   8
  -2   0  26 2273.72 547.691  48
  -2   0  26 1618.61 559.472  45
   2   0  26 2102.86 477.549  44
  -2   0  26 1128.94 371.928  21
   2   0 -26 1633.05 379.270  34
   2   0  26 1784.14 360.943  31
  -2   0  26 1250.79 470.562  30
   2   0  26 2191.74 380.882  23
  -2   0  26 2068.82 578.796  23
   2   0 -26 1749.80 417.570  24
   2   0 -27 318.211 288.503  14
  -2   0 -27 584.833 267.608  13
  -2   0 -27 240.058 324.375   8
  -2   0  27 661.311 354.581  48
  -2   0  27 91.2797 354.219  45
   2   0  27 844.044 352.705  44
  -2   0  27 288.214 213.548  21
   2   0 -27 582.939 228.926  34
   2   0 -27 449.821 196.463  35
   2   0  27 418.408 219.190  31
  -2   0  27 174.014 337.663  30
   2   0  27 411.440 215.554  23
  -2   0  27 258.274 348.948  23
   2   0 -27 743.752 266.597  24
  -2   0 -28 33541.6 1819.69  13
   2   0 -28 40247.4 2189.29  14
   2   0  28 42301.2 2176.53  44
  -2   0  28 32061.3 1955.99  21
  -2   0 -28 34636.4 2255.52   8
  -2   0 -28 37962.4 2565.49  37
   2   0 -28 37861.0 1912.15  34
  -2   0  28 37906.2 2139.04  36
   2   0 -28 35141.4 1716.14  35
   2   0  28 35948.6 1861.40  31
  -2   0  28 35934.2 2383.36  30
   2   0 -28 35932.7 1912.75  24
   2   0  28 34583.8 1814.22  23
  -2   0  28 34831.2 2330.52  23
   2   0 -29 3549.32 601.425  14
  -2   0 -29 5574.78 803.226   8
   2   0  29 4127.50 601.983  44
  -2   0  29 4319.44 602.970  21
  -2   0 -29 4392.36 820.775  37
   2   0 -29 4073.90 528.379  34
  -2   0  29 3442.31 578.674  36
   2   0 -29 3791.02 443.759  35
   2   0  29 3945.69 530.164  31
  -2   0  29 4056.42 736.299  30
   2   0 -29 3278.57 492.554  24
  -2   0  29 3515.77 682.053  23
   2   0  29 3843.52 510.627  23
   2   0 -30 272.843 238.961  14
  -2   0 -30 271.808 275.427   8
  -2   0  30 222.513 260.380  45
   2   0  30 359.435 254.934  44
  -2   0  30 394.509 230.876  21
  -2   0 -30 587.405 404.671  37
  -2   0  30 198.966 209.961  36
   2   0 -30 475.569 212.607  34
   2   0  30 325.772 190.744  31
  -2   0  30 446.658 369.427  30
   2   0  30 350.298 193.366  23
  -2   0  30 293.687 321.377  23
   2   0 -30 406.833 202.091  24
   2   0 -31 40222.3 2107.74  14
  -2   0 -31 42013.3 2316.59   8
   2   0  31 42989.7 2108.68  44
  -2   0 -31 38129.5 2440.40  37
   2   0 -31 40982.4 1937.78  34
   2   0  31 40871.8 1979.85  31
  -2   0  31 40738.3 2381.91  30
   2   0 -31 44056.1 1998.46  24
   2   0  31 36230.1 1861.78  23
  -2   0  31 40139.2 2352.84  23
   2   0 -32 47058.9 2275.34  14
  -2   0 -32 48815.5 2472.45   8
   2   0  32 48269.9 2227.17  44
  -2   0 -32 49888.9 2702.56  37
   2   0 -32 46431.2 2086.77  34
  -2   0  32 45648.0 2527.04  30
   2   0  32 47836.8 2170.19  31
   2   0  32 43764.0 2048.26  23
   2   0 -32 49012.6 2125.29  24
  -2   0  32 43790.2 2470.70  23
   2   0 -33 6292.06 650.923  14
   2   0  33 6174.80 612.262  44
  -2   0 -33 5721.67 687.974   8
  -2   0 -33 5869.88 804.598  37
   2   0 -33 6208.20 565.045  34
   2   0  33 6445.61 619.196  31
  -2   0  33 6502.96 766.951  30
   2   0 -33 6085.74 567.781  24
  -2   0  33 6917.77 791.460  23
   2   0 -34 14825.5 893.701  24
  -2   0  34 14047.2 1120.39  23
   2   0  34 13623.5 840.103  20
  -2   0 -34 14634.6 1190.14  37
   2   0 -34 14241.5 854.689  34
   2   0 -34 13545.0 922.455  14
   2   0  34 14161.5 936.374  31
  -2   0  34 14749.0 1128.34  30
  -2   0 -34 14660.6 1075.97   8
   2   0 -35 17379.2 1006.60  14
  -2   0 -35 20630.2 1223.52   8
  -2   0 -35 20812.5 1331.00  37
   2   0  35 19708.6 1111.36  47
   2   0  35 20666.6 1111.37  31
  -2   0  35 18824.8 1245.94  30
   2   0 -35 19130.7 1018.04  24
  -2   0  35 18825.3 1246.72  23
  -2   0 -36 5092.30 567.601  37
   2   0  36 5201.31 470.209  47
  -2   0 -37 40407.5 1830.55  37
   2   0  37 42212.6 1715.69  47
  -2   0  37 43947.0 1838.25  12
   2   0  38 3098.41 275.688  47
  -2   0  38 3067.04 305.284  12
  -2  -1 -37 31521.5 1468.41  37
  -2   1  37 30029.0 1361.66  12
  -2  -1 -36 16081.1 1090.40  37
   2  -1  36 17042.7 883.159  47
  -2  -1 -36 17240.8 1051.14  50
  -2   1  36 17831.9 1027.17  12
   2   1 -35 1923.96 275.797  14
  -2  -1 -35 1949.51 384.494  50
  -2  -1 -35 2078.93 429.430  37
  -2   1  35 1860.33 364.960  30
   2   1 -35 1833.89 273.175  24
   2   1 -34 15503.7 911.752  24
   2  -1  34 13221.0 849.820  20
  -2  -1 -34 15621.8 1215.20  37
  -2   1  34 14401.6 1112.81  30
   2   1 -34 14048.5 877.261  14
   2  -1  33 2584.69 370.990  20
  -2  -1 -33 3268.38 481.405   8
  -2  -1 -33 3966.08 648.289  37
   2   1 -33 2993.51 393.857  24
   2   1 -33 2838.11 408.375  14
   2   1 -32 48316.0 2197.19  14
  -2   1  32 43902.0 2487.25  45
   2  -1  32 44696.5 2062.00  20
  -2  -1 -32 47202.2 2308.42   8
  -2  -1 -32 46269.3 2636.26  37
   2  -1  32 46034.4 2127.77  31
  -2   1  32 45101.0 2472.70  30
   2   1 -32 48596.6 2110.48  24
   2   1 -31 22366.5 1384.39  14
   2  -1  31 23252.4 1386.20  44
  -2   1  31 20189.1 1655.19  45
   2  -1  31 21525.1 1265.56  20
  -2  -1 -31 22693.5 1505.02   8
  -2  -1 -31 23121.9 1803.67  37
   2   1 -31 22464.3 1146.47  35
   2  -1  31 19787.7 1271.27  31
  -2   1  31 23006.4 1660.38  30
   2   1 -31 24497.3 1337.41  24
   2   1 -30 210148. 7276.67  14
   2  -1  30 221311. 7290.88  44
  -2   1  30 182378. 7682.25  45
   2  -1  30 191021. 6989.85  20
  -2  -1 -30 199109. 7404.06   8
  -2  -1 -30 205897. 7960.97  37
   2   1 -30 192050. 6800.88  34
   2   1 -30 195639. 6796.63  35
  -2   1  30 195193. 7730.12  32
   2  -1  30 189379. 7023.49  31
  -2   1  30 194931. 7643.23  30
   2   1 -30 216701. 7105.79  24
   2   1 -29 4635.22 630.434  14
  -2   1  29 3670.32 751.633  45
   2  -1  29 4733.18 640.610  44
   2  -1  29 4699.94 546.481  20
  -2  -1 -29 4440.97 824.424  37
   2   1 -29 4199.83 478.635  34
   2   1 -29 3697.09 450.821  35
  -2  -1 -29 4198.58 578.422  34
   2   1 -29 4586.49 571.070  24
  -2  -1 -29 3743.05 603.751  22
  -2  -1 -29 4408.38 767.825  26
  -2   1  29 4459.45 789.402  32
  -2   1  29 3381.73 694.403  30
  -2  -1 -29 4526.68 715.343   8
   2   1 -28 82993.9 3578.26  14
  -2   1  28 84017.2 3968.28   5
   2  -1  28 86465.8 3599.71  44
  -2   1  28 72688.1 3965.73  45
  -2  -1 -28 80017.8 4157.77  37
   2   1 -28 72556.8 3111.08  34
  -2  -1 -28 79323.1 3435.91  34
  -2   1  28 75202.2 3953.16  32
  -2   1  28 81474.8 3956.19  30
   2   1 -28 80968.0 3356.12  24
  -2  -1 -28 77832.6 3572.93  22
  -2  -1 -28 84971.2 4011.26  26
   2   1 -27 19872.7 1424.11  14
  -2   1  27 17680.4 1571.73   5
   2  -1  27 19544.4 1419.04  44
  -2   1  27 17112.8 1648.63  45
  -2  -1 -27 17141.6 1718.00  37
   2   1 -27 16984.1 1097.42  34
  -2  -1 -27 18911.1 1333.78  34
  -2   1  27 18623.9 1692.00  32
  -2   1  27 15125.5 1489.61  30
   2   1 -27 18950.2 1253.38  24
  -2  -1 -27 18059.7 1388.20  22
  -2   1  27 16916.7 1250.06  21
  -2  -1 -27 18514.9 1660.34  26
   2   1 -26 33276.4 1958.84  14
  -2   1  26 29307.8 2123.23   5
   2  -1  26 33454.6 1948.65  44
  -2   1  26 27226.0 2201.21  45
  -2  -1 -26 33520.2 2478.96  37
   2   1 -26 32755.6 1612.95  34
   2   1 -26 26780.1 1559.82  35
  -2  -1 -26 31501.3 1843.75  34
  -2   1  26 30087.0 2256.38  32
  -2   1  26 27629.5 2119.37  30
  -2  -1 -26 30347.5 1920.54  22
   2   1 -26 29317.6 1704.08  24
  -2  -1 -26 28880.0 2191.95  26
  -2   1  26 26106.6 1677.85  21
   2   1 -25 34036.4 1997.48  14
  -2   1  25 30246.2 2205.62   5
  -2   1  25 32627.0 1676.27   7
   2  -1  25 36348.9 2044.42  44
  -2   1  25 31992.6 1891.67  47
  -2   1  25 28729.3 2261.03  45
   2   1 -25 31974.7 1628.29  34
   2   1 -25 29429.3 1649.91  35
  -2  -1 -25 28922.3 1819.90  34
  -2  -1 -25 31460.8 2493.36  37
  -2   1  25 28236.5 2194.52  32
  -2   1  25 28809.0 2148.86  30
   2   1 -25 31303.9 1757.44  24
  -2  -1 -25 28690.1 1912.08  22
  -2   1  25 27796.8 1734.15  21
  -2  -1 -25 28232.6 2251.19  26
   2   1 -24 7812.33 893.568  14
  -2   1  24 6237.10 703.098   7
  -2   1  24 8567.41 1127.58   5
  -2  -1 -24 9535.87 1466.43   4
  -2   1  24 8875.08 1201.08  45
   2  -1  24 8576.60 940.266  44
  -2  -1 -24 6841.26 863.985  43
   2   1 -24 6817.77 842.195  17
   2   1 -24 7410.62 682.388  34
  -2  -1 -24 8078.74 1234.23  37
   2   1 -24 5283.02 641.444  35
  -2  -1 -24 7653.53 870.459  34
  -2   1  24 7293.29 1106.72  32
  -2   1  24 6542.40 761.035  21
   2   1 -24 6388.70 715.160  24
  -2  -1 -24 7999.30 911.664  22
   2   1 -23 5668.89 779.733  14
   2  -1  23 4550.95 769.458  16
  -2  -1 -23 5561.37 1141.35   4
  -2   1  23 4889.10 643.047   7
  -2   1  23 4068.98 853.073   2
  -2   1  23 5560.47 949.203   3
  -2   1  23 5713.77 901.529   5
   2  -1  23 5269.64 746.952  44
  -2   1  23 5170.82 950.186  45
  -2   1  23 5921.67 828.664  47
  -2  -1 -23 4343.04 698.104  43
   2   1 -23 4338.30 730.960  17
   2   1 -23 5782.09 593.600  34
  -2  -1 -23 4181.99 967.279  37
  -2  -1 -23 5628.19 764.267  34
  -2   1  23 5865.46 982.980  32
   2   1 -23 5034.63 635.349  24
  -2  -1 -23 6133.13 803.315  22
  -2   1  23 4820.31 643.318  21
   2   1 -22 23567.0 1596.55  14
   2  -1  22 19106.9 1636.95  16
  -2   1  22 23020.9 1829.33  47
  -2   1  22 17466.4 1792.63  45
   2  -1  22 22870.3 1593.66  44
   2   1 -22 18728.4 1620.17  17
  -2   1  22 19052.5 1853.39   3
  -2   1  22 18937.5 1380.56   7
  -2   1  22 22139.2 2009.69   2
  -2   1  22 19718.4 1723.61   5
  -2  -1 -22 22885.8 2383.55   4
  -2  -1 -22 18443.2 2056.04  37
   2   1 -22 20347.4 1222.73  34
  -2   1  22 23400.0 1663.85  36
  -2  -1 -22 16762.3 1512.56  34
   2   1 -22 19955.1 2076.99  27
  -2   1  22 19476.8 1810.61  32
  -2   1  22 22704.4 2137.97  23
   2   1 -22 19331.0 1320.36  24
  -2  -1 -22 17177.1 1463.32  22
  -2   1  22 19952.0 1383.01  21
   2   1 -21 37096.7 2080.99  14
   2  -1  21 33619.7 2234.37  16
  -2   1  21 50922.6 3345.62  47
  -2   1  21 29875.1 2380.54  45
   2  -1  21 35560.5 2071.73  44
   2   1 -21 32152.6 2287.94  17
  -2  -1 -21 32385.5 2935.69   4
  -2   1  21 27778.9 2276.46   3
  -2   1  21 29228.7 1861.70   7
  -2   1  21 32047.7 2474.73   2
  -2   1  21 33105.3 2337.99   5
  -2  -1 -21 30512.0 2837.11  37
   2   1 -21 33571.3 1669.37  34
  -2   1  21 34236.4 2123.27  36
  -2  -1 -21 19808.6 2012.81  34
  -2   1  21 34432.7 1854.77  38
   2  -1  21 29871.5 1639.40  31
   2   1 -21 36041.3 2040.69  28
  -2   1  21 31320.5 2319.06  32
   2   1 -21 31877.3 1795.77  24
  -2  -1 -21 32173.0 2043.06  22
  -2   1  21 49138.6 3837.79  23
  -2   1  21 31725.2 1846.51  21
   2   1 -20 12789.9 1130.13  14
   2  -1  20 11500.5 1190.57  16
  -2   1  20 10362.3 1296.03   3
  -2   1  20 10320.2 1031.71   7
  -2   1  20 11075.3 1366.72   2
  -2   1  20 10012.5 1226.50   5
  -2  -1 -20 11080.5 1684.78   4
  -2   1  20 10264.6 1391.98  45
   2  -1  20 12633.8 1127.36  44
  -2   1  20 5791.73 1282.11  47
   2   1 -20 9641.19 1213.19  17
  -2   1  20 10655.3 1119.21  36
  -2  -1 -20 15924.0 1830.39  34
  -2  -1 -20 11586.6 1692.31  37
   2   1 -20 10335.0 809.655  34
  -2   1  20 11665.2 1360.04  32
   2   1 -20 11337.8 1045.94  28
   2   1 -20 9175.76 880.200  24
  -2  -1 -20 10971.9 1096.30  22
  -2   1  20 6581.89 1585.06  23
  -2   1  20 11495.6 993.977  21
  -2  -1 -19 5815.55 697.630  13
   2   1 -19 7082.14 830.791  14
   2  -1  19 5216.39 782.738  16
   2   1 -19 6073.91 795.619  15
  -2   1  19 7777.74 1099.68   3
  -2   1  19 5251.16 762.296   7
  -2   1  19 5457.61 946.724   2
  -2   1  19 7033.31 996.906   5
  -2   1  19 5924.17 1066.60  45
  -2   1  19 4507.71 870.220  47
   2   1 -19 6386.01 915.461  39
   2   1 -19 5160.88 920.436  17
  -2  -1 -19 6974.13 1259.29  37
  -2   1  19 6188.44 843.402  36
  -2  -1 -19 9226.57 1101.18  34
   2   1 -19 6123.62 598.615  34
  -2   1  19 6999.29 1050.48  32
   2   1 -19 6234.31 763.474  28
  -2   1  19 5873.19 709.179  21
   2   1 -19 5599.45 682.131  24
  -2  -1 -19 6779.86 882.315  22
  -2   1  19 4431.26 972.946  23
  -2  -1 -18 47583.5 2471.31  13
   2  -1  18 50834.9 2671.00  16
   2   1 -18 48039.7 2614.89  15
  -2   1  18 45553.2 3016.21   3
  -2   1  18 47236.5 3051.15   2
  -2   1  18 50132.8 2928.38   5
  -2   1  18 53120.4 2824.04  47
  -2   1  18 52485.0 3326.54  45
  -2  -1 -18 49950.6 2651.35  43
   2   1 -18 51133.5 2895.36  39
   2   1 -18 42416.8 2932.88  17
  -2   1  18 57770.5 2627.54  38
   2   1 -18 49452.0 2202.39  34
  -2  -1 -18 53013.5 3361.27  37
  -2   1  18 49684.0 2746.95  36
  -2  -1 -18 58287.5 2761.04  34
  -2   1  18 48760.6 3051.00  32
   2   1 -18 49169.2 2515.73  28
   2   1 -18 46641.6 2377.70  24
  -2  -1 -18 48582.3 2750.89  22
  -2   1  18 48469.6 2467.11  21
  -2   1  18 47547.7 2926.80  23
   2  -1  17 7699.65 868.670  16
   2   1 -17 9268.06 942.082  15
  -2   1  17 6139.22 915.462   5
  -2  -1 -17 7057.17 1350.76   4
  -2   1  17 7232.60 1070.93   3
  -2   1  17 8199.01 1128.49   2
  -2   1  17 7676.40 1219.47  45
  -2  -1 -17 7982.56 913.467  43
   2   1 -17 8767.32 1040.12  39
   2   1 -17 7688.96 659.530  34
  -2  -1 -17 6122.25 1024.00  37
  -2   1  17 9126.18 992.480  36
  -2  -1 -17 7456.04 803.620  34
  -2   1  17 8498.14 873.499  38
  -2   1  17 7764.70 1106.97  32
   2   1 -17 6676.62 767.342  28
   2   1 -17 7671.48 793.689  24
  -2   1  17 7411.95 955.387  23
  -2  -1 -17 8214.64 1031.27  22
   2  -1  16 131796. 5342.38  16
   2   1 -16 125344. 5307.33  15
  -2   1  16 127354. 5981.27   3
  -2   1  16 141022. 6072.73   2
  -2   1  16 132588. 5761.67   5
  -2  -1 -16 143994. 7145.93   4
  -2   1  16 130246. 6330.54  45
  -2  -1 -16 130052. 5453.19  43
   2   1 -16 137798. 5716.71  39
   2   1 -16 114294. 5922.38  17
  -2  -1 -16 152236. 5501.60  19
   2   1 -16 135666. 4879.98  34
  -2  -1 -16 142598. 6084.01  37
  -2   1  16 136777. 5575.37  36
  -2  -1 -16 138565. 5182.16  34
  -2   1  16 154770. 5482.69  38
  -2   1  16 138940. 6052.98  32
   2   1 -16 135095. 5267.30  28
   2   1 -16 122264. 5127.77  24
  -2   1  16 137834. 5569.97  23
   2  -1  15 13575.0 1117.58  16
   2   1 -15 13361.3 1114.57  15
  -2  -1 -15 12367.0 1772.78   4
  -2   1  15 13944.7 1446.38   3
  -2   1  15 13326.7 1211.02   7
  -2   1  15 13516.8 1407.20   2
  -2   1  15 12910.8 1303.67   5
  -2   1  15 11252.7 1433.20  45
  -2  -1 -15 13907.6 1236.39  43
   2   1 -15 13564.1 1279.86  39
   2   1 -15 12520.1 1475.89  17
  -2  -1 -15 16106.9 1237.59  19
   2   1 -15 13374.2 886.915  34
  -2   1  15 13030.0 1219.88  36
  -2  -1 -15 12917.9 992.445  34
  -2   1  15 14008.0 1491.91  32
   2   1 -15 12922.5 1065.44  28
  -2   1  15 15010.8 1262.48  23
   2  -1  14 72249.3 3102.93  16
   2   1 -14 68860.8 3086.80  15
  -2   1  14 55766.4 3292.75   3
  -2   1  14 62978.0 3227.17   7
  -2   1  14 68594.8 3611.47   2
  -2   1  14 68491.3 3464.77   5
  -2  -1 -14 70157.8 4545.23   4
  -2   1  14 64126.0 3634.53  45
  -2  -1 -14 69144.5 3184.89  43
   2   1 -14 71742.2 3410.57  39
  -2  -1 -14 73020.2 3217.82  19
  -2  -1 -14 65306.5 2831.64  34
  -2   1  14 61273.5 3583.60  32
   2   1 -14 69512.5 3048.18  28
  -2   1  14 66454.4 3151.82  23
   2   1 -13 856.386 272.594  15
   2  -1  13 2172.58 422.019  16
  -2  -1 -13 1142.20 573.610   4
  -2   1  13 1170.55 389.571   7
  -2   1  13 1210.31 442.236   2
  -2   1  13 1068.74 365.115   3
  -2   1  13 744.263 391.027   5
  -2   1  13 1205.49 494.681  45
  -2  -1 -13 1591.68 390.919  43
  -2  -1 -13 1782.36 433.658  19
  -2  -1 -13 1173.60 277.206  34
   2   1 -13 1419.90 397.110  39
   2   1 -13 1144.87 304.808  28
  -2   1  13 1398.56 502.126  32
  -2   1  13 1471.60 389.500  23
  -2  -1 -13 999.436 327.538  22
   2  -1  12 141475. 5291.03  16
   2   1 -12 132032. 5203.45  15
  -2   1  12 137775. 5548.54   7
  -2   1  12 127663. 5394.85   3
  -2   1  12 143079. 5901.09   2
  -2  -1 -12 136235. 7043.05   4
  -2   1  12 133920. 5795.75  45
  -2  -1 -12 144698. 5229.38  43
   2   1 -12 146328. 5629.61  39
  -2   1  12 130846. 5767.05  18
  -2  -1 -12 147002. 5457.83  19
  -2  -1 -12 134250. 4960.17  34
   2   1 -12 126730. 5198.69  28
  -2  -1 -12 139790. 5204.22  22
  -2   1  12 135763. 5279.08  23
   2  -1  11 7587.06 767.939  16
   2   1 -11 8034.73 774.119  15
  -2  -1 -11 7756.45 1424.52   4
  -2   1  11 7425.76 906.329   7
  -2   1  11 7731.61 803.709   3
  -2   1  11 8407.79 1018.68   2
  -2   1  11 8116.00 988.359  45
  -2  -1 -11 7457.48 713.559  43
   2   1 -11 9062.65 933.676  39
  -2   1  11 6372.91 919.478  18
  -2  -1 -11 8136.62 845.978  19
  -2  -1 -11 7589.04 644.255  34
   2   1 -11 6542.67 716.834  28
  -2  -1 -11 7470.55 725.914  22
  -2   1  11 7639.61 783.504  23
   2  -1  10 57923.3 2611.32  16
   2   1 -10 54192.0 2559.16  15
  -2   1  10 54463.9 2894.99  45
  -2  -1 -10 60014.7 2472.30  43
   2   1 -10 59458.0 2819.46  39
  -2   1  10 55181.7 2825.28   7
  -2   1  10 53468.1 2516.64   3
  -2   1  10 58413.0 3058.10   2
  -2   1  10 54388.5 2893.44   5
  -2  -1 -10 64076.6 4204.82   4
  -2   1  10 50871.6 2964.19  18
  -2  -1 -10 62116.6 2802.11  19
  -2   1  10 58100.7 2913.53  32
   2   1 -10 48838.8 2468.79  28
  -2  -1 -10 58376.4 2497.96  22
  -2   1  10 51747.9 2507.61  23
  -2  -1  -9 104073. 4031.05  22
  -2   1   9 106063. 4146.00  23
  -2  -1  -9 110285. 4004.85  43
   2  -1   9 105901. 3991.30  40
   2   1  -9 113520. 4425.24  39
  -2   1   9 106199. 4525.72   7
  -2   1   9 105186. 4056.40   3
  -2   1   9 108895. 4713.29   2
  -2  -1  -9 116941. 6020.94   4
  -2   1   9 102264. 4561.45   5
  -2   1   9 101147. 4706.29  18
  -2   1   9 103984. 4475.75  32
   2   1  -9 103483. 4104.26  28
   2   1  -9 109752. 4244.30  15
   2  -1   9 105493. 4231.02  16
  -2  -1  -8 20259.1 1203.34  22
  -2   1   8 22637.4 1315.95  23
   2  -1   8 22758.2 1236.23  40
   2   1  -8 24080.7 1479.26  39
  -2  -1  -8 22272.8 2234.98   4
  -2   1   8 21138.2 1523.76   7
  -2   1   8 19476.1 1512.55   2
  -2   1   8 22258.6 1599.68   5
  -2   1   8 19462.1 1631.79  18
   2  -1   8 20997.6 1069.48  17
  -2   1   8 22721.7 1517.55  32
   2   1  -8 20857.2 1239.18  28
   2   1  -8 21938.5 1375.48  15
   2  -1   8 24608.4 1420.58  16
   2   1  -7 42560.0 2076.52  15
   2  -1   7 40957.2 2051.09  16
  -2   1   7 37047.9 2166.82  45
   2  -1   7 38146.6 1840.39  40
   2   1  -7 43128.1 2104.88  39
  -2  -1  -7 40094.3 1828.10   9
  -2   1   7 41813.8 2291.51   7
  -2   1   7 41159.7 2228.73   2
  -2   1   7 42380.6 2312.19   5
  -2  -1  -7 38149.7 3001.09   4
  -2  -1  -7 43073.2 2068.73  19
   2  -1   7 42224.5 1854.44  17
  -2   1   7 41064.2 2177.00  32
   2   1  -7 39668.9 1876.85  28
  -2   1   7 41252.2 2225.34  29
  -2  -1  -7 41729.6 1864.11  22
  -2   1   6 60943.3 2956.44   7
  -2   1   6 56835.6 2758.18   2
  -2   1   6 57692.8 2861.37   5
  -2  -1  -6 61419.9 2488.19   9
  -2  -1  -6 65852.2 3907.12   4
  -2   1   6 61305.2 2880.43  45
   2  -1   6 57494.1 2496.91  40
   2   1  -6 65361.3 2752.57  39
  -2  -1  -6 67339.9 2709.02  19
   2  -1   6 58918.1 2591.13  17
  -2   1   6 60457.2 2785.52  32
   2   1  -6 62642.8 2530.94  28
  -2   1   6 61004.6 2929.24  29
   2   1  -6 57830.2 2694.01  15
  -2  -1  -5 1299.81 553.065   4
  -2   1   5 349.670 273.434   7
  -2   1   5 1339.74 303.969   2
  -2  -1  -5 673.477 209.397   9
  -2   1   5 1588.69 398.062  45
   2  -1   5 857.960 226.031  40
   2  -1   5 700.397 246.432  17
  -2   1   5 191.565 225.045  18
  -2  -1  -5 1111.05 278.823  19
   2   1  -5 1373.49 308.565  39
   2   1  -5 386.581 175.215  28
  -2   1   5 353.277 218.795  29
   2   1  -5 989.474 279.118  15
  -2   1   4 83295.0 3549.97   7
  -2  -1  -4 76961.2 3006.25   9
  -2   1   4 76043.3 3100.05   2
  -2  -1  -4 79481.5 4297.30   4
  -2   1   4 75633.4 3318.58  45
   2  -1   4 75926.7 3059.74  40
   2   1  -4 78889.0 3133.15  39
  -2   1   4 69700.1 3413.46  18
   2  -1   4 71843.1 3289.20  17
  -2  -1  -4 79133.1 3169.95  33
   2   1  -4 77026.5 3854.32  27
   2   1  -4 79459.0 2999.60  28
  -2   1   4 84099.6 3604.57  29
   2   1  -4 76072.5 3275.69  15
   2   1  -3 87104.1 3579.29  15
   2   1  -3 86156.1 3343.92  39
  -2   1   3 85718.5 3307.20  42
   2  -1   3 83579.1 3332.96  40
   2  -1   3 79682.5 3631.87  17
  -2  -1  -3 87660.8 3423.30  33
   2   1  -3 78492.8 3959.49  27
   2   1  -3 84348.2 3231.07  28
  -2   1   3 90531.9 3889.11  29
  -2   1   3 87209.6 3772.49   7
  -2   1   3 86624.7 3264.52   2
  -2  -1  -3 88749.1 3295.70   9
  -2  -1  -3 81434.6 4422.96   4
   2   1  -2 395438. 12241.5  39
  -2   1   2 363838. 12189.5  42
   2  -1   2 365316. 12253.3  40
   2   1  -2 351115. 11875.8  41
  -2  -1  -2 402578. 13799.0   4
  -2  -1  -2 374081. 12177.1   9
  -2   1   2 397794. 12799.3   7
  -2   1   2 361179. 11976.2   2
   2  -1   2 346984. 12692.3  17
   2   1  -2 386045. 12135.9  28
  -2   1   2 363558. 12851.3  29
   2   1  -2 379988. 12548.6  15
   2   1  -1 38798.4 1659.64  41
   2   1  -1 42865.7 1840.40  39
  -2   1   1 39274.0 1830.49  42
   2  -1   1 40450.6 1918.01  40
  -2   1   1 39494.4 2180.23   7
  -2  -1  -1 41251.3 2706.01   4
  -2  -1  -1 40181.2 1828.67   9
   2  -1   1 35985.5 2194.87  17
   2   1  -1 40952.5 1785.17  28
  -2   1   1 40819.6 2295.75  29
   2   1  -1 41892.7 2091.89  15
   2  -1   0 448022. 14479.0  40
   2   1   0 429420. 14166.6  41
   2   1   0 466452. 14298.3  39
  -2   1   0 431673. 14318.1  42
  -2   1   0 445895. 14480.2   8
  -2   1   0 471535. 14901.0   7
  -2  -1   0 433594. 14321.8   9
  -2  -1   0 419902. 15553.5   4
   2  -1   0 378568. 14846.1  17
  -2  -1   0 436564. 14324.6  20
   2   1   0 435645. 15027.8  27
   2   1   0 438415. 14243.9  28
  -2   1   0 444347. 15083.4  29
   2   1   0 440731. 14683.2  15
  -2   1  -1 33515.2 2190.38  46
   2   1   1 36379.4 1670.82  41
   2  -1  -1 41045.1 1925.32  40
   2   1   1 39803.1 1715.61  39
  -2   1  -1 37007.1 1745.90  42
  -2   1  -1 35660.3 1837.92   8
  -2   1  -1 36991.6 2072.51   7
  -2  -1   1 36552.9 1740.47   9
  -2  -1   1 40297.6 1771.68  20
   2   1   1 35252.8 1668.81  28
   2   1   1 37883.6 2137.25  27
  -2  -1   1 35796.3 1802.69  31
  -2   1  -1 36819.3 2222.43  29
   2   1   1 37936.0 1996.10  15
  -2   1  -2 319493. 12653.6  46
   2   1   2 364750. 12066.6  41
   2  -1  -2 392204. 12375.4  40
  -2   1  -2 359777. 12081.9  42
   2   1   2 377300. 12017.5  39
   2   1   2 374480. 11875.4  16
   2   1   2 363425. 12450.3  15
  -2  -1   2 369842. 12070.3  20
   2   1   2 351619. 12010.9  28
   2  -1  -2 392930. 12720.5  28
   2   1   2 375055. 12561.1  27
  -2  -1   2 357254. 12187.1  31
  -2   1  -2 387720. 12909.6  29
  -2   1  -2 377876. 12291.2   8
  -2  -1   2 375264. 11968.0   1
  -2  -1   2 334721. 12282.1   7
  -2  -1   2 369381. 12124.5   9
  -2  -1   2 328743. 13062.0   4
   2   1   3 91370.6 3598.63  41
  -2   1  -3 95771.2 3600.02  42
   2   1   3 99749.5 3531.55  39
   2   1   3 86702.2 3865.97  15
  -2  -1   3 89331.6 3585.14   9
   2   1   3 96202.7 3381.21  16
   2  -1  -3 81826.6 4084.35  17
   2  -1  -3 98622.0 4079.17  28
   2   1   3 97319.4 3911.39  27
  -2   1  -3 95159.8 4223.63  29
  -2   1  -3 97049.5 3777.67   8
  -2   1  -3 93074.3 3979.96   7
  -2  -1   3 87452.8 3773.50   7
  -2  -1   3 93400.6 3476.79   1
  -2  -1   3 95042.3 4453.36   4
  -2   1  -4 102210. 4184.31   7
  -2  -1   4 94459.2 3644.35   1
  -2   1  -4 95594.2 3901.31   8
  -2  -1   4 96461.4 3755.58   3
  -2  -1   4 102891. 4590.41   4
  -2  -1   4 98332.4 3972.97  23
   2   1   4 99495.4 3830.68  41
   2   1   4 101603. 3676.97  39
  -2   1  -4 92611.5 3719.33  42
   2  -1  -4 99022.5 4397.78  17
   2  -1  -4 102394. 4253.03  28
   2   1   4 98494.6 3928.45  27
  -2   1  -4 106701. 4466.85  29
  -2  -1   4 93903.5 3761.73   9
   2   1   4 101257. 3529.58  16
  -2  -1   5 2454.61 541.553   4
  -2   1  -5 2266.57 432.806   8
  -2   1  -5 2256.86 484.108   7
  -2  -1   5 2354.78 381.702   3
  -2  -1   5 1492.91 317.542   9
  -2  -1   5 2140.76 324.955   1
  -2  -1   5 3283.86 504.500  23
   2   1   5 1727.20 348.743  41
   2   1   5 1981.41 312.017  39
  -2   1  -5 1398.57 291.273  42
   2  -1  -5 1979.72 488.774  17
  -2   1  -5 1704.87 380.456  35
   2  -1  -5 1994.35 458.989  28
  -2   1  -5 1529.33 462.567  29
   2   1   5 1698.34 324.884  27
  -2  -1   5 2880.73 445.510  30
   2   1   5 2011.63 275.879  16
  -2   1  -6 55598.7 2583.70   8
  -2   1  -6 59838.4 2825.51   7
  -2  -1   6 54877.6 2595.82   7
  -2  -1   6 55044.9 2488.04   3
  -2  -1   6 58938.5 2426.26   1
  -2  -1   6 55324.4 2627.45  23
   2   1   6 54377.7 2572.58  41
  -2   1  -6 53259.5 2383.29  42
   2   1   6 53995.9 2319.53  39
   2  -1  -6 54838.6 2977.37  17
  -2   1  -6 52026.1 2562.56  35
   2  -1  -6 59060.0 2831.90  28
   2   1   6 53095.6 2351.52  27
  -2  -1   6 56404.8 2534.90  30
  -2   1  -6 58678.6 3046.28  29
  -2  -1   6 52578.0 2430.74   9
   2   1   6 58579.0 2214.02  16
  -2   1  -7 37854.8 2009.54   8
  -2   1  -7 44041.7 2302.65   7
  -2  -1   7 40084.3 2064.20   7
  -2  -1   7 39787.7 1904.05   1
  -2  -1   7 40513.2 2016.14   3
  -2  -1   7 36880.5 2055.79  23
   2   1   7 41337.5 2095.76  41
   2   1   7 36250.4 1789.82  39
  -2   1  -7 35219.2 1815.91  42
   2  -1  -7 38155.1 2356.46  17
  -2   1  -7 39243.8 2053.91  35
   2  -1  -7 44012.4 2286.64  28
   2   1   7 35077.8 1693.54  27
  -2  -1   7 43792.1 2077.07  30
  -2   1  -7 39131.7 2457.63  29
   2   1   7 39586.9 1686.67  16
  -2   1  -8 21834.4 1421.85   8
  -2   1  -8 22802.3 1580.46   7
  -2  -1   8 21196.7 1402.87   7
  -2  -1   8 22365.0 1327.72   1
  -2  -1   8 22065.2 1423.94   3
  -2  -1   8 21979.6 1479.22  23
   2   1   8 22219.2 1476.63  41
  -2   1  -8 21010.6 1258.51  42
   2   1   8 20485.7 1210.00  39
   2  -1  -8 21350.3 1659.53  17
  -2   1  -8 20136.4 1404.39  35
   2  -1  -8 22415.4 1569.30  28
  -2  -1   8 22775.6 1439.58  30
   2   1   8 19185.2 1040.58  27
  -2   1  -8 22249.5 1779.97  29
   2   1   8 22506.3 1137.37  16
  -2   1  -9 109591. 4514.39   7
  -2  -1   9 106158. 4166.94   1
  -2  -1   9 109293. 4269.47   7
  -2  -1   9 108405. 4343.34   3
  -2   1  -9 103517. 4259.83   8
  -2  -1   9 107279. 4389.58  23
   2   1   9 106468. 4426.42  41
  -2   1  -9 99597.8 4003.82  42
  -2  -1   9 106571. 3928.29  20
   2  -1  -9 101674. 4649.11  17
   2   1   9 93063.1 3920.78  39
  -2   1  -9 102117. 4270.15  35
   2  -1  -9 114557. 4553.66  28
  -2  -1   9 99383.1 4256.32  30
  -2   1  -9 106641. 4917.44  29
   2   1   9 110798. 3897.91  16
  -2  -1  10 57710.7 2741.16   1
  -2  -1  10 58938.1 2746.61   7
  -2  -1  10 60388.9 2891.56   3
  -2   1 -10 58945.6 2918.73   7
  -2   1 -10 59891.7 2810.77   8
  -2   1 -10 55441.5 2641.15  24
  -2  -1  10 55848.1 2850.40  23
  -2   1 -10 58348.3 2578.50  42
  -2  -1  10 59743.3 2485.68  20
  -2  -1  10 56466.8 2458.81  21
   2  -1 -10 62565.9 3199.20  17
   2   1  10 54078.2 2513.30  39
  -2   1 -10 62050.0 2862.34  35
  -2   1 -10 66480.1 3509.14  29
   2  -1 -10 61215.8 3015.00  28
   2   1  10 64652.6 2521.39  16
  -2  -1  11 8169.27 832.706   1
  -2   1 -11 8690.02 902.406   7
  -2  -1  11 7620.66 784.515   7
  -2  -1  11 8735.34 926.764   3
  -2   1 -11 8215.25 861.737   8
  -2   1 -11 6550.38 724.060  24
  -2  -1  11 7901.62 881.414  23
  -2   1 -11 7017.39 700.043  42
  -2  -1  11 7469.91 658.870  20
  -2  -1  11 7506.75 676.913  21
   2  -1 -11 6055.80 861.044  17
   2   1  11 7258.52 695.761  39
  -2   1 -11 7790.92 857.047  35
  -2   1 -11 6623.36 736.074  34
  -2   1 -11 7986.70 1126.62  29
   2  -1 -11 8589.77 942.508  28
   2   1  11 6841.46 654.559  16
  -2  -1  12 152813. 5863.99   1
  -2   1 -12 156323. 5821.89   7
  -2  -1  12 151416. 5706.28   7
  -2  -1  12 148689. 6026.85   3
  -2   1 -12 153277. 5867.83   8
   2  -1 -12 149206. 5304.49  22
  -2   1 -12 150041. 5677.23  24
  -2  -1  12 149055. 5951.98  23
  -2   1 -12 150256. 5559.29  42
  -2  -1  12 152855. 5498.87  21
   2  -1 -12 150151. 6148.69  17
   2   1  12 134291. 5487.26  39
  -2   1 -12 153063. 5715.06  34
  -2   1 -12 142190. 5766.20  35
  -2   1 -12 134762. 6492.23  29
   2  -1 -12 157177. 6069.68  28
  -2  -1  12 161361. 6065.62  30
   2   1  12 159004. 5573.18  16
  -2   1 -13 1801.69 468.359   8
  -2  -1  13 1517.65 394.305   1
  -2  -1  13 1563.08 437.901   3
  -2  -1  13 1564.21 369.242   7
  -2  -1  13 1140.55 387.424  23
   2  -1 -13 1231.57 261.743  22
  -2   1 -13 1539.74 373.171  24
   2   1  13 1386.46 425.261  41
  -2   1 -13 2303.90 407.566  42
   2  -1 -13 2096.40 505.274  17
  -2  -1  13 1885.08 363.260  21
  -2   1 -13 1940.84 414.345  34
  -2   1 -13 958.218 350.017  35
   2  -1 -13 1121.77 378.852  28
  -2  -1  13 1984.12 442.963  31
  -2  -1  13 1563.74 466.118  30
   2   1  13 2470.49 420.762  16
  -2  -1  14 62605.6 2853.25   7
  -2  -1  14 60701.8 3253.85   3
  -2  -1  14 60990.3 3088.21   1
  -2   1 -14 64580.3 3090.15   8
   2  -1 -14 56996.8 2498.10  22
  -2   1 -14 61258.7 2900.34  24
  -2  -1  14 61533.9 3155.12  23
   2   1  14 65457.9 3351.01  41
  -2   1 -14 59882.5 2755.41  42
   2  -1 -14 64487.6 3237.60  17
  -2  -1  14 60090.6 2731.52  21
  -2   1 -14 61412.9 2918.18  34
  -2   1 -14 58282.1 3451.05  29
  -2  -1  14 56874.3 2837.20  31
   2  -1 -14 65959.1 3237.40  28
  -2  -1  14 65040.6 3237.81  30
   2   1  14 64180.5 2770.01  16
   2   1  15 15721.5 1105.14  16
  -2  -1  15 12234.8 1223.19   1
  -2  -1  15 15179.0 1123.17   7
  -2  -1  15 13740.5 1382.00   3
  -2   1 -15 15419.5 1307.82   8
  -2  -1  15 12203.9 1334.98  45
   2   1  15 14115.8 1396.47  41
  -2   1 -15 11947.8 1023.42  42
   2  -1 -15 12354.8 1231.23  17
  -2  -1  15 12013.7 1008.79  21
  -2   1 -15 11413.7 1092.81  34
  -2   1 -15 12782.3 1416.85  29
  -2  -1  15 13733.0 1155.42  31
   2  -1 -15 14635.9 1336.02  28
  -2  -1  15 14146.8 1350.77  30
   2  -1 -15 13805.2 915.376  22
  -2   1 -15 13799.4 1166.84  24
  -2  -1  15 13990.6 1316.22  23
  -2   1 -16 114671. 5234.83  13
  -2  -1  16 133703. 4870.45   7
  -2  -1  16 121477. 5552.18   3
  -2   1 -16 125181. 5233.90   8
  -2  -1  16 116742. 5265.29   1
  -2  -1  16 113680. 5453.99  45
  -2  -1  16 116209. 5334.14  48
   2   1  16 123130. 5498.20  41
  -2   1 -16 125206. 4886.11  42
   2  -1 -16 124201. 5177.30  17
  -2  -1  16 114083. 4805.06  21
   2   1  16 133832. 4872.44  16
  -2   1 -16 124055. 5042.13  34
  -2  -1  16 114292. 5180.66  38
  -2  -1  16 122140. 5000.03  31
   2  -1 -16 119429. 5299.74  28
  -2  -1  16 122127. 5364.55  30
  -2   1 -16 116391. 5523.72  29
   2  -1 -16 122826. 4539.79  22
  -2   1 -16 138284. 5213.04  24
  -2  -1  16 121267. 5301.31  23
  -2   1 -17 6044.57 875.108  13
  -2   1 -17 6471.08 913.920   8
  -2  -1  17 5982.60 698.208   7
  -2  -1  17 5694.65 970.701   3
  -2  -1  17 6809.59 949.149   1
  -2  -1  17 5983.91 993.566  45
   2   1  17 7073.69 541.714  45
  -2  -1  17 6721.68 963.440  48
   2   1  17 7263.76 1008.97  41
  -2   1 -17 6737.48 782.590  42
   2   1  17 6953.04 749.794  16
   2  -1 -17 5842.38 806.894  17
  -2  -1  17 5761.96 736.441  21
  -2   1 -17 7487.45 1002.53  37
  -2  -1  17 5617.35 826.726  38
  -2   1 -17 6224.86 824.009  34
   2  -1 -17 5772.02 702.913  34
  -2  -1  17 7562.55 874.464  31
   2  -1 -17 5545.52 861.432  28
  -2  -1  17 6350.29 946.652  30
  -2   1 -17 5854.37 956.618  29
  -2  -1  17 4462.73 814.306  23
   2  -1 -17 5504.42 588.518  22
  -2   1 -17 6557.49 899.162  24
  -2   1 -18 47269.7 2703.68  13
  -2  -1  18 51305.9 2381.03   7
  -2  -1  18 43166.8 2998.89   3
  -2  -1  18 42423.8 2818.37   1
  -2   1 -18 51481.3 2934.41   8
   2   1  18 49751.1 2032.97  45
  -2  -1  18 44879.9 2942.52  45
  -2  -1  18 46754.3 2817.41  48
   2   1  18 46523.0 2924.16  41
   2   1  18 48367.5 2412.83  16
   2  -1 -18 50024.0 2648.86  17
  -2  -1  18 46586.3 2477.53  21
  -2   1 -18 48644.0 2702.16  34
  -2  -1  18 45554.5 2644.35  38
   2  -1 -18 43502.2 2368.56  34
  -2  -1  18 45824.9 2619.97  31
   2  -1 -18 43881.1 2795.76  28
  -2  -1  18 42998.9 2820.51  30
  -2   1 -18 45492.7 2882.27  29
   2  -1 -18 45185.9 2154.58  22
  -2  -1  18 47138.6 2856.13  23
   2  -1 -19 7828.50 954.378  14
  -2  -1  19 7688.49 779.831   7
  -2  -1  19 7875.82 1170.97   3
  -2  -1  19 6528.74 1022.12   1
  -2   1 -19 7533.34 1132.02   8
  -2  -1  19 5660.17 999.287  45
   2   1  19 8351.18 643.222  45
  -2  -1  19 5566.83 908.084  48
   2   1  19 7079.88 1038.06  41
   2   1  19 6684.43 786.303  16
   2  -1 -19 7731.85 883.751  17
  -2  -1  19 6607.72 824.607  21
   2  -1 -19 6835.88 807.606  34
  -2   1 -19 7263.31 975.755  34
  -2  -1  19 7612.06 940.099  38
  -2   1 -19 6432.41 974.314  29
  -2  -1  19 6083.11 925.084  31
   2  -1 -19 7657.69 1054.46  28
  -2  -1  19 7279.20 1077.34  30
   2  -1 -19 6770.64 675.703  22
  -2   1 -19 11513.1 1798.35  24
  -2  -1  19 6426.96 988.429  23
   2  -1 -20 15073.0 1339.24  14
  -2  -1  20 14695.0 1677.59   3
  -2  -1  20 10271.5 1372.69   1
  -2   1 -20 15386.5 1826.81   8
   2   1  20 15126.8 937.008  45
  -2  -1  20 14034.0 1538.68  45
  -2  -1  20 12609.0 1348.51  48
   2   1  20 14626.2 1528.84  41
  -2  -1  20 12057.5 1201.57  21
   2  -1 -20 15608.0 1267.85  17
   2   1  20 15622.6 1234.42  16
   2  -1 -20 15015.2 1236.78  34
  -2   1 -20 15919.6 1487.44  34
  -2  -1  20 13515.9 1265.93  38
  -2  -1  20 10712.3 1371.13  31
   2  -1 -20 13333.9 1456.28  28
  -2  -1  20 16460.7 1607.59  30
  -2   1 -20 14937.1 1452.70  29
   2  -1 -20 14262.7 994.291  22
  -2   1 -20 7598.01 1301.75  24
  -2  -1  20 12565.3 1456.20  23
   2  -1 -21 33480.1 2123.74  14
  -2  -1  21 33150.1 2680.76   3
  -2  -1  21 27256.1 2373.19   1
  -2   1 -21 32077.8 2901.00   8
   2   1  21 31711.1 1557.73  45
  -2  -1  21 29630.6 2184.22  48
   2   1  21 36689.1 2553.68  41
   2   1  21 35712.2 2022.49  16
  -2  -1  21 32003.1 2099.40  21
   2  -1 -21 29348.1 1870.49  34
  -2   1 -21 34009.0 2387.57  34
  -2  -1  21 33785.6 2054.11  38
  -2  -1  21 26382.9 2705.70  31
   2  -1 -21 28901.4 2264.52  28
  -2  -1  21 33658.4 2390.09  30
  -2   1 -21 28495.1 2143.37  29
  -2   1 -21 32968.8 2248.56  24
   2  -1 -21 31520.8 1636.92  22
  -2  -1  21 29373.3 2371.13  23
  -2   1 -22 20445.2 1610.44  13
   2  -1 -22 24502.1 1738.95  14
  -2  -1  22 21859.8 2136.78   3
  -2  -1  22 18222.3 1915.95   1
  -2   1 -22 18977.2 2020.63   8
  -2  -1  22 21083.9 1750.93  48
   2   1  22 20744.7 1902.68  41
  -2  -1  22 20259.8 1600.97  21
   2  -1 -22 19310.8 1415.25  34
  -2   1 -22 18516.1 1733.52  34
  -2  -1  22 21553.1 1526.26  38
   2  -1 -22 15976.1 1643.48  28
  -2  -1  22 20339.0 1805.93  30
  -2   1 -22 21594.8 1646.63  24
   2  -1 -22 19358.2 1187.08  22
  -2  -1  22 18842.5 1901.60  23
  -2   1 -23 4936.09 952.240   8
  -2  -1  23 4321.60 905.660   1
  -2  -1  23 5829.40 1106.85   3
   2  -1 -23 5563.59 721.000  24
  -2  -1  23 5837.87 1019.21  23
  -2   1 -23 5701.96 781.332  24
   2   1  23 6529.64 1016.35  41
   2  -1 -23 5260.44 693.344  17
  -2  -1  23 6575.75 876.047  21
   2  -1 -23 5300.81 709.370  34
  -2  -1  23 5905.46 873.807  36
  -2   1 -23 6584.97 968.765  34
  -2  -1  23 6386.69 750.657  38
  -2  -1  23 6750.65 1019.69  31
  -2  -1  23 6499.57 989.112  30
   2  -1 -23 5319.74 904.491  28
  -2   1 -23 5392.87 810.317  13
   2  -1 -23 6471.67 878.391  14
  -2   1 -24 3136.41 759.111   8
   2  -1 -24 4024.76 611.371  24
  -2  -1  24 4743.77 905.629  23
  -2   1 -24 4362.83 668.477  24
   2   1  24 5099.15 915.540  41
   2  -1 -24 6155.11 711.450  17
  -2  -1  24 4506.00 717.806  21
  -2   1 -24 4522.01 788.179  34
   2  -1 -24 4368.59 636.149  34
  -2  -1  24 3530.36 676.818  36
  -2  -1  24 4376.04 598.052  38
  -2  -1  24 5540.22 853.442  31
  -2  -1  24 5651.54 936.567  30
   2  -1 -24 5807.55 822.280  14
  -2   1 -24 4996.14 769.157  13
   2  -1 -25 30451.4 1986.52  14
  -2   1 -25 29827.3 2166.41   8
  -2  -1  25 31152.5 2142.77  48
  -2   1 -25 29102.5 1861.62  42
  -2  -1  25 28854.3 1923.89  21
   2  -1 -25 29684.4 1766.02  34
  -2   1 -25 32537.6 2338.02  37
  -2  -1  25 30345.4 2057.06  36
  -2   1 -25 28350.3 2023.74  34
  -2  -1  25 32425.6 1674.67  38
  -2  -1  25 28652.2 1978.52  31
  -2  -1  25 28986.3 2201.18  30
   2  -1 -25 26013.3 1687.03  24
  -2   1 -25 28502.0 1811.65  24
  -2  -1  25 31423.3 2293.64  23
  -2   1 -26 30970.2 1985.00  13
   2  -1 -26 35393.0 2121.33  14
  -2   1 -26 30757.4 2185.76   8
  -2  -1  26 32735.4 2178.02  48
  -2   1 -26 30602.1 1884.87  42
  -2  -1  26 32232.7 1999.36  21
   2  -1 -26 29117.4 1757.70  34
  -2   1 -26 37268.9 2421.21  37
  -2  -1  26 32513.7 1629.18  38
  -2  -1  26 29478.1 2015.51  36
  -2   1 -26 31079.1 2056.92  34
  -2  -1  26 31986.5 2007.30  31
  -2  -1  26 33978.6 2307.20  30
   2  -1 -26 28818.5 1727.92  24
  -2   1 -26 31225.8 1858.81  24
  -2  -1  26 28997.4 2196.84  23
  -2   1 -27 22041.8 1541.07  13
   2  -1 -27 21217.5 1565.66  14
  -2   1 -27 20855.1 1685.63   8
   2   1  27 22719.0 1530.19  44
  -2  -1  27 20717.7 1635.94  48
  -2   1 -27 19249.2 1385.01  42
  -2  -1  27 18846.9 1455.26  21
   2  -1 -27 20125.5 1344.63  34
  -2   1 -27 20844.6 1743.29  37
  -2  -1  27 20834.5 1509.39  31
  -2  -1  27 22357.0 1760.98  30
   2  -1 -27 17677.2 1261.58  24
  -2   1 -27 17731.6 1323.21  24
  -2  -1  27 19015.2 1699.32  23
  -2   1 -28 79748.1 3464.91  13
   2  -1 -28 80093.5 3574.37  14
  -2   1 -28 75506.9 3726.50   8
   2   1  28 80919.3 3474.16  44
  -2  -1  28 75352.5 3600.11  48
  -2   1 -28 75294.2 3320.06  42
  -2  -1  28 71172.5 3413.35  21
  -2   1 -28 82546.0 3893.26  37
   2  -1 -28 79027.1 3297.09  34
  -2   1 -28 77705.3 3607.08  34
   2   1  28 73121.6 3112.18  31
  -2  -1  28 72911.7 3402.86  31
  -2  -1  28 79909.4 3880.46  30
   2  -1 -28 72978.6 3177.78  24
   2   1  28 72561.6 3160.92  23
  -2  -1  28 69732.7 3740.57  23
   2  -1 -29 4701.73 680.056  14
  -2   1 -29 5038.09 655.819  13
   2   1  29 4555.76 637.720  44
  -2  -1  29 4743.60 713.119  48
  -2  -1  29 4442.12 646.555  21
  -2   1 -29 4363.84 744.005   8
  -2   1 -29 5177.40 722.388  34
   2  -1 -29 5374.48 621.236  34
  -2   1 -29 5197.61 837.083  37
  -2  -1  29 5203.02 713.640  36
   2   1  29 4149.08 531.140  31
  -2  -1  29 5186.14 681.674  31
  -2  -1  29 5777.18 836.080  30
   2  -1 -29 4726.59 557.025  24
  -2  -1  29 3664.32 715.606  23
   2   1  29 4622.37 577.978  23
  -2   1 -30 201772. 7127.45  13
   2  -1 -30 206472. 7368.05  14
  -2  -1  30 189847. 7281.96  48
   2   1  30 217381. 7296.57  44
  -2  -1  30 196500. 7242.14  21
  -2   1 -30 203856. 7594.69   8
  -2   1 -30 207487. 7670.80  37
  -2   1 -30 189066. 7345.41  34
  -2  -1  30 196016. 7283.84  36
   2  -1 -30 201747. 7090.91  34
   2   1  30 202117. 7002.23  31
  -2  -1  30 193014. 7182.00  31
  -2  -1  30 207320. 7695.01  30
   2  -1 -30 191314. 6935.89  24
   2   1  30 194915. 7044.18  23
  -2  -1  30 190954. 7630.73  23
  -2   1 -31 22590.3 1328.73  13
   2  -1 -31 24915.0 1535.75  14
   2   1  31 25225.4 1479.31  44
  -2  -1  31 21193.5 1415.75  48
  -2  -1  31 22509.0 1442.17  21
  -2   1 -31 23655.9 1670.50  37
   2  -1 -31 26122.6 1429.53  34
  -2  -1  31 21890.5 1424.97  36
  -2   1 -31 23366.2 1535.56  34
   2   1  31 25639.6 1426.19  23
  -2  -1  31 23845.7 1697.56  23
   2   1  31 24396.3 1352.75  31
  -2  -1  31 28355.6 1778.23  30
  -2   1 -31 23449.1 1629.01   8
  -2   1 -32 54527.5 2359.96  13
   2  -1 -32 59449.0 2674.82  14
  -2   1 -32 57030.3 2826.32   8
   2   1  32 60258.9 2605.63  44
   2   1  32 61807.5 2678.60  47
  -2  -1  32 59671.1 2585.86  36
   2  -1 -32 60512.8 2555.85  34
   2   1  32 60566.5 2521.68  31
  -2  -1  32 64478.0 2952.62  30
   2   1  32 58952.9 2556.17  23
  -2  -1  32 58433.5 2900.90  23
   2  -1 -33 5157.63 566.764  14
  -2   1 -33 4207.55 584.009   8
   2   1  33 5419.84 603.060  47
  -2  -1  33 4607.88 494.706  36
   2  -1 -33 5137.40 522.114  34
   2   1  33 4744.77 502.635  31
   2  -1 -33 5006.50 470.345  24
   2   1  33 5235.13 545.645  23
  -2  -1  33 4147.75 613.090  23
   2  -1 -34 8740.76 692.477  14
   2   1  34 10456.5 789.361  47
   2   1  34 8578.09 678.306  31
   2  -1 -34 9143.30 623.813  24
  -2  -1  34 9775.11 878.305  23
  -2   1 -34 11476.4 904.935   8
   2  -1 -35 1376.63 245.546  14
  -2   1 -35 1386.24 305.725   8
  -2  -1  35 1510.98 329.261  23
   2   1  35 1614.87 266.025  31
   2   1  36 17160.1 949.049  47
   2   1  37 28216.4 1236.75  47
  -2  -2 -36 194.146 135.957  50
  -2  -2 -35 14066.0 891.895  37
  -2   2  35 14062.2 813.800  11
  -2   2  35 13655.1 750.843  12
  -2  -2 -35 13180.9 899.237  50
  -2  -2 -34 1491.05 343.372  37
  -2  -2 -34 1490.18 361.602  50
   2   2 -33 33406.4 1543.35  14
   2  -2  33 36776.9 1647.69  20
  -2  -2 -33 39817.8 2041.55  50
  -2   2  33 37118.4 1983.33  45
  -2  -2 -33 38662.7 2001.52  37
  -2   2  33 36645.6 1920.39  30
   2   2 -33 37772.5 1646.37  24
   2   2 -32 2297.98 339.819  14
   2  -2  32 1881.04 317.128  20
  -2   2  32 3072.85 538.371  45
  -2  -2 -32 2334.03 498.597  50
  -2  -2 -32 2480.61 506.900  37
   2   2 -32 2599.19 314.837  35
  -2   2  32 3045.70 534.606  32
   2  -2  32 1539.73 292.747  31
  -2   2  32 2388.12 455.613  30
   2   2 -32 2472.81 347.903  24
   2   2 -31 5468.94 557.580  14
  -2   2  31 4397.17 695.900  45
  -2  -2 -31 4983.04 750.445  50
   2  -2  31 5230.76 543.607  20
   2  -2  31 4680.31 454.044  33
  -2  -2 -31 5923.46 812.224  37
   2   2 -31 5379.75 484.944  35
  -2   2  31 5141.80 728.188  32
   2  -2  31 4582.88 509.299  31
  -2   2  31 5513.90 739.673  30
   2   2 -31 5606.98 547.328  24
  -2  -2 -31 4747.99 568.099  22
   2   2 -30 45646.0 2141.04  14
  -2   2  30 45607.1 2593.40  45
  -2  -2 -30 49741.6 2685.57  50
   2  -2  30 45810.8 2102.18  20
  -2   2  30 48125.6 2533.68   5
  -2  -2 -30 47499.7 2646.31  37
  -2   2  30 41742.5 2508.19  32
   2  -2  30 44138.9 2062.76  31
  -2   2  30 43887.1 2485.01  30
   2   2 -30 48210.6 2107.30  24
  -2  -2 -30 43322.9 2199.78  22
   2   2 -29 5337.45 612.889  14
  -2   2  29 4419.18 780.899  45
   2  -2  29 5318.60 585.049  20
  -2   2  29 4672.83 735.568   5
  -2  -2 -29 5291.39 829.134  37
   2   2 -29 4478.57 490.492  35
  -2   2  29 4843.99 800.662  32
   2  -2  29 4970.44 558.721  31
  -2   2  29 3930.90 683.345  30
   2   2 -29 4775.44 550.640  24
  -2  -2 -29 4926.11 621.788  22
   2   2 -28 4170.81 583.618  14
  -2   2  28 4047.01 740.497  45
  -2   2  28 3139.63 544.364  47
   2  -2  28 3049.70 469.579  20
  -2   2  28 3843.30 692.575   5
  -2  -2 -28 4196.80 778.154  37
   2   2 -28 4028.25 475.370  35
  -2   2  28 4363.72 782.284  32
   2  -2  28 3832.82 501.954  31
   2   2 -28 3694.83 492.528  24
  -2  -2 -28 4061.54 583.128  22
  -2  -2 -28 4252.83 801.264  26
   2   2 -27 2894.06 495.151  14
  -2   2  27 1250.28 515.629  45
  -2   2  27 2549.96 521.507  47
   2  -2  27 1631.96 374.645  20
  -2   2  27 1934.64 545.292   5
  -2  -2 -27 1745.90 541.086  37
   2   2 -27 2287.00 372.318  35
  -2   2  27 1878.71 626.895  32
   2  -2  27 1752.25 370.749  31
   2   2 -27 3172.86 467.592  24
  -2  -2 -27 1976.49 435.471  22
  -2  -2 -27 2160.84 595.084  26
   2   2 -26 67235.6 2939.48  14
  -2   2  26 59182.8 3321.44   5
  -2   2  26 60270.5 2956.49  47
  -2   2  26 57366.8 3365.23  45
   2  -2  26 58882.7 2691.83  20
  -2  -2 -26 62238.7 3525.31  37
   2   2 -26 59281.8 2586.35  35
  -2   2  26 58186.4 3309.54  32
   2  -2  26 58106.1 2643.78  31
  -2  -2 -26 56809.1 2852.09  22
  -2   2  26 57235.8 2957.81  23
  -2  -2 -26 61815.2 3532.86  26
   2   2 -25 30446.0 1859.31  14
  -2  -2 -25 31125.5 1900.23   8
  -2   2  25 31918.4 2243.83   5
  -2   2  25 32110.0 2019.04  47
  -2   2  25 27707.0 2193.10  45
  -2  -2 -25 30856.7 1887.60  43
   2  -2  25 37124.3 2049.31  44
   2  -2  25 31600.1 1749.88  20
  -2  -2 -25 33044.3 2456.58  37
  -2   2  25 30657.1 2252.47  32
   2  -2  25 32354.3 1723.14  31
  -2  -2 -25 30649.7 1891.92  22
  -2   2  25 30664.3 2008.26  23
   2   2 -24 11537.4 1062.92  14
  -2  -2 -24 11507.9 1090.78   8
  -2   2  24 10133.4 854.749   7
  -2   2  24 12124.6 1320.29   5
   2  -2  24 12810.2 1158.08  44
  -2   2  24 9675.39 1097.15  47
  -2   2  24 11528.6 1368.90  45
  -2  -2 -24 11281.3 1052.27  43
   2  -2  24 10946.5 936.948  20
  -2  -2 -24 10663.3 1378.00  37
   2   2 -24 12341.8 932.324  35
  -2   2  24 8266.62 1176.95  32
   2  -2  24 11501.3 921.679  31
  -2  -2 -24 11424.2 1071.20  22
  -2   2  24 10520.6 1134.74  23
   2   2 -23 284846. 9712.35  14
  -2  -2 -23 270816. 9749.40   8
  -2   2  23 251453. 9333.55   7
  -2   2  23 269382. 10293.0   5
  -2   2  23 280455. 10072.3  47
  -2   2  23 260593. 10407.8  45
   2  -2  23 295167. 9879.01  44
  -2  -2 -23 269837. 9639.12  43
   2  -2  23 256774. 9313.18  20
  -2  -2 -23 260282. 10612.5  37
   2   2 -23 257104. 9252.04  35
  -2   2  23 259852. 10246.0  32
   2  -2  23 279125. 9298.84  31
  -2   2  23 275964. 10022.1  23
   2   2 -22 3754.26 620.931  14
  -2  -2 -22 3605.87 656.967   8
  -2   2  22 2739.73 503.060   7
  -2   2  22 3296.65 721.305   5
  -2   2  22 3601.62 857.140  45
  -2   2  22 3372.89 730.388  47
  -2  -2 -22 3152.37 580.918  43
  -2   2  22 3116.22 482.390  21
  -2  -2 -22 3735.82 640.481  19
  -2  -2 -22 3231.65 868.961  37
   2   2 -22 3609.54 528.951  35
  -2   2  22 2100.37 649.688  32
   2  -2  22 3994.99 528.439  31
  -2   2  22 4261.41 790.608  23
   2   2 -21 34206.8 2012.09  14
   2  -2  21 31754.0 2191.68  16
   2   2 -21 27995.4 2153.03  15
  -2  -2 -21 30935.9 2024.68   8
  -2  -2 -21 29874.5 2937.85   4
  -2   2  21 29251.1 1871.36   7
  -2   2  21 27338.8 2348.04   2
  -2   2  21 30610.5 2284.77   5
  -2   2  21 38663.4 2693.67  47
  -2   2  21 30783.5 2353.52  45
  -2  -2 -21 29362.2 1867.56  43
   2   2 -21 32365.6 2387.46  39
   2   2 -21 25893.8 2133.71  17
  -2  -2 -21 31257.0 1995.84  19
   2   2 -21 29355.3 1699.40  35
  -2  -2 -21 31110.1 2606.02  37
  -2   2  21 29953.9 2264.87  32
   2  -2  21 32147.3 1676.32  31
   2   2 -21 32146.9 1733.20  24
  -2   2  21 38901.2 2618.35  23
   2   2 -20 11677.6 1079.87  14
   2  -2  20 10689.1 1162.87  16
   2   2 -20 8084.52 1091.00  15
  -2  -2 -20 11896.5 1162.83   8
  -2   2  20 8647.04 968.609   7
  -2   2  20 8220.95 1211.19   2
  -2   2  20 9343.87 1181.28   5
  -2   2  20 9505.80 1279.18  45
  -2   2  20 8445.32 1400.43  47
  -2  -2 -20 12060.3 1079.50  43
   2   2 -20 9488.57 1225.94  39
   2   2 -20 8226.25 1175.58  17
  -2  -2 -20 10080.1 1035.13  19
  -2  -2 -20 9017.78 1360.46  37
   2   2 -20 8945.61 843.738  35
  -2   2  20 10807.1 1275.96  32
   2  -2  20 9670.22 805.324  31
   2   2 -20 9652.47 1418.68  27
  -2  -2 -20 9668.50 1019.60  22
   2   2 -20 10864.7 906.381  24
  -2   2  20 10126.5 1358.12  23
   2   2 -19 60110.0 2925.20  14
   2  -2  19 56755.0 3030.48  16
   2   2 -19 48247.3 3015.54  15
  -2  -2 -19 61265.3 3035.80   8
  -2   2  19 55269.9 2917.69   7
  -2   2  19 56519.1 3498.12   2
  -2   2  19 52531.4 3226.04   5
  -2  -2 -19 57524.5 4264.52   4
  -2   2  19 53774.1 3450.96  47
  -2   2  19 61750.3 3606.23  45
  -2  -2 -19 57312.8 2830.88  43
   2   2 -19 63096.8 3521.96  39
   2   2 -19 55438.9 3420.74  17
  -2   2  19 50067.3 3238.18  18
  -2  -2 -19 61838.6 2995.82  19
  -2  -2 -19 62739.3 3725.59  37
   2   2 -19 52116.9 2578.76  35
  -2   2  19 58146.6 3346.20  32
   2  -2  19 60668.1 2535.98  31
   2   2 -19 55041.8 3770.84  27
  -2  -2 -19 58546.0 2958.86  22
   2   2 -19 57506.5 2596.04  24
  -2   2  19 56041.2 3232.00  23
   2   2 -18 58398.5 2863.07  14
   2  -2  18 56268.9 2956.89  16
   2   2 -18 50233.2 3001.39  15
  -2  -2 -18 57233.2 2892.01   8
  -2   2  18 49957.0 2834.96   7
  -2   2  18 49261.7 3257.94   2
  -2   2  18 53838.2 3154.04   5
  -2  -2 -18 57087.8 4221.73   4
  -2   2  18 53664.5 3176.81  47
  -2   2  18 59140.3 3598.12  45
  -2  -2 -18 57959.5 2791.81  43
   2   2 -18 55552.0 3327.13  39
   2   2 -18 51102.4 3354.64  17
  -2   2  18 53400.7 3294.41  18
  -2  -2 -18 64637.5 2971.49  19
  -2  -2 -18 56255.6 3459.24  37
   2   2 -18 50746.7 2541.47  35
  -2   2  18 53753.7 3223.41  32
   2  -2  18 53994.5 2408.32  31
   2   2 -18 59191.2 3843.55  27
   2   2 -18 55762.4 2518.56  24
  -2   2  18 57728.1 3032.16  23
  -2  -2 -18 59411.7 2983.62  22
   2   2 -17 57268.1 2747.19  14
   2  -2  17 52704.1 2750.40  16
   2   2 -17 51458.7 2896.46  15
  -2  -2 -17 55521.8 2735.39   8
  -2  -2 -17 51665.4 4019.79   4
  -2   2  17 45364.8 2689.60   7
  -2   2  17 49777.3 3187.99   2
  -2   2  17 53450.0 3068.27   5
  -2   2  17 49215.2 2886.83  47
  -2   2  17 55384.5 3614.68  45
  -2  -2 -17 53048.9 2645.75  43
   2   2 -17 49455.5 3105.24  39
  -2   2  17 44644.0 3004.34  18
  -2  -2 -17 54783.0 2750.09  19
  -2  -2 -17 56683.2 3328.19  37
   2   2 -17 47152.4 2373.14  35
  -2   2  17 45232.4 2952.24  32
   2  -2  17 50011.8 2231.13  31
   2   2 -17 46627.0 3440.69  27
   2   2 -17 50670.4 2349.95  24
  -2   2  17 52239.3 2714.56  23
  -2  -2 -17 45739.6 2825.42  22
   2   2 -16 46605.4 2742.83  15
   2  -2  16 49714.2 2626.47  16
  -2  -2 -16 50795.1 2573.15   8
  -2  -2 -16 55494.8 4073.06   4
  -2   2  16 45603.0 2671.78   7
  -2   2  16 49755.0 3115.79   2
  -2   2  16 50161.2 2958.32   5
  -2   2  16 65686.5 4217.45  45
  -2  -2 -16 52522.1 2626.48  43
   2   2 -16 48692.0 3042.17  39
  -2   2  16 45182.8 2965.98  18
  -2  -2 -16 53498.6 2691.51  19
  -2  -2 -16 53281.8 3142.21  37
   2  -2  16 48338.2 2144.32  31
   2   2 -16 54091.4 3667.90  27
  -2   2  16 48395.4 3013.76  32
   2   2 -16 48556.0 2284.19  24
  -2   2  16 50112.6 2557.67  23
  -2  -2 -16 34064.0 2834.39  22
   2  -2  15 32396.5 1971.43  16
   2   2 -15 31048.7 2091.62  15
  -2  -2 -15 33419.2 3125.39   4
  -2   2  15 29268.6 2044.26   7
  -2   2  15 30016.9 2318.22   2
  -2  -2 -15 33987.5 1931.86   8
  -2   2  15 30270.5 2221.05   5
  -2   2  15 33929.3 3255.91  45
  -2  -2 -15 33587.5 2023.05  43
   2   2 -15 31850.9 2319.64  39
  -2   2  15 27765.1 2239.16  18
  -2  -2 -15 35612.4 2056.00  19
  -2  -2 -15 35453.6 2412.93  37
   2  -2  15 30487.1 1538.95  31
   2   2 -15 32350.4 2759.87  27
   2   2 -15 32421.4 1691.17  24
  -2   2  15 34683.0 1916.53  23
  -2  -2 -14 17013.6 2183.36   4
  -2   2  14 14700.5 1511.93   2
  -2  -2 -14 16695.7 1242.57   8
  -2   2  14 14095.5 1414.36   5
   2   2 -14 14738.2 1038.47  24
  -2  -2 -14 19668.0 1547.13  22
  -2  -2 -14 17249.5 1441.19  43
   2   2 -14 16673.7 1570.03  39
  -2   2  14 16332.7 1579.81  18
  -2  -2 -14 18186.9 1360.02  19
  -2  -2 -14 18403.3 1636.96  37
   2  -2  14 13684.1 904.814  31
   2   2 -14 17827.8 1958.81  27
   2  -2  14 15129.7 1275.18  16
   2   2 -14 13853.7 1311.61  15
   2  -2  13 109294. 4595.01  16
   2   2 -13 111603. 4840.89  15
  -2  -2 -13 110686. 4487.14   8
  -2   2  13 102880. 5074.13   2
  -2  -2 -13 111819. 6442.36   4
  -2  -2 -13 117202. 5127.12  50
  -2  -2 -13 133137. 5306.77  43
   2  -2  13 106008. 4687.92  40
   2   2 -13 106841. 5059.43  39
  -2   2  13 95880.4 4991.31  18
  -2  -2 -13 119202. 4717.30  19
  -2  -2 -13 116134. 5116.43  37
   2   2 -13 116367. 5831.80  27
  -2   2  13 115873. 5516.36  32
   2   2 -13 106859. 4218.50  24
  -2  -2 -13 122109. 4680.59  22
   2   2 -12 5687.80 782.261  15
   2  -2  12 4576.08 655.994  16
  -2  -2 -12 6068.92 1342.52   4
  -2   2  12 6217.92 871.102   7
  -2  -2 -12 5354.36 658.053   8
  -2   2  12 4641.36 823.167   2
  -2  -2 -12 6083.25 897.597  50
  -2  -2 -12 6968.86 831.056  43
   2  -2  12 6115.60 769.780  40
  -2  -2 -12 6077.02 767.468  19
  -2   2  12 4524.38 842.635  18
  -2  -2 -12 5658.32 706.880  33
  -2  -2 -12 6555.16 965.256  37
   2   2 -12 5238.67 845.825  39
  -2   2  12 7107.38 740.173  38
  -2   2  12 5519.60 1061.02  32
   2   2 -12 7042.77 1201.83  27
  -2  -2 -12 5910.82 681.179  22
   2   2 -12 5864.23 595.209  24
   2   2 -11 57286.6 2908.36  15
   2  -2  11 51490.8 2662.88  16
  -2  -2 -11 53984.5 2526.66   8
  -2  -2 -11 50122.6 4155.88   4
  -2   2  11 55063.1 2957.59   7
  -2   2  11 51595.0 3033.45   2
  -2   2  11 57155.4 3072.06  45
  -2  -2 -11 59690.1 2637.52  43
   2  -2  11 52925.4 2723.74  40
   2   2 -11 48369.2 2914.17  39
  -2   2  11 51343.2 3062.68  18
  -2  -2 -11 60738.0 2819.89  19
  -2  -2 -11 51699.2 2594.37  33
   2   2 -11 64337.6 3785.52  27
  -2   2  11 42577.4 2971.91  32
  -2  -2 -11 55039.9 2478.33  22
   2   2 -11 55357.5 2357.29  24
   2   2 -10 24914.4 1734.77  15
   2  -2  10 23179.6 1566.20  16
  -2  -2 -10 24039.5 1445.71   8
  -2  -2 -10 27868.6 3028.37   4
  -2   2  10 23757.3 1860.86   2
  -2   2  10 24641.6 1804.25   7
  -2  -2 -10 23798.2 1480.24   6
  -2   2  10 22668.3 1887.74  46
  -2   2  10 24091.2 1767.96  45
   2  -2  10 24364.9 1637.46  40
   2   2 -10 23392.6 1776.09  39
  -2   2  10 26394.8 1958.56  18
  -2  -2 -10 24609.6 1565.29  33
   2   2 -10 27341.8 2309.34  27
  -2   2  10 24017.5 1853.83  32
   2   2 -10 23743.3 1311.99  24
  -2  -2 -10 23833.1 1367.43  22
   2   2  -9 204958. 7884.80  15
   2  -2   9 204556. 7673.93  16
  -2  -2  -9 207956. 7412.06   8
  -2  -2  -9 227588. 10845.8   4
  -2   2   9 209473. 8122.27   2
  -2   2   9 212783. 8056.14   7
  -2  -2  -9 202270. 7445.13   6
  -2  -2  -9 198494. 7344.23   9
  -2   2   9 198453. 8225.88  46
  -2   2   9 212877. 7947.47  45
   2  -2   9 212175. 7742.74  40
   2   2  -9 222024. 8088.47  39
  -2   2   9 199107. 8163.58  18
  -2  -2  -9 233393. 7915.62  19
  -2  -2  -9 213363. 7592.39  33
   2   2  -9 225662. 8891.12  27
  -2   2   9 203355. 7710.99  29
  -2   2   9 208090. 7942.92  32
   2   2  -9 206873. 7209.07  24
  -2  -2  -9 215591. 7280.79  22
   2   2  -8 200.322 220.912  15
   2  -2   8 164.361 181.290  16
  -2  -2  -8 240.170 198.660   8
  -2  -2  -8 201.177 470.473   4
  -2   2   8 144.203 266.659   7
  -2   2   8 541.743 300.176   2
  -2  -2  -8 259.709 232.004   6
  -2  -2  -8 314.840 200.669   9
  -2   2   8 63.9502 269.663  45
  -2   2   8 262.017 353.798  46
   2  -2   8 287.779 242.715  40
  -2   2   8 84.7111 297.199  18
  -2  -2  -8 250.714 253.940  19
   2   2  -8 210.372 231.985  39
  -2   2   8-63.2959 209.414  32
  -2   2   8 186.205 229.574  29
   2   2  -8 216.829 400.893  27
  -2  -2  -8 241.804 233.220  33
   2   2  -8 247.248 157.637  24
  -2  -2  -7 48676.0 3744.71   4
  -2  -2  -7 42324.6 2059.48   8
  -2   2   7 42488.0 2531.46   2
  -2   2   7 46541.2 2574.16   7
  -2  -2  -7 44968.9 2138.00   6
  -2  -2  -7 45924.5 2130.00   9
  -2   2   7 43333.4 2715.39  46
  -2   2   7 42110.4 2351.72  45
   2   2  -7 45496.9 2502.71  39
   2  -2   7 43589.4 2330.69  40
  -2  -2  -7 51561.5 2604.19  19
  -2  -2  -7 47537.3 2266.86  33
  -2   2   7 40180.1 2289.48  32
   2   2  -7 42162.0 2870.28  27
  -2   2   7 44828.0 2451.91  29
   2  -2   7 43534.3 2310.54  16
  -2   2   6 8249.88 1069.50  46
  -2   2   6 10149.3 963.439  45
   2   2  -6 10497.0 1035.84  39
   2  -2   6 9382.09 921.657  40
  -2   2   6 8746.09 1125.79  18
  -2  -2  -6 12076.3 1055.87  19
  -2  -2  -6 9202.83 858.063  33
  -2   2   6 10138.3 940.593  32
   2   2  -6 9248.21 1220.00  27
  -2   2   6 8715.27 966.248  29
  -2  -2  -6 8771.56 755.008   8
  -2   2   6 10192.4 1068.74   2
  -2   2   6 10001.2 1056.65   7
  -2  -2  -6 8179.91 1419.13   4
  -2  -2  -6 8720.24 785.995   6
  -2  -2  -6 9205.99 795.809   9
  -2   2   5 364526. 13217.1  46
  -2   2   5 340585. 12521.2  45
   2   2  -5 381654. 12837.7  39
   2  -2   5 363842. 12636.7  40
  -2  -2  -5 364212. 12395.0  20
   2  -2   5 376246. 11911.1  17
  -2   2   5 346210. 13219.1  18
  -2  -2  -5 424390. 12687.6  19
  -2  -2  -5 373325. 12445.5  33
  -2   2   5 342104. 12411.6  32
   2   2  -5 371865. 13500.1  27
  -2   2   5 362186. 12893.7  29
  -2  -2  -5 367516. 14395.1   4
  -2  -2  -5 359141. 12205.5   8
  -2   2   5 353956. 12880.0   2
  -2   2   5 381983. 12999.4   7
  -2  -2  -5 373323. 12310.0   6
  -2  -2  -5 376607. 12329.2   9
   2   2  -4 18645.5 1415.70  39
  -2   2   4 21275.3 1295.94  42
   2  -2   4 19030.9 1379.22  40
  -2   2   4 19321.7 1664.13  46
  -2   2   4 18283.2 1289.86  45
  -2  -2  -4 18677.5 1235.45  20
   2  -2   4 20447.8 1026.01  17
  -2   2   4 19526.3 1705.47  18
  -2  -2  -4 20759.4 1294.26  19
   2   2  -4 16934.8 1614.22  27
  -2  -2  -4 17617.3 1963.79   4
  -2   2   4 21368.1 1561.87   2
  -2   2   4 22062.6 1614.25   7
  -2  -2  -4 18876.4 1189.06   6
  -2  -2  -4 19442.2 1214.20   9
  -2   2   3 19674.0 1500.88   2
  -2   2   3 20051.9 1568.13   7
  -2  -2  -3 22258.5 1276.46   6
  -2  -2  -3 21187.1 1286.96   9
  -2   2   3 20087.7 1694.49  46
  -2   2   3 18708.0 1287.91  45
   2   2  -3 22243.6 1521.66  39
  -2   2   3 21849.4 1334.91  42
   2  -2   3 22493.5 1494.91  40
   2   2  -3 19638.8 1127.26  41
  -2  -2  -3 20215.2 1296.91  20
   2  -2   3 24659.9 1174.98  17
  -2   2   3 17660.6 1574.28  18
  -2  -2  -3 23792.3 1326.87  19
   2   2  -3 23249.6 1822.41  27
  -2   2   3 19447.8 1577.43  29
  -2  -2  -3 20418.1 1241.64  10
  -2   2   2 171123. 7165.91   2
  -2   2   2 196493. 7446.85   7
  -2  -2  -2 194109. 6807.38   6
  -2  -2  -2 199578. 6920.28   9
  -2   2   2 198072. 7740.60  46
   2   2  -2 197036. 7235.46  39
  -2   2   2 200967. 6971.33  42
   2  -2   2 193175. 7169.51  40
   2   2  -2 189364. 6710.14  41
  -2  -2  -2 192027. 6913.68  20
   2  -2   2 208456. 6736.27  17
  -2   2   2 165048. 7263.21  18
  -2  -2  -2 214473. 6841.39  19
  -2  -2  -2 191451. 6925.33  33
   2   2  -2 191052. 7653.06  27
  -2   2   2 190078. 7511.01  29
   2   2  -2 180811. 7285.09  15
  -2  -2  -2 193665. 6831.55  10
  -2  -2  -1 33824.9 2619.92   4
  -2   2   1 39392.1 2286.98   7
  -2  -2  -1 36049.3 1807.31   6
  -2  -2  -1 38632.0 1929.04   9
  -2   2   1 38579.2 2474.03  46
  -2   2   1 35921.5 1904.39  42
   2   2  -1 35810.1 2066.32  39
   2  -2   1 39613.5 2132.24  40
   2   2  -1 36419.6 1801.10  41
  -2  -2  -1 39628.5 1948.26  20
  -2   2   1 33544.0 2108.55  18
   2  -2   1 43973.8 1879.32  17
  -2  -2  -1 39343.5 1940.32  33
  -2   2   1 44035.3 2481.18  29
   2   2  -1 39080.4 2265.83  15
  -2  -2  -1 37119.9 1855.34  10
  -2   2   0 5404.79 767.550   7
  -2  -2   0 5470.67 969.297   4
  -2  -2   0 4711.27 531.984   6
  -2  -2   0 5459.31 649.078   1
  -2  -2   0 3592.96 514.692   9
  -2   2   0 5752.23 932.126  46
  -2   2   0 5146.51 600.501  42
   2   2   0 3885.63 589.431  39
   2  -2   0 5188.46 686.976  40
   2   2   0 4908.00 559.030  41
  -2  -2   0 5034.34 583.262  20
  -2   2   0 4445.74 654.730  18
   2  -2   0 5591.78 573.024  17
  -2   2   0 6096.16 752.885  35
  -2  -2   0 5080.78 593.280  33
  -2   2   0 4434.08 736.493  29
   2   2   0 4897.30 722.107  15
  -2  -2   0 4947.64 564.534  10
   2   2   1 37334.5 2261.11  15
  -2  -2   1 38463.9 1906.58  10
   2   2   1 36267.4 2086.20  39
  -2   2  -1 38881.4 1980.22  42
   2  -2  -1 38841.4 2178.34  40
   2   2   1 36917.2 1909.30  41
  -2  -2   1 40914.4 1982.75  20
  -2   2  -1 36116.6 2054.61  18
   2  -2  -1 43474.6 2011.07  17
  -2  -2   1 40969.0 1990.13  33
  -2   2  -1 35909.0 2117.15  35
   2  -2  -1 40339.2 2402.13  28
   2   2   1 43048.5 2352.01  27
  -2  -2   1 42279.3 2087.90  31
  -2   2  -1 40518.8 2465.18  29
  -2  -2   1 39641.3 2091.34   1
  -2   2  -1 42796.1 2363.50   7
  -2  -2   1 39759.9 1993.77   9
  -2  -2   1 35690.6 2600.74   4
   2   2   2 199434. 7750.38  15
  -2  -2   2 200892. 7219.24  10
   2   2   2 200209. 7487.92  39
  -2   2  -2 203414. 7318.85  42
   2   2   2 199238. 7274.92  41
   2  -2  -2 207421. 7640.23  40
  -2  -2   2 205756. 7268.00  20
   2  -2  -2 225049. 7450.15  17
  -2  -2   2 216775. 7327.89  33
  -2   2  -2 193293. 7522.43  35
  -2   2  -2 206963. 8027.13  29
   2  -2  -2 217879. 7948.92  28
  -2  -2   2 203481. 7378.11  31
   2   2   2 201668. 7629.81  27
  -2   2  -2 197614. 7215.72   8
  -2   2  -2 209908. 7783.64   7
  -2  -2   2 204255. 7322.92   9
  -2  -2   2 206512. 7461.62   1
  -2  -2   2 206745. 8344.83   4
  -2   2  -3 14376.7 1291.15   7
  -2   2  -3 13291.9 1012.61   8
  -2  -2   3 17502.6 1242.73   1
  -2  -2   3 15760.3 1137.50   9
  -2  -2   3 14234.1 1475.50   4
  -2   2  -3 12997.7 1440.08  46
   2   2   3 14484.5 1157.63  39
  -2   2  -3 16001.9 1125.88  42
   2   2   3 13867.0 1071.25  41
  -2  -2   3 17282.3 1123.31  20
   2  -2  -3 16182.0 1158.09  17
  -2  -2   3 16292.8 1114.99  33
  -2   2  -3 14220.4 1193.75  35
  -2   2  -3 14942.7 1409.48  29
   2  -2  -3 13464.3 1319.46  28
  -2  -2   3 16693.8 1185.91  31
   2   2   3 12643.8 1128.03  27
   2   2   3 14625.2 1299.84  15
  -2  -2   3 15966.5 1079.86  10
  -2   2  -4 22578.6 1393.22   8
  -2   2  -4 26000.5 1750.51   7
  -2  -2   4 23904.6 1541.03   1
  -2  -2   4 23434.0 1880.39   4
   2   2   4 24136.2 1485.12  41
  -2   2  -4 23901.9 1451.45  42
   2   2   4 21932.7 1486.13  39
  -2   2  -4 19943.4 1741.00  46
  -2  -2   4 22326.5 1403.35  33
  -2   2  -4 21685.2 1540.49  35
  -2   2  -4 24268.4 1887.84  29
   2  -2  -4 22363.1 1697.03  28
  -2  -2   4 21837.7 1456.19  31
   2   2   4 24447.8 1531.04  27
   2   2   4 22654.4 1673.74  15
  -2  -2   4 24252.5 1406.84  10
  -2  -2   4 23168.6 1459.64   9
  -2   2  -5 354006. 12002.9   8
  -2   2  -5 373447. 12588.7   7
  -2  -2   5 375371. 12308.2   1
  -2  -2   5 331625. 12702.8   4
  -2   2  -5 331870. 12598.7  46
   2   2   5 361931. 12177.5  41
  -2   2  -5 358736. 12061.6  42
   2   2   5 330695. 12118.9  39
  -2  -2   5 363303. 12048.6  33
  -2   2  -5 344880. 12275.6  35
  -2   2  -5 348708. 12913.9  29
   2  -2  -5 371062. 12694.9  28
  -2  -2   5 364691. 12158.6  31
   2   2   5 358533. 12087.4  27
  -2  -2   5 358604. 12114.1   9
   2   2   5 336995. 12525.0  15
  -2  -2   5 355731. 11967.0  10
  -2   2  -6 8856.76 827.882   8
  -2  -2   6 8435.99 916.915   3
  -2  -2   6 7633.55 978.001   4
  -2  -2   6 7867.69 869.242   1
  -2   2  -6 8223.21 991.394  46
   2   2   6 8830.45 883.533  41
  -2   2  -6 9477.27 859.763  42
   2   2   6 7899.81 829.674  39
   2  -2  -6 9022.02 882.687  17
  -2  -2   6 8601.12 764.905  33
  -2   2  -6 8261.85 912.085  35
  -2   2  -6 7240.66 1042.40  29
   2  -2  -6 11024.1 1117.56  28
  -2  -2   6 7819.02 829.373  31
   2   2   6 7236.89 740.361  27
   2   2   6 8167.26 981.350  15
  -2  -2   6 8254.33 778.453  10
  -2  -2   6 8718.13 856.791   9
   2   2   7 55815.1 3025.30  15
  -2  -2   7 55102.8 2711.03   9
  -2   2  -7 55453.2 2642.12   8
  -2  -2   7 63129.6 2935.17   1
  -2  -2   7 59938.2 2960.44   3
  -2  -2   7 52157.0 2893.96   4
  -2   2  -7 56163.4 2948.04  46
   2   2   7 60934.0 2883.06  41
   2  -2  -7 57436.7 3047.03  40
   2   2   7 54826.9 2721.44  39
  -2   2  -7 59345.1 2684.12  42
  -2  -2   7 57287.5 2588.82  20
   2  -2  -7 63515.5 2850.10  17
   2   2   7 50282.5 2212.75  18
  -2   2  -7 60477.9 3391.16  29
   2  -2  -7 58846.5 3057.52  28
  -2  -2   7 58735.2 2761.56  31
   2   2   7 56398.6 2532.44  27
  -2   2  -7 56388.8 2743.09  24
  -2   2  -8 201.729 212.722   8
  -2  -2   8 320.861 212.337   1
  -2  -2   8 274.618 212.496   3
  -2  -2   8 162.764 219.859   9
  -2   2  -8 335.270 248.023  46
   2   2   8 190.884 235.362  41
   2  -2  -8 123.242 186.161  43
  -2   2  -8 393.330 237.125  42
  -2  -2   8 177.643 201.231  20
   2  -2  -8 219.430 231.368  17
   2  -2  -8 296.201 160.693  19
   2   2   8 169.627 187.121  39
   2  -2  -8 150.277 232.544  28
  -2   2  -8 101.928 315.385  29
  -2  -2   8 219.808 222.683  31
   2   2   8 308.465 149.691  27
  -2  -2   8 186.005 240.536  23
  -2   2  -8 166.056 250.751  24
  -2  -2   9 196306. 7610.48   9
  -2   2  -9 212187. 7600.01   8
  -2  -2   9 212927. 7887.23   1
  -2  -2   9 213301. 7996.70   3
  -2   2  -9 200285. 7746.51  46
   2  -2  -9 208827. 7364.84  43
   2   2   9 206973. 7905.56  41
   2   2   9 189052. 7593.49  39
  -2   2  -9 211780. 7569.18  42
  -2  -2   9 210885. 7452.91  20
   2  -2  -9 191544. 7018.37  19
   2  -2  -9 239087. 7776.52  17
  -2   2  -9 241226. 8915.50  29
   2   2   9 203816. 7218.47  27
   2  -2  -9 228647. 8179.58  28
  -2  -2   9 214553. 7695.77  31
  -2   2  -9 219467. 7729.55  24
  -2  -2   9 206193. 7813.43  23
  -2   2 -10 29084.2 1737.30   8
  -2  -2  10 30250.9 1959.29   1
  -2  -2  10 27483.9 1934.61   3
  -2   2 -10 22944.1 1659.52  46
   2  -2 -10 25923.7 1522.66  43
   2   2  10 27235.0 1904.09  41
   2   2  10 25157.1 1700.08  39
  -2   2 -10 26400.1 1655.88  42
  -2  -2  10 27294.4 1609.92  20
   2  -2 -10 25731.1 1303.12  19
   2  -2 -10 30436.5 1782.04  17
  -2  -2  10 27428.6 1582.92  21
  -2   2 -10 32271.6 2030.67  35
  -2   2 -10 28421.3 2437.46  29
   2   2  10 27556.2 1420.33  27
   2  -2 -10 28902.5 1995.10  28
  -2  -2  10 29609.5 1802.62  31
  -2   2 -10 26261.4 1707.45  24
  -2  -2  10 30073.4 1914.86  23
  -2   2 -11 64694.7 3105.08  24
   2   2  11 64514.5 2739.19  21
  -2  -2  11 68398.8 3307.99  23
   2  -2 -11 62531.6 2793.40  43
  -2   2 -11 66724.5 3004.46  42
   2   2  11 58360.1 3013.38  39
  -2  -2  11 59761.0 2849.46  20
   2  -2 -11 58949.1 2475.64  19
   2  -2 -11 67009.1 3077.82  17
  -2  -2  11 62583.1 2867.38  21
  -2   2 -11 71097.9 3529.49  35
  -2   2 -11 76118.3 4571.88  29
   2  -2 -11 65967.2 3391.93  28
  -2  -2  11 64127.2 3082.18  31
  -2   2 -11 64095.5 3019.27   8
  -2  -2  11 68464.2 3347.98   1
  -2  -2  11 67542.9 3433.78   3
  -2   2 -12 6629.92 985.266  13
  -2   2 -12 4380.99 474.268  12
  -2   2 -12 4018.38 630.395   8
  -2  -2  12 5701.23 895.680   3
  -2  -2  12 4020.33 698.207   1
  -2  -2  12 5122.09 862.264  48
   2  -2 -12 3924.31 536.634  43
  -2   2 -12 4471.54 645.014  42
  -2  -2  12 4855.50 636.355  20
   2  -2 -12 4237.41 621.951  17
  -2  -2  12 4188.84 589.545  21
   2   2  12 4378.75 667.383  39
  -2   2 -12 6412.69 1033.63  35
  -2   2 -12 4307.32 1119.45  29
  -2  -2  12 4728.67 697.119  31
   2  -2 -12 5318.34 817.468  28
  -2   2 -12 4223.82 652.990  24
   2   2  12 4858.30 560.863  21
  -2   2 -12 4410.20 658.016  25
  -2  -2  12 5507.48 825.061  23
  -2   2 -13 142340. 5927.37  13
  -2   2 -13 99758.3 3801.74  12
  -2  -2  13 111594. 4836.12   1
  -2  -2  13 119177. 5054.60   3
  -2   2 -13 96460.3 4360.72   8
  -2  -2  13 102780. 4861.38  48
   2  -2 -13 99917.6 4077.73  43
  -2   2 -13 101873. 4317.34  42
  -2  -2  13 108273. 4305.08  20
   2  -2 -13 110637. 4394.35  17
  -2  -2  13 102676. 4246.37  21
   2   2  13 92703.6 4365.80  39
  -2   2 -13 113555. 5334.11  35
  -2   2 -13 84426.1 5348.36  29
  -2  -2  13 105225. 4467.44  31
   2  -2 -13 102445. 4734.61  28
   2   2  13 98773.3 3810.00  32
  -2   2 -13 102265. 4442.29  24
   2   2  13 101354. 4068.36  21
  -2   2 -13 103364. 4405.06  25
  -2  -2  13 110592. 4724.60  23
  -2   2 -14 18164.3 2079.60  13
  -2   2 -14 17339.2 1035.11  12
  -2  -2  14 19828.6 1699.13   1
  -2  -2  14 20950.9 1810.71   3
  -2   2 -14 18181.1 1439.98   8
  -2  -2  14 20958.0 1765.38  48
   2   2  14 20872.3 1783.69  41
   2  -2 -14 18679.3 1259.56  43
  -2   2 -14 16501.4 1355.86  42
  -2  -2  14 20278.0 1450.54  20
   2  -2 -14 20028.5 1430.92  17
  -2  -2  14 19216.7 1375.78  21
   2   2  14 20446.1 1549.19  39
  -2   2 -14 13848.7 1466.95  35
  -2  -2  14 21689.4 1727.08  38
  -2   2 -14 17047.2 1919.02  29
  -2  -2  14 16757.1 1225.36  26
  -2  -2  14 20855.1 1542.88  31
   2  -2 -14 20700.9 1693.22  28
   2   2  14 19403.3 1096.29  32
   2  -2 -14 18504.6 1216.31  22
  -2   2 -14 16337.1 1402.67  24
   2   2  14 19642.5 1293.06  21
  -2   2 -14 20080.8 1480.35  25
  -2  -2  14 19908.8 1622.72  23
  -2   2 -15 23660.7 2215.48  13
  -2  -2  15 32198.3 2293.69   1
  -2  -2  15 31206.7 2367.25   3
  -2   2 -15 30996.7 2014.65   8
  -2  -2  15 30425.1 2236.04  48
   2   2  15 34556.1 2441.53  41
   2  -2 -15 30469.9 1743.59  43
  -2   2 -15 32506.6 1988.94  42
  -2  -2  15 32920.2 2144.53  20
   2  -2 -15 35211.3 1959.86  17
  -2  -2  15 32240.7 1918.25  21
  -2  -2  15 31009.1 2181.71  38
   2   2  15 27895.8 1984.47  39
  -2   2 -15 30940.4 2091.72  35
  -2   2 -15 31661.7 2568.95  29
  -2  -2  15 29404.6 1979.57  31
   2  -2 -15 32524.2 2229.12  28
   2   2  15 34288.5 1590.76  32
  -2  -2  15 36776.4 2306.92  30
   2   2  15 34669.8 1831.65  21
   2  -2 -15 30566.9 1694.05  22
  -2   2 -15 31811.9 2097.15  24
  -2   2 -15 32930.7 2012.24  25
  -2  -2  15 31798.6 2175.40  23
  -2   2 -16 48911.2 3029.66  13
  -2   2 -16 51650.3 2775.78   7
  -2  -2  16 55716.6 3208.82   1
  -2  -2  16 55510.0 3308.94   3
  -2  -2  16 54285.0 3151.95  48
   2   2  16 52583.5 3221.81  41
   2  -2 -16 51394.1 2478.68  43
  -2   2 -16 50208.7 2703.37  42
  -2  -2  16 36281.7 2987.82  20
   2  -2 -16 59977.3 2759.04  17
  -2  -2  16 53957.0 2725.16  21
   2   2  16 49495.5 2873.04  39
  -2   2 -16 50151.5 2761.81  35
  -2  -2  16 51040.7 2962.92  38
  -2  -2  16 52131.3 2844.24  31
   2  -2 -16 47522.7 2986.25  28
   2   2  16 52936.0 2264.55  32
  -2  -2  16 62943.6 3208.43  30
   2   2  16 53603.4 2520.82  21
   2  -2 -16 51143.6 2421.51  22
  -2   2 -16 54700.7 2964.99  24
  -2   2 -16 50261.4 2729.99  25
  -2  -2  16 54649.1 3077.56  23
   2  -2 -17 51869.6 2751.17  14
  -2   2 -17 45052.7 2797.26  13
  -2   2 -17 45524.9 2523.83   7
  -2  -2  17 48144.9 3027.45   1
  -2  -2  17 43780.8 3038.43   3
   2   2  17 48560.0 2073.81  45
  -2  -2  17 45051.5 2837.38  48
   2   2  17 46163.8 3018.88  41
   2  -2 -17 45869.2 2307.06  43
  -2   2 -17 51060.3 2675.32  42
   2  -2 -17 54164.3 2566.03  17
  -2  -2  17 44418.6 2507.78  21
   2   2  17 38864.6 2613.53  39
  -2   2 -17 44754.7 2518.33  35
  -2  -2  17 42723.7 2705.47  38
  -2  -2  17 44411.6 2661.36  31
   2  -2 -17 44465.7 2826.35  28
  -2  -2  17 44035.3 2829.24  30
   2   2  17 48123.4 2129.61  32
   2   2  17 47833.9 2351.31  21
   2  -2 -17 47457.4 2306.28  22
  -2   2 -17 49481.8 2879.64  24
  -2   2 -17 45015.3 2578.39  25
  -2  -2  17 44872.8 2809.65  23
   2  -2 -18 48895.5 2755.15  14
  -2   2 -18 46606.6 2819.61  13
  -2  -2  18 44278.1 3016.71   1
  -2  -2  18 46577.7 3191.27   3
   2   2  18 51359.0 2188.53  45
  -2  -2  18 48661.8 2950.89  48
   2   2  18 47628.3 3111.05  41
   2  -2 -18 48804.4 2397.73  43
  -2   2 -18 48926.8 2736.43  42
  -2  -2  18 61206.4 2898.57  20
   2  -2 -18 48459.8 2495.83  17
  -2  -2  18 50664.5 2667.76  21
   2   2  18 43653.4 2826.30  39
  -2   2 -18 45889.3 2500.90  35
   2  -2 -18 47312.1 2514.58  34
  -2  -2  18 45687.1 2738.78  38
  -2   2 -18 47254.8 3171.56  29
  -2  -2  18 48792.8 2826.97  31
   2  -2 -18 42882.4 2893.15  28
  -2  -2  18 51908.1 3050.01  30
   2   2  18 51084.0 2226.74  32
   2   2  18 47798.6 2389.26  21
   2  -2 -18 44336.1 2301.53  22
  -2   2 -18 53386.1 3204.14  24
  -2  -2  18 47273.0 2926.46  23
   2  -2 -19 58335.8 3193.53  14
  -2   2 -19 63538.6 3311.21  13
  -2  -2  19 56509.0 3563.13   1
  -2  -2  19 63962.6 3855.97   3
   2   2  19 67928.8 2656.94  45
  -2  -2  19 57860.8 3345.75  48
   2   2  19 61030.7 3602.20  41
   2  -2 -19 56269.5 2725.59  43
  -2   2 -19 55488.0 3116.98  42
  -2  -2  19 68359.5 2978.08  20
   2  -2 -19 58477.8 2878.91  17
  -2  -2  19 52979.7 2978.09  21
  -2   2 -19 57263.4 2876.54  35
   2   2  19 56288.7 3374.43  39
  -2  -2  19 58633.3 3148.89  38
   2  -2 -19 55655.9 2890.65  34
  -2   2 -19 62781.3 3678.08  29
  -2  -2  19 55924.2 3230.63  31
   2  -2 -19 62464.4 3542.03  28
  -2  -2  19 64543.7 3516.57  30
   2   2  19 62797.7 2844.58  21
   2  -2 -19 61136.2 2794.48  22
  -2   2 -19 65515.3 4061.16  24
  -2  -2  19 61160.2 3463.77  23
   2  -2 -20 8795.91 1093.82  14
  -2   2 -20 7921.67 1038.71  13
  -2  -2  20 6611.59 1113.61   1
  -2  -2  20 8542.01 1305.20   3
   2   2  20 8706.58 748.631  45
  -2  -2  20 7465.34 1088.92  48
   2   2  20 9096.14 1244.57  41
   2  -2 -20 8246.80 797.339  43
  -2   2 -20 5782.72 951.345  42
  -2  -2  20 8845.36 827.619  20
   2  -2 -20 6599.77 779.736  17
  -2  -2  20 6529.28 898.564  21
   2  -2 -20 7349.40 887.939  34
  -2   2 -20 7190.68 808.553  35
  -2  -2  20 6071.75 862.789  38
  -2   2 -20 7576.40 1136.22  29
  -2  -2  20 6672.79 1031.92  31
   2  -2 -20 7567.97 1103.54  28
  -2  -2  20 9761.64 1219.73  30
   2  -2 -20 7774.56 804.455  22
   2   2  20 7531.44 803.085  21
  -2   2 -20 5661.51 1144.91  24
  -2  -2  20 8110.66 1157.05  23
   2  -2 -21 19519.5 1645.98  14
  -2   2 -21 17930.6 1561.39  13
  -2  -2  21 14832.6 1747.22   1
  -2  -2  21 18143.6 1971.51   3
   2   2  21 17727.8 1173.18  45
  -2  -2  21 20440.3 1761.92  48
   2   2  21 17323.3 1763.70  41
   2  -2 -21 17208.3 1204.17  43
   2  -2 -21 20852.1 1439.79  17
  -2  -2  21 18548.9 1581.61  21
   2  -2 -21 19604.5 1497.92  34
  -2  -2  21 18168.3 1462.51  38
  -2   2 -21 19826.8 1851.04  29
  -2  -2  21 17192.0 1763.24  31
   2  -2 -21 16956.1 1773.42  28
  -2  -2  21 23017.8 1957.24  30
  -2   2 -21 18186.3 1777.59  24
   2  -2 -21 17948.9 1290.37  22
   2   2  21 19903.7 1343.23  21
  -2  -2  21 19355.6 1791.96  23
  -2   2 -22 3581.26 685.226  13
   2  -2 -22 4078.27 741.892  14
  -2  -2  22 3125.35 730.484  48
   2   2  22 3935.48 521.417  45
   2  -2 -22 4503.66 559.550  43
   2  -2 -22 2842.63 567.292  34
  -2  -2  22 3410.79 608.683  38
  -2  -2  22 4069.40 844.600  23
   2  -2 -22 3878.50 549.699  22
   2   2  22 3974.99 571.946  21
  -2  -2  22 4363.03 961.568  31
  -2  -2  22 4159.30 820.643  30
  -2  -2  22 3571.18 698.096  21
   2  -2 -23 282232. 10135.1  14
  -2   2 -23 277386. 10074.6  13
  -2  -2  23 266168. 10042.0  21
   2   2  23 268476. 9321.02  45
  -2  -2  23 261294. 10255.0  48
  -2  -2  23 265786. 9591.91  38
   2  -2 -23 254781. 9662.81  34
  -2  -2  23 296486. 10556.2  31
   2  -2 -23 267020. 9404.18  22
   2   2  23 263105. 9360.60  23
   2   2  23 297996. 9610.26  21
  -2  -2  23 269543. 10499.1  23
   2  -2 -24 10743.0 1161.14  14
  -2   2 -24 9719.68 1108.78  13
  -2  -2  24 10875.2 1159.51  21
   2   2  24 9363.86 822.357  45
  -2  -2  24 11377.6 1256.46  48
   2  -2 -24 8726.63 904.736  34
  -2  -2  24 11097.1 933.433  38
  -2  -2  24 11165.8 1233.91  31
   2  -2 -24 10008.7 864.167  22
   2   2  24 9998.47 858.215  23
   2   2  24 11968.5 988.233  21
  -2  -2  24 8524.37 1239.84  23
   2  -2 -25 42523.1 2442.01  14
  -2   2 -25 40636.5 2399.67  13
  -2  -2  25 42595.4 2427.44  21
   2   2  25 38311.8 1945.54  45
  -2  -2  25 39584.0 2538.23  48
   2  -2 -25 38774.7 2115.72  34
  -2  -2  25 39696.5 2450.92  31
   2  -2 -25 35724.7 1978.30  24
   2   2  25 41284.4 2012.04  23
   2  -2 -25 40789.2 1966.35  22
  -2  -2  25 39139.6 2590.50  23
   2  -2 -26 53088.3 2848.53  14
  -2   2 -26 55171.5 2889.38  13
  -2  -2  26 54973.6 2862.50  21
   2   2  26 53156.0 2439.10  45
  -2  -2  26 52903.2 3014.54  48
   2  -2 -26 56672.6 2632.06  34
  -2  -2  26 56767.8 2948.63  31
   2  -2 -26 48526.3 2402.82  24
  -2   2 -26 51875.3 2766.96  24
   2   2  26 57765.1 2527.02  23
   2  -2 -26 59078.9 2448.51  22
  -2  -2  26 59124.5 3196.72  23
   2  -2 -27 450.412 336.766  14
   2   2  27 469.063 224.375  45
  -2  -2  27 743.604 324.346  21
   2  -2 -27 796.672 279.772  34
  -2  -2  27 888.580 399.857  36
  -2  -2  27 459.147 276.901  31
   2   2  27 583.677 234.235  23
  -2  -2  27 638.139 336.588  23
   2  -2 -27 341.343 174.581  22
   2  -2 -27 188.446 165.533  24
  -2   2 -27 714.199 303.676  24
   2  -2 -28 5110.14 539.081  24
  -2   2 -28 4595.62 653.456  24
   2   2  28 5918.33 627.033  23
   2  -2 -28 5206.84 518.066  22
  -2  -2  28 5580.84 807.827  23
  -2   2 -28 5181.78 675.398  42
  -2  -2  28 4861.88 684.684  21
   2  -2 -28 4867.04 602.020  34
  -2  -2  28 5482.43 729.467  31
   2  -2 -28 5336.76 718.540  14
   2  -2 -29 5021.90 670.644  14
  -2  -2  29 5352.72 734.638  48
  -2   2 -29 5454.76 659.717  42
  -2  -2  29 3711.31 560.666  21
   2  -2 -29 3962.11 522.569  34
   2   2  29 4763.91 506.463  31
   2  -2 -29 4064.57 463.744  24
  -2  -2  29 4221.32 701.322  23
  -2   2 -29 4842.74 621.661  24
   2   2  29 4325.25 541.605  23
   2  -2 -30 46369.4 2315.23  14
  -2   2 -30 49753.1 2347.92  13
   2   2  30 52043.2 2291.34  44
  -2  -2  30 46333.3 2406.07  48
  -2   2 -30 45731.7 2255.18  42
  -2  -2  30 45306.6 2290.69  21
   2  -2 -30 46799.5 2174.02  34
  -2  -2  30 45945.3 2323.84  36
   2   2  30 48046.0 2077.05  31
   2   2  30 47107.6 2185.73  23
  -2  -2  30 45460.4 2484.82  23
   2  -2 -31 4861.02 587.781  14
  -2   2 -31 6000.67 628.200  13
   2   2  31 5180.83 604.419  47
   2   2  31 5775.21 596.055  44
  -2  -2  31 5545.78 662.574  48
  -2   2 -31 4944.33 579.002  42
   2  -2 -31 5984.01 581.728  34
  -2  -2  31 6103.84 652.621  36
   2   2  31 5538.74 580.036  23
  -2  -2  31 5661.75 721.587  23
   2   2  31 5124.22 509.488  31
  -2  -2  31 5813.15 636.132  21
   2  -2 -32 2995.52 437.576  14
  -2   2 -32 2610.32 391.602  13
   2   2  32 3493.49 456.619  47
  -2  -2  32 3332.32 454.686  48
  -2  -2  32 3335.46 445.682  21
   2  -2 -32 3484.03 420.285  34
  -2  -2  32 3616.77 456.425  36
   2   2  32 2688.07 367.253  31
  -2  -2  32 3414.30 456.806  31
   2   2  32 3650.69 450.015  23
   2   2  33 39687.6 1761.86  47
  -2  -2  33 36017.4 1626.00  36
   2  -2 -33 40609.1 1720.23  34
  -2   2 -33 35334.4 1595.77  13
  -2   2 -33 36108.5 1784.61   8
   2   2  33 38623.6 1747.25  23
   2   2  34 952.915 229.261  47
   2   2  35 16459.1 864.060  47
  -2  -3 -33 5804.46 532.657  26
  -2  -3 -33 6975.28 571.670  50
  -2  -3 -32 36746.3 1717.21  50
  -2  -3 -32 34870.4 1721.99  26
  -2  -3 -31 11620.1 944.382  50
  -2   3  31 12205.0 972.654  45
   2  -3  31 11272.0 737.991  20
  -2   3  31 14950.5 995.192   5
  -2  -3 -31 11511.8 792.719  37
  -2   3  31 13101.5 981.952  32
  -2  -3 -31 12591.1 1006.51  26
  -2   3  30 73317.2 2917.14  12
   2   3 -30 73100.0 2903.03  14
  -2   3  30 78119.0 3166.44  11
  -2  -3 -30 93226.9 3619.24  50
  -2   3  30 78623.4 3473.42  45
   2  -3  30 84025.4 3104.63  20
  -2   3  30 89365.7 3494.37   5
  -2  -3 -30 85515.6 3294.61  37
   2  -3  30 74606.8 2929.32  33
   2   3 -30 85847.8 3010.20  35
  -2   3  30 79203.7 3457.98  32
  -2   3  30 76759.6 3340.03  30
  -2  -3 -30 81805.3 3584.05  26
  -2   3  29 6369.17 684.319  11
  -2   3  29 6823.60 607.837  12
   2   3 -29 7178.60 595.592  14
  -2   3  29 8171.56 885.426  45
  -2  -3 -29 6960.90 849.302  50
   2  -3  29 7184.20 648.454  20
  -2   3  29 8844.27 872.867   5
  -2  -3 -29 8160.60 798.900  37
   2   3 -29 9029.53 642.717  35
  -2   3  29 6962.89 823.560  32
  -2   3  29 6125.10 729.653  30
   2   3 -29 7914.31 607.240  24
  -2  -3 -29 7219.94 642.746  22
  -2  -3 -29 8381.01 965.748  26
  -2   3  28 32352.3 1802.14  11
  -2   3  28 31167.3 1627.60  12
   2   3 -28 29951.0 1561.58  14
  -2   3  28 30731.7 1992.47  45
  -2  -3 -28 36464.3 2149.07  50
   2  -3  28 32737.5 1649.99  20
  -2   3  28 34377.8 2033.62   5
  -2  -3 -28 35271.6 1955.03  37
   2   3 -28 33199.2 1571.67  35
  -2   3  28 33765.5 2035.41  32
  -2  -3 -28 32895.4 1660.08  22
   2   3 -28 32780.6 1557.44  24
  -2  -3 -28 33877.9 2187.09  26
  -2   3  27 4591.08 639.745  11
  -2   3  27 4620.07 567.835  12
   2   3 -27 4727.94 538.063  14
  -2   3  27 4330.66 719.100  45
  -2   3  27 3707.73 584.146  47
  -2  -3 -27 5795.61 830.836  50
   2  -3  27 4248.23 526.207  20
  -2   3  27 4660.13 727.944   5
   2  -3  27 4296.65 490.302  33
  -2  -3 -27 3818.73 660.656  37
   2   3 -27 5109.78 519.515  35
  -2   3  27 3028.82 601.584  32
  -2  -3 -27 4153.47 529.370  22
   2   3 -27 4950.72 509.234  24
  -2  -3 -27 3827.15 743.894  26
  -2   3  26 47.4897 215.075  12
   2   3 -26 207.178 174.709  14
  -2   3  26 73.2730 209.877   5
  -2   3  26-77.6630 240.268  45
  -2   3  26 456.858 305.996  47
  -2  -3 -26 814.440 446.654  50
   2  -3  26 244.285 184.397  20
   2  -3  26-36.6895 135.697  33
  -2  -3 -26 69.6890 315.590  37
   2   3 -26 103.590 139.897  35
  -2   3  26 73.9037 244.423  32
   2   3 -26 208.966 141.102  24
  -2  -3 -26 42.9086 194.333  22
  -2  -3 -26 177.638 359.754  26
  -2   3  25 1264.11 361.352  12
   2   3 -25 1317.07 329.815  14
  -2   3  25 786.332 381.213   5
  -2   3  25 985.850 431.462  45
  -2   3  25 1193.49 404.287  47
  -2  -3 -25 2119.57 603.447  50
  -2  -3 -25 1485.62 347.510  43
   2  -3  25 1030.96 312.227  20
  -2  -3 -25 1910.58 530.165  37
   2  -3  25 1779.28 348.298  33
   2   3 -25 1715.70 335.783  35
  -2   3  25 1176.28 460.211  32
   2   3 -25 1254.08 285.660  24
  -2  -3 -25 955.469 312.805  22
  -2  -3 -25 1246.68 562.075  26
  -2   3  24 33473.2 1966.08  12
   2   3 -24 32521.7 1833.52  14
  -2   3  24 32544.3 2254.21   5
  -2   3  24 34555.1 2126.17  47
  -2   3  24 33694.1 2315.71  45
   2   3 -24 32075.6 1518.94  46
  -2  -3 -24 34148.3 2436.47  50
  -2  -3 -24 34817.6 1853.81  43
  -2  -3 -24 34057.5 1993.11  19
   2  -3  24 35704.7 1845.19  20
   2  -3  24 31885.0 1751.17  33
  -2  -3 -24 37029.2 2359.86  37
   2   3 -24 33885.8 1711.46  35
  -2   3  24 31563.1 2189.88  32
  -2  -3 -24 29742.9 1774.98  22
   2   3 -24 34261.4 1712.06  24
  -2  -3 -24 36920.4 2585.60  26
  -2   3  23 66628.6 3307.51  12
   2   3 -23 73677.2 3251.54  14
  -2   3  23 71618.3 3752.99   5
   2   3 -23 72038.9 2843.74  46
  -2   3  23 72250.4 3601.41  47
  -2   3  23 75673.5 3859.84  45
  -2  -3 -23 73864.3 3990.32  50
  -2  -3 -23 72419.6 3187.67  43
  -2  -3 -23 75331.3 3407.47  19
   2  -3  23 67912.5 3110.79  20
  -2  -3 -23 69736.0 3739.53  37
   2   3 -23 78239.3 3092.46  35
  -2   3  23 69158.8 3694.67  32
  -2  -3 -23 69119.8 3156.67  22
   2   3 -23 78988.6 3084.07  24
  -2  -3 -23 70663.3 4088.22  26
  -2   3  22 1186.27 395.782  12
   2   3 -22 1437.24 385.322  14
  -2   3  22 1450.76 532.209   5
  -2   3  22 2153.36 601.457  45
   2   3 -22 1460.73 286.743  46
  -2   3  22 1566.30 503.091  47
  -2  -3 -22 1712.28 651.909  50
  -2  -3 -22 2713.32 476.034  43
   2  -3  22 1430.59 368.701  20
  -2  -3 -22 1921.82 460.894  19
  -2  -3 -22 1975.63 604.349  37
   2   3 -22 1155.48 305.061  35
  -2   3  22 2017.76 599.988  32
   2   3 -22 1515.12 335.110  24
  -2  -3 -22 1484.84 381.602  22
  -2  -3 -22 822.401 534.138  26
  -2   3  21 7428.49 892.182  12
   2   3 -21 7786.38 851.169  14
  -2   3  21 5650.86 692.444   7
  -2   3  21 7288.34 1032.46   5
   2  -3  21 6719.07 746.877  48
  -2   3  21 8252.09 1114.92  47
  -2   3  21 8339.35 1145.06  45
  -2  -3 -21 7516.20 1180.40  50
  -2  -3 -21 7512.86 784.613  43
  -2  -3 -21 8714.78 941.655  19
  -2   3  21 4733.67 906.951  18
   2  -3  21 7969.72 809.408  20
  -2  -3 -21 5834.63 986.868  37
   2   3 -21 8003.36 749.846  35
  -2   3  21 7306.78 1030.00  32
  -2  -3 -21 8631.90 849.562  22
   2   3 -21 8183.49 739.480  24
  -2  -3 -21 6076.52 1149.83  26
  -2   3  20 919.104 356.666   7
  -2   3  20 1621.70 524.009   5
   2  -3  20 1211.81 345.545  48
  -2   3  20 803.882 440.625  45
  -2   3  20 1093.66 520.737  47
  -2  -3 -20 584.445 512.243  50
  -2  -3 -20 1033.02 326.599  43
  -2   3  20 912.942 544.331  18
  -2  -3 -20 1042.15 366.465  19
  -2  -3 -20 723.062 452.887  37
   2   3 -20 1262.47 323.316  35
  -2   3  20 868.642 360.332  12
   2   3 -20 418.870 298.349  14
   2   3 -20 1169.78 302.608  24
  -2  -3 -20 1083.56 330.522  22
  -2  -3 -20 693.631 513.798  26
  -2   3  19 10460.1 1049.16   7
  -2   3  19 12199.1 1406.61   5
   2  -3  19 12574.2 1043.04  48
  -2   3  19 12260.5 1429.70  47
   2   3 -19 11660.5 905.611  46
  -2  -3 -19 12362.3 1540.23  50
  -2  -3 -19 11817.5 1034.09  43
  -2   3  19 7945.49 1248.21  18
  -2  -3 -19 15287.2 1262.69  19
  -2  -3 -19 12390.4 1442.65  37
   2   3 -19 14857.1 1053.85  35
  -2   3  19 11647.8 1182.48  12
   2   3 -19 12637.6 1137.65  14
  -2  -3 -19 13139.5 1110.09  22
   2   3 -19 14172.5 1000.60  24
  -2  -3 -19 9364.64 1580.52  26
  -2   3  18 86794.8 4147.55   7
  -2   3  18 87934.0 4587.26   5
   2  -3  18 104326. 4040.68  48
  -2   3  18 88794.6 4613.75  47
  -2  -3 -18 98983.8 5037.84  50
  -2  -3 -18 92522.7 3960.21  43
  -2   3  18 88695.0 4718.39  18
  -2  -3 -18 101661. 4298.49  19
   2  -3  18 90696.1 3898.63  20
  -2  -3 -18 101855. 4852.97  37
   2   3 -18 98413.5 3909.73  35
  -2  -3 -18 90371.8 4049.54  22
   2   3 -18 105359. 3870.54  24
  -2  -3 -18 93209.4 5676.10  26
  -2   3  18 91180.2 4254.46  12
   2   3 -18 99571.3 4200.73  14
  -2   3  17 11531.2 1167.32  12
   2   3 -17 10282.3 1059.43  14
   2  -3  17 11040.8 1132.55  16
   2   3 -17 8666.63 1168.01  15
  -2  -3 -17 11669.1 1869.02   4
  -2   3  17 12422.7 1479.75   2
  -2   3  17 12317.3 1197.52   7
  -2   3  17 12667.5 1609.72  45
  -2   3  17 11493.6 1327.52  47
  -2  -3 -17 14561.4 1628.78  50
  -2  -3 -17 10846.3 988.790  43
   2   3 -17 11409.2 1411.65  39
  -2   3  17 9506.39 1294.55  18
  -2  -3 -17 12360.9 1180.57  19
   2  -3  17 10593.4 945.661  20
  -2  -3 -17 13134.0 1447.16  37
   2   3 -17 11658.6 947.612  35
   2   3 -17 11601.5 1533.12  27
  -2   3  17 12221.0 1350.34  32
   2   3 -17 12156.2 927.267  24
  -2  -3 -17 12086.2 1766.89  26
  -2  -3 -17 10172.2 1064.64  22
  -2   3  16 169711. 6755.92  12
   2   3 -16 176574. 6702.28  14
   2  -3  16 159015. 6683.92  16
   2   3 -16 164262. 7146.70  15
  -2  -3 -16 168039. 8702.32   4
  -2   3  16 168148. 7493.87   2
  -2   3  16 161412. 6771.65   7
  -2   3  16 228841. 8913.90  45
  -2   3  16 175873. 7102.17  47
  -2  -3 -16 185968. 7633.42  50
  -2  -3 -16 178049. 6500.10  43
   2   3 -16 156971. 7380.25  39
   2  -3  16 176777. 6410.37  20
  -2   3  16 154180. 7255.24  18
  -2  -3 -16 191919. 6849.45  19
  -2  -3 -16 180260. 7330.26  37
   2   3 -16 180874. 6364.71  35
   2   3 -16 179509. 7913.82  27
  -2   3  16 173160. 7234.18  32
   2   3 -16 186652. 6269.51  24
  -2  -3 -16 192088. 8248.47  26
  -2   3  15 105275. 4660.25  12
   2   3 -15 110490. 4668.29  14
   2   3 -15 101287. 5016.46  15
  -2  -3 -15 105903. 6478.06   4
  -2   3  15 96786.9 5241.24   2
  -2   3  15 101141. 4786.22   7
  -2   3  15 156713. 8020.74  45
  -2   3  15 108246. 4955.37  47
  -2  -3 -15 110845. 5337.23  50
  -2  -3 -15 107868. 4492.67  43
   2  -3  15 96690.7 4942.72  40
   2   3 -15 100920. 5253.82  39
  -2   3  15 96424.8 5103.82  18
  -2  -3 -15 120360. 4792.44  19
   2  -3  15 106828. 4354.77  20
  -2  -3 -15 112895. 5148.31  37
   2   3 -15 111854. 4353.03  35
  -2  -3 -15 107365. 4587.87  33
   2   3 -15 113087. 5762.27  27
  -2   3  15 111655. 5193.99  32
   2   3 -15 120093. 4270.49  24
  -2  -3 -15 114206. 5760.99  26
  -2  -3 -15 136815. 5440.28  22
  -2   3  14 20655.8 1553.40  12
   2   3 -14 20766.6 1527.93  14
   2  -3  14 19305.8 1504.78  16
   2   3 -14 20152.2 1756.77  15
  -2  -3 -14 20953.3 2551.60   4
  -2   3  14 18847.4 1856.37   2
  -2   3  14 17374.8 1571.32   7
  -2   3  14 17640.3 2253.90  45
  -2   3  14 18434.7 1602.69  47
  -2  -3 -14 22997.6 1968.53  50
   2  -3  14 20475.6 1753.70  40
   2   3 -14 20433.5 1913.86  39
  -2   3  14 18569.5 1814.64  18
  -2  -3 -14 23682.8 1636.09  19
   2  -3  14 18385.3 1286.14  20
  -2  -3 -14 20472.6 1756.94  37
   2   3 -14 21746.5 1362.21  35
  -2  -3 -14 20237.1 1513.48  33
   2   3 -14 22157.7 2151.89  27
  -2   3  14 21692.7 1910.45  32
  -2  -3 -14 24103.3 1636.63  22
  -2  -3 -14 21102.9 2043.94  26
  -2   3  13 66696.3 3351.00  11
  -2   3  13 62071.9 3121.10  12
   2   3 -13 63506.0 3138.53  14
   2  -3  13 64011.4 3172.33  16
  -2  -3 -13 70209.6 4962.68   4
  -2   3  13 63923.4 3742.95   2
  -2   3  13 61739.1 3359.54   7
  -2   3  13 60159.0 3682.02  46
  -2   3  13 67597.0 3998.56  45
  -2   3  13 62572.3 3328.62  47
  -2  -3 -13 69782.1 3754.31  50
   2  -3  13 64302.1 3510.80  40
   2   3 -13 62029.5 3661.35  39
  -2   3  13 61220.9 3593.04  18
  -2  -3 -13 69819.0 3228.37  19
   2  -3  13 59439.4 2788.04  20
  -2  -3 -13 64188.8 3481.83  37
  -2  -3 -13 62433.9 3128.33  33
   2   3 -13 68507.8 2906.37  35
   2   3 -13 66856.8 4045.30  27
  -2   3  13 78110.8 4150.70  32
  -2  -3 -13 67973.7 2990.38  22
  -2  -3 -13 64225.7 3839.07  26
  -2   3  12 129701. 5461.02  11
  -2   3  12 130023. 5262.00  12
   2  -3  12 124999. 5284.24  16
  -2  -3 -12 135733. 7543.92   4
  -2   3  12 114755. 5802.51   2
  -2   3  12 130342. 5630.27   7
  -2  -3 -12 123673. 5209.83   6
  -2   3  12 119761. 5890.26  46
  -2   3  12 132957. 5541.66  47
  -2   3  12 138175. 5979.23  45
   2  -3  12 131136. 5717.41  40
   2   3 -12 128847. 5916.98  39
  -2   3  12 118291. 5769.49  18
   2  -3  12 126109. 4869.64  20
  -2  -3 -12 136953. 5691.77  37
  -2  -3 -12 129330. 5268.15  33
   2   3 -12 136735. 6396.27  27
  -2  -3 -12 138440. 6130.08  26
  -2   3  11 63104.5 3152.54  11
  -2   3  11 59479.4 2945.56  12
   2  -3  11 60124.4 3003.45  16
  -2  -3 -11 64250.0 4914.19   4
  -2   3  11 52113.4 3345.22   2
  -2  -3 -11 56771.3 2898.71   6
  -2   3  11 54335.3 3468.33  46
  -2   3  11 59472.9 3146.31  47
  -2   3  11 62760.7 3363.40  45
  -2  -3 -11 60732.6 3394.98  50
   2  -3  11 62494.1 3365.95  40
   2   3 -11 60612.4 3498.12  39
  -2   3  11 55420.2 3376.12  18
   2  -3  11 59289.0 2607.53  20
  -2  -3 -11 62735.7 3292.01  37
  -2  -3 -11 60449.1 2975.48  33
   2   3 -11 66686.1 3894.22  27
  -2  -3 -11 65326.9 3640.24  26
   2   3 -10 35387.9 2513.22  15
  -2   3  10 41855.1 2294.43  12
   2  -3  10 43254.1 2380.37  16
  -2   3  10 42648.4 2435.91  11
  -2  -3 -10 47035.3 4430.96   4
  -2   3  10 40480.9 2747.21   2
  -2  -3 -10 39459.3 2253.54   6
  -2   3  10 37646.3 2730.69  46
  -2   3  10 44444.3 2510.07  47
  -2   3  10 40610.7 2509.88  45
  -2  -3 -10 42215.7 2674.99  50
   2   3 -10 41662.4 2742.53  39
   2  -3  10 38494.8 2530.18  40
  -2   3  10 38815.1 2711.51  18
  -2  -3 -10 49364.1 2488.58  19
   2  -3  10 41969.4 1971.10  20
  -2  -3 -10 44733.9 2585.67  37
  -2  -3 -10 42403.1 2293.91  33
   2   3 -10 44366.4 2116.21  35
   2   3 -10 46415.3 3095.16  27
  -2   3  10 30904.7 2850.53  32
  -2  -3 -10 43074.1 2825.71  26
   2   3  -9 49296.9 2931.08  15
  -2   3   9 47818.1 2474.03  12
   2  -3   9 47597.2 2564.14  16
  -2   3   9 47716.0 2617.84  11
  -2  -3  -9 29087.1 4314.09   4
  -2   3   9 42933.1 2864.15   2
  -2   3   9 49602.1 2900.94   7
  -2  -3  -9 46662.3 2466.28   6
  -2   3   9 45002.2 3040.08  46
  -2   3   9 48901.7 2689.02  47
  -2   3   9 45207.2 2628.12  45
  -2  -3  -9 48030.2 2877.47  50
   2   3  -9 49244.9 2982.94  39
   2  -3   9 50675.2 2879.34  40
  -2   3   9 46079.2 2958.22  18
  -2  -3  -9 57669.9 2740.99  19
   2  -3   9 44944.8 2108.76  20
  -2  -3  -9 50361.0 2768.93  37
  -2  -3  -9 48979.5 2536.73  33
   2   3  -9 54806.7 2352.28  35
   2   3  -9 56007.5 3391.80  27
  -2   3   9 43096.1 2432.57  29
  -2   3   9 49877.9 2981.97  32
  -2  -3  -9 46331.5 2971.11  26
  -2  -3  -8 29996.4 4804.52   4
  -2   3   8 18831.7 1717.35   2
  -2   3   8 18299.8 1647.01   7
  -2  -3  -8 19879.3 1359.50   9
  -2   3   8 17953.1 1786.94  46
  -2   3   8 21433.4 1616.60  47
  -2   3   8 20589.7 1548.15  45
  -2  -3  -8 22666.0 1808.43  50
   2   3  -8 21786.2 1830.51  39
   2  -3   8 18298.9 1626.50  40
  -2  -3  -8 24211.4 1657.71  19
   2  -3   8 21250.9 1185.56  20
  -2  -3  -8 17617.2 1389.75  33
  -2  -3  -8 19267.1 1585.25  37
   2   3  -8 22515.6 1308.28  35
   2   3  -8 25100.0 2120.47  27
  -2   3   8 18276.5 1460.78  29
  -2   3   8 21919.1 1678.64  32
   2   3  -8 24385.8 1890.45  15
  -2   3   8 20029.1 1424.57  12
   2  -3   8 21034.8 1544.15  16
  -2   3   8 22381.0 1600.09  11
  -2   3   7 7208.17 1015.79   2
  -2   3   7 6850.31 1022.32   7
  -2  -3  -7 8714.96 2033.93   4
  -2  -3  -7 8055.99 809.033   9
  -2   3   7 8074.73 1161.12  46
  -2   3   7 8076.63 954.586  47
  -2   3   7 6437.30 805.352  45
  -2  -3  -7 8876.71 1091.72  50
   2   3  -7 8876.61 1098.56  39
   2  -3   7 9129.95 1105.07  40
  -2  -3  -7 10393.0 1110.69  19
   2  -3   7 8393.54 656.791  20
  -2  -3  -7 8581.61 989.288  37
   2   3  -7 8597.32 730.343  35
  -2  -3  -7 8989.10 919.214  33
   2   3  -7 8517.06 1194.30  27
  -2   3   7 7383.51 909.760  29
  -2   3   7 7413.94 873.181  32
   2   3  -7 8111.36 1070.86  15
  -2   3   7 7754.56 822.989  12
   2  -3   7 7441.59 884.174  16
  -2   3   7 7796.32 912.004  11
  -2   3   6 11360.9 1263.24   2
  -2   3   6 11446.2 1267.32   7
  -2  -3  -6 12766.2 1022.09   9
  -2   3   6 10059.5 1290.51  46
  -2   3   6 11088.5 1115.14  47
  -2  -3  -6 12111.2 1265.74  50
   2   3  -6 9664.44 1173.25  39
   2  -3   6 12146.3 1251.51  40
  -2  -3  -6 12446.4 1061.15  20
  -2   3   6 10914.9 1328.83  18
  -2  -3  -6 9385.66 1254.80  19
  -2  -3  -6 12132.6 1171.22  37
   2   3  -6 12304.7 873.195  35
  -2  -3  -6 11330.4 1026.36  33
   2   3  -6 11591.1 1378.07  27
  -2   3   6 12789.7 1230.82  29
  -2   3   6 11688.8 1004.18  12
   2   3  -6 10696.5 1232.35  15
   2  -3   6 12678.3 1138.04  16
  -2   3   6 11491.5 1095.26  11
   2   3  -5 49036.8 2930.21  15
  -2   3   5 50796.8 2597.86  11
   2  -3   5 46492.7 2577.77  16
  -2   3   5 46861.2 2404.17  12
  -2   3   5 45299.0 2809.51   2
  -2  -3  -5 45699.3 3780.07   4
  -2   3   5 46721.3 2868.85   7
  -2  -3  -5 49947.2 2438.23   9
  -2   3   5 44424.8 2964.23  46
  -2   3   5 48274.7 2617.56  47
  -2  -3  -5 51421.9 2885.35  50
  -2  -3  -5 50225.2 2970.17  49
   2   3  -5 47595.3 2865.90  39
   2  -3   5 46039.8 2781.71  40
  -2  -3  -5 48812.9 2491.71  20
  -2   3   5 51377.6 3161.72  18
  -2  -3  -5 50021.2 2688.28  37
   2   3  -5 52099.5 2197.85  35
  -2  -3  -5 49979.4 2500.84  33
   2   3  -5 55764.5 3220.68  27
  -2   3   5 48073.5 2780.50  29
  -2  -3  -5 50125.8 2961.81  26
   2   3  -4 44039.3 2750.59  15
  -2   3   4 45796.3 2449.08  11
  -2   3   4 46005.7 2304.51  12
  -2   3   4 45143.1 2708.85   2
  -2  -3  -4 47306.8 3660.35   4
  -2   3   4 48661.0 2840.87   7
  -2  -3  -4 43361.8 2287.56   9
  -2   3   4 45920.8 2951.71  46
  -2   3   4 44882.1 2494.75  47
  -2  -3  -4 45208.3 2682.76  50
  -2  -3  -4 46961.1 2850.94  49
   2   3  -4 46736.7 2787.93  39
  -2   3   4 40342.6 2311.65  42
   2  -3   4 46577.5 2732.32  40
  -2  -3  -4 44544.9 2236.90  44
  -2  -3  -4 46766.3 2411.47  20
  -2   3   4 49710.9 3284.70  18
  -2  -3  -4 43069.5 2478.18  37
   2   3  -4 50682.9 2077.81  35
  -2  -3  -4 49101.3 2425.81  33
   2   3  -4 49695.7 2960.24  27
  -2   3   4 43656.6 2696.01  29
  -2  -3  -4 48298.5 2844.45  26
   2   3  -3 7320.56 1008.84  15
  -2  -3  -3 7727.93 804.982  10
  -2   3   3 7476.64 848.092  11
  -2   3   3 6742.67 734.928  12
  -2   3   3 5961.88 855.839   2
  -2   3   3 7719.05 1026.32   7
  -2  -3  -3 8314.61 1389.17   4
  -2  -3  -3 6961.67 760.341   9
  -2   3   3 6974.69 1084.66  46
  -2   3   3 6472.27 819.018  47
  -2  -3  -3 7862.59 1008.30  50
  -2  -3  -3 7035.37 990.157  49
   2   3  -3 6782.43 935.055  39
  -2   3   3 7399.98 823.998  42
   2  -3   3 7063.46 956.609  40
  -2  -3  -3 7450.23 732.840  44
  -2  -3  -3 7086.05 807.950  20
  -2  -3  -3 9367.16 894.497  19
  -2   3   3 7261.66 1365.54  18
  -2  -3  -3 6796.44 853.483  37
   2  -3   3 6163.52 607.462  33
  -2  -3  -3 7378.05 803.819  33
   2   3  -3 7408.30 606.545  35
   2   3  -3 7987.40 1052.17  27
  -2   3   3 8999.87 1083.27  29
  -2  -3  -3 6486.61 977.880  26
   2   3  -2 53688.8 3109.79  15
  -2  -3  -2 54443.9 2632.35  10
  -2   3   2 53810.4 2713.74  11
  -2   3   2 55048.6 2547.49  12
  -2  -3  -2 49446.1 3616.70   4
  -2   3   2 56819.9 3147.59   7
  -2  -3  -2 56046.7 2659.40   9
  -2   3   2 55421.2 3325.41  46
  -2   3   2 51377.5 2720.36  47
  -2  -3  -2 54450.4 3122.77  49
  -2   3   2 55310.3 2685.80  42
   2   3  -2 54459.9 3037.70  39
   2  -3   2 54138.3 3015.62  40
   2   3  -2 51659.1 2590.80  41
  -2  -3  -2 53837.8 2507.68  44
   2  -3   2 52711.6 2363.46  17
  -2  -3  -2 53157.0 2637.66  20
  -2   3   2 42124.5 3446.77  18
  -2  -3  -2 67487.0 2686.22  19
  -2  -3  -2 54012.9 2769.26  37
   2  -3   2 51901.7 2308.99  33
   2   3  -2 58761.8 2260.96  35
  -2   3   2 53477.4 2972.04  35
   2  -3   2 53106.7 3142.82  28
   2   3  -2 57221.3 3157.20  27
  -2   3   2 56508.8 3159.96  29
  -2  -3  -2 56667.3 3092.86  26
   2   3  -1 4442.35 776.684  15
  -2   3   1 3471.61 559.249  11
  -2  -3  -1 3169.99 514.260  10
  -2   3   1 3426.84 492.530  12
  -2  -3  -1 1633.31 624.187   4
  -2   3   1 3372.11 703.920   7
  -2  -3  -1 3741.09 570.681   6
  -2  -3  -1 3779.59 556.979   9
  -2   3   1 3660.03 794.639  46
  -2   3   1 2425.24 510.881  47
  -2  -3  -1 3207.37 687.014  49
  -2  -3  -1 2915.04 457.151  44
   2  -3   1 3138.32 631.840  40
  -2   3   1 2669.92 511.242  42
   2   3  -1 3239.91 533.636  41
   2  -3   1 3335.74 447.044  17
  -2  -3  -1 3555.27 564.923  20
  -2   3   1 2669.32 723.896  18
   2  -3   1 2987.35 405.424  33
   2   3  -1 3315.81 648.862  39
  -2   3   1 2715.29 620.649  35
  -2   3   1 3319.41 694.870  29
   2  -3   1 3620.35 716.702  28
  -2  -3  -1 3586.75 694.332  26
  -2  -3   0 72858.6 4359.46   4
  -2   3   0 78484.4 3933.17   7
  -2  -3   0 78338.1 3370.67   6
  -2  -3   0 79125.2 3406.76   9
  -2  -3   0 77380.1 3788.82   1
  -2   3   0 80841.5 4242.35  46
  -2  -3   0 77990.6 3899.14  49
  -2   3   0 74698.4 3478.90  47
  -2   3   0 81892.4 3493.64  42
   2   3   0 77354.7 3445.10  41
   2   3   0 69321.9 3684.72  39
  -2  -3   0 78051.4 3229.69  44
  -2  -3   0 80316.9 3441.60  20
   2  -3   0 77974.4 3174.45  17
  -2   3   0 70771.8 3771.41  18
  -2  -3   0 75148.8 3362.31  33
   2  -3   0 70164.1 2958.24  33
  -2   3   0 70242.6 3638.35  35
   2  -3   0 80227.3 3968.81  28
  -2  -3   0 79815.2 3416.39  10
   2   3   0 78895.6 3968.90  15
  -2   3   0 79355.5 3432.66  11
  -2   3   0 76964.9 3218.50  12
   2   3   1 4566.44 783.546  15
  -2   3  -1 3503.43 551.286  11
  -2  -3   1 3196.53 542.596  10
  -2   3  -1 3255.69 459.595  12
  -2  -3   1 3188.53 792.435   4
  -2   3  -1 3544.58 705.693   7
  -2  -3   1 2591.64 575.816   1
  -2  -3   1 3847.61 590.252   9
  -2   3  -1 2981.38 777.394  46
  -2   3  -1 3362.27 574.334  47
   2   3   1 3727.63 434.642  46
  -2  -3   1 4303.45 773.642  49
   2   3   1 3468.05 568.250  41
  -2   3  -1 2886.94 545.610  42
  -2  -3   1 3230.68 478.868  44
  -2  -3   1 3628.82 576.178  20
   2  -3  -1 3127.20 461.015  17
  -2   3  -1 3657.45 665.383  18
  -2  -3   1 3918.72 575.329  33
   2  -3  -1 3410.52 408.844  33
   2   3   1 2769.08 594.511  39
  -2   3  -1 2943.87 646.852  35
   2  -3  -1 4226.68 749.903  28
  -2  -3   1 3492.24 681.167  26
  -2  -3   2 54594.1 3430.03   4
  -2  -3   2 54881.5 2985.11   1
  -2   3  -2 58729.7 3146.94   7
  -2  -3   2 56274.4 2705.55   9
  -2   3  -2 61735.0 3832.11  46
  -2   3  -2 53840.3 2694.06  47
   2   3   2 52673.7 2250.49  46
  -2  -3   2 54307.1 3072.06  49
   2   3   2 47801.2 2848.30  39
  -2   3  -2 52951.2 2665.00  42
  -2  -3   2 52681.2 2448.79  44
   2   3   2 50859.1 2703.83  41
  -2  -3   2 54125.7 2645.98  20
   2  -3  -2 57233.2 2519.86  17
  -2   3  -2 50789.1 2735.77  18
  -2  -3   2 57651.8 2655.61  33
  -2  -3   2 52650.6 2627.18  37
   2  -3  -2 48733.1 2175.18  33
  -2   3  -2 50716.8 2873.56  35
  -2   3  -2 56743.6 3262.26  29
   2  -3  -2 59619.8 3199.07  28
   2   3   2 55454.4 2900.71  27
   2   3   2 54282.6 3138.38  15
  -2   3  -2 53890.2 2608.81  11
  -2   3  -2 52214.6 2405.58  12
  -2  -3   2 54798.9 2666.55  10
  -2  -3   3 8082.91 1149.75   4
  -2   3  -3 7854.63 1049.94   7
  -2  -3   3 8944.44 905.734   9
  -2  -3   3 8274.36 1013.20   1
  -2   3  -3 7884.71 860.666  47
   2   3   3 9486.26 685.898  46
  -2  -3   3 8153.69 1064.67  49
   2   3   3 7493.83 969.907  39
  -2   3  -3 7916.59 865.421  42
  -2  -3   3 8186.31 764.049  44
   2  -3  -3 9176.40 1099.70  40
   2   3   3 9186.39 963.962  41
  -2  -3   3 7946.90 845.487  20
   2  -3  -3 8288.44 795.681  17
  -2  -3   3 7461.72 817.301  37
   2  -3  -3 7913.62 615.794  33
  -2   3  -3 7780.61 987.084  35
  -2  -3   3 9093.15 877.797  33
  -2   3  -3 7525.95 1086.76  29
   2  -3  -3 8329.28 1075.59  28
  -2  -3   3 8220.90 904.446  31
   2   3   3 7736.35 908.915  27
  -2  -3   3 9157.39 907.310  10
   2   3   3 8580.59 1092.60  15
  -2   3  -3 8020.50 732.731  12
  -2   3  -4 43301.5 2735.70   7
  -2  -3   4 46520.0 2403.54   9
  -2  -3   4 42920.2 2608.65   1
  -2  -3   4 39132.9 2736.48   4
  -2   3  -4 42981.5 2315.82  47
   2   3   4 41489.6 1851.53  46
  -2  -3   4 49620.2 2828.90  49
   2   3   4 38352.0 2472.49  39
  -2   3  -4 44094.7 2362.50  42
  -2  -3   4 43713.8 2131.85  44
   2  -3  -4 43406.0 2669.39  40
   2   3   4 41341.3 2403.44  41
  -2  -3   4 44917.8 2326.59  20
   2  -3  -4 49044.9 2298.93  17
   2   3   4 41360.8 2025.17  18
  -2  -3   4 43793.2 2256.77  37
  -2   3  -4 49896.0 2677.35  35
  -2  -3   4 47387.6 2389.73  33
  -2   3  -4 44442.8 2901.97  29
   2  -3  -4 46587.5 2757.91  28
  -2  -3   4 42126.0 2363.57  31
   2   3   4 43058.4 2424.92  27
   2   3   4 41986.6 2746.69  15
  -2  -3   4 43264.3 2325.22  10
  -2   3  -4 42947.6 2045.85  12
   2   3   5 48375.5 2949.06  15
  -2   3  -5 47812.6 2480.29  13
  -2  -3   5 50657.0 2520.29  10
  -2   3  -5 45160.0 2129.94  12
  -2  -3   5 48858.0 2827.88   1
  -2  -3   5 50939.1 2568.10   9
  -2  -3   5 49065.0 2795.25  48
  -2   3  -5 41669.9 3188.85  46
  -2   3  -5 46898.6 2444.37  47
   2   3   5 48886.2 1992.47  46
  -2  -3   5 50394.7 2896.78  49
   2   3   5 44444.9 2658.86  39
  -2   3  -5 43576.9 2428.06  42
  -2  -3   5 49511.8 2300.51  44
   2   3   5 45076.7 2593.65  41
   2  -3  -5 50798.4 2918.64  40
  -2  -3   5 48242.0 2456.26  20
   2  -3  -5 51399.0 2439.66  17
   2  -3  -5 44057.2 2141.30  19
   2   3   5 44128.9 2136.76  18
  -2  -3   5 46247.4 2359.41  37
  -2   3  -5 48088.8 2734.19  35
  -2  -3   5 51029.8 2652.55  33
   2   3   5 46674.9 2504.22  27
  -2   3  -5 53742.8 3231.60  29
   2  -3  -5 47533.5 2829.14  28
  -2  -3   5 47433.5 2544.94  31
  -2  -3   5 50010.6 2657.88  26
   2   3   6 11659.1 1329.27  15
  -2   3  -6 12946.3 1142.22  13
  -2  -3   6 12714.1 1123.26  10
  -2   3  -6 12659.4 882.429  12
  -2   3  -6 12590.5 947.330   8
  -2  -3   6 12751.1 1331.87   1
  -2  -3   6 13761.4 1178.19   9
  -2  -3   6 12760.0 1374.92  48
  -2   3  -6 12127.7 1446.82  46
  -2   3  -6 11908.8 1060.82  47
  -2  -3   6 12878.6 1344.11  49
   2   3   6 13058.6 773.969  46
  -2   3  -6 11892.0 1094.72  42
   2   3   6 11450.1 1195.61  39
  -2  -3   6 11754.0 954.153  44
   2   3   6 10541.4 1121.35  41
   2  -3  -6 10993.2 1268.49  40
  -2  -3   6 12931.1 1120.47  20
   2  -3  -6 10875.8 861.326  19
   2  -3  -6 13076.7 1085.57  17
   2   3   6 12080.8 876.352  18
  -2  -3   6 11381.0 981.608  37
  -2   3  -6 11775.0 1225.80  35
  -2  -3   6 10929.8 1266.17  33
  -2   3  -6 11806.7 1435.41  29
   2   3   6 12411.5 1089.83  27
   2  -3  -6 12277.0 1298.81  28
  -2  -3   6 12537.7 1170.02  31
  -2  -3   6 13293.2 1189.60  26
   2   3   7 8749.54 1160.02  15
  -2   3  -7 10069.2 1016.58  13
  -2  -3   7 9656.15 977.653  10
  -2   3  -7 9103.64 723.446  12
  -2   3  -7 8734.67 789.306   8
  -2  -3   7 10644.6 1201.16   1
  -2  -3   7 10069.1 1022.51   9
  -2  -3   7 7919.74 1241.89  48
  -2   3  -7 8791.71 1140.69  46
   2   3   7 9131.82 623.080  46
  -2   3  -7 8509.83 917.699  42
   2   3   7 8938.83 1047.13  39
  -2  -3   7 10250.7 866.781  44
   2   3   7 8470.04 1017.79  41
   2  -3  -7 10645.0 1232.28  40
  -2  -3   7 9034.64 921.029  20
   2  -3  -7 7781.11 716.526  19
   2  -3  -7 8373.38 895.835  17
   2   3   7 9506.08 745.378  18
  -2   3  -7 8846.96 1073.33  35
  -2  -3   7 14336.5 1545.33  33
  -2  -3   7 10150.6 875.377  37
  -2   3  -7 7597.61 1208.96  29
   2   3   7 7645.46 841.951  27
   2  -3  -7 8389.82 1083.40  28
  -2  -3   7 9113.96 1001.10  31
  -2  -3   7 8813.30 949.202  26
   2   3   8 19599.9 1783.08  15
  -2  -3   8 21114.1 1526.33  10
  -2   3  -8 24515.2 1681.90  13
  -2   3  -8 20874.3 1184.10  12
  -2  -3   8 22122.7 1604.94   9
  -2   3  -8 20715.4 1328.25   8
  -2  -3   8 23180.7 1870.91   1
  -2  -3   8 14682.7 2077.05  48
  -2   3  -8 19774.9 1715.90  46
  -2   3  -8 19935.7 1496.74  42
  -2  -3   8 21504.3 1366.22  44
   2   3   8 17155.3 1545.93  39
   2   3   8 20907.4 1692.14  41
   2  -3  -8 24245.6 1937.90  40
  -2  -3   8 23938.9 1563.37  20
   2  -3  -8 20843.1 1249.35  19
   2   3   8 19369.8 1167.54  18
  -2   3  -8 20817.7 1718.41  35
  -2  -3   8 27391.6 1745.34  33
  -2   3  -8 22453.1 2120.19  29
   2   3   8 21777.4 1452.47  27
   2  -3  -8 20466.0 1733.14  28
  -2  -3   8 21705.9 1608.41  31
  -2   3  -8 21891.1 1624.37  25
  -2  -3   8 21567.8 1506.32  26
   2   3   9 44897.1 2879.91  15
  -2  -3   9 46871.4 2453.10  10
  -2   3  -9 41742.0 2461.28  13
  -2  -3   9 39398.6 2410.03   9
  -2   3  -9 42657.4 1905.88  12
  -2   3  -9 41731.8 2129.64   8
  -2  -3   9 45974.1 2793.99   1
  -2  -3   9 55549.1 4927.80  48
  -2   3  -9 39649.7 2547.32  46
   2   3   9 34774.6 2397.40  39
   2  -3  -9 38296.5 2195.00  43
  -2   3  -9 41345.7 2372.36  42
  -2  -3   9 44735.8 2179.10  44
   2   3   9 42582.9 2649.90  41
   2  -3  -9 44852.2 2839.22  40
   2   3   9 42575.1 1944.54  18
  -2  -3   9 43179.0 2328.70  20
   2  -3  -9 39125.0 1965.62  19
  -2   3  -9 43866.7 2693.59  35
  -2  -3   9 52792.5 2333.92  33
  -2   3  -9 47211.6 3340.52  29
   2   3   9 48623.8 2311.94  27
   2  -3  -9 44468.1 2704.47  28
  -2  -3   9 46370.4 2542.60  31
  -2   3  -9 40370.2 2433.49  24
  -2  -3   9 37993.0 2198.57  26
  -2   3  -9 42500.1 2444.30  25
   2   3  10 42726.4 2866.47  15
  -2  -3  10 42015.6 2407.83  10
  -2  -3  10 40900.8 2415.70   9
  -2   3 -10 40082.9 1855.96  12
  -2  -3  10 41421.7 2716.74   1
  -2   3 -10 42724.7 2166.17   8
  -2   3 -10 41076.0 2530.64  46
   2  -3 -10 44965.4 2844.41  40
   2  -3 -10 40610.5 2244.97  43
   2   3  10 41129.5 2565.11  39
  -2   3 -10 43388.9 2412.51  42
  -2  -3  10 38353.3 2096.56  44
   2   3  10 47796.4 2798.10  41
   2   3  10 44762.3 1951.75  18
  -2  -3  10 40132.8 2296.73  20
   2  -3 -10 45814.6 2385.27  17
   2  -3 -10 43071.2 2002.78  19
  -2   3 -10 46221.6 2820.27  35
  -2   3 -10 44809.9 3511.57  29
   2   3  10 47615.4 2280.12  27
   2  -3 -10 43013.1 2681.26  28
  -2  -3  10 39092.9 2399.43  31
  -2   3 -10 41050.9 2445.41  24
  -2   3 -10 44167.6 2495.37  25
   2   3  11 51511.4 3280.05  15
  -2  -3  11 53517.2 2847.19  10
  -2   3 -11 50527.8 2219.82  12
  -2  -3  11 56284.6 2941.78   9
  -2   3 -11 52805.2 2577.10   8
  -2  -3  11 59328.7 3351.95   1
  -2  -3  11 59417.8 3608.96  48
  -2   3 -11 52686.0 2916.55  46
   2  -3 -11 55669.0 3326.64  40
   2  -3 -11 56247.7 2736.03  43
   2   3  11 46290.9 2897.71  39
  -2   3 -11 55466.8 2859.16  42
  -2  -3  11 58385.8 2626.94  44
   2   3  11 58898.0 3273.41  41
   2   3  11 54127.0 2306.83  18
   2  -3 -11 56946.1 2791.29  17
   2  -3 -11 49940.4 2327.32  19
  -2   3 -11 62294.8 3544.53  35
   2  -3 -11 54344.4 3120.56  28
  -2  -3  11 60442.5 3005.43  31
   2  -3 -11 50274.2 2510.72  22
  -2   3 -11 52726.3 2886.24  24
  -2   3 -11 54798.9 2905.40  25
  -2  -3  12 125045. 5312.10   9
   2   3  12 121376. 5857.33  15
  -2  -3  12 126793. 5241.50  10
  -2   3 -12 151970. 6109.41  13
  -2   3 -12 120780. 4455.63  12
  -2   3 -12 122967. 4923.68   8
  -2  -3  12 133818. 5948.11   3
  -2  -3  12 130049. 5822.04   1
  -2  -3  12 127388. 5882.85  48
  -2   3 -12 113644. 5155.24  46
   2  -3 -12 134784. 5974.88  40
   2  -3 -12 122349. 5008.29  43
   2   3  12 111436. 5346.37  39
  -2   3 -12 129022. 5231.68  42
  -2  -3  12 121636. 4864.29  44
   2   3  12 122485. 5699.61  41
   2  -3 -12 130213. 5140.41  17
   2  -3 -12 125450. 4644.55  19
  -2   3 -12 163610. 6986.52  35
  -2  -3  12 112492. 5507.27  38
  -2  -3  12 125129. 5346.59  31
   2  -3 -12 129321. 5617.25  28
   2   3  12 123836. 4685.75  32
   2  -3 -12 117939. 4848.66  22
  -2   3 -12 124744. 5355.03  24
   2   3  12 125198. 4922.40  21
  -2   3 -12 127530. 5285.13  25
   2   3  13 65548.0 3892.92  15
  -2   3 -13 86095.0 4670.61  13
  -2  -3  13 63474.8 3295.77   9
  -2   3 -13 62192.1 2971.24   8
  -2  -3  13 65385.5 3784.67   3
  -2  -3  13 64133.4 3679.03   1
  -2  -3  13 65549.1 3675.94  48
   2  -3 -13 66490.8 3801.01  40
   2  -3 -13 64711.4 3069.52  43
  -2   3 -13 63981.5 3230.92  42
   2   3  13 57171.1 3343.42  39
  -2  -3  13 68283.0 2989.59  44
   2   3  13 61673.5 3624.52  41
   2  -3 -13 62888.3 3101.27  17
   2  -3 -13 66750.5 2726.99  19
  -2  -3  13 65618.8 3576.17  38
  -2   3 -13 44712.1 4708.84  29
  -2  -3  13 60406.0 3277.68  31
   2  -3 -13 65634.1 3537.97  28
   2   3  13 66963.6 2795.07  32
   2  -3 -13 62215.4 2904.02  22
  -2   3 -13 62456.8 3316.00  24
   2   3  13 68565.7 3042.40  21
  -2   3 -13 66177.8 3274.82  25
   2   3  14 18099.1 1875.84  15
  -2   3 -14 24349.2 2887.21  13
  -2  -3  14 19339.0 1583.74   9
  -2   3 -14 17014.3 1311.98   8
  -2  -3  14 18633.5 1835.89   3
  -2  -3  14 23516.7 1994.80   1
  -2  -3  14 18118.5 1738.45  48
   2  -3 -14 17693.7 1791.62  40
   2  -3 -14 19909.4 1421.16  43
  -2   3 -14 15895.1 1416.51  42
  -2  -3  14 19082.3 1327.48  44
   2   3  14 16320.2 1572.60  39
  -2  -3  14 21674.5 1618.86  20
   2  -3 -14 19786.6 1451.57  17
   2  -3 -14 16692.6 1081.53  19
  -2  -3  14 16488.6 1598.69  38
  -2   3 -14 20331.6 2405.87  29
  -2  -3  14 17234.6 1505.81  31
   2  -3 -14 17845.9 1655.83  28
   2   3  14 18209.8 1175.03  32
   2  -3 -14 18449.1 1291.92  22
  -2   3 -14 18780.2 1573.69  24
   2   3  14 20225.9 1395.55  21
  -2   3 -14 16513.6 1444.79  25
   2   3  15 112319. 5492.39  15
  -2   3 -15 97821.2 5535.54  13
  -2  -3  15 100552. 4728.53   9
  -2   3 -15 98832.5 4310.06   8
  -2  -3  15 107113. 5210.69   1
  -2  -3  15 107078. 5303.37   3
  -2  -3  15 103716. 4992.80  48
   2  -3 -15 112325. 5394.87  40
   2  -3 -15 104249. 4378.47  43
   2   3  15 99609.5 4878.01  39
  -2   3 -15 104982. 4624.64  42
  -2  -3  15 102859. 4258.62  44
  -2  -3  15 95219.7 4656.29  20
   2  -3 -15 108878. 4513.14  17
   2  -3 -15 104370. 3951.42  19
  -2   3 -15 104356. 5190.45  35
  -2  -3  15 103963. 4903.68  38
  -2   3 -15 103660. 5782.70  29
  -2  -3  15 112833. 4812.03  31
   2  -3 -15 96777.3 4841.20  28
   2   3  15 108354. 4102.64  32
   2  -3 -15 101369. 4212.95  22
  -2   3 -15 102809. 4738.16  24
   2   3  15 103546. 4329.23  21
  -2   3 -15 104513. 4626.57  25
   2   3  16 174755. 7757.93  15
  -2  -3  16 170383. 6940.18   9
  -2   3 -16 181800. 7536.90  13
  -2   3 -16 177904. 6604.55   8
  -2  -3  16 165356. 7436.04   1
  -2  -3  16 180262. 7689.73   3
  -2  -3  16 165579. 7164.89  48
   2   3  16 184045. 6222.25  45
   2  -3 -16 183492. 7733.07  40
   2  -3 -16 176213. 6587.47  43
   2   3  16 149672. 7037.99  39
  -2   3 -16 175836. 6843.30  42
  -2  -3  16 171211. 6451.42  44
  -2  -3  16 126872. 6878.96  20
   2  -3 -16 178459. 6693.30  17
  -2   3 -16 181289. 7242.56  35
  -2  -3  16 158614. 6952.70  38
  -2   3 -16 174370. 7983.07  29
  -2  -3  16 159548. 6893.28  31
   2  -3 -16 176739. 7239.90  28
   2   3  16 183983. 6301.64  32
   2  -3 -16 161903. 6394.62  22
  -2   3 -16 180237. 7104.97  24
   2   3  16 180842. 6594.27  21
  -2   3 -16 170799. 6775.24  25
   2   3  17 13857.0 1665.44  15
  -2  -3  17 10429.6 1220.67   9
  -2   3 -17 13407.7 1439.93  13
  -2   3 -17 12761.1 1144.05   8
  -2  -3  17 11841.8 1478.77   1
  -2  -3  17 12196.2 1528.32   3
   2   3  17 15633.7 1047.45  45
  -2  -3  17 12791.2 1431.76  48
   2  -3 -17 12954.6 1571.55  40
   2  -3 -17 12788.0 1143.72  43
  -2   3 -17 12794.1 1296.12  42
  -2  -3  17 12201.7 1075.75  44
   2   3  17 11911.0 1395.43  39
  -2  -3  17 16764.1 1737.50  20
   2  -3 -17 12026.8 1140.31  17
  -2   3 -17 12612.4 1311.73  35
  -2  -3  17 11946.9 1289.64  38
   2  -3 -17 13555.5 1165.50  34
  -2   3 -17 13256.2 1645.92  29
  -2  -3  17 11403.3 1290.69  31
   2  -3 -17 11871.4 1362.21  28
   2   3  17 14649.8 1049.07  32
   2  -3 -17 12924.9 1085.76  22
  -2   3 -17 12933.7 1379.29  24
   2   3  17 13305.8 1140.76  21
  -2   3 -17 11912.0 1202.80  25
  -2  -3  18 95231.3 4618.63   9
  -2   3 -18 107434. 4803.05  13
  -2   3 -18 97022.0 4265.69   8
   2   3  18 105584. 3983.66  45
  -2  -3  18 90853.0 4687.78  48
   2  -3 -18 99294.0 4233.00  43
  -2   3 -18 95778.7 4554.32  42
  -2  -3  18 92841.8 4122.76  44
  -2  -3  18 121040. 4868.47  20
  -2   3 -18 94378.6 4447.04  35
  -2  -3  18 93945.0 4479.32  38
   2  -3 -18 96195.4 4189.47  34
  -2  -3  18 92589.8 4579.15  31
   2   3  18 108010. 4065.86  32
   2  -3 -18 95997.3 4109.81  22
  -2   3 -18 94435.3 4731.83  24
  -2   3 -18 96376.6 4413.59  25
   2   3  18 100425. 4202.42  21
  -2  -3  19 14930.0 1442.48   9
  -2   3 -19 12523.4 1356.45  13
  -2   3 -19 13050.3 1192.40   8
  -2   3 -19 13707.6 1300.57   7
   2   3  19 15895.1 1142.55  47
   2   3  19 15274.8 1097.04  45
  -2  -3  19 12121.1 1399.78  48
   2  -3 -19 13928.6 1187.39  43
  -2   3 -19 11998.4 1284.24  42
  -2  -3  19 16120.7 1333.76  20
   2  -3 -19 12921.8 1168.28  34
  -2   3 -19 12422.1 1218.42  35
  -2  -3  19 16169.1 1382.81  38
  -2  -3  19 14567.8 1429.25  31
   2   3  19 15254.3 1112.59  32
   2   3  19 15621.3 1217.22  21
   2  -3 -19 13146.9 1123.65  22
  -2   3 -19 11978.4 1440.91  24
  -2   3 -19 12754.2 1232.92  25
  -2   3 -20 2668.01 639.287  13
  -2   3 -20 2368.47 533.562   8
  -2  -3  20 2082.90 614.213   9
  -2  -3  20 3119.84 716.264  48
   2   3  20 2915.61 498.683  47
   2  -3 -20 2835.76 538.935  43
  -2   3 -20 2700.18 646.870  42
  -2  -3  20 3603.63 578.340  20
   2   3  20 3340.58 550.650  21
   2  -3 -20 2080.39 470.685  34
  -2   3 -20 3342.26 610.802  35
  -2  -3  20 2043.22 491.127  38
   2   3  20 2600.54 461.152  32
  -2  -3  20 1724.01 557.200  31
  -2   3 -20 2237.45 656.334  24
  -2  -3  21 6365.02 985.411   9
  -2   3 -21 7797.59 989.488  13
  -2   3 -21 7477.33 900.370   8
   2   3  21 10360.0 888.902  47
  -2  -3  21 8782.57 1143.72  48
   2  -3 -21 7633.43 820.665  43
  -2   3 -21 7676.18 1013.50  42
  -2  -3  21 7491.56 802.972  20
   2  -3 -21 6592.17 811.125  34
  -2   3 -21 7074.25 861.546  35
  -2  -3  21 7492.45 848.684  38
  -2  -3  21 7521.80 1084.60  31
   2   3  21 7753.15 770.540  32
   2   3  21 8645.08 857.281  21
  -2   3 -21 6033.58 987.530  24
  -2   3 -22 1276.24 432.076  13
  -2   3 -22 1169.56 418.237   8
  -2  -3  22 1741.33 520.783   9
  -2  -3  22 1223.81 491.973  48
   2   3  22 2010.30 405.756  47
   2  -3 -22 1304.17 354.408  43
  -2   3 -22 1025.20 393.463  42
  -2  -3  22 1689.75 362.334  20
   2   3  22 1864.88 403.967  21
  -2  -3  22 1192.31 340.096  38
   2  -3 -22 982.648 334.337  34
   2   3  22 1497.41 338.184  32
  -2  -3  22 1363.10 511.296  31
   2   3  22 1328.48 317.389  23
  -2   3 -22 928.445 396.991  24
  -2   3 -23 70684.5 3466.66  13
  -2  -3  23 71608.4 3660.36   9
   2   3  23 76996.6 3124.32  47
   2   3  23 70692.9 3024.01  45
  -2  -3  23 69524.4 3625.32  48
   2  -3 -23 65152.6 2980.76  43
  -2   3 -23 65724.6 3432.51  42
  -2   3 -23 65859.6 3218.90   8
   2  -3 -23 64845.4 3081.88  34
  -2  -3  23 75222.5 3696.78  31
   2   3  23 73225.1 3018.04  32
   2  -3 -23 61925.0 2842.23  24
  -2   3 -23 66503.8 3460.70  24
   2   3  23 73760.3 3123.24  21
   2   3  23 72231.4 2972.86  23
  -2  -3  24 36043.6 2331.63   9
  -2   3 -24 36642.1 2231.07  13
  -2   3 -24 38403.9 2106.04   8
   2   3  24 37714.4 1941.70  47
   2   3  24 35196.2 1878.92  45
  -2  -3  24 33706.6 2290.57  48
   2  -3 -24 37898.5 1888.67  43
  -2   3 -24 35315.8 2200.21  42
   2  -3 -24 36288.6 1956.46  34
  -2  -3  24 39338.6 2379.44  31
  -2   3 -24 37188.3 2255.36  24
   2  -3 -24 39562.9 1949.86  22
   2   3  24 37052.1 1865.65  23
   2   3  24 38125.9 1955.09  21
  -2   3 -25 1542.87 464.254  13
  -2   3 -25 3014.31 507.519   8
  -2  -3  25 2575.83 573.089   9
  -2  -3  25 2197.14 559.043  48
   2   3  25 2936.82 467.051  47
   2   3  25 2433.59 431.177  45
   2  -3 -25 2238.03 377.716  43
  -2   3 -25 2912.00 557.551  42
   2   3  25 3013.41 453.831  21
   2  -3 -25 2600.68 443.345  34
  -2  -3  25 3055.92 596.647  31
   2   3  25 2612.14 426.611  23
  -2   3 -25 2261.05 507.468  24
   2  -3 -25 3223.01 448.656  22
  -2   3 -26 1254.87 390.840  13
  -2   3 -26 1311.77 335.336   8
  -2  -3  26 1372.78 406.207   9
  -2  -3  26 1406.55 428.940  48
   2   3  26 1346.33 336.050  47
   2   3  26 1068.36 294.684  45
  -2   3 -26 1239.86 350.725  42
   2   3  26 1186.06 278.349  21
   2  -3 -26 1157.01 297.447  34
  -2  -3  26 879.290 330.583  31
   2   3  26 1385.82 315.024  23
   2  -3 -26 1303.12 304.609  22
  -2   3 -26 1120.74 346.910  24
  -2   3 -27 5314.08 690.061  13
  -2  -3  27 5195.55 708.548   9
   2   3  27 4993.67 558.815  47
   2   3  27 4387.12 544.151  45
  -2  -3  27 4639.78 697.327  48
  -2   3 -27 3818.40 576.698  42
  -2   3 -27 4849.76 579.226   8
   2  -3 -27 4463.17 522.725  34
  -2  -3  27 4528.16 660.932  31
  -2   3 -27 4173.96 610.799  24
   2   3  27 5587.69 577.850  23
   2  -3 -27 4257.05 490.095  22
  -2   3 -28 28944.8 1698.85  13
  -2  -3  28 27193.6 1698.12   9
   2   3  28 27875.7 1468.93  47
  -2  -3  28 27985.8 1755.13  48
   2   3  28 27035.6 1460.86  45
  -2   3 -28 28277.5 1622.76  42
  -2   3 -28 25949.3 1448.80   8
   2  -3 -28 29849.1 1493.32  34
  -2  -3  28 27504.9 1673.32  36
   2   3  28 27100.1 1324.89  31
  -2  -3  28 27760.3 1671.04  31
  -2   3 -28 28004.5 1642.55  24
   2   3  28 29508.2 1506.66  23
   2  -3 -28 31915.1 1435.57  22
  -2  -3  29 7714.47 764.312   9
  -2   3 -29 7760.87 758.342  13
  -2   3 -29 7434.72 707.764  42
   2   3  29 7617.60 632.034  47
  -2  -3  29 6972.11 768.184  48
   2  -3 -29 7443.76 625.249  34
  -2  -3  29 7270.06 740.474  31
  -2   3 -29 6354.45 677.831  24
   2   3  29 7926.43 676.177  23
   2  -3 -29 7402.60 564.783  22
  -2   3 -30 76910.4 3176.16  13
  -2  -3  30 75251.8 3212.21   9
  -2   3 -30 81021.7 3160.71  42
   2  -3 -30 77901.1 3000.11  34
   2   3  30 79091.0 2981.67  47
  -2  -3  30 77154.9 3202.29  31
   2   3  30 81494.7 3100.26  23
   2   3  31 11570.2 714.564  47
  -2  -3  31 13532.8 901.575  48
  -2   3 -31 12718.2 855.767  13
  -2  -3  31 12012.4 869.868   9
   2   3  31 12739.2 823.365  23
   2  -3 -31 13187.2 780.282  34
  -2  -3  31 12301.8 813.043  36
  -2  -3  32 32256.3 1464.03  48
  -2  -3  32 33633.3 1401.76  36
  -2  -4 -30 8607.55 616.223  26
  -2   4  29 32465.6 1411.17  47
  -2  -4 -29 29905.2 1528.17  49
  -2   4  28 1139.39 247.911  47
  -2  -4 -28 1164.23 282.402  50
  -2  -4 -28 906.740 274.309  49
  -2   4  28 1142.50 183.527  11
  -2  -4 -28 806.804 307.838  26
  -2   4  27 3987.80 469.204  47
  -2  -4 -27 4622.66 569.134  50
  -2  -4 -27 4230.31 587.216  49
  -2   4  27 4275.38 546.352   5
   2   4 -27 4634.07 432.988  35
  -2   4  27 4301.67 401.554  11
  -2  -4 -27 4342.92 625.486  26
  -2   4  26 10147.0 833.558  47
  -2  -4 -26 9040.41 875.237  50
  -2  -4 -26 12055.4 1038.57  49
   2  -4  26 9978.23 716.364  20
  -2   4  26 10219.3 907.959   5
   2  -4  26 10294.4 706.024  33
   2   4 -26 12388.8 764.114  35
  -2  -4 -26 9296.66 962.683  26
   2   4 -26 9585.95 603.359  14
  -2   4  26 9937.57 715.409  11
   2   4 -25 55277.8 2394.55  14
  -2   4  25 62715.6 2629.73  11
  -2  -4 -25 65048.0 3006.98  50
  -2   4  25 62893.5 2825.23  47
  -2   4  25 65428.4 2942.38  45
   2  -4  25 66551.9 2609.67  20
  -2   4  25 66336.4 3014.35   5
   2  -4  25 62680.8 2571.30  33
   2   4 -25 72062.9 2634.34  35
  -2   4  25 62360.5 2891.73  32
  -2  -4 -25 67789.1 3224.74  26
   2   4 -24 8621.54 682.095  14
  -2   4  24 10974.2 859.860  11
  -2  -4 -24 11093.6 1069.08  50
  -2   4  24 10110.4 928.809  47
  -2   4  24 11046.1 1005.11  45
   2  -4  24 10287.9 785.031  20
  -2   4  24 10768.5 1031.66   5
   2  -4  24 9871.40 763.570  33
   2   4 -24 10723.8 777.097  35
  -2   4  24 11088.1 1009.02  32
  -2  -4 -24 9596.76 1094.88  26
   2   4 -23 23881.7 1346.26  14
   2  -4  23 26414.3 1387.38  48
  -2   4  23 28225.0 1726.30  47
  -2   4  23 28016.7 1776.96  45
  -2  -4 -23 25991.9 1822.89  50
   2   4 -23 30157.2 1314.99  46
   2  -4  23 28422.3 1480.58  20
  -2  -4 -23 29799.8 1630.64  19
   2   4 -23 25148.6 1353.00  18
  -2   4  23 25703.4 1792.30   5
   2  -4  23 25614.0 1437.08  33
   2   4 -23 30922.7 1495.58  35
  -2   4  23 27480.4 1757.36  32
  -2  -4 -23 25875.5 1934.15  26
   2   4 -22 1691.12 335.956  14
   2  -4  22 2773.10 421.895  48
  -2  -4 -22 2235.10 588.531  50
  -2   4  22 2470.46 520.276  45
  -2   4  22 1588.92 462.850  47
   2   4 -22 2760.53 344.449  46
   2  -4  22 2280.58 405.244  20
   2   4 -22 2100.20 364.587  18
  -2  -4 -22 2355.64 440.987  19
  -2   4  22 1759.39 470.705   5
   2  -4  22 1893.91 371.014  33
   2   4 -22 2341.93 390.126  35
  -2   4  22 3137.40 577.265  32
  -2  -4 -22 3399.05 702.106  26
   2   4 -21 59420.8 2751.24  14
   2  -4  21 68219.7 2941.74  48
  -2   4  21 68057.6 3304.16  47
  -2   4  21 70721.2 3361.16  45
  -2  -4 -21 62548.2 3396.67  50
   2  -4  21 67690.0 2858.37  20
  -2   4  21 60831.0 3406.59  18
  -2  -4 -21 70943.1 3071.89  19
  -2   4  21 65545.8 3360.86   5
   2  -4  21 65169.4 2877.17  33
   2   4 -21 70972.8 2852.53  35
  -2   4  21 66408.2 3269.94  32
  -2  -4 -21 64378.1 3625.41  26
   2   4 -20 516.793 225.473  14
   2  -4  20 500.232 274.565  48
  -2   4  20 293.931 309.983  45
  -2   4  20 292.402 308.373  47
  -2  -4 -20 86.5966 417.614  50
   2  -4  20 596.902 259.277  20
  -2   4  20 85.3241 299.499  18
  -2  -4 -20 266.515 241.640  19
  -2   4  20 396.756 307.918   5
  -2  -4 -20 283.635 234.771  37
   2  -4  20 487.895 269.706  33
   2   4 -20 357.679 218.244  35
  -2   4  20 418.093 282.458  32
  -2  -4 -20 409.257 463.449  26
   2   4 -19 26131.0 1584.18  14
   2  -4  19 31563.8 1785.17  48
  -2   4  19 28761.8 2012.49  47
  -2   4  19 27434.3 1978.11  45
  -2  -4 -19 28114.2 2153.48  50
   2   4 -19 29660.5 1474.82  46
   2  -4  19 27108.0 1585.41  20
  -2   4  19 25352.4 2036.98  18
  -2  -4 -19 29919.0 1784.10  19
  -2   4  19 28945.6 2050.58   5
  -2  -4 -19 26915.0 1668.91  37
   2  -4  19 29925.6 1710.24  33
   2   4 -19 32202.4 1645.02  35
  -2   4  19 26590.0 1900.92  32
  -2  -4 -19 25497.6 2200.72  26
   2   4 -18 14012.2 1097.54  14
  -2   4  18 11525.9 1166.27  11
   2  -4  18 14871.8 1180.96  48
  -2   4  18 15062.9 1435.51  47
  -2   4  18 16294.9 1493.44  45
  -2  -4 -18 17169.0 1637.57  50
   2   4 -18 16913.7 1025.37  46
   2  -4  18 13748.3 1051.07  20
  -2   4  18 12971.8 1428.32  18
  -2  -4 -18 15756.4 1235.58  19
  -2   4  18 11385.3 1316.11   5
  -2  -4 -18 12785.7 1130.08  37
   2  -4  18 14129.8 1103.10  33
   2   4 -18 18229.9 1156.92  35
  -2   4  18 15751.6 1407.74  32
  -2  -4 -18 14554.8 1669.41  26
   2   4 -17 17518.8 1310.71  14
  -2   4  17 21296.3 1594.69  11
   2  -4  17 19787.0 1399.24  48
  -2   4  17 19828.9 1694.33  47
  -2   4  17 23113.1 1851.80  45
   2   4 -17 20580.7 1210.37  46
  -2  -4 -17 21886.3 1867.95  50
   2  -4  17 19025.3 1289.72  20
  -2   4  17 16912.2 1699.37  18
  -2  -4 -17 22313.9 1517.55  19
  -2   4  17 17274.1 1316.65   7
  -2  -4 -17 18391.5 1401.99  37
   2  -4  17 22106.0 1436.38  33
   2   4 -17 20922.7 1315.54  35
  -2   4  17 22752.9 1719.98  32
  -2  -4 -17 23470.2 2132.44  26
   2   4 -16 11785.8 1030.84  14
  -2   4  16 13209.4 1233.39  11
   2  -4  16 12267.0 1075.89  48
  -2   4  16 10671.3 1226.44  47
  -2   4  16 12300.7 1383.55  45
   2   4 -16 14476.4 970.642  46
  -2  -4 -16 12790.6 1434.21  50
   2  -4  16 10699.8 921.964  20
  -2   4  16 9767.66 1268.37  18
  -2  -4 -16 13476.5 1174.64  19
  -2   4  16 10822.5 1041.48   7
  -2  -4 -16 10215.8 1027.03  37
   2  -4  16 9924.64 961.287  33
  -2   4  16 12200.0 1244.36  32
  -2  -4 -16 12135.8 1552.08  26
  -2   4  15 30950.2 2145.99  47
  -2   4  15 29877.9 2297.12  45
   2   4 -15 34821.4 1688.46  46
  -2  -4 -15 32734.4 2343.12  50
   2  -4  15 28943.0 1640.68  20
  -2   4  15 23769.4 2149.32  18
  -2   4  15 27444.0 1860.00   7
  -2  -4 -15 30952.6 1886.93  37
  -2  -4 -15 30249.7 1870.41  33
   2  -4  15 28871.4 1781.34  33
  -2   4  15 28592.4 2074.53  32
   2   4 -15 30674.6 1830.60  14
  -2   4  15 28809.9 1945.45  11
  -2  -4 -14 39054.3 2616.72  50
  -2   4  14 33638.0 2289.95  47
   2   4 -14 38468.5 1896.57  46
   2  -4  14 34873.6 1839.53  20
  -2   4  14 30796.0 2426.09  18
  -2   4  14 34978.2 2202.57   7
  -2  -4 -14 35838.6 2093.40  37
   2  -4  14 34003.2 1992.43  33
  -2  -4 -14 36909.8 2146.59  33
   2   4 -14 40918.9 1992.96  35
  -2   4  14 40537.1 2518.64  32
   2   4 -14 34015.3 2019.30  14
  -2   4  14 34675.0 2187.38  11
  -2   4  13 11933.0 1257.26  47
  -2   4  13 11016.8 1412.92  46
  -2  -4 -13 14909.7 1510.54  50
   2   4 -13 13562.5 997.833  46
   2  -4  13 11584.7 915.872  20
  -2   4  13 11811.9 1416.64  18
  -2   4  13 11924.0 1225.22   7
  -2  -4 -13 10913.0 1058.89  37
   2  -4  13 12447.8 1076.58  33
   2   4 -13 13385.4 1028.37  35
  -2  -4 -13 12670.1 1151.51  33
  -2   4  13 13950.2 1451.16  32
   2   4 -13 10544.9 1032.05  14
  -2   4  13 13715.1 1250.28  11
  -2   4  12 1860.18 505.226  11
   2   4 -12 1164.48 356.816  14
   2   4 -12 1473.63 350.554  46
  -2   4  12 770.674 483.913  46
  -2   4  12 1326.42 458.528  47
  -2  -4 -12 1134.96 496.752  50
   2  -4  12 1463.74 323.861  20
  -2   4  12 1861.03 581.628  18
  -2  -4 -12 2384.75 492.367  19
  -2   4  12 1666.62 518.754   7
   2  -4  12 1358.83 354.134  33
  -2  -4 -12 1559.21 423.297  37
   2   4 -12 1665.32 356.105  35
  -2  -4 -12 1661.13 450.638  33
  -2  -4 -12 1997.63 640.466  26
   2   4 -11 11910.4 1071.54  14
  -2   4  11 11415.2 1145.29  11
  -2   4  11 11219.8 1450.74  46
  -2   4  11 10893.2 1179.50  47
  -2  -4 -11 11319.9 1325.91  50
   2   4 -11 14265.8 1032.41  46
  -2  -4 -11 12668.4 1511.85  49
   2  -4  11 12345.2 903.744  20
  -2   4  11 9759.24 1315.20  18
  -2  -4 -11 12424.8 1138.50  19
  -2   4  11 12496.6 1299.12   7
  -2  -4 -11 9483.25 1049.67   6
   2  -4  11 12433.1 1056.92  33
   2   4 -11 16008.2 1078.47  35
  -2  -4 -11 12251.8 1179.64  33
  -2   4  11 11825.7 1462.92  32
  -2  -4 -11 12186.1 1436.59  26
  -2   4  10 6805.11 1103.37  18
  -2  -4 -10 9671.81 983.800  19
  -2   4  10 8469.56 1016.04  47
  -2   4  10 6472.01 1110.18  46
  -2  -4 -10 8503.44 1133.09  50
   2   4 -10 9646.39 840.741  46
  -2  -4 -10 8600.19 1232.04  49
   2  -4  10 7199.72 794.160  33
  -2  -4 -10 9568.08 1002.53  33
   2   4 -10 9191.37 812.968  35
   2   4 -10 8599.37 897.861  14
  -2   4  10 7574.14 935.844  11
  -2   4  10 8255.35 1068.11   7
  -2  -4 -10 9300.63 994.366   6
  -2   4   9 56494.0 3290.22   7
  -2  -4  -9 57410.1 3026.96   6
  -2   4   9 57719.3 3661.12  46
  -2   4   9 63583.9 3256.76  47
  -2  -4  -9 64016.4 3479.32  50
   2   4  -9 66934.9 2807.27  46
  -2  -4  -9 60646.0 3589.03  49
  -2  -4  -9 66616.6 3101.42  19
  -2  -4  -9 59636.9 3025.75  33
   2  -4   9 57559.8 2792.70  33
   2   4  -9 70416.1 2785.84  35
  -2  -4  -9 60591.1 3472.29  26
   2   4  -9 53002.1 2807.08  14
  -2   4   9 60924.9 3092.86  11
  -2   4   8 3625.00 641.377  11
   2   4  -8 4376.74 841.106  15
   2  -4   8 3231.02 575.956  16
   2   4  -8 4179.14 625.504  14
  -2  -4  -8 2900.63 1410.79   4
  -2  -4  -8 3540.21 631.374   6
  -2   4   8 2863.48 778.026  46
  -2   4   8 4160.24 751.166  47
   2   4  -8 4126.56 549.889  46
  -2  -4  -8 3432.96 796.770  49
   2  -4   8 2615.51 701.640  40
  -2  -4  -8 4648.99 723.468  19
   2   4  -8 4349.63 535.805  35
   2   4  -8 3394.85 763.390  39
  -2  -4  -8 4088.54 669.815  33
  -2  -4  -8 3139.72 721.700  26
   2   4  -7 194685. 7957.77  15
  -2   4   7 190408. 7287.78  11
   2   4  -7 175159. 6984.33  14
   2  -4   7 185922. 7212.53  16
  -2  -4  -7 206297. 10868.9   4
  -2  -4  -7 190255. 7250.09   6
  -2   4   7 193880. 8192.69  46
  -2   4   7 190200. 7416.63  47
   2   4  -7 200574. 6893.63  46
  -2  -4  -7 194126. 7960.95  49
   2   4  -7 166989. 7758.78  39
   2  -4   7 178651. 7852.79  40
  -2   4   7 174149. 7806.36  18
  -2  -4  -7 190131. 7364.46  19
   2   4  -7 221038. 6846.78  35
  -2  -4  -7 188723. 7233.27  33
   2  -4   7 174246. 7783.08  28
   2   4  -7 193754. 7964.40  27
  -2  -4  -7 199990. 7832.29  26
  -2   4   6 2434.24 542.504  11
   2   4  -6 2351.85 650.179  15
   2  -4   6 2766.87 539.647  16
  -2  -4  -6 4345.86 1257.63   4
  -2   4   6 3831.86 785.616   7
  -2  -4  -6 2870.10 579.925   6
  -2  -4  -6 2673.05 487.130   9
   2   4  -6 2811.93 461.400  46
  -2   4   6 3894.87 882.953  46
  -2   4   6 2521.20 584.473  47
  -2  -4  -6 4285.94 865.136  49
   2  -4   6 2401.44 663.625  40
  -2   4   6 1709.47 592.896  18
  -2  -4  -6 3076.97 669.052  19
   2   4  -6 2986.14 432.359  35
   2   4  -6 2920.18 695.719  39
   2  -4   6 3274.46 501.375  33
   2  -4   6 3324.54 750.462  28
   2   4  -6 3427.17 738.658  27
  -2  -4  -6 3535.82 611.029  33
  -2  -4  -6 2976.78 673.171  26
   2   4  -5 59528.2 3490.06  15
  -2   4   5 63329.3 3036.01  11
   2  -4   5 55264.3 2920.61  16
  -2  -4  -5 52641.4 4268.77   4
  -2   4   5 61667.6 3457.76   7
  -2  -4  -5 57698.0 2954.87   6
  -2  -4  -5 53690.2 2754.52   9
  -2   4   5 58851.5 3670.21  46
  -2   4   5 58412.4 3057.36  47
   2   4  -5 60433.7 2642.91  46
  -2  -4  -5 61282.9 3526.66  49
   2   4  -5 48168.7 3236.69  39
   2  -4   5 58241.0 3480.59  40
  -2  -4  -5 60831.3 2932.67  20
  -2   4   5 62321.8 3673.32  18
  -2  -4  -5 79070.0 4006.45  19
   2  -4   5 55514.2 2646.44  33
   2   4  -5 64708.7 2552.45  35
  -2  -4  -5 60655.8 2971.27  33
   2  -4   5 56580.7 3379.20  28
   2   4  -5 57011.3 3354.12  27
  -2  -4  -5 64897.3 3386.16  26
   2   4  -4 55475.9 3294.02  15
  -2   4   4 49825.9 2658.45  11
   2  -4   4 47320.1 2658.83  16
  -2  -4  -4 46059.2 3760.42   4
  -2   4   4 53285.9 3144.52   7
  -2  -4  -4 54424.3 2758.49   6
  -2  -4  -4 52014.4 2592.20   9
  -2   4   4 51120.1 3384.97  46
  -2   4   4 47710.3 2715.70  47
   2   4  -4 58206.0 2449.58  46
  -2  -4  -4 51223.1 3179.10  49
   2   4  -4 49054.5 3135.80  39
   2  -4   4 47703.9 3105.98  40
  -2  -4  -4 49435.5 2578.38  44
  -2  -4  -4 52775.7 2699.28  20
  -2   4   4 53424.5 3501.85  18
  -2  -4  -4 68870.6 3216.47  19
   2   4  -4 51860.4 2591.82  18
   2  -4   4 48259.4 2358.83  33
  -2  -4  -4 57109.3 2761.88  33
   2  -4   4 45529.7 3008.73  28
   2   4  -4 53744.6 3157.03  27
  -2  -4  -4 50693.8 2971.93  26
   2   4  -3 46284.0 3030.71  15
  -2   4   3 48370.9 2559.64  11
   2  -4   3 45788.5 2580.57  16
  -2  -4  -3 39782.0 3408.12   4
  -2   4   3 50213.9 3058.10   7
  -2  -4  -3 48034.4 2579.74   6
  -2  -4  -3 53253.5 2527.99   9
  -2   4   3 48747.6 3243.98  46
   2   4  -3 52304.3 2293.37  46
  -2   4   3 48287.0 2659.57  47
  -2  -4  -3 49987.5 3077.70  49
   2   4  -3 40345.4 2844.93  39
   2  -4   3 43865.3 2977.44  40
  -2  -4  -3 47800.1 2475.32  44
  -2  -4  -3 47820.0 2563.63  20
  -2   4   3 63086.0 4049.99  18
  -2  -4  -3 58538.3 2665.85  19
   2   4  -3 48236.4 2457.57  18
  -2  -4  -3 50706.0 2599.13  33
   2  -4   3 44213.9 2212.61  33
   2  -4   3 46277.4 2945.89  28
  -2   4   3 46074.0 2816.39  29
   2   4  -3 47807.4 2935.62  27
  -2  -4  -3 50148.7 2865.62  26
   2   4  -2 15557.7 1625.92  15
   2  -4   2 13075.9 1230.76  16
  -2  -4  -2 13637.8 1811.80   4
  -2   4   2 17798.7 1689.48   7
  -2  -4  -2 18687.2 1408.76   6
  -2  -4  -2 17155.6 1281.22   9
  -2   4   2 15747.5 1726.89  46
  -2   4   2 14527.5 1295.08  47
  -2  -4  -2 15989.7 1604.10  49
   2   4  -2 13108.8 1455.89  39
  -2  -4  -2 15890.5 1232.41  44
  -2  -4  -2 17998.8 1370.49  20
   2  -4   2 14019.6 1118.89  19
  -2   4   2 20856.4 2701.02  18
   2   4  -2 15488.1 1197.10  18
  -2  -4  -2 17952.3 1352.67  33
   2  -4   2 13598.4 1014.19  33
   2  -4   2 13654.0 1452.47  28
  -2   4   2 15142.9 1482.31  29
   2   4  -2 17259.1 1587.07  27
  -2  -4  -2 14559.1 1405.42  26
   2   4  -1 16654.7 1679.60  15
  -2  -4  -1 16245.8 1349.73  10
   2  -4   1 15782.8 1355.23  16
  -2  -4  -1 11507.4 1640.27   4
  -2   4   1 14687.3 1546.08   7
  -2  -4  -1 16500.3 1337.96   6
  -2  -4  -1 17123.7 1298.77   9
  -2   4   1 17758.0 1849.08  46
  -2   4   1 14807.3 1308.68  47
  -2  -4  -1 14885.4 1554.75  49
   2   4  -1 15569.7 1577.10  39
  -2   4   1 17530.5 1355.58  42
  -2  -4  -1 18698.7 1332.71  44
  -2  -4  -1 16348.1 1323.30  20
   2  -4   1 16932.4 1214.37  19
  -2   4   1 17004.6 2021.50  18
   2   4  -1 18920.1 1298.54  18
  -2  -4  -1 16592.4 1322.41  33
  -2   4   1 14265.5 1439.93  35
   2  -4   1 16629.7 1084.92  33
   2  -4   1 15652.1 1550.35  28
  -2   4   1 15695.0 1547.59  29
  -2  -4  -1 14872.1 1386.59  26
   2   4   0 2112.34 607.036  15
  -2  -4   0 2077.76 490.877  10
  -2   4   0 1675.22 611.720   7
  -2  -4   0 1206.93 389.164   6
  -2  -4   0 1906.13 440.538   9
   2   4   0 2279.94 367.426  46
  -2   4   0 1856.40 632.723  46
  -2   4   0 1960.01 497.583  47
  -2  -4   0 2042.57 635.162  49
  -2  -4   0 1626.78 402.090  44
  -2   4   0 1652.91 449.802  42
  -2  -4   0 1649.05 441.572  20
   2   4   0 1431.52 372.941  18
   2  -4   0 1496.13 369.118  19
  -2   4   0 1936.53 618.269  18
   2   4   0 1090.96 421.092  39
  -2   4   0 1946.86 562.090  35
   2  -4   0 1110.55 461.804  28
  -2   4   0 1689.81 547.417  29
   2  -4   0 1283.47 306.710  33
  -2  -4   0 1303.36 450.778  26
   2   4   1 16328.0 1681.43  15
  -2  -4   1 18545.3 1417.58  10
  -2   4  -1 19718.0 1808.63   7
  -2  -4   1 18744.4 1429.79   6
  -2  -4   1 19373.1 1404.82   9
  -2   4  -1 21542.3 2151.00  46
  -2   4  -1 17746.1 1406.07  47
   2   4   1 20301.7 1155.94  46
  -2  -4   1 19594.4 1780.66  49
  -2   4  -1 17305.4 1368.33  42
   2  -4  -1 19846.1 1821.99  40
   2   4   1 14183.9 1527.83  39
  -2  -4   1 19051.9 1358.67  44
  -2  -4   1 17254.7 1391.13  20
   2  -4  -1 14761.2 1159.25  19
  -2   4  -1 17274.6 1585.88  18
   2   4   1 18459.6 1265.34  18
   2  -4  -1 17328.2 1100.38  33
  -2   4  -1 15620.6 1528.70  35
   2   4   1 17690.3 1538.02  27
   2  -4  -1 17712.8 1636.14  28
  -2   4  -1 17619.1 1725.55  29
  -2  -4   1 16544.9 1395.68  26
  -2   4  -2 16173.1 1654.73   7
  -2  -4   2 19707.8 1463.10   6
  -2  -4   2 21342.7 1475.42   9
  -2   4  -2 20414.1 2190.01  46
  -2   4  -2 15518.0 1325.19  47
   2   4   2 20714.5 1152.91  46
  -2  -4   2 16858.6 1649.25  49
  -2   4  -2 16679.9 1357.19  42
   2  -4  -2 17055.2 1708.32  40
   2   4   2 16548.8 1453.99  41
   2   4   2 15701.2 1584.57  39
  -2  -4   2 17052.1 1295.93  44
  -2  -4   2 19877.0 1490.81  20
   2  -4  -2 15282.0 1174.51  19
  -2   4  -2 15731.5 1439.25  18
  -2  -4   2 19464.4 1419.50  33
   2  -4  -2 16548.8 1068.94  33
  -2   4  -2 14185.9 1482.88  35
   2   4   2 21145.3 1648.37  27
   2  -4  -2 18250.7 1636.26  28
  -2   4  -2 16149.9 1673.69  29
   2   4   2 19392.9 1845.66  15
  -2  -4   2 18655.9 1433.11  10
  -2   4  -3 50040.0 3046.71   7
  -2  -4   3 51834.1 2638.68   6
  -2  -4   3 46787.6 3014.47   1
  -2  -4   3 51931.5 2600.07   9
  -2   4  -3 61154.8 4367.70  46
  -2   4  -3 44934.1 2483.82  47
   2   4   3 56419.0 2201.08  46
  -2  -4   3 44629.6 2933.35  49
  -2  -4   3 42320.1 2512.21  48
  -2   4  -3 47866.5 2550.19  42
   2  -4  -3 46920.3 3075.80  40
   2   4   3 46980.8 2733.07  41
  -2  -4   3 45067.9 2402.18  44
   2   4   3 43774.8 2875.22  39
   2  -4  -3 44890.0 2527.20  17
  -2  -4   3 46286.6 2544.94  20
   2  -4  -3 44050.2 2281.16  19
   2  -4  -3 43830.0 2057.75  33
  -2   4  -3 42500.1 2756.11  35
  -2  -4   3 46967.0 2522.61  33
  -2   4  -3 48715.8 3133.32  29
   2   4   3 49012.6 2736.85  27
   2  -4  -3 49618.8 2938.05  28
   2   4   3 44107.8 3013.55  15
  -2  -4   3 48782.2 2620.83  10
  -2   4  -4 47810.0 3080.63   7
  -2  -4   4 47775.8 3085.67   1
  -2  -4   4 53210.3 2663.86   9
  -2  -4   4 52762.2 2799.17  48
  -2  -4   4 53129.2 3077.40  49
   2   4   4 56250.0 2213.95  46
   2   4   4 38844.0 2780.86  39
   2  -4  -4 45985.8 2565.10  43
  -2   4  -4 49456.8 2612.37  42
   2  -4  -4 49033.0 3132.49  40
   2   4   4 43859.9 2716.99  41
  -2  -4   4 52422.6 2543.69  44
   2  -4  -4 45464.5 2593.08  17
  -2  -4   4 46331.5 2586.56  20
   2  -4  -4 43183.8 2285.29  19
   2   4   4 51768.0 2380.92  18
  -2   4  -4 42474.4 2814.32  35
  -2  -4   4 48559.0 2607.20  33
  -2   4  -4 44110.3 3085.76  29
   2   4   4 51922.5 2799.61  27
   2  -4  -4 49694.3 2955.87  28
   2   4   4 53963.6 3277.69  15
  -2  -4   4 49123.7 2674.06  10
  -2   4  -5 51339.5 3195.33   7
  -2  -4   5 48479.5 3146.18   1
  -2  -4   5 52841.5 2739.13   9
  -2  -4   5 49821.6 2869.20  48
   2   4   5 57149.6 2268.21  46
   2  -4  -5 52741.4 2724.57  43
   2   4   5 48073.1 3036.03  39
  -2   4  -5 55470.3 2762.90  42
   2  -4  -5 53247.0 3256.43  40
   2   4   5 45625.3 2834.17  41
  -2  -4   5 52458.6 2593.08  44
   2   4   5 55223.4 2454.61  18
   2  -4  -5 50478.8 2762.00  17
  -2  -4   5 50600.1 2712.54  20
   2  -4  -5 51398.4 2455.64  19
  -2  -4   5 44513.6 2666.54  33
  -2   4  -5 52389.9 3030.10  35
  -2   4  -5 48538.5 3294.92  29
   2   4   5 51400.0 2801.27  27
   2  -4  -5 55074.7 3102.20  28
   2   4   5 50581.8 3247.25  15
  -2   4  -5 46829.7 2497.90  13
  -2   4  -5 49451.9 2064.37  12
  -2  -4   5 50883.1 2746.98  10
  -2   4  -6 3570.22 831.249   7
  -2  -4   6 4668.46 893.046   1
  -2  -4   6 3659.93 626.272   9
  -2  -4   6 3605.80 752.892  48
  -2   4  -6 4095.00 983.278  46
   2   4   6 4184.49 462.093  46
  -2  -4   6 3079.55 547.559  44
   2   4   6 3774.74 705.169  41
   2  -4  -6 3686.87 789.623  40
   2  -4  -6 3725.31 638.315  43
  -2   4  -6 3473.56 623.277  42
   2   4   6 3979.67 535.143  18
  -2  -4   6 3824.05 645.572  20
   2  -4  -6 3653.01 649.077  17
   2   4   6 3411.22 720.494  39
  -2   4  -6 4465.98 868.499  35
   2  -4  -6 3637.93 712.571  28
  -2   4  -6 2925.20 788.615  29
  -2  -4   6 2925.28 676.703  33
   2   4   6 3573.58 617.923  27
   2   4   6 3133.21 759.969  15
  -2   4  -6 4024.76 612.751  13
  -2   4  -6 3292.55 357.861  12
  -2  -4   6 3612.83 652.352  10
   2   4   7 176851. 7777.66  15
  -2   4  -7 187690. 6882.68  13
  -2  -4   7 187432. 7057.63  10
  -2  -4   7 192126. 7034.15   9
  -2  -4   7 190016. 7752.07   1
  -2  -4   7 167717. 7398.28  48
  -2   4  -7 177258. 7757.00  46
   2   4   7 181747. 6255.12  46
   2  -4  -7 181892. 6927.15  43
   2   4   7 143967. 7159.71  39
  -2   4  -7 174140. 6930.35  42
   2  -4  -7 174280. 7652.57  40
  -2  -4   7 179508. 6751.02  44
   2   4   7 172702. 7299.43  41
   2   4   7 194338. 6555.21  18
   2  -4  -7 170777. 7043.92  17
  -2  -4   7 176587. 6943.17  20
  -2   4  -7 175148. 7362.27  35
  -2  -4   7 219111. 8019.79  33
   2   4   7 185691. 7019.24  27
   2  -4  -7 172694. 7283.97  28
  -2  -4   7 192755. 7074.76  31
   2  -4  -7 165947. 6602.98  22
   2   4   8 3888.02 830.837  15
  -2   4  -8 3280.97 610.808  13
  -2  -4   8 3638.51 662.829  10
  -2  -4   8 4329.51 692.959   9
  -2  -4   8 3397.49 883.328  48
  -2   4  -8 2167.33 701.073  46
  -2  -4   8 3833.69 595.190  44
   2   4   8 2805.14 655.223  41
   2  -4  -8 3514.89 788.185  40
   2  -4  -8 3191.90 601.639  43
  -2   4  -8 2809.17 578.892  42
   2   4   8 3778.20 506.681  18
  -2  -4   8 4406.78 697.394  20
   2  -4  -8 3178.48 643.091  17
   2  -4  -8 3013.69 483.585  19
   2   4   8 2542.83 624.651  39
  -2   4  -8 4264.05 824.949  35
  -2  -4   8 3584.52 645.116  31
  -2  -4   8 3860.15 693.458  33
  -2   4  -8 2774.00 628.642  25
   2  -4  -8 3589.42 549.675  22
  -2   4  -9 72079.3 3455.01  13
  -2  -4   9 71615.9 3540.66  10
  -2  -4   9 74874.6 3548.28   9
  -2  -4   9 64490.6 4339.80  48
  -2   4  -9 71800.4 3849.86  46
   2  -4  -9 68689.6 3365.75  43
  -2   4  -9 68846.8 3476.01  42
  -2  -4   9 75778.2 3327.80  44
   2   4   9 73269.7 3047.58  18
  -2  -4   9 72545.9 3464.34  20
   2  -4  -9 71980.7 3095.56  19
  -2   4  -9 70855.7 3896.74  35
  -2  -4   9 82766.8 3434.31  33
  -2  -4   9 69913.5 3537.52  31
   2   4   9 69297.3 3119.28  32
   2  -4  -9 68638.7 3161.95  22
  -2   4  -9 74524.6 3608.19  25
  -2   4 -10 7542.16 937.621  13
  -2  -4  10 10225.3 1076.96  10
  -2  -4  10 9930.13 1038.57   9
  -2  -4  10 9798.36 1508.77  48
  -2   4 -10 7416.67 1043.32  46
   2  -4 -10 6850.36 859.632  43
  -2   4 -10 7776.52 946.463  42
  -2  -4  10 9195.20 907.628  44
   2   4  10 8884.88 772.300  18
  -2  -4  10 8813.65 986.704  20
   2  -4 -10 6495.11 700.369  19
  -2  -4  10 8657.66 822.761  33
  -2   4 -10 7382.72 1104.10  35
  -2  -4  10 8691.76 1022.26  31
   2   4  10 7243.38 757.063  32
   2  -4 -10 7328.95 795.871  22
  -2   4 -10 8071.70 983.793  25
  -2   4 -11 8758.05 1038.42  13
  -2  -4  11 10745.6 1110.27  10
  -2  -4  11 8984.26 1032.48   9
  -2  -4  11 10258.1 1400.85  48
  -2   4 -11 11377.5 1232.03  46
   2  -4 -11 9532.29 995.316  43
  -2   4 -11 9741.29 1047.54  42
  -2  -4  11 10166.6 955.938  44
   2   4  11 8858.80 776.109  18
  -2  -4  11 9183.95 1024.94  20
   2  -4 -11 9376.19 813.579  19
  -2  -4  11 8499.24 1136.79  38
  -2   4 -11 6797.95 1112.48  35
  -2  -4  11 8798.57 1028.75  31
   2   4  11 8812.82 826.011  32
   2  -4 -11 8352.26 860.994  22
  -2   4 -11 8778.22 1039.69  25
  -2   4 -12 2599.58 628.781  13
  -2  -4  12 2468.53 550.350  10
  -2  -4  12 2926.62 602.221   9
  -2   4 -12 2033.20 524.355  46
   2   4  12 3287.86 446.879  45
  -2  -4  12 2699.32 490.806  44
   2  -4 -12 2516.83 552.361  43
  -2   4 -12 2831.42 599.578  42
   2   4  12 3126.71 455.340  18
  -2  -4  12 3411.26 620.554  20
   2  -4 -12 2860.01 453.576  19
   2   4  12 2702.80 501.555  21
  -2   4 -12 2678.49 798.615  35
  -2  -4  12 3004.07 699.526  38
   2   4  12 2301.76 432.499  32
  -2  -4  12 2592.69 554.522  31
  -2   4 -12 2575.24 597.666  25
   2  -4 -12 3396.42 534.971  22
  -2   4 -13 14563.2 1455.85  13
  -2  -4  13 16202.6 1391.86  10
  -2  -4  13 14803.6 1347.38   9
  -2  -4  13 14573.8 1542.55  48
   2   4  13 16643.0 1109.79  45
  -2   4 -13 13739.1 1277.98  42
  -2  -4  13 14100.8 1158.39  44
   2   4  13 14529.6 1012.77  18
  -2  -4  13 12977.3 1262.77  20
   2  -4 -13 14212.6 1028.73  19
  -2   4 -13 9928.86 1471.82  35
  -2  -4  13 14397.9 1443.42  38
  -2  -4  13 17098.4 1439.11  31
   2   4  13 16211.4 1147.87  32
   2  -4 -13 15719.9 1175.08  22
   2   4  13 15803.3 1248.30  21
  -2   4 -13 14866.0 1336.34  25
  -2  -4  14 40765.1 2445.00  10
  -2  -4  14 41391.7 2426.35   9
  -2  -4  14 37767.0 2602.91  48
   2   4  14 46165.5 2080.43  45
  -2   4 -14 40571.4 2389.15  42
  -2  -4  14 36803.5 2333.48  20
   2  -4 -14 43572.1 2013.44  19
  -2   4 -14 36356.3 2789.45  35
  -2  -4  14 38521.7 2510.94  38
  -2  -4  14 37986.5 2384.23  31
   2  -4 -14 38261.0 2103.17  22
   2   4  14 39663.2 2205.35  21
  -2   4 -14 39347.1 2349.13  25
  -2  -4  15 32956.1 2119.78  10
  -2  -4  15 30992.9 2044.02   9
  -2  -4  15 30419.6 2204.73  48
   2   4  15 36138.0 1790.03  45
  -2   4 -15 30975.3 2022.32  42
  -2  -4  15 29719.2 2050.34  20
   2  -4 -15 28099.7 1582.06  19
  -2   4 -15 28221.5 2268.15  35
  -2  -4  15 31956.7 2151.62  38
  -2  -4  15 32541.1 2115.49  31
   2  -4 -15 29589.1 1770.14  22
   2   4  15 31104.5 1872.26  21
  -2   4 -15 30482.6 1977.20  25
  -2   4 -16 9556.26 1194.03  13
  -2  -4  16 11842.2 1188.47  10
  -2  -4  16 12237.6 1196.29   9
   2   4  16 13315.5 1004.49  45
  -2  -4  16 11833.8 1305.12  48
  -2   4 -16 10262.3 1097.64  42
  -2  -4  16 11590.7 1235.82  20
   2  -4 -16 8521.58 759.098  19
  -2   4 -16 8079.05 1105.45  35
  -2  -4  16 11860.6 1192.84  38
  -2  -4  16 11547.0 1195.03  31
   2   4  16 13037.1 1024.32  32
   2  -4 -16 10071.5 941.229  22
   2   4  16 10795.5 1022.82  21
  -2   4 -16 10745.4 1079.22  25
  -2   4 -17 25427.1 1902.46  13
  -2  -4  17 23131.9 1749.26  10
  -2   4 -17 26855.5 1949.36   7
  -2  -4  17 24951.1 1787.13   9
   2   4  17 25245.1 1528.84  45
  -2  -4  17 20002.9 1744.17  48
   2  -4 -17 21399.4 1568.52  43
  -2   4 -17 24500.5 1742.21  42
   2  -4 -17 24827.5 1354.00  19
  -2  -4  17 25790.8 1753.03  38
  -2  -4  17 25478.5 1824.59  31
   2   4  17 26730.9 1571.09  32
   2  -4 -17 22783.3 1521.10  22
   2   4  17 25063.3 1607.27  21
  -2   4 -17 23531.3 1672.98  25
  -2   4 -18 13566.7 1312.33  13
  -2  -4  18 13740.2 1262.51  10
  -2   4 -18 11372.2 1205.94   7
  -2  -4  18 12638.6 1211.30   9
   2   4  18 12886.2 1013.39  45
  -2  -4  18 13336.9 1346.19  48
   2  -4 -18 12581.0 1120.72  43
  -2   4 -18 11811.4 1176.42  42
  -2  -4  18 12917.5 1143.85  38
  -2  -4  18 14832.5 1347.15  31
   2   4  18 13661.3 1068.66  32
   2  -4 -18 11546.9 1028.54  22
  -2   4 -18 11303.3 1113.57  25
   2   4  18 13901.0 1108.57  21
  -2   4 -19 24932.5 1751.26  13
  -2  -4  19 20650.8 1633.50  10
  -2   4 -19 23575.2 1698.87   7
  -2  -4  19 21444.5 1637.28   9
   2   4  19 23768.7 1417.69  45
  -2  -4  19 23656.1 1792.55  48
   2  -4 -19 20933.0 1478.79  43
  -2   4 -19 21670.6 1630.45  42
  -2  -4  19 22248.6 1526.13  20
  -2   4 -19 23761.3 1676.73  35
  -2  -4  19 21052.0 1422.06  38
  -2  -4  19 22046.9 1688.68  31
   2   4  19 23219.2 1451.14  32
   2   4  19 22921.1 1462.77  21
   2  -4 -19 22221.8 1449.01  22
   2   4  19 22388.3 1299.83  23
  -2   4 -20 598.860 339.264  13
  -2  -4  20 276.184 255.483  10
  -2  -4  20 271.236 286.032   9
  -2  -4  20 749.033 429.155  48
   2   4  20 303.256 215.134  45
   2  -4 -20 255.948 232.018  43
  -2   4 -20 334.160 259.355  42
  -2  -4  20 352.413 228.196  20
   2   4  20 286.477 223.525  21
  -2   4 -20 494.471 298.133  35
   2   4  20 138.942 195.500  32
  -2  -4  20 290.470 306.291  31
   2   4  20 348.768 200.022  23
   2  -4 -20 373.249 218.432  22
  -2   4 -21 76056.8 3441.08  13
  -2  -4  21 75812.2 3510.01  10
  -2  -4  21 70363.1 3428.26   9
   2   4  21 74383.3 3086.36  45
  -2  -4  21 66744.5 3446.09  48
   2  -4 -21 70851.5 3121.97  43
  -2   4 -21 67155.6 3325.38  42
  -2  -4  21 73937.3 3113.03  20
  -2   4 -21 64671.2 3196.74  35
  -2  -4  21 66947.5 3429.13  31
   2   4  21 73986.6 3102.66  32
   2   4  21 74794.6 3111.54  21
   2  -4 -21 69394.0 3051.50  22
   2   4  21 78028.7 2965.95  23
  -2   4 -22 2264.48 490.153  13
  -2  -4  22 1914.19 462.269  10
  -2  -4  22 1953.18 527.303  48
   2   4  22 2607.02 436.044  45
   2  -4 -22 2058.06 384.038  43
  -2   4 -22 2544.63 524.366  42
  -2  -4  22 2843.33 519.965   9
   2   4  22 2665.50 420.583  21
   2   4  22 1844.90 369.017  32
  -2  -4  22 1735.11 444.015  31
   2  -4 -22 2479.66 410.210  22
   2   4  22 3110.67 410.886  23
  -2   4 -23 31596.7 1818.09  13
  -2  -4  23 29012.1 1790.19  10
   2   4  23 28235.7 1574.68  45
  -2  -4  23 28243.0 1882.57  48
   2  -4 -23 30201.3 1563.90  43
  -2   4 -23 30093.5 1789.85  42
  -2  -4  23 29982.5 1794.74   9
  -2  -4  23 31574.3 1865.83  31
   2   4  23 27599.2 1524.50  32
   2  -4 -23 30703.5 1572.96  22
   2   4  23 28039.1 1515.14  21
   2   4  23 31265.2 1505.51  23
  -2   4 -24 12017.8 1002.00  13
  -2  -4  24 11194.2 981.086  10
   2   4  24 11821.0 886.438  45
  -2  -4  24 10681.2 1030.98  48
   2  -4 -24 10807.6 788.499  43
  -2   4 -24 11161.2 942.909  42
  -2  -4  24 11709.9 986.364   9
   2  -4 -24 10006.0 739.253  34
  -2  -4  24 10223.8 964.076  31
   2  -4 -24 11154.4 811.791  22
   2   4  24 11762.9 794.905  23
  -2   4 -25 63278.2 2800.28  13
  -2  -4  25 62591.1 2793.13  10
  -2  -4  25 60221.1 2894.80  48
  -2   4 -25 66075.5 2787.23  42
  -2  -4  25 69496.8 2855.15   9
   2  -4 -25 56657.3 2425.55  34
  -2  -4  25 65077.8 2834.20  31
   2  -4 -25 61100.0 2514.46  22
   2   4  25 63650.8 2529.91  23
  -2   4 -26 9236.70 796.611  13
  -2  -4  26 10164.4 818.691  10
   2   4  26 8581.92 710.185  45
  -2  -4  26 10007.5 898.933  48
  -2   4 -26 8484.28 732.410  42
  -2  -4  26 10131.6 809.597   9
  -2  -4  26 10736.0 845.302  31
   2   4  26 8758.36 660.354  23
  -2  -4  27 6432.83 612.953  36
  -2  -4  27 6031.90 648.505  48
  -2   4 -27 6273.28 612.100  13
  -2   4 -27 5576.68 543.844  42
  -2   4 -28 520.045 188.763  13
  -2  -4  28 534.560 203.612  48
  -2  -4  28 498.453 192.219  36
  -2  -4  29 28950.2 1418.56  48
  -2   4 -29 33240.1 1427.80  13
  -2   4 -30 8694.70 527.165  13
  -2   5  24 18796.1 919.193  47
  -2  -5 -24 20225.2 1062.79  49
  -2   5  23 1259.92 244.295  47
  -2  -5 -23 1301.33 292.038  49
  -2   5  22 7332.88 609.178  47
  -2  -5 -22 8786.54 770.276  49
  -2  -5 -22 7579.16 625.518  26
  -2   5  21 32276.8 1586.58  47
  -2  -5 -21 36801.1 1860.68  49
  -2  -5 -21 35421.3 1677.95  26
  -2   5  20 20162.3 1311.16   5
   2  -5  20 23273.9 1177.51  33
   2  -5  20 23119.1 1178.67  48
  -2   5  20 20466.8 1247.92  47
  -2  -5 -20 21196.2 1443.30  49
  -2  -5 -20 18700.9 1254.49  26
   2  -5  19 17039.0 1062.15  48
  -2   5  19 17846.9 1163.27  47
  -2  -5 -19 19537.4 1415.65  49
   2   5 -19 19845.3 985.875  46
   2   5 -19 18253.4 953.150  18
  -2   5  19 16905.9 1207.44   5
   2  -5  19 17266.4 1016.86  33
   2   5 -19 18394.9 1009.86  35
  -2  -5 -19 16234.2 1182.38  26
  -2   5  18 62030.6 3033.20  18
   2  -5  18 73229.3 2864.04  48
  -2   5  18 65938.3 2904.72  47
  -2  -5 -18 63840.5 3194.31  49
   2   5 -18 73836.7 2635.69  46
   2  -5  18 72475.2 2748.29  33
   2   5 -18 70206.4 2662.21  35
  -2  -5 -18 61750.4 2951.65  26
   2   5 -18 53127.0 2368.63  14
   2   5 -17 236.292 146.525  14
   2   5 -17 433.869 181.441  18
   2  -5  17 227.162 145.052  19
  -2   5  17 314.190 265.085  18
  -2  -5 -17 221.287 193.099  19
   2   5 -17 606.483 191.269  46
  -2   5  17 348.618 260.596  47
  -2  -5 -17 288.750 348.137  49
   2   5 -17 291.590 173.873  35
   2  -5  17 250.654 201.028  33
  -2  -5 -17 566.306 344.192  26
   2  -5  16 57215.2 2586.20  48
  -2   5  16 55316.9 2675.43  47
   2   5 -16 57543.8 2343.30  46
  -2  -5 -16 53299.0 2995.47  49
   2  -5  16 55720.2 2442.13  33
   2   5 -16 56364.7 2364.75  35
   2  -5  16 52749.9 2312.13  19
  -2   5  16 51149.8 2816.39  18
  -2  -5 -16 59373.6 2481.09  19
   2   5 -16 60480.6 2412.88  18
   2   5 -16 46746.4 2159.32  14
  -2  -5 -16 52154.3 2716.87  26
   2  -5  15 6629.69 735.674  48
  -2   5  15 6814.28 791.939  47
   2   5 -15 6822.11 620.167  46
  -2  -5 -15 6162.58 902.182  49
   2  -5  15 6976.66 692.478  33
   2   5 -15 6073.12 605.047  35
  -2   5  15 6354.34 857.917  18
  -2  -5 -15 7626.47 711.769  19
   2   5 -15 7428.81 688.422  18
   2   5 -15 5361.44 527.880  14
  -2  -5 -15 6402.50 811.753  26
   2  -5  14 26068.2 1540.18  48
  -2   5  14 21959.2 1512.56  47
   2   5 -14 23905.6 1293.19  46
  -2  -5 -14 21963.1 1772.48  49
  -2   5  14 20457.8 1624.19  18
  -2  -5 -14 22371.7 1343.51  19
   2   5 -14 22522.7 1335.41  18
   2  -5  14 22024.8 1341.56  33
   2   5 -14 21427.4 1237.80  35
   2   5 -14 16717.9 1111.24  14
  -2  -5 -14 22248.2 1592.27  26
   2  -5  13 5598.25 700.043  48
  -2   5  13 6505.47 772.408  47
   2   5 -13 7290.85 663.154  46
  -2  -5 -13 4887.80 851.468  49
   2  -5  13 5525.49 634.125  19
  -2   5  13 6884.36 922.804  18
  -2  -5 -13 7256.32 714.182  19
   2   5 -13 6009.39 659.012  18
  -2   5  13 4771.97 583.471   7
  -2  -5 -13 6845.25 737.548  33
   2  -5  13 6681.37 682.596  33
   2   5 -13 6273.53 605.926  35
   2   5 -13 5435.11 578.700  14
  -2  -5 -13 6395.94 821.788  26
   2  -5  12 28678.2 1685.48  48
  -2   5  12 26460.4 1704.30  47
   2   5 -12 29209.7 1514.59  46
  -2  -5 -12 28555.4 2044.28  49
   2  -5  12 26166.8 1516.43  19
  -2   5  12 24434.1 1876.77  18
   2   5 -12 25288.4 1522.13  18
  -2   5  12 23907.1 1518.38   7
   2  -5  12 27333.1 1528.45  33
  -2  -5 -12 24210.3 1570.75  33
   2   5 -12 25184.7 1385.73  35
   2   5 -12 21450.1 1347.04  14
  -2  -5 -12 26361.8 1745.88  26
   2  -5  11 10526.4 975.453  48
  -2   5  11 9848.69 979.409  47
  -2   5  11 8407.45 1109.77  46
   2   5 -11 10947.0 872.328  46
  -2  -5 -11 11772.9 1288.95  49
   2  -5  11 10270.5 880.968  19
   2   5 -11 11743.2 937.600  18
  -2   5  11 8614.05 882.783   7
  -2  -5 -11 10895.6 979.496  33
   2  -5  11 9910.37 856.303  33
   2   5 -11 10827.8 805.990  35
   2   5 -11 7679.40 748.634  14
  -2  -5 -11 10705.9 1038.74  26
   2  -5  10 22211.8 1461.97  48
  -2   5  10 21870.0 1519.07  47
  -2   5  10 17831.5 1706.88  46
   2   5 -10 23091.9 1323.81  46
  -2  -5 -10 21725.8 1788.09  49
   2  -5  10 21988.4 1362.85  19
   2   5 -10 21690.0 1359.38  18
  -2   5  10 20212.1 1465.34   7
   2  -5  10 19849.1 1279.27  33
   2   5 -10 19510.9 1156.15  35
  -2  -5 -10 20954.8 1434.68  33
   2   5 -10 15369.7 1143.02  14
  -2  -5 -10 19968.5 1463.37  26
  -2   5   9 30740.9 1851.10  47
  -2   5   9 26643.9 2141.20  46
   2   5  -9 31657.0 1666.82  46
  -2  -5  -9 32905.9 2238.97  49
   2  -5   9 26879.2 1627.43  19
  -2   5   9 29230.2 2114.90  18
   2   5  -9 33647.0 1793.39  18
  -2   5   9 27867.2 1846.05   7
  -2  -5  -9 27610.3 1770.49   6
  -2  -5  -9 33104.7 1864.62  33
  -2  -5  -9 32605.4 1890.19  26
   2   5  -9 24400.1 1515.34  14
   2   5  -8 1824.46 368.218  14
   2   5  -8 2167.29 397.890  46
  -2   5   8 2655.84 692.910  46
  -2   5   8 2490.52 506.146  47
  -2  -5  -8 1641.09 518.769  49
   2   5  -8 2647.04 478.310  18
   2  -5   8 1986.31 405.458  19
  -2   5   8 1730.98 509.865  18
  -2   5   8 1166.91 429.314   7
  -2  -5  -8 1838.37 439.835   6
  -2  -5  -8 2615.77 507.957  33
  -2  -5  -8 2271.18 480.086  26
   2  -5   7 28320.8 1681.22  19
  -2   5   7 30320.6 2188.61  18
   2   5  -7 34125.2 1804.15  18
  -2   5   7 30291.1 1850.37  47
  -2   5   7 24355.9 2124.90  46
  -2  -5  -7 31505.4 2218.76  49
   2   5  -7 35969.1 1741.91  46
  -2  -5  -7 31296.6 1852.60  33
   2  -5   7 29807.8 1639.57  33
  -2  -5  -7 31731.4 1886.21   6
   2   5  -7 26719.1 1585.95  14
   2  -5   6 16146.5 1164.38  19
  -2   5   6 16644.7 1578.79  18
   2   5  -6 17368.6 1210.11  18
  -2   5   6 15157.0 1616.47  46
  -2  -5  -6 15496.2 1489.55  49
   2   5  -6 18566.0 1168.44  46
  -2  -5  -6 14981.0 1221.43  33
   2   5  -6 12910.3 1017.62  14
  -2   5   6 15616.8 1411.66   7
  -2  -5  -6 14009.0 1209.74   6
  -2  -5  -5 648.671 324.469   6
   2   5  -5 1062.69 310.461  18
   2  -5   5 1213.81 337.513  19
  -2   5   5 1226.47 518.056  18
   2   5  -5 952.828 287.769  46
  -2   5   5 939.263 518.362  46
  -2  -5  -5 685.773 426.040  49
   2  -5   5 724.359 241.363  33
  -2  -5  -5 912.324 306.650  33
   2   5  -5 631.658 237.597  14
  -2   5   4 22410.2 1993.67  46
   2   5  -4 26968.3 1454.55  46
   2  -5   4 22060.7 1323.51  33
  -2  -5  -4 22183.1 1531.04  33
   2   5  -4 26305.5 1523.45  18
   2  -5   4 23830.5 1448.60  19
  -2   5   4 19367.0 1822.47  18
  -2  -5  -4 23361.9 1586.99   6
   2   5  -4 17938.5 1266.62  14
  -2   5   3 3754.63 843.468  46
   2   5  -3 5007.11 621.946  18
   2  -5   3 4248.82 581.477  19
   2  -5   3 3981.28 509.554  33
  -2  -5  -3 5723.08 721.613  33
  -2   5   3 5239.20 830.959   7
  -2  -5  -3 5367.99 734.574   6
   2   5  -3 3723.52 517.778  14
  -2   5   2 55378.9 3447.56  46
  -2  -5  -2 61922.3 3271.25  49
   2  -5   2 60085.1 2921.74  43
   2   5  -2 64133.6 2754.33  18
   2  -5   2 59037.4 2671.82  19
   2  -5   2 56081.4 2474.49  33
  -2  -5  -2 58117.5 2815.27  33
   2   5  -2 48196.9 2460.28  14
  -2   5   2 59404.6 3231.87   7
  -2  -5  -2 60002.8 2903.90   6
   2   5  -1 721.603 239.552  46
  -2   5   1 557.728 412.740  46
  -2   5   1 893.222 319.625  47
  -2  -5  -1 910.619 422.212  49
   2  -5   1 305.948 258.461  43
  -2  -5  -1 842.018 335.054  20
   2   5  -1 616.099 248.336  18
   2  -5   1 230.728 229.479  19
   2  -5   1 107.206 173.032  33
  -2  -5  -1 683.377 282.956  33
  -2   5   1 261.126 337.921   7
  -2  -5  -1 901.534 344.641   6
  -2  -5  -1 1109.49 306.187   9
   2  -5   0 14136.6 1212.97  43
  -2  -5   0 12866.2 1100.15  44
   2   5   0 15204.6 1122.74  18
  -2  -5   0 14594.7 1195.01  20
   2  -5   0 14966.3 1105.90  19
  -2  -5   0 13693.7 1159.67  33
   2  -5   0 12768.0 911.930  33
  -2   5   0 17698.7 1782.28  46
  -2  -5   0 14371.4 1392.21  49
   2   5   0 16618.5 1074.72  46
  -2   5   0 14404.6 1473.89   7
  -2  -5   0 14481.7 1231.38   6
  -2  -5   0 13381.4 1060.90   9
  -2  -5   1 1063.86 329.418  44
   2  -5  -1 363.823 332.856  43
   2   5   1 510.158 210.767  46
  -2   5  -1 119.671 396.019  46
  -2  -5   1 403.472 243.421  20
   2   5   1 418.120 237.218  18
   2  -5  -1 501.616 261.607  19
   2  -5  -1 715.510 215.602  33
  -2   5  -1 179.260 314.724   7
  -2  -5   1 362.925 291.959   6
  -2  -5   1 332.967 208.603   9
  -2   5  -2 64126.3 3582.84   7
  -2  -5   2 71857.3 3280.62   6
  -2  -5   2 66179.1 3006.65   9
  -2   5  -2 72940.3 4197.29  46
   2   5   2 73082.3 2906.83  46
   2  -5  -2 65919.7 3199.14  43
  -2  -5   2 65153.7 3060.49  44
   2   5   2 75290.7 3070.14  18
  -2  -5   2 71280.0 3231.74  20
   2  -5  -2 64492.2 2960.84  19
   2   5   2 70010.6 2985.84  32
   2  -5  -2 61361.9 2917.12  22
  -2   5  -3 5212.67 923.823   7
  -2  -5   3 7365.14 851.051   6
  -2  -5   3 7754.28 773.119   9
  -2   5  -3 6779.08 1221.04  46
   2   5   3 7242.82 635.022  45
   2   5   3 7525.13 677.027  46
   2  -5  -3 6098.73 789.493  43
  -2  -5   3 6305.23 734.788  44
  -2  -5   3 7212.13 833.681  20
   2  -5  -3 5167.64 636.606  19
  -2  -5   3 6663.05 784.453  33
   2   5   3 5574.82 659.630  32
   2  -5  -3 6899.51 722.438  22
  -2   5  -4 19944.9 1752.13   7
  -2  -5   4 19273.6 1429.00   6
  -2  -5   4 20522.4 1350.08   9
  -2   5  -4 18409.8 2007.45  46
   2   5   4 20930.2 1211.81  46
   2  -5  -4 19148.6 1430.89  43
  -2   5  -4 18900.1 1352.39  42
  -2  -5   4 20739.0 1476.01  20
   2  -5  -4 18256.8 1245.10  19
  -2  -5   4 17636.2 1375.96  33
  -2   5  -4 17691.0 1546.13  35
   2   5   4 19357.4 1275.20  32
   2  -5  -4 21139.4 1323.11  22
  -2  -5   5 177.933 219.425  10
  -2   5  -5 279.776 377.795   7
  -2  -5   5 538.915 280.148   6
  -2  -5   5 545.647 265.886   9
   2   5   5 107.911 145.887  46
   2  -5  -5 58.7169 247.645  43
  -2   5  -5 743.057 291.167  42
  -2  -5   5-59.0666 284.846  20
   2   5   5 399.795 232.398  18
   2  -5  -5 302.534 195.857  19
  -2   5  -5 547.905 330.052  35
   2   5   5 309.146 225.206  32
  -2  -5   5 181.273 264.450  33
  -2   5  -5 198.868 310.115  25
   2  -5  -5 267.740 208.834  22
  -2  -5   6 15320.3 1270.43  10
  -2   5  -6 16317.5 1577.28   7
  -2  -5   6 16133.5 1280.82   6
  -2  -5   6 16658.9 1206.99   9
  -2   5  -6 16194.3 1644.66  46
   2   5   6 14970.8 1003.90  45
   2   5   6 13005.8 940.811  46
   2  -5  -6 14103.3 1204.41  43
  -2   5  -6 16292.1 1228.18  42
   2   5   6 14621.5 1078.72  18
  -2  -5   6 14941.6 1245.49  20
   2  -5  -6 14563.9 1072.58  19
  -2  -5   6 16300.7 1291.63  33
  -2   5  -6 16807.8 1477.68  35
   2   5   6 16947.6 1147.65  32
   2  -5  -6 14489.6 1083.54  22
  -2   5  -6 17532.5 1381.62  25
  -2  -5   7 29133.2 1833.14  10
  -2   5  -7 28998.1 2213.40   7
  -2  -5   7 30069.8 1842.68   6
  -2  -5   7 29465.4 1715.53   9
  -2   5  -7 25913.7 2083.53  46
   2   5   7 36451.7 1656.19  45
   2  -5  -7 28446.9 1780.47  43
  -2   5  -7 25773.2 1688.66  42
   2   5   7 33120.9 1691.06  18
  -2  -5   7 28276.0 1790.32  20
   2  -5  -7 27032.6 1567.78  19
  -2  -5   7 29371.0 1748.05  33
  -2   5  -7 22676.3 1885.98  35
   2   5   7 32491.6 1696.16  32
   2  -5  -7 24433.2 1551.42  22
  -2   5  -7 29043.1 1870.40  25
  -2  -5   8 3075.33 549.684  10
  -2   5  -8 1948.88 574.644   7
  -2  -5   8 3214.89 564.486   6
  -2   5  -8 1652.97 571.361  46
   2   5   8 3466.27 459.789  45
   2  -5  -8 2090.28 477.721  43
  -2   5  -8 1806.99 409.732  42
  -2  -5   8 2463.25 500.218  20
   2   5   8 2716.33 447.490  18
  -2   5  -8 1928.17 552.908  35
   2   5   8 2725.80 445.639  32
  -2   5  -8 2597.76 560.587  25
   2  -5  -8 2037.94 411.557  22
  -2  -5   9 29926.2 1898.36  10
  -2   5  -9 31161.2 2360.53   7
  -2  -5   9 34000.2 1967.49   6
  -2   5  -9 29414.7 2117.01  46
   2   5   9 40500.6 1822.10  45
   2  -5  -9 31627.9 1894.46  43
  -2   5  -9 30309.4 1832.67  42
   2   5   9 38531.3 1820.82  18
  -2  -5   9 33297.2 1968.09  20
  -2   5  -9 30620.7 2152.07  35
  -2  -5   9 28215.6 2061.40  38
   2   5   9 36696.2 1845.94  32
   2  -5  -9 30421.5 1743.09  22
   2   5   9 32170.6 1832.78  21
  -2   5  -9 29631.0 1927.33  25
  -2  -5  10 19348.9 1427.43  10
  -2   5 -10 19384.2 1815.12   7
  -2  -5  10 18263.1 1377.34   6
   2   5  10 21362.0 1260.35  45
   2  -5 -10 20216.0 1407.87  43
  -2   5 -10 18433.1 1346.76  42
   2   5  10 21315.5 1276.57  18
  -2  -5  10 18312.9 1388.16  20
   2  -5 -10 19294.2 1202.88  19
  -2   5 -10 16301.3 1559.60  35
  -2  -5  10 15991.1 1445.76  38
   2   5  10 21385.5 1326.17  32
   2  -5 -10 19544.7 1281.54  22
   2   5  10 19690.2 1344.17  21
  -2   5 -10 21279.3 1483.68  25
  -2  -5  11 8639.77 906.269  10
  -2   5 -11 7851.94 1137.62   7
  -2  -5  11 9734.59 947.917   6
   2   5  11 9071.02 797.209  45
  -2  -5  11 9751.38 1114.23  48
   2  -5 -11 7815.15 833.778  43
  -2   5 -11 7107.27 796.905  42
   2   5  11 7479.49 710.789  18
  -2  -5  11 8983.46 920.980  20
   2  -5 -11 8819.31 750.284  19
  -2   5 -11 7909.87 1044.98  35
  -2  -5  11 9067.50 1013.00  38
   2   5  11 9228.78 822.315  32
   2  -5 -11 8565.54 796.525  22
   2   5  11 7721.30 798.236  21
  -2   5 -11 8268.78 881.952  25
  -2  -5  12 25580.1 1625.46  10
  -2   5 -12 24925.0 2019.16   7
   2   5  12 26217.3 1447.22  45
  -2  -5  12 24235.1 1775.23  48
   2  -5 -12 22453.5 1506.05  43
  -2   5 -12 22571.0 1490.34  42
  -2  -5  12 24235.3 1599.57  20
   2   5  12 22826.9 1337.01  18
   2  -5 -12 22760.8 1315.09  19
  -2   5 -12 21063.4 1771.56  35
  -2  -5  12 21287.3 1589.88  38
   2   5  12 27154.1 1512.08  32
   2  -5 -12 23125.0 1421.25  22
   2   5  12 25130.7 1514.91  21
  -2   5 -12 24933.9 1587.73  25
  -2  -5  13 6570.16 768.988  10
  -2   5 -13 5977.34 925.667   7
   2   5  13 6213.52 645.529  45
  -2  -5  13 5869.61 825.532  48
   2  -5 -13 6422.04 737.555  43
  -2   5 -13 5532.56 689.452  42
  -2  -5  13 6443.01 777.058  20
   2  -5 -13 5892.85 589.453  19
  -2  -5  13 6056.42 754.518  38
  -2   5 -13 5223.71 879.674  35
   2   5  13 6453.81 676.574  32
   2  -5 -13 5389.63 628.976  22
   2   5  13 6723.34 714.557  21
  -2   5 -13 7121.48 787.263  25
  -2  -5  14 24324.5 1548.16  10
  -2   5 -14 26047.0 1871.34   7
   2   5  14 21157.0 1288.09  45
  -2  -5  14 19371.2 1532.28  48
   2  -5 -14 23018.0 1464.08  43
  -2   5 -14 21442.5 1416.56  42
  -2  -5  14 20455.8 1465.26  20
   2  -5 -14 22604.7 1233.63  19
  -2   5 -14 21979.4 1707.92  35
  -2  -5  14 20437.6 1410.58  38
   2   5  14 24471.6 1423.84  32
   2  -5 -14 21601.5 1340.72  22
   2   5  14 21135.7 1370.56  21
  -2   5 -14 21603.0 1424.71  25
  -2  -5  15 5919.21 723.165  10
  -2   5 -15 7108.68 886.516   7
   2   5  15 6060.16 625.422  45
   2  -5 -15 6161.89 705.684  43
  -2   5 -15 5357.32 654.468  42
  -2  -5  15 6621.12 778.448  20
   2  -5 -15 5971.72 546.532  19
  -2   5 -15 5810.42 803.593  35
  -2  -5  15 4746.15 597.189  38
   2   5  15 7088.59 704.988  32
   2  -5 -15 6163.15 643.070  22
   2   5  15 6378.38 667.500  21
  -2   5 -15 5215.99 646.211  25
  -2  -5  16 54392.1 2589.46  10
   2   5  16 53765.0 2353.10  45
   2  -5 -16 49832.2 2436.68  43
  -2   5 -16 51283.9 2462.23  42
  -2  -5  16 57213.3 2577.73  20
   2  -5 -16 50542.3 2143.38  19
  -2   5 -16 52898.9 2715.50  35
  -2  -5  16 46866.1 2199.82  38
   2   5  16 55158.5 2448.40  32
   2  -5 -16 52561.4 2344.03  22
  -2   5 -16 53276.7 2473.35  25
   2   5  16 56276.3 2415.45  21
  -2  -5  17 268.696 288.186  48
   2   5  17 432.126 210.866  45
  -2   5 -17 487.198 231.905  42
  -2  -5  17 263.192 199.004  20
   2   5  17 364.806 204.915  21
  -2   5 -17 818.095 337.644  35
   2  -5 -17 414.134 180.859  22
  -2  -5  17 292.820 221.327  10
  -2  -5  18 73659.9 3170.25  10
  -2   5 -18 73958.6 3235.91   7
  -2  -5  18 72765.5 3004.98   9
   2   5  18 74020.1 2966.53  45
  -2  -5  18 71642.4 3206.05  48
  -2   5 -18 69170.1 3045.92  42
  -2  -5  18 76908.2 3051.67  20
  -2   5 -18 70262.1 3164.39  35
   2   5  18 69321.6 2963.97  32
   2  -5 -18 74700.3 2915.51  22
  -2  -5  19 18760.1 1185.68  10
   2  -5 -19 12092.2 915.796  43
  -2   5 -19 14112.2 1018.91  42
   2   5  19 17248.1 1040.45  45
  -2  -5  19 16316.3 1168.21  48
  -2  -5  19 17827.5 1054.29   9
   2   5  19 15600.8 1011.91  32
   2  -5 -19 14590.5 924.331  22
   2   5  20 22375.6 1224.50  45
  -2  -5  20 23045.1 1371.14  48
  -2  -5  20 23910.2 1339.16  10
  -2   5 -20 19837.3 1204.44  42
   2  -5 -20 21469.4 1125.38  22
  -2  -5  21 36920.9 1837.87  48
  -2  -5  22 5687.64 572.788  48
  -2  -5  23 1473.15 290.484  48
  -2  -5  24 19596.8 977.999  36
  -2  -5  24 20612.8 1027.31  48
   2  -6  14 2580.18 307.208  48
   2  -6  13 18404.5 990.270  48
   2  -6  12 16307.1 953.634  48
   2  -6  11 3880.53 461.578  48
   2  -6  10 6996.96 647.305  48
   2  -6   9 6064.91 603.620  48
   2  -6   8 12139.9 887.535  48
   2  -6   7 31401.3 1627.23  48
  -2  -6  -6 13439.5 925.159  33
   2   6  -6 15386.0 956.710  18
  -2  -6  -5 119339. 4487.82  33
   2   6  -5 132519. 4512.92  18
   2  -6   5 121834. 4401.18  19
   2  -6   5 129768. 4665.86  48
  -2   6   5 108393. 4851.90  46
   2  -6   5 119765. 4520.17  43
   2  -6   4 17266.8 1143.44  43
   2   6  -4 26067.4 1275.68  18
   2  -6   4 20247.1 1123.10  19
  -2  -6  -4 21337.1 1207.44  33
   2  -6   4 21475.4 1278.11  48
  -2   6   4 16556.6 1382.28  46
  -2   6   4 21982.8 1309.64  25
   2  -6   3 7658.41 709.626  48
  -2   6   3 6374.49 812.677  46
   2  -6   3 7041.72 658.381  43
   2   6  -3 8566.49 685.927  18
   2  -6   3 7029.29 598.555  19
  -2  -6  -3 7180.50 650.525  33
  -2   6   3 8280.99 757.901  25
  -2  -6  -3 7283.58 675.668   6
  -2  -6  -2 1747.08 336.943   6
   2  -6   2 1686.67 327.001  43
   2  -6   2 2041.02 389.205  48
  -2   6   2 1526.20 443.332  46
   2   6  -2 2060.20 335.709  18
   2  -6   2 1764.44 294.199  19
  -2  -6  -2 1771.21 328.233  33
  -2   6   2 1600.90 345.128  25
  -2  -6  -1 7014.93 665.125   6
   2  -6   1 6829.82 651.900  43
   2  -6   1 7379.46 683.610  48
  -2   6   1 7387.37 899.789  46
   2   6  -1 7220.89 636.653  18
   2  -6   1 7689.74 622.894  19
   2   6  -1 7545.88 612.994  32
  -2   6   1 7581.22 714.578  25
  -2   6   0 9737.83 884.892   7
  -2  -6   0 12705.5 908.634   6
   2  -6   0 9389.74 798.530  43
  -2   6   0 10011.3 1058.08  46
   2   6   0 13493.8 885.372  18
   2  -6   0 11272.5 778.918  19
   2   6   0 14975.1 871.495  32
  -2   6   0 11088.8 883.063  25
  -2  -6   1 6507.76 646.714   6
   2  -6  -1 7286.03 679.973  43
  -2   6  -1 6185.28 826.733  46
   2   6   1 8336.99 682.284  18
   2  -6  -1 8499.10 650.684  19
   2   6   1 8083.39 643.915  32
  -2   6  -1 7200.31 703.147  25
  -2  -6   2 978.830 266.046   6
  -2   6  -2 1132.07 405.450  46
   2  -6  -2 936.365 257.514  43
   2  -6  -2 739.171 209.289  19
   2   6   2 908.322 238.964  32
  -2   6  -2 678.885 254.719  25
  -2   6  -3 4700.71 534.793  25
   2  -6  -3 4792.49 536.880  43
   2  -6  -3 4649.19 476.305  19
  -2  -6   3 5991.95 702.151  38
   2   6   3 5953.48 549.802  32
  -2   6  -3 4829.05 626.614   7
  -2  -6   3 4669.44 538.997   6
  -2   6  -4 19945.0 1181.85  25
   2  -6  -4 18910.6 1057.40  19
   2  -6  -4 17506.9 1133.41  43
   2   6   4 21749.1 1159.56  32
  -2   6  -4 19149.5 1328.30   7
  -2  -6   4 19352.6 1178.37   6
  -2   6  -5 120599. 4576.84  25
   2  -6  -5 122580. 4599.94  43
   2  -6  -5 126489. 4456.36  19
  -2   6  -5 115298. 4840.92   7
  -2  -6   5 121228. 4602.03   6
  -2   6  -6 15046.1 982.719  25
  -2  -6   6 13813.2 1033.68  38
   2  -6  -6 14878.8 996.723  43
   2   6   6 17620.4 1021.63  32
  -2   6  -6 16634.3 1215.14   7
  -2  -6   7 25729.4 1443.11  38
  -2   6  -7 28791.7 1438.38  25
  -2  -6   8 10737.9 790.337  38
  -2   6  -8 12009.2 809.267  25
  -2  -6   9 4079.34 426.396  38
  -2   6  -9 5696.10 513.190  25
  -2   6 -10 7567.92 587.188  25
  -3   0   0-79.7637 246.742   7
   3   0   0 278.540 364.109  17
  -3   0   0 314.693 390.259  26
  -3   0   0-67.5661 273.658  37
  -3   0   0-86.6519 268.050  38
   3   0   0-62.4598 178.882  28
  -3   0   0 50.5208 212.976  12
  -3   0   0 54.8248 192.304  13
  -3   0  -1 5971.64 879.839   7
  -3   0   1 6160.37 885.209   7
   3   0  -1 5988.52 1134.02  17
   3   0   1 5828.76 1153.24  17
  -3   0   1 6444.43 907.059  26
  -3   0  -1 6551.93 942.683  38
  -3   0   1 6856.71 860.823  37
  -3   0  -1 5940.40 824.043  37
  -3   0   1 6177.72 937.096  38
   3   0  -1 6148.16 915.026  27
   3   0   1 6719.78 816.174  28
   3   0  -1 5758.96 751.031  28
  -3   0   1 7088.21 783.901  13
  -3   0  -1 7220.10 808.165  13
  -3   0  -1 5853.80 694.448  12
  -3   0   1 7680.82 807.413  12
  -3   0  -2 110671. 4863.58   7
  -3   0   2 109897. 4947.05   7
   3   0  -2 122319. 6027.60  17
   3   0   2 117706. 5933.93  17
  -3   0   2 116234. 4981.21  26
  -3   0   2 107783. 4692.17  37
  -3   0  -2 110939. 4821.59  37
  -3   0  -2 103998. 4873.03  38
  -3   0   2 104020. 5008.38  38
   3   0  -2 106084. 5092.61  27
   3   0   2 105297. 4635.47  28
   3   0  -2 113484. 4673.99  28
  -3   0   2 108751. 4472.80  13
  -3   0  -2 111573. 4610.87  13
   3   0   2 118176. 4549.88  16
  -3   0  -2 117028. 4454.26  12
  -3   0   2 112725. 4551.85  12
  -3   0  -3 5680.09 805.661   7
   3   0  -3 7042.70 1242.02  17
   3   0   3 5529.97 1045.60  17
  -3   0   3 5060.86 799.383  26
  -3   0  -3 5278.07 825.199  37
  -3   0   3 5730.10 670.096  36
  -3   0  -3 5919.88 852.522  38
  -3   0   3 5682.14 908.062  38
   3   0  -3 6363.11 1000.04  27
   3   0   3 6365.84 790.756  28
   3   0  -3 4526.35 670.845  28
  -3   0  -3 5600.05 751.225  13
  -3   0  -3 6388.81 682.790  12
   3   0   3 4866.40 641.621  16
  -3   0   3 6057.22 709.499  13
  -3   0  -4 85043.2 3886.75   7
   3   0   4 90855.3 4755.69  17
  -3   0  -4 89898.1 4216.62  26
  -3   0  -4 80923.1 3974.10  37
  -3   0   4 89923.6 3703.19  36
  -3   0  -4 80342.7 3872.24  38
   3   0   4 82057.5 3857.48  28
   3   0  -4 82521.8 3777.07  28
  -3   0   4 88009.6 4055.12  26
  -3   0  -4 84685.6 3809.42  13
  -3   0  -4 85995.7 3534.56  12
   3   0   4 88566.5 3669.58  16
  -3   0  -5 10677.5 1029.45   7
  -3   0   5 10731.4 1191.20   7
   3   0   5 13556.8 1512.63  17
  -3   0  -5 10727.9 1214.96  26
  -3   0   5 10491.7 998.610  36
   3   0   5 9505.89 1026.21  28
   3   0  -5 9018.17 967.352  28
  -3   0   5 11450.3 1161.34  26
  -3   0  -5 11208.8 1088.98  13
  -3   0  -5 11138.7 897.854  12
   3   0   5 12090.1 995.303  16
  -3   0  -6 58507.9 2930.94   8
  -3   0  -6 55236.7 2760.83   7
  -3   0   6 51163.9 3002.47   7
   3   0  -6 58029.7 3809.92  17
  -3   0  -6 59458.4 3233.92  26
  -3   0   6 57079.2 2834.67  36
  -3   0   6 57353.9 3214.35  38
   3   0  -6 53916.3 2823.43  28
  -3   0   6 57081.5 3012.54  26
  -3   0  -6 56927.1 2931.09  13
  -3   0  -6 60180.1 2583.67  12
   3   0   6 61265.3 2755.67  16
  -3   0   6 56655.2 2609.73  13
  -3   0  -7 2804.08 589.665   8
  -3   0   7 3215.34 665.849   7
   3   0  -7 3628.64 880.882  17
  -3   0   7 3345.10 654.829  26
  -3   0  -7 3701.85 746.754  26
  -3   0   7 3562.73 621.919  36
  -3   0   7 2344.22 592.114  38
   3   0  -7 3698.23 598.749  28
  -3   0  -7 3552.97 644.979  13
  -3   0  -7 3626.42 473.463  12
   3   0   7 3064.63 488.122  16
  -3   0   7 3370.02 495.825  13
  -3   0  -8 19538.5 1516.29   8
  -3   0   8 18062.1 1587.77   7
   3   0  -8 20167.4 2074.67  17
  -3   0  -8 19630.0 1694.69  26
  -3   0   8 20833.8 1565.69  36
   3   0  -8 18040.7 1397.14  28
  -3   0   8 20270.7 1557.98  26
  -3   0  -8 18881.6 1524.32  13
  -3   0  -8 18698.3 1161.32  12
   3   0   8 18867.6 1306.51  16
  -3   0  -9 2184.71 548.693   8
  -3   0   9 1665.95 517.965   7
   3   0  -9 663.244 440.475  17
  -3   0   9 1052.84 401.755  26
  -3   0  -9 973.905 464.655  26
  -3   0   9 1671.01 459.178  36
  -3   0   9 1391.01 519.835  38
   3   0  -9 1204.34 387.150  28
  -3   0  -9 1155.55 268.307  12
  -3   0  -9 1152.62 414.549  13
   3   0   9 1626.46 373.253  16
  -3   0 -10 148502. 5945.75   8
  -3   0  10 140625. 6016.75   7
  -3   0 -10 154243. 6372.79  26
   3   0 -10 143585. 6875.92  17
  -3   0  10 150456. 6095.74  36
  -3   0  10 141571. 6192.13  38
  -3   0  10 145357. 5832.34  26
   3   0 -10 138710. 5770.17  28
  -3   0 -10 148450. 6058.95  13
  -3   0 -10 144374. 5249.59  12
   3   0  10 153574. 5652.87  16
  -3   0 -11 3798.59 681.065   8
  -3   0  11 4555.35 759.427   7
  -3   0 -11 3756.50 781.769  26
   3   0  11 4387.31 699.665  41
   3   0 -11 4142.87 928.551  17
  -3   0  11 4551.22 791.327  38
   3   0 -11 2563.14 518.007  28
  -3   0  11 4859.52 653.552  30
  -3   0 -11 3536.97 692.043  13
  -3   0 -11 3987.51 455.497  12
   3   0  11 3721.17 568.756  16
  -3   0 -12 58244.6 3116.72   8
  -3   0  12 59553.6 3146.31   7
  -3   0 -12 64812.1 3512.99  26
   3   0  12 53172.7 3057.24  41
   3   0 -12 67017.4 3942.37  17
  -3   0  12 61025.3 3277.54  38
   3   0 -12 52382.6 2551.04  34
  -3   0  12 68242.1 3030.46  30
  -3   0 -12 65065.2 3329.61  13
  -3   0 -12 59785.8 2446.89  12
   3   0  12 59036.1 2835.87  16
  -3   0 -13 75.7642 306.862   8
  -3   0  13 73.7263 243.813   7
  -3   0 -13 287.210 335.806  26
   3   0  13 478.379 322.924  41
   3   0 -13-123.598 289.021  17
  -3   0  13 1400.08 481.463  36
   3   0 -13-83.6098 176.233  34
  -3   0  13 81.1779 284.739  38
  -3   0  13-125.354 231.737  30
  -3   0 -13 85.8184 145.789  12
  -3   0  13-74.5874 275.774  12
  -3   0 -13 170.332 344.942  13
  -3   0 -14 861.186 430.917   8
  -3   0  14 719.037 377.768   7
  -3   0 -14 1567.88 550.703  26
   3   0  14 1381.30 415.730  41
   3   0 -14 1911.63 610.015  17
  -3   0  14 1216.62 446.316  36
   3   0 -14 991.336 291.823  34
  -3   0  14 938.966 389.885  38
  -3   0  14 1863.96 448.632  30
  -3   0  14 1532.78 483.947  12
  -3   0 -14 1026.26 480.953  13
  -3   0 -15 17006.3 1505.77   8
  -3   0  15 17617.2 1432.08   7
  -3   0  15 18462.4 1554.48  23
  -3   0 -15 19876.9 1795.00  26
   3   0  15 17587.6 1528.36  41
   3   0 -15 16055.5 1713.77  17
   3   0 -15 15326.2 1125.09  34
  -3   0  15 17123.5 1515.42  36
  -3   0  15 17587.3 1494.07  38
  -3   0  15 18294.5 1488.09  30
  -3   0 -15 15855.1 1471.80  13
  -3   0  15 14835.9 1421.72  12
  -3   0 -16 18639.7 1602.41   8
  -3   0  16 15853.2 1340.06   7
  -3   0 -16 17321.4 1673.89  26
  -3   0  16 15673.9 1457.05  23
   3   0 -16 13457.3 1030.25  34
  -3   0  16 18631.7 1538.69  36
  -3   0  16 18921.7 1512.71  38
  -3   0  16 14984.8 1393.45  30
  -3   0 -16 16356.6 1474.15  13
  -3   0  16 15912.9 1488.43  12
  -3   0 -17 7464.86 1059.96   8
  -3   0  17 5800.39 773.302   7
  -3   0 -17 9287.66 1182.06  26
  -3   0  17 6675.58 950.113  23
   3   0 -17 5570.38 617.531  34
  -3   0  17 8072.82 993.619  36
  -3   0  17 7509.40 931.534  38
  -3   0  17 5993.78 888.939  30
  -3   0  17 8102.12 1052.45  12
  -3   0 -18 128047. 5557.18   8
  -3   0  18 109323. 4603.78   7
  -3   0 -18 108538. 4998.34  26
  -3   0  18 103557. 4979.17  23
   3   0 -18 96895.6 4070.41  34
  -3   0  18 118668. 4906.99  36
  -3   0  18 121744. 4779.36  38
  -3   0  18 104137. 4947.51  30
  -3   0  18 113196. 5140.40  12
  -3   0 -19 6273.43 1195.68   8
  -3   0  19 6188.90 758.418   7
   3   0 -19 5815.59 727.559  24
  -3   0  19 4740.75 892.299  23
   3   0 -19 5298.62 558.874  34
  -3   0  19 4820.96 768.361  36
  -3   0  19 5741.80 761.937  38
  -3   0  19 6998.29 1016.76  30
  -3   0  19 7122.01 1100.42  12
  -3   0  20 5462.64 694.805   7
   3   0 -20 5055.99 638.458  24
  -3   0  20 4752.32 996.839  23
   3   0 -20 4540.13 505.491  34
  -3   0  20 5071.48 764.701  36
  -3   0  20 5141.60 714.632  38
  -3   0  20 5547.58 887.213  30
  -3   0 -20 4879.34 702.348  13
  -3   0  20 3871.32 955.224  12
  -3   0 -21 1846.19 835.559   8
  -3   0  21 3541.03 533.252   7
   3   0 -21 2521.88 460.046  24
   3   0 -21 2855.62 387.616  34
  -3   0  21 3997.76 685.663  36
  -3   0  21 3656.67 549.143  38
  -3   0  21 4519.90 789.543  30
  -3   0 -21 2588.44 503.133  13
  -3   0  21 1807.65 1092.70  12
  -3   0 -22 38592.0 2616.43   8
  -3   0  22 40636.0 1996.87   7
   3   0 -22 34120.3 1878.67  24
   3   0 -22 35144.5 1685.21  34
  -3   0  22 34800.4 2176.17  36
  -3   0  22 40968.9 2052.50  38
  -3   0  22 37340.3 2302.85  30
  -3   0 -22 37418.1 2045.27  13
  -3   0 -23 2821.64 631.751   8
   3   0 -23 2684.68 434.895  24
   3   0 -23 2718.46 351.209  34
  -3   0  23 3344.34 578.655  36
  -3   0  23 3115.25 609.774  30
  -3   0 -23 2914.58 495.342  13
  -3   0  23 3886.25 858.703  12
  -3   0 -24 49543.0 2693.78   8
   3   0 -24 45348.5 2171.38  24
   3   0 -24 43536.3 1950.61  34
  -3   0  24 50634.5 2519.37  36
   3   0  24 50944.9 2148.44  31
  -3   0  24 53571.6 2656.76  30
  -3   0 -24 47312.0 2263.94  13
  -3   0  24 57417.4 2952.85  12
  -3   0 -25 4739.79 704.200   8
   3   0 -25 4315.63 514.802  24
   3   0  25 5106.97 515.045  31
  -3   0  25 5031.29 688.486  30
  -3   0 -25 4696.79 534.276  13
  -3   0  25 5751.04 786.267  12
  -3   0 -26 70620.5 3139.24   8
   3   0 -26 61937.3 2680.55  24
   3   0 -26 60371.3 2610.83  35
   3   0  26 68633.1 2690.66  31
  -3   0  26 74346.3 3149.31  30
  -3   0 -26 68448.7 2682.34  13
  -3   0  26 70757.9 3190.73  12
  -3   0 -27 13851.2 1091.68   8
   3   0 -27 13165.7 861.684  24
   3   0  27 14440.6 885.695  31
  -3   0  27 14985.6 1111.51  30
  -3   0 -27 13499.3 794.921  13
  -3   0  27 12626.5 1063.02  12
  -3   0 -28 29821.5 1621.36   8
   3   0 -28 28258.4 1368.75  24
   3   0 -28 28546.7 1285.03  35
   3   0  28 28646.3 1372.29  31
  -3   0  28 28002.9 1600.75  12
   3   0 -29 117.528 95.5634  24
   3   0  29 438.626 161.383  31
  -3   0 -29 486.183 209.869   8
  -3   0  29 549.854 242.590  12
  -3   0  30 3043.82 402.733  12
  -3   0  31 48.0635 122.485  12
   3   0  32 8929.12 549.446  47
  -3   0  32 9628.60 580.749  12
  -3   1  32 4676.65 372.873  12
  -3  -1 -32 4555.06 395.158  37
  -3   1  31 29154.8 1333.46  12
  -3  -1 -31 27793.1 1387.56  37
  -3   1  30 4527.69 474.082  12
  -3   1  30 3984.74 425.973  11
  -3  -1 -30 4278.40 519.229  37
  -3  -1 -29 31873.3 1745.64  37
  -3   1  29 31105.7 1559.43  11
  -3   1  29 31885.2 1636.91  12
   3  -1  29 33055.9 1471.28  20
  -3  -1 -28 4354.95 615.130  37
   3   1 -28 4731.23 407.338  35
  -3   1  28 3703.65 524.372  12
   3  -1  28 4335.49 444.374  20
  -3  -1 -27 53183.0 2694.62  37
   3   1 -27 50849.5 2100.87  35
   3  -1  27 54701.7 2243.60  20
  -3   1  27 54520.9 2547.51  12
   3  -1  26 11354.7 811.984  20
  -3  -1 -26 10392.8 1087.40  37
   3   1 -26 11208.6 755.589  35
  -3   1  26 11637.0 1051.51  12
   3  -1  26 11873.4 770.214  31
  -3  -1 -26 11483.3 926.877   8
  -3  -1 -25 52373.9 2875.96  37
   3   1 -25 46476.3 2138.61  35
  -3   1  25 56342.1 2768.80  12
   3  -1  25 54414.1 2186.12  31
  -3  -1 -25 51911.6 2488.02   8
  -3  -1 -24 8897.91 1132.74  37
   3   1 -24 7764.18 678.838  35
  -3   1  24 8761.27 1005.27  12
   3  -1  24 9153.31 693.321  31
  -3   1  24 9077.46 915.346  30
  -3  -1 -24 8908.68 907.136   8
  -3   1  24 9748.11 778.441   7
  -3  -1 -23 1935.98 643.835  37
   3   1 -23 2028.55 344.828  35
  -3  -1 -23 2021.19 326.625  13
  -3   1  23 2546.23 611.175  12
   3  -1  23 2783.83 375.042  31
  -3   1  23 2462.37 506.067  30
  -3  -1 -23 1650.66 445.856   8
  -3  -1 -22 6535.90 864.915   8
   3   1 -22 5540.82 589.945  24
  -3  -1 -22 7193.14 971.948  26
  -3  -1 -22 6007.00 1066.46  37
   3  -1  22 7161.85 614.437  31
  -3   1  22 7837.34 901.386  30
  -3  -1 -22 6438.23 627.904  13
  -3   1  22 8429.32 1154.73  12
  -3   1  21 9790.89 937.214   7
   3   1 -21 9541.06 787.205  24
  -3  -1 -21 11420.9 1288.44  26
  -3  -1 -21 6777.54 1320.00  37
   3  -1  21 10581.5 766.619  31
  -3   1  21 10845.2 1130.49  30
  -3  -1 -21 10290.5 841.748  13
  -3   1  21 12069.1 1549.30  12
  -3  -1 -20 4227.32 553.178  13
  -3   1  20 2448.87 804.832  12
  -3   1  20 5181.60 678.632   7
  -3  -1 -20 5933.09 1427.04  50
  -3  -1 -20 4011.45 1290.56  37
   3  -1  20 4405.12 485.588  31
  -3   1  20 5173.91 840.961  30
   3   1 -20 2872.53 441.497  24
  -3  -1 -20 5236.62 945.976  26
  -3  -1 -19 29129.8 1700.08  13
  -3   1  19 31238.7 2370.75  12
  -3   1  19 28724.3 1867.07   7
  -3  -1 -19 37279.4 2799.07  50
  -3  -1 -19 35175.5 3030.00  37
  -3   1  19 33137.8 1801.91  38
   3  -1  19 27672.7 1459.81  31
  -3   1  19 33898.3 2377.41  30
   3   1 -19 26730.6 1561.47  24
  -3  -1 -19 30716.6 2514.42  26
  -3   1  19 28934.4 2079.64  23
  -3  -1 -18 30554.2 1796.65  13
  -3   1  18 32469.2 2325.76  12
  -3   1  18 28815.9 1926.50   7
  -3  -1 -18 36858.8 2467.11  50
  -3  -1 -18 35610.8 2753.54  37
  -3   1  18 33129.5 1834.05  38
   3  -1  18 27356.0 1450.54  31
  -3   1  18 31612.6 2461.98  30
   3   1 -18 26521.0 1573.46  24
  -3  -1 -18 33505.3 2818.40  26
  -3   1  18 29263.0 1994.50  23
  -3  -1 -17 57075.4 2787.69  13
  -3   1  17 57390.5 3258.24  12
  -3   1  17 53433.2 2950.80   7
  -3  -1 -17 62496.3 3286.14  50
  -3  -1 -17 62237.3 3697.38  37
  -3   1  17 65658.2 2878.08  38
  -3   1  17 43779.8 3010.50  30
  -3   1  17 59986.9 2993.78  23
   3   1 -17 52527.5 2525.17  24
  -3  -1 -17 65756.6 4461.73  26
  -3  -1 -16 12652.7 1131.28  13
  -3   1  16 11445.9 1262.41  12
  -3   1  16 10667.3 1194.01   7
  -3  -1 -16 12369.1 1268.95  50
  -3  -1 -16 13412.7 1531.24  37
  -3   1  16 14916.6 1190.44  38
  -3   1  16 11417.0 1211.63  30
   3   1 -16 10382.3 916.766  24
  -3  -1 -15 102197. 4447.66  13
  -3   1  15 106370. 4793.77  12
  -3   1  15 97598.6 4652.68   7
  -3  -1 -15 110992. 4736.10  50
  -3  -1 -15 112373. 5227.45  37
  -3   1  15 114981. 4543.33  38
  -3   1  15 104787. 4552.53  30
   3   1 -15 94149.6 4088.20  24
  -3  -1 -14 7978.21 940.302  13
  -3   1  14 9201.40 1099.26  12
   3  -1  14 8053.93 917.165  16
  -3  -1 -14 10161.2 1826.72   4
  -3   1  14 8281.09 1061.95   7
  -3  -1 -14 8542.72 1015.99  50
   3  -1  14 8426.84 1037.36  41
   3   1 -14 9623.20 1416.36  17
  -3  -1 -14 9405.84 1232.58  37
  -3   1  14 9391.10 981.388  38
  -3   1  14 7631.35 886.092  30
   3   1 -14 7612.96 788.449  24
  -3   1  13 101103. 4774.20   7
  -3  -1 -13 113731. 6911.86   4
  -3  -1 -13 115769. 4690.89  50
   3  -1  13 92350.7 4589.45  41
   3   1 -13 107003. 5670.59  17
  -3  -1 -13 107528. 5049.62  37
  -3   1  13 118179. 4607.95  38
  -3  -1 -13 93651.6 4441.69  13
  -3   1  13 113779. 4846.92  12
   3  -1  13 102349. 4453.28  16
   3   1 -13 96621.4 4144.82  24
  -3   1  12 35394.4 2402.12   7
  -3  -1 -12 41665.4 3998.44   4
  -3   1  12 35112.0 2020.75  47
  -3  -1 -12 39986.7 2295.78  50
   3  -1  12 34562.1 2294.34  41
   3   1 -12 40456.3 3130.19  17
  -3  -1 -12 36080.4 2544.62  37
  -3   1  12 39836.9 2276.67  38
  -3   1  12 38140.3 2388.18  12
   3  -1  12 39298.8 2221.19  16
  -3  -1 -12 39680.8 2820.90  26
  -3   1  11 72644.1 3849.51   7
  -3  -1 -11 78780.1 5771.78   4
  -3   1  11 75822.6 3400.32  47
  -3  -1 -11 81690.3 3697.53  50
   3  -1  11 68114.1 3681.07  41
   3   1 -11 72603.4 4648.05  17
  -3  -1 -11 78847.9 4075.55  37
  -3   1  11 85226.2 3751.90  38
  -3  -1 -11 82727.8 4352.92  26
  -3   1  11 80511.4 3612.43  11
  -3   1  11 78731.2 3797.52  12
   3  -1  11 82010.2 3641.39  16
  -3   1  10 22212.4 1527.92  11
  -3  -1 -10 20083.9 1545.29  13
  -3   1  10 23363.8 1711.08  12
  -3  -1 -10 19082.4 1027.19  12
   3  -1  10 21943.3 1558.31  16
  -3   1  10 20689.2 1400.26  47
  -3  -1 -10 22069.6 1570.16  50
   3   1 -10 22550.7 2316.65  17
  -3   1  10 20761.1 1747.87   7
  -3  -1 -10 20182.0 2679.64   4
  -3  -1 -10 18684.2 1716.07  37
  -3   1  10 21879.7 1626.34  38
   3   1 -10 19570.3 2065.19  27
  -3  -1 -10 20052.1 1904.02  26
  -3  -1  -9 28775.8 1885.25  13
  -3   1   9 30321.0 1990.98  12
  -3  -1  -9 27370.2 1328.56  12
   3  -1   9 28626.7 1844.06  16
  -3   1   9 27864.1 1781.81  11
  -3   1   9 28257.8 1697.22  47
  -3  -1  -9 29994.9 1882.43  50
   3   1  -9 31174.0 2806.35  17
  -3  -1  -9 29371.0 2160.21  37
  -3   1   9 31731.8 1974.91  38
  -3  -1  -9 31241.3 2374.74  26
   3   1  -9 26517.4 2408.98  27
  -3   1   9 27860.8 2083.23   7
  -3  -1  -9 27255.5 3040.75   4
  -3  -1  -8 14135.6 1229.85  13
  -3   1   8 14146.8 1279.28  12
  -3  -1  -8 13370.0 823.310  12
   3  -1   8 15626.6 1261.95  16
  -3   1   8 11960.4 1077.37  11
  -3   1   8 12088.6 912.798  13
  -3   1   8 11931.7 1303.26   7
  -3  -1  -8 12289.1 1944.80   4
  -3   1   8 13287.9 1075.02  47
  -3  -1  -8 13453.8 1185.69  50
  -3  -1  -8 13427.3 1392.18  37
  -3   1   8 16286.3 1364.07  38
   3   1  -8 10813.9 1489.31  27
  -3  -1  -8 13400.7 1492.10  26
  -3   1   7 41464.5 2386.67  12
  -3  -1  -7 39605.3 2304.24  13
  -3  -1  -7 41379.7 1819.14  12
   3  -1   7 43319.7 2371.49  16
  -3   1   7 43054.3 2242.43  11
  -3   1   7 42814.9 2032.47  13
  -3   1   7 38548.1 2553.62   7
  -3  -1  -7 42609.9 3654.12   4
  -3   1   7 42964.7 2191.12  47
  -3  -1  -7 42137.2 2635.85  37
  -3  -1  -7 36988.7 2407.33  38
   3   1  -7 39537.1 2923.73  27
  -3  -1  -7 43831.1 2866.25  26
  -3   1   6 17716.5 1430.42  12
  -3  -1  -6 17305.2 1374.88  13
  -3  -1  -6 18414.9 1047.46  12
   3  -1   6 17228.7 1387.41  16
  -3   1   6 18571.1 1314.83  11
  -3   1   6 17994.7 1195.83  13
  -3   1   6 19221.3 1637.35   7
  -3  -1  -6 19362.3 2338.27   4
  -3   1   6 16294.8 1227.11  47
  -3  -1  -6 18601.4 1619.84  37
  -3  -1  -6 15448.4 1481.12  38
   3   1  -6 17092.6 1809.97  27
  -3  -1  -6 21518.6 1853.56  26
  -3   1   5 13883.3 1236.72  12
  -3  -1  -5 14415.0 1212.31  13
  -3  -1  -5 12673.8 877.219  12
  -3   1   5 15225.7 1144.29  11
   3  -1   5 17196.5 1347.75  16
  -3   1   5 13679.2 1053.12  13
  -3   1   5 12928.3 1364.68   7
  -3  -1  -5 13932.6 1939.75   4
  -3   1   5 13372.2 1084.70  47
  -3  -1  -5 15086.1 1435.33  37
  -3   1   5 14811.9 1312.81  38
  -3  -1  -5 13936.7 1427.12  38
   3   1  -5 13628.1 1566.27  27
  -3   1   5 15308.7 1240.10  26
  -3  -1  -5 13164.0 1444.50  26
  -3  -1  -4 14786.4 1231.00  13
  -3   1   4 16057.9 1169.89  13
  -3   1   4 16627.5 1192.83  11
  -3  -1  -4 14692.5 964.787  12
   3  -1   4 14293.0 1274.48  16
  -3   1   4 16384.2 1328.04  12
  -3   1   4 17023.3 1540.77   7
  -3   1   4 16779.3 1206.85  47
  -3   1   4 15276.7 1131.43  37
  -3  -1  -4 15803.0 1462.75  37
  -3   1   4 16878.7 1402.53  38
  -3  -1  -4 16289.0 1612.26  38
   3  -1   4 15078.0 1502.80  28
   3   1  -4 14254.6 1558.00  27
  -3   1   4 14608.0 1233.28  26
  -3  -1  -4 16115.5 1588.07  26
  -3  -1  -3 84679.1 4224.60  26
  -3   1   3 78314.4 4004.97   7
  -3  -1  -3 78531.3 3224.33   9
  -3   1   3 80020.5 3445.45  37
  -3  -1  -3 82169.1 3978.36  37
  -3   1   3 78266.3 3761.77  38
  -3  -1  -3 76877.1 4221.06  38
   3  -1   3 81700.2 4111.28  28
   3   1  -3 79510.3 4201.09  27
  -3   1   3 83843.2 3703.45  26
  -3  -1  -3 83679.9 3619.84  13
  -3   1   3 81548.0 3490.96  13
  -3   1   3 79498.9 3411.48  11
  -3  -1  -3 83752.9 3239.15  12
  -3   1   3 83935.7 3697.14  12
  -3  -1  -2 31508.1 2310.34  26
   3  -1   2 32899.0 2131.04  17
  -3   1   2 32835.4 2261.75   7
  -3  -1  -2 34017.5 1790.88   7
  -3  -1  -2 31855.9 1629.34   9
  -3   1   2 32713.2 1832.01  37
  -3  -1  -2 34981.9 2240.66  37
  -3   1   2 31465.1 2029.71  38
  -3  -1  -2 30992.3 2390.66  38
  -3   1   2 34625.4 2027.78  26
   3  -1   2 30066.3 2193.71  28
   3   1  -2 32025.8 2298.44  27
  -3   1   2 31555.9 1837.28  13
  -3   1   2 31250.3 1744.93  11
  -3  -1  -2 31987.8 1645.09  12
  -3   1   2 32650.1 1951.90  12
  -3  -1  -2 34760.6 1946.83  13
  -3  -1  -1 56053.0 3247.16  26
   3  -1   1 56512.2 3100.19  17
  -3  -1  -1 58253.7 2666.69   7
  -3  -1  -1 56294.9 2422.57   9
  -3   1   1 52975.6 2616.67  37
  -3  -1  -1 56175.2 3034.17  37
  -3   1   1 62240.3 2930.43  38
  -3  -1  -1 54898.8 3319.43  38
  -3   1   1 57403.8 2846.43  26
   3  -1   1 47775.8 2994.62  28
   3   1  -1 50582.0 3036.09  27
  -3   1   1 54586.1 3192.95  29
  -3   1   1 55615.4 2692.86  13
  -3   1   1 51172.0 2469.94  11
  -3  -1  -1 57038.6 2463.92  12
  -3   1   1 53229.2 2714.33  12
  -3  -1  -1 55985.7 2689.07  13
  -3   1   0 3882.26 633.767  26
  -3  -1   0 4138.32 810.833  26
   3  -1   0 4973.90 833.761  17
  -3  -1   0 3696.16 570.641   7
  -3  -1   0 4359.62 508.954   9
  -3   1   0 3720.24 576.507  37
  -3  -1   0 3620.56 700.125  37
  -3   1   0 3744.25 613.204  38
  -3  -1   0 3828.08 850.451  38
   3  -1   0 4013.22 737.560  28
  -3   1   0 4106.18 775.647  29
   3   1   0 4702.52 773.038  27
  -3   1   0 4324.43 632.049  13
  -3   1   0 3630.75 489.017  11
  -3  -1   0 4711.50 545.228  12
  -3   1   0 3839.04 591.653  12
  -3  -1   0 3935.14 587.868  13
  -3  -1   1 49508.6 2982.38  26
   3  -1  -1 49865.5 3063.73  17
  -3   1  -1 53631.7 3056.92   7
  -3  -1   1 51503.7 2613.67   7
  -3  -1   1 55683.8 2366.26   9
  -3   1  -1 51346.1 2562.05  37
  -3  -1   1 51245.0 2830.62  37
  -3   1  -1 56313.5 2646.54  38
  -3  -1   1 44273.3 2998.77  38
   3  -1  -1 47303.5 2876.51  28
  -3   1  -1 51172.2 3141.10  29
  -3   1  -1 53154.4 2726.56  26
  -3  -1   1 52806.0 2395.66  12
  -3   1  -1 50721.6 2566.49  12
  -3  -1   1 50435.0 2506.14  13
  -3  -1   2 36596.1 2383.88  26
   3  -1  -2 35574.7 2482.64  17
  -3   1  -2 35206.2 2383.53   7
  -3  -1   2 33882.0 2010.89   7
  -3  -1   2 35574.0 1763.15   9
  -3  -1   2 34233.8 2181.98  37
  -3   1  -2 31772.4 1918.25  37
  -3   1  -2 36218.2 1923.09  38
   3  -1  -2 33151.7 2256.16  28
  -3   1  -2 33941.8 2069.39  26
  -3   1  -2 30384.0 2382.70  29
  -3   1  -2 34170.5 1940.89  12
  -3  -1   2 34388.6 1808.38  12
  -3  -1   2 31276.8 1840.48  13
  -3  -1   3 91375.9 4426.79  26
   3  -1  -3 91250.6 4585.19  17
  -3   1  -3 95893.7 4529.21   7
  -3  -1   3 89902.0 4035.53   7
  -3  -1   3 97246.6 3686.11   9
  -3  -1   3 94094.4 4198.46  37
  -3   1  -3 87807.8 3909.02  37
  -3  -1   3 82195.9 4438.16  38
   3  -1  -3 91099.3 4355.03  28
  -3   1  -3 92313.8 4068.70  26
  -3   1  -3 87798.4 4569.13  29
  -3   1  -3 88903.8 3991.45  13
  -3   1  -3 89884.9 3830.11  12
  -3  -1   3 90402.1 3724.90  12
  -3  -1   3 92113.6 3785.33  13
   3   1   4 12678.0 1194.01  15
  -3   1  -4 13691.1 1227.66  13
  -3   1  -4 13257.3 1075.81  12
  -3  -1   4 15857.5 1122.63  13
  -3  -1   4 15614.4 1125.14  12
  -3   1  -4 13333.4 1432.25   7
  -3  -1   4 15444.3 1286.75   7
  -3  -1   4 13706.6 1002.13   9
  -3  -1   4 12375.5 1225.95  48
   3  -1  -4 14347.6 1528.74  17
  -3  -1   4 13769.9 1275.86  37
  -3   1  -4 14816.6 1218.62  37
  -3  -1   4 14183.8 1168.96  36
  -3  -1   4 12014.8 1400.63  38
   3  -1  -4 14909.9 1416.32  28
  -3   1  -4 13699.4 1545.65  29
  -3   1  -4 13130.7 1204.93  26
  -3  -1   4 13618.3 1374.07  26
   3   1   5 13932.9 1254.70  15
  -3   1  -5 12488.4 1199.98  13
  -3   1  -5 13488.4 1063.80  12
  -3  -1   5 14635.8 1115.02  12
  -3   1  -5 14313.5 1450.54   7
  -3  -1   5 15431.2 1292.92   7
  -3  -1   5 16043.5 1086.45   9
  -3  -1   5 14187.1 1334.89  48
  -3   1  -5 14145.5 994.744  42
   3  -1  -5 13786.6 1493.57  17
  -3  -1   5 14091.0 1278.85  37
  -3   1  -5 15738.5 1264.33  37
  -3  -1   5 13595.0 1193.40  36
  -3  -1   5 12209.8 1401.88  38
   3  -1  -5 11706.1 1263.10  28
  -3   1  -5 13823.7 1548.07  29
  -3   1  -5 14563.4 1254.93  26
  -3  -1   5 16721.0 1491.65  26
  -3  -1   6 22281.5 1423.07  12
   3   1   6 20334.6 1562.95  15
  -3   1  -6 17957.9 1479.56  13
  -3   1  -6 19349.1 1292.52  12
  -3   1  -6 20121.1 1523.63   8
  -3   1  -6 17349.3 1584.78   7
  -3  -1   6 19588.0 1277.36   9
  -3  -1   6 18550.9 1607.66  48
  -3   1  -6 20505.7 1238.62  42
   3  -1  -6 22981.9 1940.55  17
  -3  -1   6 20307.1 1520.09  37
  -3   1  -6 21627.1 1530.24  37
  -3  -1   6 19199.7 1492.37  36
  -3  -1   6 18793.5 1729.73  38
   3  -1  -6 17196.3 1555.32  28
  -3   1  -6 21372.5 1971.94  29
  -3  -1   6 19430.5 1630.52  26
  -3   1  -6 18574.5 1466.86  26
  -3  -1   7 41182.7 2164.68  12
   3   1   7 35001.2 2288.73  15
  -3   1  -7 43691.3 2462.66  13
  -3   1  -7 40031.6 2028.26  12
  -3   1  -7 39611.0 2320.82   8
  -3   1  -7 42329.3 2492.37   7
  -3  -1   7 41611.6 2063.07   9
  -3  -1   7 37092.0 2466.79  48
  -3   1  -7 39510.6 1944.63  42
   3  -1  -7 42096.0 2759.08  17
  -3  -1   7 39448.7 2279.41  37
  -3   1  -7 41568.6 2324.22  37
  -3  -1   7 42193.8 2440.86  36
  -3  -1   7 38064.9 2643.91  38
   3  -1  -7 37297.1 2432.80  28
  -3  -1   7 37379.1 2404.17  26
  -3   1  -7 37527.6 2803.95  29
  -3   1  -7 42341.2 2350.78  26
  -3   1  -8 14783.7 1246.49  26
  -3   1  -8 11879.5 922.766  42
  -3   1  -8 13391.1 1222.80   8
  -3   1  -8 11772.5 1187.18   7
  -3  -1   8 12160.6 1146.08   7
  -3  -1   8 13956.3 1043.61   9
  -3  -1   8 12686.9 1148.71  37
  -3   1  -8 12130.3 1159.78  37
  -3  -1   8 11566.7 1240.88  36
  -3  -1   8 10452.5 1298.60  38
  -3  -1   8 12659.8 1263.67  26
   3  -1  -8 13468.1 1330.80  28
  -3   1  -8 14085.4 1649.21  29
  -3  -1   8 11706.4 1040.68  12
   3   1   8 10747.3 1147.74  15
  -3   1  -8 11725.0 1203.16  13
  -3   1  -8 13429.3 994.020  12
  -3  -1   9 25553.0 1624.08  12
   3   1   9 19597.8 1655.81  15
  -3   1  -9 24533.7 1816.68  13
  -3   1  -9 24921.4 1413.60  12
  -3   1  -9 23377.9 1709.49   8
  -3   1  -9 20895.5 1584.91   7
  -3  -1   9 26754.3 1728.75   7
  -3  -1   9 26088.3 1538.64   9
  -3  -1   9 24455.2 1998.36  48
  -3   1  -9 23979.7 1398.72  42
  -3   1  -9 23008.5 1688.81  37
  -3  -1   9 23690.6 1884.97  36
  -3  -1   9 22114.4 1922.81  38
  -3  -1   9 22308.5 1714.90  26
   3  -1  -9 20411.5 1737.87  28
  -3   1  -9 23215.8 2248.42  29
  -3   1  -9 25940.4 1714.28  26
  -3  -1  10 22290.9 1536.42  12
   3   1  10 18315.9 1626.11  15
  -3   1 -10 26683.2 1916.32  13
  -3   1 -10 22210.9 1317.23  12
  -3   1 -10 23434.0 1709.88   8
  -3  -1  10 24517.0 1651.54   7
  -3  -1  10 22759.4 1460.21   9
  -3  -1  10 21193.5 1938.18  48
   3  -1 -10 26562.6 2009.66  40
  -3   1 -10 22352.9 1349.77  42
   3  -1 -10 24878.0 1985.07  17
  -3   1 -10 22641.8 1670.82  37
  -3  -1  10 23387.4 1912.64  36
  -3  -1  10 19462.8 1796.34  38
  -3  -1  10 22317.9 1680.03  26
   3  -1 -10 22868.9 1780.55  28
   3  -1 -10 21576.2 1226.85  22
  -3   1 -11 85102.2 4000.45   8
  -3  -1  11 92632.8 3920.14   7
  -3  -1  11 86380.0 3660.99   9
  -3  -1  11 78755.1 4459.15  48
   3  -1 -11 103764. 4657.35  40
  -3   1 -11 82294.7 3470.06  42
  -3   1 -11 85598.4 3969.74  37
  -3  -1  11 83942.5 4277.38  36
  -3  -1  11 78365.7 4229.15  38
  -3  -1  11 88302.8 3821.09  12
   3   1  11 81324.3 4096.99  15
  -3   1 -11 87748.0 4224.80  13
  -3   1 -11 82429.8 3374.33  12
   3  -1 -11 81360.9 4081.11  28
  -3  -1  11 89204.0 4001.12  26
   3  -1 -11 91023.0 4387.20  17
  -3   1 -12 34411.2 2224.00   8
  -3  -1  12 39232.9 2161.23   7
  -3  -1  12 37144.2 2016.79   9
  -3  -1  12 32692.5 2629.85  48
   3  -1 -12 39092.5 2539.73  17
  -3   1 -12 38157.4 2289.01  37
  -3  -1  12 34982.9 2439.02  38
  -3  -1  12 33402.1 2109.08  26
   3  -1 -12 34745.8 2325.46  28
  -3   1 -12 34571.2 2747.62  29
  -3  -1  12 36014.1 2098.77  12
   3   1  12 31455.2 2270.85  15
  -3   1 -12 38242.9 2548.26  13
  -3   1 -12 33908.9 1714.62  12
  -3   1 -13 112112. 4831.59   8
  -3  -1  13 122498. 4615.20   7
  -3  -1  13 111019. 4438.05   9
  -3  -1  13 100710. 5411.23  48
   3   1  13 92152.3 4616.58  41
   3  -1 -13 112414. 5020.30  17
  -3   1 -13 109895. 4773.27  37
  -3  -1  13 105490. 5003.37  38
   3  -1 -13 99138.7 4789.24  28
  -3   1 -13 102154. 5330.44  29
   3   1  13 99069.1 4899.83  15
  -3  -1  13 114444. 4626.10  12
  -3   1 -13 116316. 5287.36  13
  -3   1 -13 104499. 4020.60  12
  -3   1 -14 9056.66 1079.82   8
  -3  -1  14 8699.54 921.305   7
  -3  -1  14 9462.70 930.571   9
  -3  -1  14 6998.90 1169.62  48
   3   1  14 6992.76 971.526  41
   3  -1 -14 9474.15 1125.02  17
  -3   1 -14 10427.1 1133.88  37
  -3  -1  14 8766.18 1122.73  36
  -3  -1  14 8353.09 1104.19  38
  -3   1 -14 9555.42 1268.79  29
   3   1  14 8287.12 1106.34  15
  -3  -1  14 8243.81 936.743  12
  -3   1 -14 8571.97 1274.46  13
  -3   1 -14 8693.26 688.133  12
  -3   1 -15 100247. 4599.48   8
  -3  -1  15 114418. 4301.93   7
  -3  -1  15 90384.5 4883.99  48
  -3   1 -15 107748. 4635.48  37
  -3  -1  15 98619.8 4616.31  36
  -3  -1  15 102363. 4748.66  38
   3  -1 -15 89549.5 4017.85  34
  -3  -1  15 101827. 4345.06  31
  -3   1 -15 87158.6 4761.50  13
  -3  -1  15 95801.1 4306.44  12
  -3  -1  15 101039. 4210.23   9
  -3   1 -16 13272.8 1377.21   8
  -3  -1  16 14128.7 1132.36   7
  -3  -1  16 13400.0 1484.26  48
  -3   1 -16 11167.1 1232.18  37
  -3  -1  16 12293.6 1277.93  36
  -3  -1  16 13492.8 1375.60  38
   3  -1 -16 12135.7 1046.83  34
  -3  -1  16 11811.7 1168.88  31
  -3   1 -16 10903.3 1332.67  13
  -3  -1  16 13757.6 1240.11  12
  -3  -1  16 14340.3 1184.13   9
  -3   1 -17 55606.6 3136.65   8
  -3  -1  17 60010.0 2656.95   7
  -3  -1  17 48676.7 3079.84  48
   3  -1 -17 49103.3 2533.24  34
  -3   1 -17 55143.5 3049.34  37
  -3  -1  17 51226.3 2924.28  36
  -3  -1  17 52624.3 2980.84  38
  -3  -1  17 54091.0 2969.08  31
  -3  -1  17 50667.9 2689.56   9
  -3   1 -17 54879.3 3085.40  13
  -3  -1  17 49445.8 2761.77  12
  -3   1 -18 29075.4 2202.17   8
  -3  -1  18 28648.4 2153.56  48
   3  -1 -18 23798.1 1609.31  34
  -3   1 -18 32703.0 2202.62  37
  -3  -1  18 27820.9 1983.15  36
  -3  -1  18 28284.9 1972.85  38
  -3  -1  18 26457.2 2117.32  31
  -3   1 -18 26972.0 1984.72  13
  -3  -1  18 25369.5 1825.25  12
  -3  -1  18 26968.7 1818.33   9
   3  -1 -19 28520.6 1777.89  34
  -3   1 -19 40385.3 2529.27  37
  -3  -1  19 32031.5 2142.72  36
  -3  -1  19 35576.2 2170.89  38
  -3  -1  19 31982.5 2293.68  48
  -3   1 -19 37049.9 2260.96  13
  -3  -1  19 31148.4 2128.58   9
  -3  -1  19 30915.6 2120.87  12
  -3   1 -19 41495.2 2853.78   8
  -3   1 -20 6373.93 1257.84   8
  -3  -1  20 4142.75 772.501  48
   3  -1 -20 4510.32 587.671  34
  -3   1 -20 6463.59 987.132  37
  -3  -1  20 5155.41 771.331  36
  -3  -1  20 5488.46 747.561  38
  -3  -1  20 4275.37 784.772  12
  -3   1 -20 3278.79 626.736  13
   3   1  20 4382.22 493.888  23
  -3   1 -21 7363.40 1298.50   8
  -3  -1  21 6718.90 970.501  48
   3  -1 -21 9567.56 832.629  34
  -3  -1  21 11032.0 1116.47  36
  -3  -1  21 12225.3 1336.89  12
   3   1  21 9770.52 744.196  23
  -3   1 -22 7167.88 1091.90   8
  -3  -1  22 6460.44 896.852  48
   3  -1 -22 6100.46 629.285  34
  -3  -1  22 7155.30 860.528  36
  -3   1 -22 6243.58 795.825  13
  -3  -1  22 7387.45 1009.49  12
   3  -1 -22 5577.12 675.376  24
   3   1  22 6865.24 593.090  23
  -3   1 -23 2090.75 526.332   8
  -3  -1  23 1117.67 412.024  48
  -3  -1  23 1281.31 448.859  36
   3  -1 -23 1667.00 330.029  34
  -3  -1  23 2260.02 403.851  38
   3   1  23 1908.78 306.915  23
   3  -1 -23 1587.10 357.593  24
  -3  -1  23 2432.37 559.740  12
  -3   1 -23 1836.12 434.979  13
   3  -1 -24 9710.07 758.256  34
  -3  -1  24 9700.77 976.735  36
  -3  -1  24 11134.7 844.429  38
   3  -1 -24 9240.53 800.519  24
   3   1  24 11312.3 761.219  23
  -3   1 -24 9692.54 1065.73   8
   3  -1 -25 45120.6 2062.42  34
  -3  -1  25 50845.0 2482.91  36
  -3  -1  25 54176.1 2159.98  38
   3  -1 -25 44937.0 2167.50  24
   3   1  25 49970.1 2060.05  23
  -3   1 -25 50869.4 2600.85   8
  -3   1 -26 11137.7 1000.31   8
   3  -1 -26 11578.5 813.454  24
   3   1  26 11167.2 729.139  23
   3  -1 -26 10698.7 730.546  34
  -3  -1  26 10878.9 936.776  36
   3   1  26 10151.9 741.127  31
  -3   1 -26 10483.6 845.756  13
  -3   1 -27 54960.1 2578.48   8
   3  -1 -27 52880.0 2246.65  24
   3  -1 -27 53559.2 2165.33  34
  -3  -1  27 59191.0 2544.88  36
   3   1  27 55772.0 2249.20  31
  -3   1 -27 53477.5 2318.00  13
  -3   1 -28 3784.00 509.931   8
   3  -1 -28 3140.56 379.451  24
  -3  -1  28 4735.65 540.141  36
   3   1  28 3723.08 403.377  31
  -3   1 -28 4368.46 430.126  13
  -3   1 -29 29836.6 1352.39  13
  -3   1 -29 31849.1 1632.72   8
   3   1  29 34990.5 1483.59  47
   3  -1 -29 33302.9 1449.25  24
   3   1  29 34838.3 1477.42  31
   3   1  30 4637.61 397.425  47
   3   1  31 32794.5 1308.74  47
  -3   2  30 9088.09 569.756  11
  -3   2  30 9650.91 554.721  12
  -3  -2 -30 9501.10 635.914  37
  -3   2  29 6605.26 514.914  12
  -3   2  29 6979.62 535.797  11
  -3  -2 -29 6123.56 579.830  37
  -3   2  28 17048.7 1000.75  12
  -3   2  28 18252.4 1046.74  11
  -3  -2 -28 18033.8 1161.61  37
  -3   2  27 2657.68 390.251  12
  -3   2  27 2260.89 371.274  11
  -3  -2 -27 2910.88 486.403  37
   3   2 -27 1821.90 255.015  35
  -3   2  26 21252.4 1301.18  12
  -3   2  26 21503.4 1312.80  11
  -3  -2 -26 20974.4 1399.12  26
  -3  -2 -26 22496.3 1485.45  37
   3   2 -26 22375.4 1084.35  35
   3   2 -25 3556.77 341.700  46
  -3  -2 -25 5127.35 710.649  37
   3   2 -25 3481.29 389.839  35
  -3   2  25 3891.61 551.049  12
  -3   2  25 4232.25 584.158  11
   3   2 -25 4023.69 376.632  24
  -3  -2 -24 80765.1 3653.45  50
   3  -2  24 87241.1 3283.47  20
  -3   2  24 88342.6 3203.58   7
  -3  -2 -24 86820.5 3892.87  37
   3   2 -24 81922.4 3164.05  35
  -3   2  24 87196.0 3645.44  12
  -3   2  24 83368.9 3590.97  11
   3   2 -24 79591.1 3059.07  24
  -3  -2 -23 14913.2 1267.43  50
   3  -2  23 15495.9 983.710  20
  -3   2  23 13523.7 929.082   7
  -3  -2 -23 14366.7 1350.35  37
   3   2 -23 13660.4 879.312  35
  -3   2  23 16589.5 1272.86  11
  -3   2  23 15750.4 1252.74  12
   3   2 -23 12262.4 794.158  24
  -3  -2 -23 14676.4 1361.90  26
  -3  -2 -22 66754.3 3338.43  50
   3  -2  22 70027.7 2786.50  20
  -3   2  22 64558.1 2825.52   7
  -3  -2 -22 60595.8 3426.82  37
   3   2 -22 62828.5 2649.51  35
  -3   2  22 65068.6 3198.32  11
  -3   2  22 66269.0 3253.74  12
   3   2 -22 67336.2 2581.02  24
  -3  -2 -22 66379.9 3523.05  26
  -3   2  21 2831.97 692.890  45
  -3  -2 -21 3141.37 694.258  50
   3  -2  21 3092.19 436.516  20
  -3   2  21 2913.46 492.835   7
  -3  -2 -21 2855.17 701.362  37
   3   2 -21 3034.13 414.264  35
  -3   2  21 3756.92 687.158  11
  -3   2  21 3371.52 653.907  12
   3   2 -21 2906.53 368.444  24
  -3  -2 -21 3138.79 735.390  26
  -3  -2 -20 32049.6 2471.77  50
   3  -2  20 40194.8 1891.70  20
  -3   2  20 39342.1 2249.60   5
  -3  -2 -20 36214.6 2639.32  37
   3   2 -20 35813.5 1797.28  35
  -3   2  20 40747.9 2435.98  11
  -3   2  20 39102.4 2450.58  12
   3   2 -20 37103.6 1699.15  24
  -3  -2 -20 42348.9 2868.11  26
  -3  -2 -19 1219.89 581.459  50
   3  -2  19 1671.81 342.875  20
  -3   2  19 1146.82 404.467   5
  -3  -2 -19 1387.67 621.074  37
   3   2 -19 1382.22 320.868  35
  -3   2  19 1812.58 546.809  11
  -3   2  19 1739.92 523.436  12
   3   2 -19 1232.83 264.242  24
  -3  -2 -19 950.563 636.534  26
  -3  -2 -18 33764.7 2440.55  50
   3  -2  18 32916.0 1683.57  20
  -3   2  18 29986.8 1978.38   7
  -3   2  18 33044.8 2084.39   5
  -3  -2 -18 35229.8 2618.40  37
   3   2 -18 29419.5 1626.59  35
  -3   2  18 31582.9 2144.74  11
  -3   2  18 32469.8 2197.30  12
   3   2 -18 31757.5 1530.89  24
  -3  -2 -18 24486.6 2934.75  26
  -3   2  17 22400.5 2555.31  47
  -3   2  17 5631.96 1561.77  45
  -3  -2 -17 15793.3 1564.02  50
   3  -2  17 14866.7 1039.68  20
  -3  -2 -17 14028.3 1610.15  37
   3   2 -17 12978.7 987.130  35
   3   2 -17 14868.5 927.051  24
  -3  -2 -17 22590.3 4013.33  26
  -3   2  17 13435.1 1324.92  11
  -3   2  17 15906.4 1458.16  12
  -3   2  17 14326.9 1333.83   7
  -3   2  17 14955.0 1347.76   5
  -3   2  16 8287.61 1008.08   7
  -3   2  16 7983.73 999.464   5
  -3   2  16 4605.94 972.728  47
  -3  -2 -16 8418.71 1118.29  50
  -3   2  16 9341.79 1427.73  45
  -3  -2 -16 12426.5 2017.10  49
  -3  -2 -16 7091.25 1124.60  37
   3   2 -16 8385.88 781.478  35
  -3   2  16 8484.66 1030.50  12
  -3  -2 -16 9010.54 738.976  13
  -3   2  16 9017.35 1048.27  11
   3   2 -16 8353.31 683.237  24
  -3  -2 -16 13874.4 2271.17  26
  -3   2  15 63302.9 3424.09   7
  -3   2  15 74717.2 3610.29   5
  -3   2  15 67215.0 3531.57  47
  -3  -2 -15 64804.7 3533.63  50
  -3   2  15 71786.7 3966.06  45
  -3  -2 -15 74743.8 3914.33  37
   3   2 -15 59563.8 2888.96  35
  -3   2  15 69572.4 3502.67  12
  -3  -2 -15 63363.6 2847.33  13
  -3   2  15 71239.0 3472.35  11
   3   2 -15 68410.6 2751.59  24
  -3  -2 -15 81594.5 4862.26  26
  -3   2  14 44211.4 2808.43   7
  -3   2  14 58721.6 3141.33   5
  -3   2  14 54062.4 2877.85  47
  -3  -2 -14 51366.1 2954.81  50
  -3  -2 -14 60152.5 3380.60  49
  -3   2  14 55452.6 3207.89  45
  -3  -2 -14 49706.4 3108.62  37
   3   2 -14 45222.9 2352.49  35
  -3   2  14 53508.0 2907.35  12
  -3  -2 -14 52534.6 2412.80  13
  -3   2  14 50054.6 2792.60  11
  -3  -2 -14 60851.6 3814.39  26
  -3   2  13 74174.9 3847.47   7
  -3   2  13 90164.5 4246.31   5
  -3   2  13 77753.4 3671.69  47
  -3  -2 -13 74287.3 3799.60  50
  -3  -2 -13 80754.3 4067.36  49
  -3   2  13 72880.0 3889.67  45
  -3  -2 -13 82797.0 4121.01  37
  -3   2  13 77372.9 3752.91  12
  -3   2  13 75462.2 3654.90  11
  -3  -2 -13 73756.2 3256.29  13
  -3  -2 -13 82999.5 4544.68  26
  -3   2  12 23497.2 1916.66   7
  -3   2  12 28735.4 2296.97   5
  -3   2  12 27913.7 1849.67  47
  -3  -2 -12 27477.0 1963.14  50
  -3  -2 -12 29254.2 2109.72  49
  -3  -2 -12 25886.4 2060.07  37
  -3   2  12 26167.7 1888.18  12
  -3   2  12 24787.6 1783.10  11
  -3  -2 -12 26704.4 1604.82  13
  -3  -2 -12 27995.6 2393.81  26
  -3   2  11 46435.5 2913.20   7
  -3   2  11 42901.6 2923.26   5
  -3   2  11 54823.1 2786.50  47
  -3  -2 -11 53756.0 2943.26  50
  -3  -2 -11 53154.9 3019.99  49
  -3  -2 -11 57985.8 3199.05  37
  -3   2  11 52149.6 2828.22  12
  -3  -2 -11 51481.1 2527.52  13
  -3  -2 -11 55255.1 3451.38  26
  -3   2  10 46198.8 2838.15   7
  -3   2  10 45088.3 2719.72   5
  -3   2  10 47736.4 2587.29  47
  -3  -2 -10 49207.6 2761.96  50
  -3  -2 -10 50187.9 2884.96  49
  -3  -2 -10 46560.2 2894.27  37
  -3  -2 -10 44323.6 2673.12  38
  -3  -2 -10 53383.2 3326.79  26
  -3   2  10 47775.3 2675.99  12
   3  -2  10 48156.3 2658.79  16
  -3  -2 -10 44958.4 2375.35  13
  -3  -2  -9-53.1618 206.162  13
  -3   2   9-69.3868 181.418  12
   3  -2   9 71.4094 204.524  16
  -3  -2  -9 259.499 606.816   4
  -3   2   9 178.941 256.247   7
  -3   2   9-64.6844 250.842  47
  -3  -2  -9 153.401 323.346  50
  -3  -2  -9-84.8404 262.455  49
  -3  -2  -9 89.2301 329.920  37
  -3  -2  -9 590.547 382.030  38
   3   2  -9 618.058 408.789  27
  -3  -2  -9 330.299 364.105  26
  -3   2   8 43961.1 2424.69  12
   3  -2   8 38365.0 2372.95  16
  -3  -2  -8 42375.5 2182.73  13
  -3   2   8 38636.9 2607.34   7
  -3   2   8 40641.4 2298.16  47
  -3  -2  -8 42358.2 2573.47  49
  -3  -2  -8 40654.7 2591.59  37
  -3  -2  -8 33173.4 2468.43  38
   3   2  -8 40877.7 2937.65  27
  -3  -2  -8 40989.2 2846.41  26
   3  -2   7 28997.7 1972.60  16
  -3   2   7 29609.3 1920.46  12
  -3   2   7 29195.7 2171.84   7
  -3   2   7 27421.5 1813.21  47
  -3  -2  -7 28213.5 2049.06  49
  -3  -2  -7 28505.6 2114.66  37
  -3  -2  -7 25711.2 2169.99  38
   3   2  -7 22409.9 2138.06  27
  -3  -2  -7 33836.5 2497.57  26
  -3   2   6 71409.7 3385.27  11
   3  -2   6 76402.3 3668.23  16
  -3   2   6 72285.5 3471.51  12
  -3   2   6 75033.9 3884.40   7
  -3  -2  -6 74343.5 5120.66   4
  -3   2   6 67640.0 3392.95  47
  -3  -2  -6 74435.6 3760.71  49
  -3  -2  -6 74922.1 3810.05  37
  -3  -2  -6 79900.3 4345.07  38
   3  -2   6 72822.4 4200.91  28
   3   2  -6 76204.1 4183.26  27
  -3  -2  -6 80821.0 4193.09  26
  -3   2   5 65699.9 2824.86  13
  -3   2   5 69721.1 3186.98  11
   3  -2   5 67098.4 3411.78  16
  -3   2   5 69212.4 3264.59  12
  -3   2   5 62877.5 3568.47   7
  -3  -2  -5 61971.5 4559.61   4
  -3   2   5 67368.9 3214.13  47
  -3  -2  -5 67752.7 3505.39  49
  -3  -2  -5 66776.5 3519.03  37
  -3  -2  -5 62193.1 4044.85  38
   3  -2   5 70975.3 4028.16  28
   3   2  -5 65993.2 3826.23  27
  -3  -2  -5 68153.2 3819.52  26
   3   2  -4 141799. 6131.06  15
  -3   2   4 156844. 5670.68  13
  -3   2   4 150520. 5912.91  11
   3  -2   4 159864. 6349.28  16
  -3   2   4 147779. 5987.99  12
  -3   2   4 144373. 6514.35   7
  -3  -2  -4 157605. 5754.60   9
  -3  -2  -4 155730. 7855.04   4
  -3   2   4 150925. 6007.44  47
  -3  -2  -4 161963. 6452.76  49
  -3  -2  -4 156907. 6426.07  37
  -3  -2  -4 153269. 7296.84  38
   3  -2   4 166434. 7037.78  28
   3   2  -4 145201. 6639.25  27
  -3   2   4 148872. 6519.88  29
  -3  -2  -4 164716. 6816.68  26
   3   2  -3 7019.58 896.741  15
  -3   2   3 6522.81 708.936  13
  -3   2   3 6725.35 776.293  11
  -3   2   3 5671.24 774.030  12
  -3  -2  -3 5580.20 1203.74   4
  -3   2   3 6923.47 1027.28   7
  -3  -2  -3 6559.34 705.273   9
  -3  -2  -3 6538.58 935.555  49
  -3  -2  -3 7196.33 999.066  37
  -3  -2  -3 6473.04 1170.76  38
   3  -2   3 6748.45 1078.33  28
   3   2  -3 7250.34 1043.74  27
  -3  -2  -3 6601.69 1065.83  26
   3   2  -2 29178.3 2037.70  15
  -3   2   2 31412.5 1790.91  13
  -3   2   2 31958.1 1855.05  11
  -3   2   2 29859.8 1890.83  12
  -3   2   2 33526.7 2345.32   7
  -3  -2  -2 33778.7 1821.73   9
  -3  -2  -2 25993.8 2662.68   4
  -3  -2  -2 36435.4 2305.84  49
  -3  -2  -2 33071.6 2194.11  37
  -3  -2  -2 31292.6 2590.72  38
   3  -2   2 35951.1 2557.87  28
   3   2  -2 32927.0 2300.41  27
  -3  -2  -2 33463.9 2414.54  26
  -3   2   1 1826.22 423.453  11
   3   2  -1 1758.44 460.592  15
  -3   2   1 1943.78 438.231  12
  -3   2   1 1905.57 426.687  13
  -3  -2  -1 2002.37 745.480   4
  -3   2   1 2716.15 660.378   7
  -3  -2  -1 3079.17 485.167   9
  -3  -2  -1 2559.08 590.825  49
  -3  -2  -1 2726.59 607.802  37
   3  -2   1 2021.16 587.124  28
  -3   2   1 2209.15 602.312  29
   3   2  -1 1446.41 460.658  27
  -3   2   1 2223.53 457.649  25
  -3  -2  -1 2614.62 701.090  26
  -3  -2   0 8180.83 1117.23  26
  -3   2   0 7766.20 833.785  25
  -3  -2   0 11443.0 1165.09  37
  -3  -2   0 7179.09 1282.68   4
  -3   2   0 7864.90 1090.84   7
  -3  -2   0 8725.56 825.544   9
  -3   2   0 5978.29 995.082  29
   3  -2   0 8148.42 1139.71  28
   3   2   0 7284.40 957.148  27
   3   2   0 6387.55 898.459  15
  -3   2   0 10173.5 936.649  13
  -3   2   0 7001.60 771.723  11
  -3   2   0 8238.73 866.701  12
  -3   2  -1 1341.17 372.737  25
  -3  -2   1 1680.10 579.482  26
  -3  -2   1 2081.24 670.611   4
  -3   2  -1 1628.27 562.007   7
  -3  -2   1 1499.76 368.196   9
  -3  -2   1 1719.50 504.444  37
  -3  -2   1 1873.36 658.741  38
   3  -2  -1 2059.34 591.752  28
  -3   2  -1 1056.97 481.052  29
   3   2   1 1181.81 404.418  15
  -3   2  -1 2162.30 445.049  12
  -3   2  -1 1358.00 399.863  13
   3   2   2 27911.3 1987.11  15
  -3   2  -2 28987.8 1806.05  13
  -3   2  -2 27873.6 1705.60  12
  -3   2  -2 28657.2 2202.87   7
  -3  -2   2 29490.0 1718.96   9
  -3  -2   2 23977.6 1715.09  48
   3  -2  -2 32124.6 1795.20  17
  -3  -2   2 28044.8 1953.82  37
  -3  -2   2 27199.9 2280.74  38
   3  -2  -2 27389.4 2202.18  28
  -3   2  -2 29160.9 2322.65  29
  -3  -2   2 28796.1 2144.71  26
  -3   2  -2 30671.9 1806.20  25
  -3   2  -3 6080.22 787.505  13
   3   2   3 3733.35 707.509  15
  -3   2  -3 6103.91 709.050  12
  -3  -2   3 6519.03 743.553   9
  -3  -2   3 5602.26 773.194  48
  -3   2  -3 6036.51 700.186  42
   3  -2  -3 6165.24 760.931  17
  -3  -2   3 6066.71 853.647  37
  -3  -2   3 5070.27 977.270  38
   3  -2  -3 5723.89 949.103  28
  -3   2  -3 6679.71 1088.33  29
  -3  -2   3 7149.00 1001.95  26
  -3   2  -3 5471.48 716.242  25
   3   2   4 138667. 6239.90  15
  -3   2  -4 151549. 6084.72  13
  -3   2  -4 152259. 5814.93  12
  -3  -2   4 157655. 5908.92   9
  -3  -2   4 153156. 6183.90  48
  -3   2  -4 151602. 5825.22  42
   3  -2  -4 169079. 6149.46  17
  -3  -2   4 156513. 6198.13  37
  -3  -2   4 144896. 5982.85  36
  -3  -2   4 144706. 6718.18  38
   3  -2  -4 166757. 6816.29  28
  -3   2  -4 157116. 6956.86  29
  -3  -2   4 160093. 6543.92  26
  -3   2  -4 159109. 6002.26  25
   3   2   5 57171.6 3354.81  15
  -3   2  -5 68844.1 3017.06  12
  -3   2  -5 74649.5 4116.54   7
  -3  -2   5 72740.4 3182.77   9
  -3  -2   5 62393.3 3356.34  48
  -3   2  -5 69149.7 3096.38  42
   3  -2  -5 70947.2 3323.14  17
  -3  -2   5 69572.9 3361.21  37
  -3  -2   5 63972.6 3268.82  36
  -3  -2   5 65044.7 3806.06  38
   3  -2  -5 64981.5 3694.28  28
  -3   2  -5 72660.0 4093.25  29
  -3  -2   5 71112.8 3636.55  26
  -3   2  -5 71468.4 3234.21  25
   3   2   6 75876.4 4122.55  15
  -3   2  -6 89041.3 3698.93  12
  -3   2  -6 105164. 5163.29   7
  -3  -2   6 97361.3 3943.52   9
  -3  -2   6 88736.2 4245.19  48
  -3   2  -6 85708.3 3781.80  42
   3  -2  -6 101189. 4163.60  17
  -3  -2   6 88905.6 4023.82  37
  -3  -2   6 85335.8 4571.48  38
   3  -2  -6 86801.1 4490.75  28
  -3   2  -6 92815.1 4917.56  29
  -3  -2   6 94646.0 4354.31  26
  -3   2  -6 90404.0 3949.02  25
   3   2   7 27838.3 2061.48  15
  -3   2  -7 27339.0 1923.85  13
  -3   2  -7 28525.2 1607.12  12
  -3   2  -7 30815.2 2510.59   7
  -3  -2   7 28772.9 1792.19   9
  -3  -2   7 23353.0 1925.00  48
  -3   2  -7 26688.3 1692.26  42
   3  -2  -7 33506.3 2285.29  40
   3  -2  -7 36061.6 2056.75  17
  -3  -2   7 29115.7 1870.01  37
  -3  -2   7 26499.5 2224.69  38
   3  -2  -7 30810.9 2259.74  28
  -3   2  -7 27928.3 2476.34  29
  -3  -2   7 30479.0 2078.73  26
  -3   2  -7 29893.0 1855.47  25
   3   2   8 36947.8 2518.33  15
  -3   2  -8 41887.3 2502.91  13
  -3   2  -8 42847.6 2082.86  12
  -3   2  -8 43110.3 2874.37   7
  -3  -2   8 45857.3 2370.84   9
  -3  -2   8 40579.2 2675.93  48
  -3   2  -8 39912.4 2195.22  42
   3  -2  -8 45859.6 2846.22  40
   3  -2  -8 48100.9 2531.87  17
  -3  -2   8 40082.9 2794.88  38
   3  -2  -8 44679.5 2820.01  28
  -3  -2   8 41118.7 2512.07  26
  -3   2  -8 44999.0 3305.35  29
  -3   2  -8 42890.2 2355.58  25
   3   2   9 267.370 275.728  15
  -3   2  -9 79.3079 160.664  12
  -3   2  -9-76.8764 298.141  13
  -3   2  -9 277.044 305.424   7
  -3  -2   9 706.617 322.954   9
  -3  -2   9-98.3928 381.571  48
   3  -2  -9 100.199 202.960  40
  -3   2  -9 163.657 180.455  42
   3  -2  -9 130.230 201.473  17
  -3  -2   9 205.706 360.792  38
   3  -2  -9 190.672 273.069  28
  -3   2  -9 153.567 439.829  29
  -3   2  -9 62.4886 206.693  25
   3  -2 -10 49478.6 2315.63  22
  -3   2 -10 47693.5 2582.62  25
  -3   2 -10 53457.7 2566.69  42
  -3   2 -10 48997.8 2872.99   7
  -3  -2  10 49576.6 2578.81   9
  -3  -2  10 49222.2 3098.29  38
  -3   2 -10 57903.4 4137.37  29
  -3   2 -10 52750.6 2915.12  13
  -3   2 -10 45380.1 2208.25  12
  -3   2 -11 52386.0 2620.93  42
  -3   2 -11 54437.8 2936.91   7
  -3  -2  11 57715.3 2792.89   9
  -3  -2  11 50481.4 3153.49  38
   3  -2 -11 53595.2 2420.30  22
  -3   2 -11 51940.7 2726.25  25
  -3   2 -11 57461.3 3150.36  13
  -3   2 -11 49536.3 2296.12  12
  -3   2 -12 34272.0 2372.41  13
  -3   2 -12 28411.9 1492.47  12
  -3  -2  12 24536.5 2572.30  48
  -3   2 -12 30517.2 1818.28  42
  -3   2 -12 26931.8 1887.38   7
  -3  -2  12 31906.5 1908.64   9
  -3  -2  12 26887.0 2158.15  38
  -3  -2  12 29615.2 1849.97  26
   3  -2 -12 28620.1 1575.20  22
  -3  -2  13 82241.0 4985.98  48
  -3   2 -13 83783.5 3560.44  42
  -3  -2  13 79548.1 3614.35   9
  -3  -2  13 77219.0 4033.75  38
  -3   2 -13 73196.2 3032.83  12
   3  -2 -13 73556.5 3163.74  22
  -3  -2  14 53077.4 3511.20  48
  -3   2 -14 47326.0 2526.92  42
  -3  -2  14 48568.9 2595.55   9
  -3  -2  14 45298.2 2886.99  38
   3  -2 -14 46758.6 2203.82  22
  -3  -2  15 65658.7 3822.79  48
  -3   2 -15 76700.3 3319.34  42
  -3  -2  15 64871.4 3159.35   9
  -3  -2  15 63201.1 3382.30  36
  -3  -2  15 60500.5 3424.86  38
   3  -2 -15 62813.0 2711.19  22
  -3   2 -15 50812.3 4149.71  13
  -3   2 -16 5306.30 1069.64  13
   3   2  16 8358.92 647.421  45
  -3  -2  16 8708.81 1197.70  48
  -3   2 -16 9486.64 1042.65  42
  -3  -2  16 8855.86 961.428   9
  -3  -2  16 7069.41 964.068  36
  -3  -2  16 8201.36 1056.46  38
   3  -2 -16 7502.82 832.512  34
  -3  -2  16 7616.08 978.109  31
   3  -2 -16 7813.04 700.369  22
  -3   2 -17 11997.4 1369.99  13
   3   2  17 14902.4 905.668  45
  -3  -2  17 14351.3 1501.73  48
  -3   2 -17 17778.9 1634.71  42
  -3  -2  17 14146.2 1346.26  36
  -3  -2  17 15932.3 1438.34  38
   3  -2 -17 13334.4 1129.18  34
   3  -2 -17 11238.3 883.011  22
  -3  -2  17 15174.3 1430.90  31
  -3  -2  17 13916.3 1243.86   9
  -3   2 -18 34010.1 2237.34  13
  -3  -2  18 31414.8 2020.32   9
   3   2  18 35439.0 1580.56  45
  -3  -2  18 31929.3 2265.23  48
   3  -2 -18 31064.9 1868.31  34
  -3  -2  18 31654.1 2084.39  36
  -3  -2  18 33045.6 2132.46  38
   3  -2 -18 29560.2 1544.94  22
  -3  -2  19 1476.45 450.052   9
  -3  -2  19 1262.66 512.772  48
   3   2  19 1456.81 275.122  45
  -3  -2  19 1547.10 473.803  36
   3  -2 -19 868.040 306.498  34
  -3  -2  19 1506.39 727.154  31
  -3   2 -19 671.945 382.334  13
   3   2  20 36313.1 1702.05  45
  -3  -2  20 40111.7 2470.77  48
   3  -2 -20 38804.1 2069.60  34
  -3  -2  20 39424.8 2298.59  36
  -3   2 -20 44030.2 2420.85  13
  -3  -2  21 4305.28 756.840   9
  -3  -2  21 2970.62 661.627  48
   3   2  21 2802.90 375.286  47
  -3  -2  21 3552.22 626.917  36
   3  -2 -21 2290.36 431.085  34
  -3  -2  21 2336.27 481.173  38
  -3  -2  21 3091.37 604.677  31
  -3   2 -21 3300.97 600.459  13
  -3   2 -22 54977.0 2701.13  13
  -3  -2  22 61444.9 2899.41   9
   3   2  22 52288.4 2180.98  47
  -3  -2  22 55686.2 2868.90  48
   3  -2 -22 49557.0 2378.90  34
  -3  -2  22 50890.3 2663.86  36
  -3  -2  22 56912.7 2528.39  38
  -3  -2  22 58685.4 2712.51  31
   3  -2 -22 44961.6 2370.51  24
  -3  -2  23 14871.0 1163.11   9
   3   2  23 13192.1 825.461  47
  -3  -2  23 12813.7 1207.20  48
   3  -2 -23 14101.9 975.214  34
  -3  -2  23 14300.8 1164.26  36
  -3  -2  23 15283.8 1002.31  38
  -3   2 -23 15183.3 1171.22  13
   3  -2 -23 12222.3 940.825  24
  -3  -2  24 89261.5 3564.56   9
   3  -2 -24 84968.7 3339.64  34
  -3  -2  24 84201.4 3633.41  36
  -3  -2  24 91957.8 3293.73  38
   3   2  24 81335.7 3118.15  47
  -3  -2  24 82969.3 3737.79  48
  -3   2 -24 91388.3 3642.11  13
   3  -2 -24 80466.9 3305.47  24
   3  -2 -25 4592.86 487.146  34
  -3  -2  25 4903.78 611.868  36
  -3  -2  25 4890.70 421.516  38
   3   2  25 4235.58 389.946  47
  -3  -2  25 5295.17 679.243  48
  -3   2 -25 3893.38 539.469  13
   3  -2 -25 4000.95 444.585  24
   3   2  25 4501.91 450.126  23
   3  -2 -26 20010.2 1065.24  34
   3   2  26 18036.0 893.456  47
  -3  -2  26 18820.1 1277.53  48
   3  -2 -26 18085.4 1009.31  24
   3   2  26 20608.9 1048.10  23
  -3   2 -26 18528.4 1157.47  13
   3   2  27 1947.46 282.444  31
  -3   2 -27 2386.71 364.859  13
  -3  -2  27 1740.56 333.957  36
  -3  -2  28 19426.2 1091.45  36
  -3   2 -29 4750.61 397.896  13
  -3  -2  29 6875.15 527.398  36
  -3   3  27 29983.3 1278.45  11
  -3  -3 -27 30576.3 1398.06  26
  -3   3  26 10488.7 672.032  11
  -3  -3 -26 9628.15 761.267  26
  -3  -3 -26 9808.78 639.524  37
  -3   3  25 27370.8 1329.08  11
  -3   3  25 24109.2 1111.55  12
  -3  -3 -25 28149.7 1522.52  26
  -3  -3 -25 25023.6 1302.31  37
  -3   3  24 13274.1 910.416  11
  -3   3  24 13274.7 796.428  12
  -3  -3 -24 15372.0 1153.06  26
   3  -3  24 15196.9 878.072  33
   3   3 -24 14704.3 784.464  35
  -3   3  23 9417.57 792.106  11
  -3   3  23 9529.98 694.049  12
  -3  -3 -23 9050.93 937.680  26
   3  -3  23 10554.1 735.668  33
   3   3 -23 9841.22 636.980  35
   3   3 -22 22450.2 1094.37  46
   3  -3  22 26450.6 1335.14  33
   3   3 -22 24870.0 1187.55  35
  -3   3  22 23916.4 1426.97  11
  -3   3  22 23603.1 1296.99  12
  -3  -3 -22 24887.3 1719.78  26
  -3   3  21 26309.5 1360.09   7
   3  -3  21 31742.3 1406.05  20
  -3  -3 -21 25157.9 1702.12  50
   3   3 -21 24747.0 1227.89  46
   3  -3  21 28073.3 1457.50  33
   3   3 -21 27528.9 1319.17  35
  -3   3  21 25605.3 1585.01  11
  -3   3  21 27208.3 1487.28  12
  -3  -3 -21 28730.5 1965.19  26
  -3   3  20 52010.3 2390.94   7
   3  -3  20 61735.9 2355.65  20
   3   3 -20 50529.4 2174.64  46
  -3  -3 -20 50451.7 2803.37  50
   3  -3  20 55712.0 2435.29  33
   3   3 -20 57975.1 2285.97  35
  -3   3  20 53656.4 2652.48  11
  -3   3  20 55511.0 2513.48  12
  -3  -3 -20 60793.8 3203.88  26
  -3   3  19 21464.1 1378.86   7
   3  -3  19 23888.2 1265.11  20
  -3   3  19 26191.6 1593.97  47
   3   3 -19 22509.7 1183.53  46
  -3  -3 -19 20509.6 1680.31  50
   3  -3  19 24674.8 1399.60  33
  -3   3  19 22714.5 1558.29  11
  -3   3  19 21648.6 1415.81  12
  -3  -3 -19 25108.9 2004.90  26
  -3   3  18 7862.77 829.008   7
   3  -3  18 7762.07 658.200  20
  -3   3  18 9019.72 998.920  47
   3   3 -18 8799.19 663.242  46
  -3  -3 -18 6583.49 981.722  50
  -3  -3 -18 6362.86 922.507  49
   3  -3  18 8094.67 752.926  33
  -3   3  18 7104.75 873.196  11
  -3   3  18 7420.37 797.487  12
  -3  -3 -18 7232.26 1209.45  26
  -3   3  17 86860.7 3901.12   7
   3  -3  17 101692. 3566.51  20
   3  -3  17 101900. 3787.17  33
   3   3 -17 88767.4 3461.56  46
  -3  -3 -17 94935.1 4433.07  50
  -3  -3 -17 70308.8 4221.82  49
  -3   3  17 90883.0 4016.34  11
  -3   3  17 86924.5 3837.33  12
  -3  -3 -17 73302.9 4740.35  26
   3  -3  16 37605.4 1938.37  33
   3   3 -16 37991.2 1750.49  35
   3  -3  16 34438.1 1708.03  48
   3   3 -16 33935.6 1703.98  46
  -3  -3 -16 37999.8 2436.66  50
  -3  -3 -16 33324.0 2746.79  49
  -3   3  16 36752.5 2165.98  11
  -3  -3 -16 36750.3 3063.96  26
   3   3 -15 13575.1 947.881  35
  -3  -3 -15 15346.7 1753.88  49
  -3   3  15 15297.8 1289.81  11
  -3  -3 -15 17787.8 1909.21  26
  -3   3  14 7601.43 949.370   7
   3   3 -14 9847.93 768.089  35
  -3  -3 -14 11570.5 1415.64  49
  -3   3  14 8890.70 967.423  11
  -3  -3 -14 11300.5 1461.56  26
  -3   3  13 18852.7 1598.55   7
   3   3 -13 24374.8 1309.48  35
  -3  -3 -13 21663.0 1907.84  49
  -3   3  13 20322.0 1539.62  11
  -3  -3 -13 21813.6 2020.64  26
  -3   3  12 14631.9 1383.48   7
   3  -3  12 14436.4 1107.57  33
   3   3 -12 17160.4 1080.35  35
  -3   3  12 16507.6 1406.41  47
  -3  -3 -12 16325.5 1597.49  49
  -3   3  12 15088.6 1297.70  11
  -3  -3 -12 16153.1 1680.18  26
  -3   3  11 94102.4 4435.05   7
   3  -3  11 89396.5 3789.22  33
   3   3 -11 97324.4 3715.14  35
  -3   3  11 94484.3 4248.66  47
  -3   3  11 96656.7 4170.30  11
  -3  -3 -11 95480.7 4806.21  26
  -3   3  10 4713.41 797.216   7
   3  -3  10 5964.53 651.517  33
   3   3 -10 4851.37 544.474  35
  -3  -3 -10 4257.97 754.046  38
  -3   3  10 6206.07 840.093  47
  -3   3  10 4746.20 707.061  11
  -3  -3 -10 5670.01 1021.00  26
  -3   3   9 12372.4 1328.13   7
   3  -3   9 10787.3 909.241  33
   3   3  -9 14908.3 961.945  35
  -3  -3  -9 12601.9 1385.44  38
  -3   3   9 10514.9 1128.35  47
  -3   3   9 12122.0 1136.76  11
  -3  -3  -9 13607.6 1513.22  26
  -3   3   8 53103.7 3055.45   7
   3  -3   8 53336.3 2382.79  33
   3   3  -8 51541.8 2256.51  35
  -3  -3  -8 52101.4 3230.72  38
  -3   3   8 55210.8 2836.86  47
  -3   3   8 47374.1 2622.58  11
  -3  -3  -8 52647.9 3214.97  26
  -3   3   7 3788.48 756.436   7
   3  -3   7 2032.82 372.351  33
   3   3  -7 2147.67 356.571  35
  -3  -3  -7 1741.69 701.115  38
  -3   3   7 2276.96 506.271  47
  -3   3   7 2235.82 489.437  11
  -3  -3  -7 2863.69 715.181  26
  -3   3   6 14048.7 1457.31   7
   3  -3   6 12177.1 922.745  33
   3   3  -6 15024.9 924.551  35
  -3  -3  -6 12002.4 1862.52  38
  -3   3   6 14032.4 1270.56  47
  -3   3   6 14533.6 1213.55  11
  -3  -3  -6 16266.9 1579.93  26
  -3   3   5 37674.7 2619.61   7
   3  -3   5 39826.0 1865.66  33
  -3  -3  -5 40037.2 4186.76  38
  -3   3   5 39220.1 2276.86  47
  -3  -3  -5 36750.6 2525.84  49
  -3   3   5 37549.2 2168.30  11
  -3  -3  -5 41278.5 2686.34  26
  -3   3   4 21737.9 1860.20   7
  -3  -3  -4 22124.4 1435.66   9
   3  -3   4 20695.4 1210.96  33
  -3   3   4 21460.8 1507.81  11
  -3  -3  -4 22099.9 1852.93  26
  -3   3   4 23156.4 1630.19  47
  -3  -3  -4 22929.6 1872.70  49
  -3   3   3 78092.0 4243.38   7
  -3  -3  -3 83331.6 3614.75   9
  -3   3   3 80834.7 3824.28  47
  -3  -3  -3 84385.2 4216.18  49
  -3   3   3 82667.2 3700.43  11
  -3  -3  -3 91681.9 4370.60  26
  -3   3   3 91929.7 3878.11  25
  -3   3   2 7740.31 917.914  47
   3   3  -2 8160.09 715.518  46
  -3  -3  -2 7681.03 1079.99  49
  -3   3   2 8840.58 1195.11   7
  -3  -3  -2 9007.15 855.388   9
  -3  -3  -2 8192.92 1109.88  26
  -3   3   2 7818.54 899.760  25
  -3  -3  -2 8304.11 1380.64  38
  -3   3   1 67073.6 3286.08  47
   3   3  -1 67821.9 2845.58  46
  -3  -3  -1 74694.8 3766.80  49
  -3   3   1 69495.3 3820.86   7
  -3  -3  -1 71016.5 3172.28   9
  -3   3   1 73604.3 3357.49  25
  -3  -3  -1 62222.6 3971.30  38
   3   3   0 16759.9 1068.57  46
  -3  -3   0 18340.6 1902.15  38
  -3   3   0 19311.1 1448.18  25
  -3   3   0 20143.9 1847.53   7
  -3  -3   0 19069.0 1341.52   9
  -3   3  -1 60189.4 3490.91   7
  -3  -3   1 61992.2 2868.16   9
   3  -3  -1 55228.7 2583.91  19
   3   3   1 55723.2 2548.62  18
   3   3   1 60707.1 2465.15  46
  -3  -3   1 60377.2 3648.33  38
  -3   3  -1 58934.4 2671.87  13
  -3   3  -1 63570.4 3018.74  25
  -3   3  -2 8284.01 1150.83   7
  -3  -3   2 8193.80 870.349   9
   3   3   2 9057.87 675.241  46
   3  -3  -2 8230.40 745.663  19
   3   3   2 7764.69 692.356  18
  -3  -3   2 8099.46 1223.34  38
  -3   3  -2 7799.21 800.227  13
  -3  -3   2 7778.32 1014.10  26
  -3   3  -2 9064.98 961.289  25
  -3   3  -3 85013.2 4320.35   7
  -3  -3   3 80833.6 3471.75   9
   3   3   3 76601.0 2920.58  46
   3  -3  -3 75997.3 3371.78  43
   3  -3  -3 73400.5 3103.86  19
   3   3   3 72882.4 3028.69  18
  -3  -3   3 71052.3 4093.30  38
  -3   3  -3 74987.6 3334.07  13
  -3  -3   3 78465.5 3801.43  26
  -3   3  -3 78354.7 3565.62  25
  -3   3  -4 22293.8 2053.03   7
  -3  -3   4 24123.9 1584.05   9
   3   3   4 23127.0 1151.15  46
   3  -3  -4 22470.1 1476.87  43
  -3   3  -4 19767.1 1465.97  42
   3  -3  -4 22514.2 1308.34  19
   3   3   4 22911.3 1243.09  18
  -3  -3   4 22757.6 2029.99  38
  -3   3  -4 20904.4 1466.80  13
  -3  -3   4 25504.8 1820.69  26
  -3   3  -4 23641.7 1633.02  25
  -3   3  -5 46641.5 3157.92   7
  -3  -3   5 42751.4 2279.38   9
  -3  -3   5 43123.5 2372.22  48
   3  -3  -5 42500.5 2171.71  43
  -3   3  -5 39550.1 2248.91  42
   3  -3  -5 37667.9 1901.15  19
  -3  -3   5 39811.7 2799.26  38
  -3   3  -5 42015.2 2260.87  13
  -3  -3   5 46123.7 2534.80  26
  -3   3  -5 42911.1 2383.89  25
  -3  -3   6 14920.0 1188.16   9
  -3  -3   6 13568.5 1237.12  48
   3  -3  -6 12822.7 1025.44  43
  -3   3  -6 12179.2 1095.16  42
   3  -3  -6 10629.1 819.795  19
  -3  -3   6 12565.0 1453.11  38
  -3   3  -6 12218.3 1124.75  13
  -3  -3   6 13775.4 1054.82  10
  -3  -3   6 11779.2 1177.74  26
  -3   3  -6 11718.3 1114.09  25
  -3  -3   7 2244.97 488.462   9
  -3  -3   7 1925.21 502.142  48
   3  -3  -7 2451.24 428.984  43
   3  -3  -7 2360.18 351.295  19
  -3  -3   7 2062.87 664.153  38
  -3   3  -7 2873.85 553.064  25
  -3  -3   7 2140.50 507.808  26
  -3   3  -7 1362.29 439.890  13
  -3   3  -7 2879.30 415.458  12
  -3  -3   7 1943.36 407.605  10
  -3  -3   8 48713.6 2820.78  48
   3  -3  -8 50810.5 2356.31  43
  -3  -3   8 51755.3 2614.86   9
  -3  -3   8 45058.0 2985.92  38
  -3  -3   8 48538.8 2550.08  26
  -3   3  -8 50565.7 2642.31  13
  -3  -3   8 49981.0 2434.44  10
  -3   3  -8 48518.6 2158.76  12
  -3  -3   9 14872.5 1460.11  48
   3  -3  -9 12316.3 976.938  43
  -3   3  -9 11684.3 1603.99   7
  -3  -3   9 13023.9 1153.97   9
  -3  -3   9 12173.3 1415.61  38
   3   3   9 14242.0 934.389  32
  -3  -3   9 14290.3 1157.99  26
  -3   3  -9 12812.7 1198.65  13
  -3  -3   9 12705.3 1053.40  10
  -3   3  -9 13523.1 886.097  12
  -3  -3  10 2826.92 722.972  48
   3  -3 -10 4558.35 552.597  43
  -3  -3  10 3767.34 800.704  38
  -3  -3  10 3910.62 553.897  10
  -3   3 -10 3855.32 446.767  12
  -3  -3  10 4588.07 629.454  26
   3   3  10 3968.94 472.111  32
  -3   3 -10 4794.13 893.511   7
  -3  -3  10 4698.37 680.058   9
  -3  -3  11 85215.2 3662.00  10
  -3   3 -11 86055.5 3275.95  12
  -3   3 -11 91539.5 4343.26   7
  -3  -3  11 93962.4 3913.39   9
  -3  -3  11 85378.2 4724.86  48
  -3  -3  11 84927.3 4305.46  38
  -3  -3  11 85559.4 3589.94  26
   3   3  11 90788.2 3375.12  32
   3  -3 -11 79556.3 3510.63  22
  -3   3 -12 16913.1 1508.68  13
  -3   3 -12 16113.0 1450.18   7
  -3  -3  12 17907.0 1354.17   9
  -3  -3  12 15041.4 1497.03  38
   3   3  12 16423.2 988.357  32
   3  -3 -12 15424.6 1097.19  22
  -3   3 -12 14797.7 1248.35  25
   3  -3 -13 13143.8 1036.78  22
  -3   3 -13 15060.8 1266.95  25
  -3  -3  13 16652.6 1302.68   9
  -3  -3  13 13568.7 1404.62  38
   3   3  13 17430.7 1007.78  32
  -3   3 -14 8892.18 934.758  42
   3  -3 -14 7379.90 736.947  22
  -3  -3  14 7935.14 1045.48  38
  -3  -3  14 8658.98 926.981   9
  -3  -3  15 15223.8 1267.29   9
  -3   3 -15 16722.4 1342.96  42
   3   3  15 17072.3 1020.00  45
  -3  -3  15 18161.7 1721.35  48
  -3  -3  15 14317.4 1381.35  38
   3  -3 -15 16124.3 1213.66  34
  -3   3 -15 20364.5 2222.20  13
   3  -3 -15 17221.6 1135.59  22
  -3  -3  16 34111.3 2061.86   9
  -3   3 -16 33567.5 2111.44  42
   3   3  16 39667.6 1759.79  45
  -3  -3  16 36077.1 2423.49  48
   3  -3 -16 34942.0 1967.87  34
  -3   3 -16 38580.5 2691.80  13
   3  -3 -16 37379.1 1839.79  22
  -3  -3  17 100529. 4414.55   9
  -3   3 -17 99792.1 4554.91  42
  -3  -3  17 106640. 4779.79  48
   3  -3 -17 101799. 4249.35  34
  -3  -3  17 99588.6 4469.47  36
  -3   3 -17 111801. 4880.50  13
   3  -3 -17 99774.3 4022.90  22
  -3  -3  18 8418.41 903.728   9
  -3   3 -18 6187.54 823.893  42
   3   3  18 8795.90 693.076  45
  -3  -3  18 7979.50 979.681  48
   3  -3 -18 6533.61 749.284  34
  -3  -3  18 8062.99 887.120  36
  -3  -3  18 8113.10 887.624  38
  -3   3 -18 8080.39 962.974  13
   3  -3 -18 6865.18 645.773  22
  -3  -3  19 22054.8 1531.91   9
  -3   3 -19 20840.3 1446.45  42
   3   3  19 21507.8 1167.19  45
  -3  -3  19 21715.3 1619.24  48
   3  -3 -19 18019.5 1284.45  34
  -3  -3  19 23091.5 1533.66  36
  -3  -3  19 23550.6 1487.63  38
  -3   3 -19 23734.2 1604.15  13
   3  -3 -19 19012.5 1133.43  22
  -3  -3  20 59419.6 2775.94   9
  -3   3 -20 54895.3 2522.18  42
   3   3  20 51140.2 2204.06  45
  -3  -3  20 49564.1 2705.30  48
   3  -3 -20 54643.4 2458.69  34
  -3  -3  20 52579.4 2608.76  36
  -3  -3  20 55632.3 2510.12  38
  -3   3 -20 54188.7 2692.52  13
   3  -3 -20 55765.9 2228.40  22
   3   3  20 55636.0 2293.82  23
   3   3  21 23683.6 1251.40  45
  -3  -3  21 24375.4 1647.11  48
   3  -3 -21 27227.6 1457.81  34
  -3  -3  21 26617.5 1603.60  36
  -3  -3  21 27204.6 1432.83  38
  -3  -3  21 31329.5 1716.01   9
  -3   3 -21 31276.4 1718.75  13
   3  -3 -21 26072.5 1386.61  24
   3   3  21 28728.5 1364.47  23
  -3  -3  22 24431.8 1590.11  48
   3  -3 -22 24098.1 1327.43  34
  -3  -3  22 26143.1 1532.34  36
  -3  -3  22 26119.5 1270.46  38
  -3  -3  22 27355.6 1525.95   9
  -3   3 -22 28550.7 1570.23  13
   3  -3 -22 23505.6 1246.35  24
   3   3  22 27246.8 1290.59  23
  -3  -3  23 7570.42 773.278  48
  -3   3 -23 9471.98 798.806  13
   3   3  23 10124.9 654.382  23
   3  -3 -23 7639.19 625.361  34
  -3  -3  23 8318.46 745.231  36
  -3  -3  23 7968.20 517.599  38
  -3  -3  24 13474.3 1004.71  48
  -3   3 -24 14199.0 953.228  13
   3   3  24 14389.0 824.460  23
   3  -3 -24 14168.7 835.122  34
  -3  -3  24 14741.1 983.603  36
  -3   3 -25 30163.2 1426.36  13
  -3  -3  25 27766.4 1478.06  48
  -3  -3  25 27673.3 1419.43  36
  -3   3 -26 10298.8 680.896  13
  -3  -3  26 10634.0 701.846  36
  -3   3 -27 35625.8 1476.34  13
  -3  -3  27 37261.5 1514.98  36
  -3  -4 -22 46426.8 2012.31  26
  -3  -4 -21 938.721 277.241  26
  -3  -4 -20 71677.9 2997.28  26
  -3   4  20 69109.2 2664.58  47
  -3  -4 -19 1714.30 415.165  26
  -3   4  19 1253.59 273.981  47
   3  -4  18 30556.7 1471.88  19
   3   4 -18 27777.0 1401.07  18
  -3   4  18 31642.9 1568.87  47
   3   4 -18 31494.9 1321.61  46
  -3   4  18 29694.1 1509.74  11
  -3  -4 -18 30302.5 1825.71  26
   3   4 -17 830.594 236.723  18
   3  -4  17 1392.73 281.352  19
   3   4 -17 898.378 184.142  46
  -3   4  17 1218.12 337.313  47
  -3  -4 -17 1047.09 342.414  49
  -3  -4 -17 941.944 209.113  37
  -3  -4 -17 1100.89 393.059  26
  -3   4  17 1910.46 361.600  11
  -3   4  16 714.299 268.999  11
   3  -4  16 1431.22 267.249  48
   3   4 -16 1297.34 227.157  46
  -3   4  16 1225.99 363.344  47
  -3  -4 -16 849.374 363.518  49
   3   4 -16 1166.90 255.394  18
   3  -4  16 1494.38 300.794  19
  -3  -4 -16 1335.29 258.153  37
   3  -4  16 1004.55 264.997  33
  -3  -4 -16 817.108 430.269  26
  -3   4  15 1154.15 322.627  11
  -3   4  15 1325.14 201.352  12
   3  -4  15 1983.93 329.620  48
   3   4 -15 1136.10 229.216  46
  -3   4  15 1570.41 417.194  47
  -3  -4 -15 765.816 383.983  49
   3   4 -15 1407.76 303.193  18
  -3   4  15 1346.93 319.186   7
  -3  -4 -15 1052.99 261.813  37
   3  -4  15 1686.28 331.885  33
  -3  -4 -15 1353.06 498.855  26
   3  -4  14 12106.5 822.755  48
  -3   4  14 8363.83 902.700  47
   3   4 -14 10862.4 715.617  46
  -3  -4 -14 10322.4 1149.61  49
   3   4 -14 10509.3 816.609  18
  -3   4  14 9043.11 846.800   7
  -3  -4 -14 8424.22 720.976  37
   3  -4  14 8944.94 749.283  33
  -3  -4 -14 9960.99 1132.51  26
  -3   4  14 10176.1 870.686  11
  -3   4  14 8691.52 588.233  12
  -3   4  13 1417.46 244.000  12
   3  -4  13 1560.75 317.869  48
   3   4 -13 1965.08 311.732  46
  -3   4  13 1642.46 431.908  47
  -3  -4 -13 1365.13 490.286  49
   3   4 -13 1369.89 312.070  18
  -3   4  13 1568.72 367.963   7
  -3  -4 -13 1414.57 310.301  37
   3   4 -13 1412.99 247.601  35
   3  -4  13 2001.95 356.595  33
  -3  -4 -13 2274.76 583.386  26
   3   4 -12 9190.43 788.395  18
  -3   4  12 9771.77 941.431  47
   3   4 -12 9268.18 702.544  46
  -3  -4 -12 9564.10 1111.29  49
  -3  -4 -12 8513.81 768.844  37
   3  -4  12 9709.13 765.230  33
  -3   4  12 8326.13 621.293  12
  -3  -4 -12 10072.1 1112.91  26
  -3  -4 -11 2638.49 449.642  37
   3  -4  11 2569.06 394.079  33
  -3   4  11 2951.75 519.522  47
   3   4 -11 2886.38 387.998  46
  -3  -4 -11 2679.32 630.488  49
  -3   4  11 2548.16 335.664  12
   3   4 -11 2753.60 430.736  18
   3  -4  10 36299.7 1846.75  19
   3   4 -10 34171.6 1761.86  18
  -3   4  10 31754.1 1926.89  47
   3   4 -10 35912.7 1659.48  46
  -3  -4 -10 32209.1 2189.36  49
  -3  -4 -10 34001.4 1782.50  37
   3  -4  10 35540.9 1686.31  33
  -3   4  10 32490.1 1536.89  12
  -3   4  10 31152.6 1992.01   7
   3  -4   9 11412.8 914.195  19
   3   4  -9 8388.78 775.200  18
  -3   4   9 10728.8 997.760  47
   3   4  -9 8840.44 720.072  46
  -3  -4  -9 10009.0 1119.23  49
  -3  -4  -9 9365.24 826.781  37
   3  -4   9 9372.60 737.135  33
  -3  -4  -9 8052.59 996.237  38
  -3   4   9 8824.47 671.271  12
  -3   4   9 10119.6 1040.56   7
   3  -4   8 90222.2 3596.31  19
   3   4  -8 87607.4 3511.24  18
  -3   4   8 87372.8 3764.84  47
   3   4  -8 92691.9 3398.09  46
  -3  -4  -8 89957.4 4166.40  49
  -3  -4  -8 82618.1 3500.28  37
   3  -4   8 89317.2 3363.59  33
  -3  -4  -8 77650.8 4049.29  38
  -3   4   8 83475.5 3249.56  12
  -3   4   8 81482.2 3908.06   7
  -3   4   7 7999.98 968.070   7
   3  -4   7 8586.78 791.704  19
   3   4  -7 5611.94 650.302  18
  -3   4   7 8544.81 880.560  47
  -3  -4  -7 7596.95 1000.69  49
  -3  -4  -7 8099.74 758.872  37
   3  -4   7 8075.73 656.849  33
  -3   4   7 7770.46 614.682  12
  -3  -4  -7 7733.40 949.337  26
  -3   4   6 46476.3 2647.60   7
   3  -4   6 42222.3 2169.36  19
  -3   4   6 46511.4 2387.02  47
  -3  -4  -6 48838.3 2751.55  49
  -3  -4  -6 45615.0 2186.20  37
   3  -4   6 44380.9 1985.10  33
  -3   4   6 47694.2 1988.41  12
  -3  -4  -6 46896.3 2585.35  26
  -3   4   6 48177.6 2449.48  25
  -3   4   5 3776.59 713.761   7
   3  -4   5 3950.20 529.590  19
  -3   4   5 4430.95 628.125  47
   3   4  -5 4108.19 461.220  46
  -3  -4  -5 2332.08 607.715  49
  -3  -4  -5 3490.91 504.902  37
  -3  -4  -5 2275.43 919.062  38
  -3   4   5 4108.25 442.658  12
  -3  -4  -5 4192.50 703.861  26
  -3   4   5 4480.25 651.558  25
  -3   4   4 27266.7 1974.42   7
   3  -4   4 26589.0 1558.85  19
   3   4  -4 28861.0 1555.26  18
   3   4  -4 29729.6 1444.78  46
  -3  -4  -4 29703.8 2036.35  49
  -3  -4  -4 26755.1 1532.69  37
  -3  -4  -4 34295.9 3055.87  38
  -3   4   4 27889.3 1374.53  12
  -3  -4  -4 28420.7 1865.82  26
  -3   4   4 30869.7 1824.96  25
  -3   4   3 565.009 340.719   7
   3   4  -3 420.031 195.397  18
   3   4  -3 948.565 240.761  46
  -3  -4  -3 277.947 203.124  37
  -3  -4  -3 1047.93 650.017  38
  -3   4   3 654.550 189.466  12
  -3   4   3 575.798 293.977  25
  -3  -4  -3 639.819 374.451  26
  -3   4   2 1237.03 453.119   7
   3   4  -2 1238.42 262.318  46
   3   4  -2 739.503 234.469  18
  -3  -4  -2 338.463 494.349  38
  -3   4   2 797.765 203.414  12
  -3   4   2 1096.15 338.417  25
  -3  -4  -2 803.011 339.893  26
  -3   4   1 22346.6 1788.41   7
   3   4  -1 24102.8 1203.71  46
   3  -4   1 23619.6 1539.71  43
   3   4  -1 22938.4 1290.48  18
  -3  -4  -1 21333.3 1939.12  38
  -3   4   1 20905.6 1124.93  12
  -3  -4  -1 21806.8 1531.71  26
  -3   4   1 22790.2 1547.64  25
  -3   4   0 255.684 281.886   7
  -3  -4   0 325.839 210.835   9
   3   4   0 80.0384 124.860  46
   3  -4   0 162.910 210.628  43
   3   4   0 138.078 156.383  18
   3  -4   0 78.2333 158.499  19
  -3  -4   0 396.717 478.138  38
  -3   4   0 400.396 168.144  12
  -3   4   0-57.6315 252.165  25
  -3  -4   0 56.4441 309.576  26
  -3   4  -1 20667.5 1773.51   7
  -3  -4   1 20750.9 1369.45   9
   3   4   1 22480.4 1120.05  46
   3  -4  -1 20599.0 1435.57  43
   3  -4  -1 21204.9 1265.27  19
   3   4   1 22253.7 1226.22  18
  -3  -4   1 18512.4 1767.97  38
  -3   4  -1 20774.6 1075.97  12
  -3  -4   1 21009.8 1440.33  26
  -3   4  -2 177.334 311.206   7
  -3  -4   2 571.564 249.296   9
   3   4   2 457.207 154.499  46
   3  -4  -2 416.403 265.501  43
   3   4   2 443.810 199.905  18
   3  -4  -2 221.975 188.871  19
  -3  -4   2 93.3920 378.420  38
  -3  -4   2 349.500 233.768  26
  -3   4  -2 301.089 135.849  12
  -3  -4   3 599.949 269.920  26
   3  -4  -3 253.862 214.197  43
   3   4   3 362.533 183.730  18
   3  -4  -3 178.380 161.764  19
  -3  -4   3 729.828 477.089  38
  -3   4  -3 199.830 116.394  12
  -3   4  -3-90.5628 366.893   7
  -3  -4   3 480.688 257.684   9
  -3   4  -4 33443.0 2366.57   7
  -3  -4   4 33688.8 1842.59   9
   3  -4  -4 32523.4 1759.96  22
   3  -4  -4 34054.5 1844.94  43
   3   4   4 34033.5 1540.42  18
   3  -4  -4 31173.1 1592.81  19
  -3  -4   4 29440.8 2229.73  38
  -3  -4   4 32477.6 1726.60  26
  -3   4  -4 30490.6 1388.39  12
   3  -4  -5 3762.27 545.557  22
  -3  -4   5 2889.66 433.196  26
  -3   4  -5 4076.46 622.567  25
   3  -4  -5 4124.21 571.705  43
   3  -4  -5 3418.94 440.658  19
  -3  -4   5 3732.48 780.935  38
  -3   4  -5 3403.26 345.844  12
  -3   4  -5 5829.66 996.494   7
  -3  -4   5 3837.82 559.015   9
   3  -4  -6 39957.6 2040.12  22
  -3   4  -6 41427.0 2238.55  25
   3  -4  -6 43472.3 2134.06  43
   3  -4  -6 41286.8 1868.75  19
  -3  -4   6 39745.0 2571.73  38
  -3  -4   6 36607.6 1839.97  26
   3   4   6 44782.2 1973.23  32
  -3   4  -6 47360.3 3090.21   7
  -3  -4   6 45745.5 2199.29   9
   3  -4  -7 8185.21 765.645  22
  -3   4  -7 8689.84 876.119  25
   3  -4  -7 8146.97 772.891  43
   3  -4  -7 7993.28 645.430  19
  -3  -4   7 7553.08 1030.08  38
   3   4   7 8977.86 719.414  32
  -3   4  -7 10089.6 1520.45   7
  -3  -4   7 7630.80 796.443   9
   3  -4  -8 79293.8 3324.14  22
  -3   4  -8 78892.5 3512.53  25
   3  -4  -8 79039.7 3330.47  43
   3  -4  -8 82373.5 3069.36  19
  -3  -4   8 72135.7 3823.64  38
   3   4   8 80734.2 3167.83  32
  -3  -4   8 88915.7 3522.55   9
   3  -4  -9 9305.86 809.672  43
  -3   4  -9 9222.24 865.186  42
  -3  -4   9 9851.09 887.146   9
  -3  -4   9 9428.80 1094.32  38
   3   4   9 8871.66 715.658  32
   3  -4  -9 8953.19 789.269  22
  -3   4  -9 9773.29 927.227  25
   3   4  10 40806.5 1757.88  45
   3  -4 -10 35469.4 1832.73  43
  -3   4 -10 37043.5 1979.99  42
  -3   4 -10 43573.2 2575.30   7
  -3  -4  10 35204.7 1947.29   9
  -3  -4  10 34280.3 2226.13  38
   3   4  10 39206.6 1761.45  32
   3  -4 -10 36280.6 1851.73  22
  -3   4 -10 36711.8 2014.25  25
   3   4  11 3259.61 402.768  45
   3  -4 -11 2796.39 422.894  43
  -3   4 -11 2695.65 451.935  42
  -3   4 -11 2759.57 631.425   7
  -3  -4  11 2957.93 487.439   9
  -3  -4  11 3075.67 610.389  38
   3   4  11 3140.10 398.115  32
  -3   4 -11 3366.68 535.441  25
   3  -4 -11 2758.99 420.934  22
   3   4  12 11788.2 772.635  45
   3  -4 -12 7968.90 702.471  43
  -3   4 -12 8922.02 842.515  42
  -3   4 -12 9765.30 993.098   7
  -3  -4  12 10122.3 881.989   9
  -3  -4  12 8473.06 953.693  38
   3  -4 -12 9448.24 814.970  34
   3   4  12 9762.39 709.060  32
   3  -4 -12 7859.60 724.424  22
  -3   4 -12 9104.86 857.784  25
   3   4  13 2710.85 375.092  45
  -3   4 -13 2287.90 427.885  42
  -3  -4  13 1908.44 392.251   9
   3  -4 -13 2043.89 391.877  34
  -3  -4  13 1476.97 430.788  38
   3   4  13 2192.67 331.025  32
   3  -4 -13 1949.09 354.082  22
   3  -4 -14 11394.6 891.396  34
   3   4  14 12605.0 836.815  45
  -3   4 -14 11048.0 953.498  42
  -3  -4  14 12056.6 959.029   9
  -3  -4  15 1851.12 393.820  36
   3  -4 -15 2216.49 375.116  34
   3   4  15 1982.50 324.752  45
  -3  -4  15 1731.16 366.494   9
  -3   4 -15 2048.91 395.937  42
  -3  -4  16 1880.56 366.385   9
  -3   4 -16 1761.79 368.139  42
   3   4  16 1923.37 314.917  45
   3  -4 -16 1519.71 302.853  34
  -3  -4  16 1623.53 365.002  38
  -3   4 -16 2095.73 420.575  13
   3  -4 -16 1593.62 301.703  22
   3  -4 -17 934.204 240.063  34
  -3  -4  17 902.394 254.659  38
   3   4  17 700.580 201.293  23
   3  -4 -17 1162.96 249.935  22
  -3  -4  17 600.241 230.575   9
  -3   4 -17 615.906 255.832  42
  -3  -4  18 32452.0 1601.33   9
   3   4  18 32534.1 1380.85  23
   3  -4 -18 28715.8 1411.65  34
  -3  -4  18 27982.5 1508.82  36
  -3  -4  18 28124.9 1388.62  38
  -3  -4  19 990.278 282.147  48
  -3  -4  19 651.731 210.714  36
  -3  -4  19 1300.79 204.729  38
  -3  -4  20 69952.1 2757.14  48
  -3   4 -20 70681.0 2671.89  13
  -3  -4  20 64852.3 2674.01  36
  -3  -4  21 1101.21 256.099  48
  -3   4 -21 1511.49 245.602  13
  -3  -4  21 1329.76 253.335  36
  -3  -4  22 52723.8 2047.41  48
  -3   4 -22 51061.6 1956.52  13
   3  -5  12 435.644 170.323  48
   3  -5   9 29533.3 1454.46  48
   3  -5   8 10108.3 744.074  48
   3  -5   7 1607.11 311.069  48
  -3  -5  -6 14522.5 1143.54  38
  -3  -5  -5 11868.7 1117.43  38
   3  -5   5 16554.3 935.697  19
   3  -5   4 1907.89 314.770  22
   3  -5   4 1581.67 367.964  43
  -3  -5  -4 803.616 385.350  38
  -3   5   4 1314.33 319.274   7
   3   5  -4 1436.48 253.534  32
   3  -5   4 1842.87 300.971  19
  -3  -5  -3 40940.0 2449.26  38
   3  -5   3 44518.7 1935.83  22
   3   5  -3 45484.0 1881.16  32
  -3   5   3 44189.1 2196.61   7
  -3  -5  -2 3143.59 616.262  38
   3  -5   2 2297.21 327.262  22
   3   5  -2 1720.89 279.408  32
  -3   5   2 2620.44 460.907   7
  -3  -5  -1 22504.7 1605.57  38
   3  -5   1 21021.8 1156.03  22
   3   5  -1 21648.5 1120.27  32
  -3   5   1 21468.8 1414.86   7
  -3  -5   0 16926.2 1357.16  38
   3  -5   0 17863.1 1024.48  22
  -3   5   0 17196.4 1098.59  25
   3   5   0 18552.2 991.333  32
  -3   5   0 18125.1 1293.79   7
  -3  -5   1 21495.9 1544.56  38
   3  -5  -1 23558.1 1241.26  22
  -3   5  -1 24523.9 1341.25  25
   3   5   1 24560.7 1201.39  32
  -3   5  -1 23438.7 1514.22   7
  -3  -5   2 2522.02 534.461  38
  -3   5  -2 2424.64 389.506  25
   3  -5  -2 2528.98 353.686  22
   3   5   2 3055.42 357.362  32
  -3   5  -2 2268.96 464.637   7
  -3   5  -3 39221.5 2213.57   7
   3   5   3 46990.8 1806.43  45
  -3  -5   3 37662.4 2177.20  38
   3   5   3 44641.1 1844.91  32
   3  -5  -3 43377.6 1894.19  22
  -3   5  -3 42633.2 1984.55  25
  -3   5  -4 1436.65 395.107   7
   3   5   4 1261.15 229.211  45
  -3  -5   4 1030.17 348.375  38
   3   5   4 1286.20 234.955  32
  -3   5  -4 1464.30 300.754  25
   3  -5  -4 1438.80 269.072  22
  -3  -5   5 14833.9 1167.64  38
   3   5   5 19186.6 946.574  45
  -3   5  -5 15699.3 1269.83   7
   3  -5  -5 17164.0 996.958  22
  -3   5  -5 15748.6 1027.35  25
   3  -5  -6 19054.8 1046.48  22
  -3   5  -6 20565.9 1139.86  25
  -3   5  -7 1782.28 317.010  25
  -3  -5   7 1686.48 368.586  38
  -3   5  -8 7594.93 631.497  25
  -3  -5   8 7896.13 731.678  38
  -3  -5   9 25002.5 1386.21  38
  -3  -5  12 434.420 147.741  38
  -4   0   0 114282. 4221.25  12
  -4   0   1 4696.18 667.470  26
  -4   0  -1 4879.49 497.042  12
  -4   0   1 5301.53 538.997  12
  -4   0  -1 4783.68 578.776  13
  -4   0  -1 4625.30 597.946  37
  -4   0   2 20864.3 1466.28  26
  -4   0  -2 22732.9 1442.32  37
  -4   0  -2 23266.9 1221.59  12
  -4   0   2 24555.7 1320.46  12
  -4   0  -2 24728.7 1411.45  13
  -4   0  -3 1865.58 407.264  37
  -4   0   3 2167.25 451.507  38
  -4   0  -3 1691.06 435.868  26
  -4   0   3 1672.49 329.847  12
  -4   0  -3 1610.22 344.344  13
  -4   0  -3 1992.46 301.899  12
  -4   0  -4 830.703 308.155  37
  -4   0   4 861.680 355.825  38
  -4   0  -4 398.513 282.932  26
  -4   0   4 421.943 247.273   7
  -4   0  -4 468.883 167.711  12
  -4   0   4 659.122 231.206  12
  -4   0  -4 567.472 270.618  13
  -4   0  -5 1292.16 365.645  37
  -4   0   5 1944.00 437.939  38
  -4   0  -5 1493.26 427.061  26
  -4   0   5 1807.28 411.924   7
  -4   0  -5 1249.91 233.589  12
  -4   0   5 1499.27 316.164  12
  -4   0  -5 1347.95 347.400  13
  -4   0  -6 150.844 220.103  37
  -4   0   6 53.5608 250.611  38
  -4   0  -6 463.629 295.456  26
  -4   0  -6 298.649 134.520  12
  -4   0   6 190.300 194.122  12
  -4   0  -6 462.732 275.977  13
  -4   0   6 199.171 217.966   7
  -4   0  -7 64177.2 2978.15  37
  -4   0  -7 64186.5 2482.75  12
  -4   0   7 68624.3 2823.06  12
  -4   0  -7 65430.0 2960.37  13
  -4   0  -7 69055.8 3146.21  26
  -4   0   7 67244.6 2965.35   7
  -4   0   8 7535.60 753.294   7
  -4   0  -8 6698.93 758.956  37
  -4   0   8 6618.01 662.200  12
  -4   0  -8 7168.50 778.413  13
  -4   0  -9 22846.3 1514.71  37
  -4   0   9 25980.8 1545.76  38
  -4   0   9 23232.2 1371.81  12
  -4   0  -9 26328.8 1604.74  13
  -4   0 -10 46671.0 2295.52  37
  -4   0  10 48177.9 2218.62  38
  -4   0  10 46681.1 2099.34  12
  -4   0 -10 49823.4 2406.94  13
  -4   0 -11 87667.9 3595.26  37
  -4   0  11 92909.3 3480.34  38
  -4   0  11 95759.9 3424.38   7
  -4   0  11 88754.0 3363.99  12
  -4   0 -11 83461.4 3660.65  13
  -4   0 -12 7560.59 816.588  37
  -4   0  12 7806.02 723.066  38
   4   0 -12 5480.40 510.560  24
  -4   0  12 8638.55 718.461   7
  -4   0  12 6645.37 667.662  12
  -4   0 -12 7290.56 810.097  13
  -4   0  13 1974.21 373.043  38
   4   0 -13 1235.41 235.662  24
  -4   0  13 1885.40 350.820   7
  -4   0  13 2128.98 396.233  12
  -4   0 -13 1677.03 396.048  13
  -4   0  14 24527.5 1319.50  38
   4   0 -14 18800.6 1055.05  24
  -4   0  14 27781.5 1334.48   7
  -4   0  14 23586.0 1388.31  12
  -4   0 -14 22398.1 1353.54  13
  -4   0  15 1757.19 335.630  38
  -4   0 -15 1669.79 337.778  13
   4   0 -15 1463.91 232.014  24
  -4   0  16 816.977 229.582  38
  -4   0 -16 578.573 213.384  13
   4   0 -16 505.371 150.151  24
  -4   0 -17 21083.6 1145.17  13
  -4   0 -18 28851.3 1348.20  13
  -4   0 -20 261.114 128.255  13
  -4   1  22 6861.41 427.896  12
  -4   1  21 16718.5 842.325  12
  -4  -1 -21 16669.0 892.900  37
  -4   1  20 1037.63 215.174  12
  -4  -1 -20 1271.85 262.989  37
  -4   1  19 33081.3 1542.28  12
  -4  -1 -19 30528.6 1574.30  37
  -4   1  18 1955.59 387.923  12
  -4  -1 -18 1291.01 344.779  37
  -4   1  17 18548.4 1023.78   7
  -4  -1 -17 16478.1 1340.97  37
  -4   1  16 43996.1 1626.54   7
  -4   1  16 34780.7 2144.01  12
  -4   1  15 6824.44 617.370   7
  -4   1  15 7102.94 831.496  12
  -4  -1 -15 7994.45 1313.22  37
   4   1 -15 5838.75 474.709  35
  -4   1  14 116858. 4087.19   7
  -4   1  14 114349. 4331.57  12
  -4  -1 -13 38987.0 2225.82  37
  -4  -1 -13 40287.8 2249.80  26
  -4   1  13 35527.8 1757.27   7
  -4   1  13 37964.4 1894.94  12
  -4   1  12 14063.8 1030.80   7
  -4   1  12 13573.0 1042.67  12
  -4  -1 -12 13290.0 1197.14  37
  -4   1  11 41367.9 2134.84   7
  -4   1  11 45512.0 2189.49  12
  -4  -1 -11 46233.2 2421.37  37
  -4   1  10 7347.27 749.691   7
  -4   1  10 7320.14 727.812  12
  -4  -1 -10 6741.50 820.295  37
  -4  -1  -9 22231.5 1517.82  37
  -4  -1  -9 19428.2 1617.46  26
  -4   1   9 20210.2 1377.06   7
  -4   1   9 21970.7 1355.17  12
  -4  -1  -8 512.681 333.399  37
  -4  -1  -8 354.995 288.007  26
  -4   1   8 467.553 265.245   7
  -4   1   8 731.805 285.165  12
  -4  -1  -7 25595.6 1633.32  37
  -4  -1  -7 25692.4 1792.87  26
  -4   1   7 22466.4 1536.61   7
  -4   1   7 23412.5 1431.54  12
  -4  -1  -6 14709.2 1208.18  37
  -4   1   6 17129.1 1144.09  12
  -4  -1  -6 15180.7 1334.07  26
  -4  -1  -5 10057.6 990.124  37
  -4  -1  -5 12428.8 1188.72  26
  -4   1   5 11744.5 924.016  12
  -4  -1  -4 13230.5 1134.82  37
  -4   1   4 13918.8 1016.21  12
  -4  -1  -4 15057.9 1299.88  26
  -4   1   4 14594.8 1255.17   7
  -4  -1  -3 5181.73 695.303  37
  -4  -1  -3 3728.27 651.912  26
  -4   1   3 4512.69 554.119  12
  -4   1   3 6062.64 817.600   7
  -4  -1  -2 31377.3 1884.82  37
  -4   1   2 34240.2 1751.37  12
  -4  -1  -2 37168.5 2139.46  26
  -4   1   2 34688.2 2192.88   7
  -4  -1  -1 3554.24 564.224  37
  -4  -1  -1 3159.51 621.832  26
  -4   1   1 3693.39 481.026  12
  -4   1   1 3103.09 421.249  13
  -4   1   1 2496.63 580.483   7
  -4  -1   0 38531.9 2129.75  26
  -4   1   0 36121.7 1748.62  12
  -4   1   0 30867.1 1669.52  13
  -4  -1   0 34903.5 1922.05  37
  -4  -1   1 3070.67 604.069  26
  -4   1  -1 3047.10 436.893  12
  -4  -1   1 2563.23 478.241  37
  -4  -1   1 2961.22 615.552  38
  -4  -1   2 35369.1 2075.75  26
  -4   1  -2 36178.3 1751.84  12
  -4  -1   2 39825.7 2461.98  38
  -4  -1   3 2140.97 510.657  26
  -4   1  -3 3213.26 415.158  12
  -4   1  -3 3741.19 509.913  13
  -4  -1   3 3107.94 680.435  38
  -4  -1   4 16732.6 1283.41  26
  -4   1  -4 17318.5 1022.62  12
  -4   1  -4 16882.5 1159.29  13
  -4  -1   5 14114.8 1131.86  26
  -4   1  -5 14296.9 887.083  12
  -4   1  -5 12954.2 1026.06  13
  -4   1  -6 11666.2 784.560  12
  -4   1  -6 11971.0 979.463  13
  -4  -1   7 22791.7 1550.75  38
  -4   1  -7 22749.1 1387.65  13
  -4   1  -7 20478.1 1064.47  12
   4  -1  -8 427.732 177.502  34
  -4  -1   8 405.924 279.986  38
  -4   1  -8 563.828 165.545  12
  -4   1  -8 625.907 281.899  13
  -4  -1   9 27466.9 1693.61  38
  -4   1  -9 27254.6 1634.73  13
  -4   1  -9 24784.0 1202.84  12
  -4  -1  10 5761.31 711.041  38
  -4   1 -10 6173.20 766.860  13
  -4  -1  11 47506.7 2408.06  38
  -4   1 -11 54016.5 2753.37  13
  -4  -1  12 19368.6 1316.26  38
  -4   1 -12 22304.0 1764.41  13
  -4  -1  13 36581.9 1763.99  38
  -4   1 -13 23053.2 1801.93  13
  -4  -1  14 121416. 4242.64  38
  -4   1 -14 92745.1 4270.41  13
  -4  -1  15 7933.18 710.776  38
  -4   1 -15 6668.44 710.193  13
  -4  -1  16 42188.1 1878.47  38
  -4   1 -16 38929.0 1908.02  13
  -4  -1  17 16584.6 964.589  38
  -4   1 -17 15791.6 992.053  13
  -4  -1  18 2986.45 352.226  38
  -4   1 -18 2410.85 349.185  13
  -4  -1  19 30350.0 1269.50  38
  -4   1 -19 24303.2 1243.35  13
  -4   1 -20 193.744 124.219  13
  -4   1 -21 17714.5 831.873  13
  -4  -2 -20 31858.4 1309.18  37
  -4   2  20 31651.8 1230.10  12
  -4  -2 -19 32632.5 1459.61  37
  -4   2  19 34490.5 1373.34  12
  -4  -2 -18 2866.04 372.827  37
  -4   2  18 2912.96 320.643  12
  -4  -2 -17 19271.2 1174.31  37
  -4   2  17 22620.6 1119.60  12
  -4   2  16 22899.3 1212.83  12
  -4  -2 -16 23562.7 1300.25  26
  -4  -2 -15 2624.26 490.234  37
  -4  -2 -15 3480.25 527.003  26
  -4   2  15 4241.14 520.067  12
  -4   2  15 3936.12 426.949   7
  -4  -2 -14 23285.4 1609.56  37
  -4  -2 -14 25906.3 1644.51  26
  -4   2  14 23696.6 1382.13  12
  -4   2  14 23280.3 1269.23   7
  -4  -2 -13 113.556 289.710  37
  -4  -2 -13 337.892 395.316  26
  -4   2  13 536.888 229.065  12
  -4   2  13 728.714 233.496   7
  -4  -2 -12 23473.2 1512.66  37
  -4  -2 -12 21288.9 2486.38  26
  -4   2  12 21009.5 1260.30  12
  -4   2  12 20276.0 1245.41   7
  -4  -2 -11 2117.63 457.013  37
  -4  -2 -11 3367.56 892.910  26
  -4   2  11 2402.94 408.876  12
  -4   2  11 1860.00 380.487   7
  -4  -2 -10 1410.22 379.511  37
  -4  -2 -10 1240.42 522.450  26
  -4   2  10 1210.73 323.883  12
  -4   2  10 1636.27 353.322   7
  -4  -2  -9 113853. 4560.43  37
  -4   2   9 116184. 4331.74  12
  -4   2   9 105959. 4442.33   7
  -4  -2  -8 37342.5 1992.19  37
  -4  -2  -8 39274.9 2256.46  26
  -4   2   8 37318.2 1808.18  12
  -4   2   8 32523.2 1913.17   7
  -4  -2  -7 19517.1 1328.74  37
  -4  -2  -7 19311.6 1478.73  26
  -4   2   7 19125.3 1170.66  12
  -4   2   7 17882.1 1321.00   7
  -4  -2  -6 19703.6 1348.10  37
  -4  -2  -6 21992.3 1571.08  26
  -4   2   6 23058.2 1279.92  12
  -4   2   6 20415.9 1450.47   7
  -4  -2  -5 12549.0 1016.14  37
  -4  -2  -5 10898.7 1084.12  26
  -4   2   5 12359.6 879.011  12
  -4   2   5 11823.0 1073.64   7
  -4   2   4 4839.87 519.482  12
  -4  -2  -4 4356.27 688.223  26
  -4  -2  -4 3775.07 557.214  37
   4   2  -3 14118.2 781.594  46
  -4  -2  -3 14285.1 1082.14  37
  -4  -2  -3 13955.3 1224.46  26
  -4   2   3 14898.6 973.208  12
  -4   2   2 15656.1 1378.87   7
   4   2  -2 14835.4 802.826  46
  -4  -2  -2 17673.5 1322.86  26
  -4  -2  -2 16694.8 1165.27  37
  -4   2   2 16757.8 1038.54  12
  -4  -2  -1 14589.1 1075.86  37
  -4   2   1 13588.5 919.233  12
  -4   2   1 13867.7 1372.36   7
  -4  -2  -1 12945.3 1135.08  26
  -4   2   0 42846.4 1972.33  12
  -4  -2   0 45290.9 2352.68  26
  -4   2   0 47434.3 2986.66   7
  -4  -2   1 13437.3 1126.75  26
  -4  -2   1 15989.6 1785.89  38
  -4   2  -1 14666.2 922.255  12
   4  -2  -2 16750.5 954.625  22
  -4  -2   2 18690.5 1313.34  26
  -4   2  -2 18671.7 1045.35  12
  -4  -2   3 13649.5 1097.55  26
  -4   2  -3 14223.2 879.184  12
  -4  -2   4 5042.16 643.633  26
  -4  -2   4 5086.65 778.657  38
  -4   2  -4 4909.84 471.193  12
  -4  -2   5 14271.0 1065.16  26
  -4  -2   5 14920.4 1291.70  38
  -4   2  -5 13915.1 834.644  12
  -4   2  -5 14337.4 947.972  13
  -4  -2   6 23133.0 1376.37  26
  -4  -2   6 23310.1 1620.38  38
  -4   2  -6 22111.3 1107.96  12
  -4   2  -6 22104.9 1270.18  13
  -4  -2   7 18085.3 1371.55  38
  -4   2  -7 17034.5 909.520  12
  -4  -2   8 35894.8 2017.81  38
  -4   2  -8 34171.2 1473.67  12
  -4  -2   9 105427. 4175.51  38
  -4   2  -9 105720. 3947.76  13
   4  -2 -10 1468.42 294.366  34
  -4  -2  10 2572.09 481.413  38
  -4   2 -10 1969.22 410.507  13
   4  -2 -11 3763.41 434.194  34
  -4  -2  11 3791.88 539.731  38
  -4   2 -11 5011.76 674.566  13
  -4  -2  12 22907.6 1432.67  38
  -4   2 -12 32152.3 1987.82  13
  -4  -2  13 1090.49 299.590  38
  -4   2 -13 643.831 403.411  13
  -4  -2  14 26077.9 1364.48  38
  -4   2 -14 21957.4 1492.23  13
  -4  -2  15 3784.36 438.540  38
  -4   2 -15 3552.69 483.791  13
  -4  -2  16 17317.1 964.266  38
  -4   2 -16 16745.7 1014.59  13
  -4  -2  17 20842.4 1014.50  38
  -4   2 -17 18848.0 1038.28  13
  -4  -2  18 3437.67 328.648  38
  -4   2 -18 4088.67 379.637  13
  -4  -2  19 37539.2 1404.82  38
  -4   2 -19 35641.1 1469.39  13
  -4   2 -20 31361.6 1229.91  13
  -4  -3 -15 5927.12 460.456  26
  -4  -3 -14 6345.94 439.846  37
  -4  -3 -14 7125.27 558.447  26
  -4  -3 -13 13580.4 768.195  37
  -4  -3 -13 15733.9 957.241  26
  -4  -3 -12 4058.04 395.161  37
  -4  -3 -12 3961.71 504.247  26
  -4  -3 -11 939.371 224.213  37
  -4  -3 -11 990.587 327.867  26
  -4   3  11 1117.60 188.896  12
  -4  -3 -10 202.773 147.864  37
  -4  -3 -10 101.484 237.455  26
  -4   3  10 386.007 142.960  12
  -4  -3  -9 4286.07 465.967  37
  -4  -3  -9 4750.47 619.655  26
  -4   3   9 4387.76 389.969  12
  -4  -3  -8 17950.6 1064.90  37
  -4   3   8 19226.2 953.761  12
  -4  -3  -8 19435.8 1289.20  26
  -4   3   7 56957.7 2597.97   7
  -4   3   7 62071.8 2335.06  12
  -4  -3  -7 65474.9 2781.28  26
  -4   3   6 5519.70 442.041  12
  -4   3   6 4435.30 552.984   7
  -4  -3  -6 4217.35 558.746  26
  -4   3   5 26661.6 1203.51  12
  -4   3   5 26084.0 1510.81   7
  -4  -3  -5 25913.6 1504.98  26
  -4   3   4 37714.9 1542.83  12
  -4   3   4 34188.4 1871.19   7
  -4  -3  -4 36812.7 1859.72  26
  -4   3   3 10563.3 640.636  12
  -4   3   3 10745.2 923.225   7
  -4  -3  -3 9809.29 840.994  26
  -4   3   2 17947.6 898.153  12
  -4  -3  -2 17165.2 1121.88  26
  -4   3   1 14124.1 754.940  12
  -4  -3  -1 13628.0 961.401  26
  -4   3   0 40422.7 1642.46  12
  -4  -3   0 39765.1 1910.70  26
  -4   3  -1 14982.1 763.360  12
  -4  -3   1 13742.1 932.736  26
  -4   3  -2 18640.0 882.112  12
  -4  -3   2 18025.1 1072.60  26
  -4  -3   3 10035.4 1019.07  38
  -4   3  -3 8889.16 539.984  12
  -4  -3   4 45825.8 2361.91  38
  -4  -3   5 22678.6 1451.40  38
  -4  -3   6 4351.96 585.650  38
  -4  -3   7 62241.4 2744.57  38
  -4  -3   8 20223.1 1239.69  38
  -4  -3   9 7327.01 668.933  38
  -4  -3  10 1191.68 271.461  38
  -4  -3  11 1255.49 269.729  38
  -4  -3  12 4652.97 449.738  38
  -4  -3  13 17329.7 905.991  38
  -4  -3  14 8792.09 543.115  38
   0   0   0    0.00    0.00   0
TITL a_1961_1 in P2(1)2(1)2(1)
REM P2(1)2(1)2(1) (#19 in standard setting)
CELL 1.54184   3.773790   5.634830  32.978318  90.0000  90.0000  90.0000
ZERR    4.00   0.000038   0.000042   0.000241   0.0000   0.0000   0.0000
LATT -1
SYMM -x+1/2,-y, z+1/2
SYMM -x, y+1/2,-z+1/2
SYMM  x+1/2,-y+1/2,-z
SFAC C H N Cl
UNIT 28.00 28.00 12.00 4.00
TREF
HKLF 4
END
;
_shelx_hkl_checksum              8498
_shelx_res_file
;
TITL a_1961_1_a.res in P2(1)2(1)2(1)
CELL 1.54184 3.7738 5.6349 32.9787 90 90 90
ZERR 4 0 0 0.0002 0 0 0
LATT -1
SYMM 0.5-X,-Y,0.5+Z
SYMM -X,0.5+Y,0.5-Z
SYMM 0.5+X,0.5-Y,-Z
SFAC C  H  Cl N
UNIT 24  28  4  16
L.S. 14
ACTA
BOND $H
FMAP -2
PLAN 5
HTAB N4 N42
HTAB N4 N2_$1
HTAB N2 N3_$2
HTAB N2 N2_$1
HTAB N4 N42
HTAB N4 N2_$1
HTAB N2 N3_$2
HTAB N2 N2_$1
HTAB N4 N42
HTAB N4 N2_$1
HTAB N2 N3_$2
EQIV $2 x+1/2, -y+1/2, -z+1
HTAB N2 N2_$1
EQIV $1 x+1/2, -y+3/2, -z+1
HTAB
CONF
HTAB N2 N2_$1
HTAB N2 N3_$2
HTAB N4 N2_$1
HTAB N4 N42
HTAB N2 N2_$1
HTAB N2 N3_$2
HTAB N4 N2_$1
HTAB N4 N42
WGHT    0.033600    0.175400
FVAR      12.36927
C4    1    0.485801    0.568339    0.568714    11.00000    0.00857    0.01025 =
         0.01147    0.00069   -0.00066    0.00145
C41   1    0.345713    0.487055    0.608680    11.00000    0.00862    0.01179 =
         0.01117    0.00069   -0.00106    0.00294
C43   1    0.305580    0.560482    0.676369    11.00000    0.01198    0.01579 =
         0.00998   -0.00118   -0.00180    0.00347
C44   1    0.129449    0.350068    0.684456    11.00000    0.01352    0.01870 =
         0.01118    0.00397    0.00158    0.00453
AFIX  43
H44   2    0.060601    0.309207    0.710618    11.00000   -1.20000
AFIX   0
C45   1    0.060687    0.203035    0.651553    11.00000    0.01178    0.01272 =
         0.01845    0.00345    0.00106    0.00060
AFIX  43
H45   2   -0.057942    0.060038    0.655293    11.00000   -1.20000
AFIX   0
C46   1    0.170022    0.270793    0.613096    11.00000    0.01179    0.01201 =
         0.01376   -0.00014   -0.00113    0.00153
AFIX  43
H46   2    0.127148    0.174208    0.590761    11.00000   -1.20000
AFIX   0
CL43  3    0.408071    0.751951    0.716494    11.00000    0.02054    0.02074 =
         0.00985   -0.00299   -0.00066    0.00060
N2    4    0.595890    0.509261    0.501198    11.00000    0.01566    0.01210 =
         0.00855   -0.00078    0.00134    0.00034
H2A   2    0.789323    0.591183    0.504469    11.00000   -1.20000
H2B   2    0.650561    0.382198    0.487607    11.00000   -1.20000
N3    4    0.458209    0.423211    0.538530    11.00000    0.01270    0.01127 =
         0.00917    0.00093    0.00025    0.00045
N4    4    0.634018    0.788748    0.568243    11.00000    0.01895    0.01292 =
         0.00916   -0.00135    0.00166   -0.00378
H4A   2    0.764154    0.840534    0.547762    11.00000   -1.20000
H4B   2    0.657856    0.847016    0.591478    11.00000   -1.20000
N42   4    0.411550    0.632816    0.640063    11.00000    0.01091    0.01279 =
         0.01158   -0.00032    0.00032    0.00172
HKLF 4
REM  a_1961_1_a.res in P2(1)2(1)2(1)
REM R1 =  0.0206 for    1460 Fo > 4sig(Fo)  and  0.0208 for all    1471 data
REM    112 parameters refined using      0 restraints
END
WGHT      0.0336      0.1754
REM Instructions for potential hydrogen bonds
HTAB N2 N2_$1
HTAB N2 N3_$2
HTAB N4 N2_$1
HTAB N4 N42
REM Highest difference peak  0.201,  deepest hole -0.217,  1-sigma level  0.043
Q1    1   0.4502  0.6846  0.7197  11.00000  0.05   -0.20
Q2    1   0.4095  0.5290  0.5872  11.00000  0.05    0.20
Q3    1   0.4101  0.7711  0.6985  11.00000  0.05   -0.20
Q4    1   0.5422  0.7397  0.5950  11.00000  0.05   -0.19
Q5    1   0.4137  0.6802  0.6703  11.00000  0.05   -0.18
;
_shelx_res_checksum              55275
_shelxl_version_number           2.014
loop_
_space_group_symop_operation_xyz
'x, y, z'
'-x+1/2, -y, z+1/2'
'-x, y+1/2, -z+1/2'
'x+1/2, -y+1/2, -z'
loop_
_atom_site_type_symbol
_atom_site_label
_atom_site_fract_x
_atom_site_fract_y
_atom_site_fract_z
_atom_site_U_iso_or_equiv
_atom_site_adp_type
_atom_site_calc_flag
_atom_site_occupancy
_atom_site_disorder_assembly
_atom_site_disorder_group
C C4 0.4858(4) 0.5683(3) 0.56871(5) 0.0101(3) Uani d 1 . .
C C41 0.3457(4) 0.4871(3) 0.60868(5) 0.0105(3) Uani d 1 . .
C C43 0.3056(4) 0.5605(3) 0.67637(5) 0.0126(3) Uani d 1 . .
C C44 0.1294(5) 0.3501(3) 0.68446(5) 0.0145(3) Uani d 1 . .
H H44 0.0606 0.3092 0.7106 0.017 Uiso calc 1 . .
C C45 0.0607(5) 0.2030(3) 0.65155(5) 0.0143(3) Uani d 1 . .
H H45 -0.0579 0.0600 0.6553 0.017 Uiso calc 1 . .
C C46 0.1700(4) 0.2708(3) 0.61310(5) 0.0125(3) Uani d 1 . .
H H46 0.1271 0.1742 0.5908 0.015 Uiso calc 1 . .
Cl Cl43 0.40807(11) 0.75195(7) 0.71649(2) 0.01704(13) Uani d 1 . .
N N2 0.5959(4) 0.5093(3) 0.50120(4) 0.0121(3) Uani d 1 . .
H H2A 0.789(6) 0.591(4) 0.5045(6) 0.015 Uiso d 1 . .
H H2B 0.651(6) 0.382(4) 0.4876(6) 0.015 Uiso d 1 . .
N N3 0.4582(4) 0.4232(2) 0.53853(4) 0.0110(3) Uani d 1 . .
N N4 0.6340(4) 0.7887(2) 0.56824(4) 0.0137(3) Uani d 1 . .
H H4A 0.764(6) 0.841(4) 0.5478(6) 0.016 Uiso d 1 . .
H H4B 0.658(6) 0.847(4) 0.5915(7) 0.016 Uiso d 1 . .
N N42 0.4116(4) 0.6328(2) 0.64006(4) 0.0118(3) Uani d 1 . .
loop_
_atom_site_aniso_label
_atom_site_aniso_U_11
_atom_site_aniso_U_22
_atom_site_aniso_U_33
_atom_site_aniso_U_12
_atom_site_aniso_U_13
_atom_site_aniso_U_23
C4 0.0086(7) 0.0102(7) 0.0115(7) 0.0015(6) -0.0007(6) 0.0007(6)
C41 0.0086(8) 0.0118(7) 0.0112(7) 0.0029(6) -0.0011(6) 0.0007(6)
C43 0.0120(8) 0.0158(8) 0.0100(7) 0.0035(7) -0.0018(6) -0.0012(6)
C44 0.0135(8) 0.0187(8) 0.0112(7) 0.0045(7) 0.0016(7) 0.0040(6)
C45 0.0118(8) 0.0127(7) 0.0184(7) 0.0006(6) 0.0011(6) 0.0035(6)
C46 0.0118(8) 0.0120(7) 0.0138(7) 0.0015(7) -0.0011(6) -0.0001(6)
Cl43 0.0205(2) 0.0207(2) 0.00985(19) 0.0006(2) -0.00066(13) -0.00299(15)
N2 0.0157(7) 0.0121(7) 0.0085(6) 0.0003(6) 0.0013(6) -0.0008(5)
N3 0.0127(7) 0.0113(6) 0.0092(6) 0.0004(6) 0.0002(5) 0.0009(5)
N4 0.0190(7) 0.0129(7) 0.0092(6) -0.0038(6) 0.0017(6) -0.0013(5)
N42 0.0109(7) 0.0128(6) 0.0116(6) 0.0017(6) 0.0003(5) -0.0003(5)
loop_
_atom_type_symbol
_atom_type_description
_atom_type_scat_dispersion_real
_atom_type_scat_dispersion_imag
_atom_type_scat_source
C C 0.0181 0.0091 'International Tables Vol C Tables 4.2.6.8 and 6.1.1.4'
H H 0.0000 0.0000 'International Tables Vol C Tables 4.2.6.8 and 6.1.1.4'
Cl Cl 0.3639 0.7018 'International Tables Vol C Tables 4.2.6.8 and 6.1.1.4'
N N 0.0311 0.0180 'International Tables Vol C Tables 4.2.6.8 and 6.1.1.4'
loop_
_geom_angle_atom_site_label_1
_geom_angle_atom_site_label_2
_geom_angle_atom_site_label_3
_geom_angle_site_symmetry_1
_geom_angle_site_symmetry_3
_geom_angle
N3 C4 N4 . . 126.95(15)
N3 C4 C41 . . 117.23(14)
N4 C4 C41 . . 115.81(14)
N42 C41 C46 . . 122.76(15)
N42 C41 C4 . . 115.28(14)
C46 C41 C4 . . 121.92(14)
N42 C43 C44 . . 125.55(15)
N42 C43 Cl43 . . 115.23(13)
C44 C43 Cl43 . . 119.21(12)
C43 C44 C45 . . 116.72(15)
C43 C44 H44 . . 121.6
C45 C44 H44 . . 121.6
C46 C45 C44 . . 119.62(16)
C46 C45 H45 . . 120.2
C44 C45 H45 . . 120.2
C45 C46 C41 . . 118.51(16)
C45 C46 H46 . . 120.7
C41 C46 H46 . . 120.7
N3 N2 H2A . . 112.3(13)
N3 N2 H2B . . 104.6(14)
H2A N2 H2B . . 108(2)
C4 N3 N2 . . 114.95(13)
C4 N4 H4A . . 122.5(14)
C4 N4 H4B . . 113.0(15)
H4A N4 H4B . . 121(2)
C43 N42 C41 . . 116.83(14)
loop_
_geom_bond_atom_site_label_1
_geom_bond_atom_site_label_2
_geom_bond_site_symmetry_2
_geom_bond_distance
C4 N3 . 1.292(2)
C4 N4 . 1.362(2)
C4 C41 . 1.492(2)
C41 N42 . 1.344(2)
C41 C46 . 1.395(2)
C43 N42 . 1.327(2)
C43 C44 . 1.385(3)
C43 Cl43 . 1.7506(16)
C44 C45 . 1.390(2)
C44 H44 . 0.9300
C45 C46 . 1.387(2)
C45 H45 . 0.9300
C46 H46 . 0.9300
N2 N3 . 1.4216(17)
N2 H2A . 0.87(2)
N2 H2B . 0.87(2)
N4 H4A . 0.88(2)
N4 H4B . 0.84(2)
loop_
_geom_hbond_atom_site_label_D
_geom_hbond_atom_site_label_H
_geom_hbond_atom_site_label_A
_geom_hbond_site_symmetry_A
_geom_hbond_distance_DH
_geom_hbond_distance_HA
_geom_hbond_distance_DA
_geom_hbond_angle_DHA
N4 H4B N42 . 0.84(2) 2.21(2) 2.662(2) 113.8(19)
N4 H4A N2 4_566 0.88(2) 2.21(2) 3.095(2) 176.4(19)
N2 H2B N3 4_556 0.87(2) 2.25(2) 3.0862(19) 162(2)
N2 H2A N2 4_566 0.87(2) 2.54(2) 3.306(2) 147.5(19)
loop_
_geom_torsion_atom_site_label_1
_geom_torsion_atom_site_label_2
_geom_torsion_atom_site_label_3
_geom_torsion_atom_site_label_4
_geom_torsion_site_symmetry_1
_geom_torsion_site_symmetry_2
_geom_torsion_site_symmetry_3
_geom_torsion_site_symmetry_4
_geom_torsion
N3 C4 C41 N42 . . . . 173.55(15)
N4 C4 C41 N42 . . . . -5.7(2)
N3 C4 C41 C46 . . . . -4.3(2)
N4 C4 C41 C46 . . . . 176.46(15)
N42 C43 C44 C45 . . . . 0.3(3)
Cl43 C43 C44 C45 . . . . -178.87(13)
C43 C44 C45 C46 . . . . 0.3(2)
C44 C45 C46 C41 . . . . -0.3(2)
N42 C41 C46 C45 . . . . -0.4(3)
C4 C41 C46 C45 . . . . 177.31(15)
N4 C4 N3 N2 . . . . -0.8(2)
C41 C4 N3 N2 . . . . -179.96(14)
C44 C43 N42 C41 . . . . -1.0(3)
Cl43 C43 N42 C41 . . . . 178.26(12)
C46 C41 N42 C43 . . . . 1.0(2)
C4 C41 N42 C43 . . . . -176.86(14)

_cod_database_fobs_code 2022362
