#------------------------------------------------------------------------------
#$Date: 2021-02-05 16:53:19 +0200 (Fri, 05 Feb 2021) $
#$Revision: 261799 $
#$URL: file:///home/coder/svn-repositories/cod/cif/2/02/22/2022288.cif $
#------------------------------------------------------------------------------
#
# This file is available in the Crystallography Open Database (COD),
# http://www.crystallography.net/. The original data for this entry
# were provided by IUCr Journals, http://journals.iucr.org/.
#
# The file may be used within the scientific community so long as
# proper attribution is given to the journal article from which the
# data were obtained.
#
data_2022288
loop_
_publ_author_name
'Rosiak, Damian'
'Okuniewski, Andrzej'
'Chojnacki, Jaros\/law'
_publ_section_title
;
 The influence of the type of halogen substituent and its position on the
 molecular conformation, intermolecular interactions and crystal packing
 for a series of 1-benzoyl-3-(halogenophenyl)thioureas
;
_journal_coeditor_code           WP3011
_journal_issue                   1
_journal_name_full               'Acta Crystallographica Section C'
_journal_page_first              11
_journal_page_last               19
_journal_paper_doi               10.1107/S2053229620015594
_journal_volume                  77
_journal_year                    2021
_chemical_formula_iupac          'C14 H11 I N2 O S'
_chemical_formula_moiety         'C14 H11 I N2 O S'
_chemical_formula_sum            'C14 H11 I N2 O S'
_chemical_formula_weight         382.21
_chemical_name_common            1-Benzoyl-3-<i>p</i>-iodophenylthiourea
_chemical_name_systematic
;
1-Benzoyl-3-(4-iodophenyl)thiourea
;
_space_group_crystal_system      triclinic
_space_group_IT_number           2
_space_group_name_Hall           '-P 1'
_space_group_name_H-M_alt        'P -1'
_atom_sites_solution_hydrogens   geom
_audit_creation_method
;
Olex2 1.2
(compiled 2018.05.29 svn.r3508 for OlexSys, GUI svn.r5506)
;
_cell_angle_alpha                61.622(7)
_cell_angle_beta                 86.203(9)
_cell_angle_gamma                85.241(9)
_cell_formula_units_Z            2
_cell_length_a                   4.4279(5)
_cell_length_b                   13.0767(14)
_cell_length_c                   13.4410(14)
_cell_measurement_reflns_used    17633
_cell_measurement_temperature    120(2)
_cell_measurement_theta_max      29.63
_cell_measurement_theta_min      3.00
_cell_volume                     682.06(14)
_computing_cell_refinement
;
X-AREA (Stoe & Cie, 2009)
;
_computing_data_collection
;
X-AREA (Stoe & Cie, 2009)
;
_computing_data_reduction
;
X-RED32 (Stoe & Cie, 2009)
;
_computing_molecular_graphics
;
OLEX2 (Dolomanov <i>et al.</i>,  2009)
;
_computing_publication_material
;
OLEX2 (Dolomanov <i>et al.</i>,  2009)
;
_computing_structure_refinement
;
SHELXL2018 (Sheldrick, 2015<i>b</i>)
;
_computing_structure_solution
;
SHELXT (Sheldrick, 2015<i>a</i>)
;
_diffrn_ambient_temperature      120.0
_diffrn_detector_area_resol_mean 6.67
_diffrn_measured_fraction_theta_full 0.999
_diffrn_measured_fraction_theta_max 0.999
_diffrn_measurement_device       '2-circle goniometer'
_diffrn_measurement_device_type  'Stoe IPDS 2T'
_diffrn_measurement_method       'rotation method'
_diffrn_radiation_type           MoK\a
_diffrn_radiation_wavelength     0.71073
_diffrn_reflns_av_R_equivalents  0.0202
_diffrn_reflns_av_unetI/netI     0.0201
_diffrn_reflns_limit_h_max       5
_diffrn_reflns_limit_h_min       -6
_diffrn_reflns_limit_k_max       17
_diffrn_reflns_limit_k_min       -17
_diffrn_reflns_limit_l_max       18
_diffrn_reflns_limit_l_min       -18
_diffrn_reflns_number            9681
_diffrn_reflns_theta_full        25.242
_diffrn_reflns_theta_max         29.000
_diffrn_reflns_theta_min         3.001
_exptl_absorpt_coefficient_mu    2.493
_exptl_absorpt_correction_T_max  0.9317
_exptl_absorpt_correction_T_min  0.7340
_exptl_absorpt_correction_type   integration
_exptl_absorpt_process_details
;
[X-RED32 (Stoe & Cie, 2009), by Gaussian integration,
analogous to Coppens (1970)]
;
_exptl_crystal_colour            colourless
_exptl_crystal_density_diffrn    1.861
_exptl_crystal_description       needle
_exptl_crystal_F_000             372
_exptl_crystal_size_max          0.334
_exptl_crystal_size_mid          0.077
_exptl_crystal_size_min          0.047
_refine_diff_density_max         0.800
_refine_diff_density_min         -0.392
_refine_ls_extinction_method     none
_refine_ls_goodness_of_fit_ref   1.045
_refine_ls_hydrogen_treatment    constr
_refine_ls_matrix_type           full
_refine_ls_number_parameters     172
_refine_ls_number_reflns         3617
_refine_ls_number_restraints     0
_refine_ls_restrained_S_all      1.045
_refine_ls_R_factor_all          0.0234
_refine_ls_R_factor_gt           0.0209
_refine_ls_shift/su_max          0.002
_refine_ls_shift/su_mean         0.000
_refine_ls_structure_factor_coef Fsqd
_refine_ls_weighting_details
'w=1/[\s^2^(Fo^2^)+(0.0365P)^2^+0.1682P] where P=(Fo^2^+2Fc^2^)/3'
_refine_ls_weighting_scheme      calc
_refine_ls_wR_factor_gt          0.0532
_refine_ls_wR_factor_ref         0.0542
_reflns_number_gt                3348
_reflns_number_total             3617
_reflns_threshold_expression     'I > 2\s(I)'
_cod_data_source_file            wp3011sup1.cif
_cod_data_source_block           9
_cod_depositor_comments
'Adding full bibliography for 2022286--2022290.cif.'
_cod_original_cell_volume        682.06(13)
_cod_database_code               2022288
_cod_database_fobs_code          2022288
_shelx_space_group_comment
;
The symmetry employed for this shelxl refinement is uniquely defined
by the following loop, which should always be used as a source of
symmetry information in preference to the above space-group names.
They are only intended as comments.
;
_shelx_estimated_absorpt_t_min   0.490
_shelx_estimated_absorpt_t_max   0.892
_shelx_hkl_file
;
  -4  -5   2  314.15    3.88
  -4  -5   3   57.20    2.04
  -4  -5   6   26.16    1.88
  -4  -5   7  265.50    3.86
  -3  -2   5  611.04    4.54
  -3  -2   6   14.16    1.88
  -3  -2   7  441.43    3.98
  -2 -13 -14   86.46    3.48
  -2  -2  13   53.99    2.94
  -1   0  13  295.35    3.62
  -1   1  10  528.64    4.17
   0 -14 -16  165.25    3.58
   0   1  13   46.25    2.27
   1 -14 -16   51.10    2.58
   1   2  10  622.28    5.27
   2  -7 -10    4.11    1.66
   3  -9 -11   56.24    2.01
   3  -8 -10    6.09    1.87
   3  -7  -9  342.92    3.56
   3  -3  -4  321.10    3.69
   4  -5  -5    0.68    1.55
   4  -1   3   92.46    3.39
   5  -3   3    2.27    2.96
  -5 -10  -2   28.26    3.33
  -5  -9   0   48.09    3.69
  -4  -5   8   27.82    3.05
  -3  -3  11    1.08    1.81
  -3  -2   4  178.50    2.99
  -3  -2   9   89.48    2.52
  -2  -1  12  164.18    3.04
  -2   0   6    6.35    1.59
  -2   0   7  141.02    2.25
  -2   0   8  224.37    2.88
  -2   0   9  610.44    4.28
  -1 -15 -16   94.63    3.69
  -1 -12 -14  127.23    3.14
  -1  -1  -1  462.24    9.82
  -1  -1  15   46.16    2.81
  -1   1   5  862.67    6.08
  -1   1  11   19.82    1.94
   0 -10 -13   66.23    1.90
   0  -5  -8   58.87    2.05
   0   0  15  103.55    3.36
   0   2   8  329.27    3.80
   0   2   9    0.74    1.60
   1 -13 -15   16.10    2.65
   1 -10 -13  106.28    2.29
   1  -9 -12  168.19    2.91
   1  -5  -8   16.88    1.70
   1  -2  -4   79.78    2.14
   1   2   6  108.09    3.28
   2  -3  -5  134.29    2.51
   2   0  15    6.41    2.97
   2   2   8  755.81    8.87
   2   2   9    7.38    2.12
   3 -12 -13   29.96    2.73
   4 -10 -10   18.05    2.07
   4  -9  -9   82.73    3.02
   5  -6  -3   84.52    3.21
  -5 -11  -4   40.29    3.54
  -4  -5   1   -0.97    1.83
  -3 -14 -13   23.58    3.54
  -3  -4  -2  232.36    4.18
  -3  -3   0  174.54    3.41
  -3  -3  12  141.27    3.49
  -3  -2   3  171.01    2.96
  -3  -2  10  116.92    2.76
  -2 -15 -15    3.83    3.10
  -2 -12 -13   12.86    2.35
  -2  -2  14   19.41    2.40
  -2  -1  13  110.61    2.92
  -2   0   5  530.06    4.38
  -1   0  14   32.06    2.54
  -1   1  12  402.08    3.80
   0 -13 -15   42.18    2.58
   0  -9 -12   15.85    1.49
   0  -8 -11  328.60    3.72
   0  -7 -10  392.21    4.04
   0  -6  -9 1293.30    6.98
   0  -1  -2   14.08    2.07
   0   1  14    0.21    2.19
   0   2   7  225.79    3.43
   0   2  10  752.79    5.39
   0   2  11   60.61    2.12
   1  -8 -11  205.82    2.95
   1  -6  -9  558.03    4.41
   1   2  12  161.11    2.93
   2 -11 -13   50.32    2.70
   2   2  10  236.38    4.56
   3  -4  -5   26.30    2.00
   3  -2  -2  647.09    5.15
   4  -4  -3  102.83    2.53
   5  -8  -5   32.10    3.11
   5  -7  -4   24.19    2.75
   5  -5  -1   83.42    3.20
   5  -4   1   53.58    3.05
  -5 -10  -3  100.57    4.19
  -5  -9  -1   14.09    3.16
  -5  -8   2   92.02    3.58
  -4  -8  -5   85.44    3.78
  -4  -4   6   -1.64    1.67
  -4  -4   7   61.98    2.73
  -4  -4   8   36.32    2.65
  -3  -2  11    5.21    2.49
  -2  -3  -3  940.58   12.97
  -1 -14 -15    2.90    2.64
  -1 -11 -13   46.97    2.47
   0 -15 -16   95.75    3.41
   0   0  16   24.26    2.75
   1 -12 -14   30.97    2.44
   1   1  15   90.84    3.06
   2 -13 -14   27.87    2.94
   2 -10 -12    8.93    2.29
   2   2  11    2.53    2.28
   3 -10 -11  207.09    3.14
   3   0  14   64.00    4.79
   4 -11 -10   40.33    3.24
   4  -5  -4  166.11    3.00
   4  -3  -1  240.12    3.48
   4  -2   1  301.88    4.26
  -5  -8   1    1.77    2.75
  -4  -5   0  363.35    4.31
  -4  -4   9   31.82    2.99
  -3  -2   2  239.15    3.32
  -3  -2  12  153.40    3.19
  -2 -11 -12  163.11    3.91
  -2  -1   1   11.93    1.34
  -2   0   4  628.96    4.70
  -2   0  12  176.00    3.00
  -1 -10 -12  435.53    4.85
  -1   0  15  212.14    3.72
  -1   1   4 1348.10    7.85
  -1   1  13   49.40    2.43
   0   1  15  221.13    3.93
   0   2   6    8.49    1.54
   0   2  12  258.14    3.07
   1 -14 -15    2.72    2.73
   1 -11 -13   -0.18    2.08
   1  -3  -5  477.26    4.70
   1  -1  -2  469.02    5.64
   2  -9 -11  112.94    2.44
   2  -8 -10    0.19    1.82
   2  -2  -3    2.91    1.49
   2   2   7   58.61    3.55
   3  -9 -10   23.76    1.68
   3  -8  -9  157.19    2.78
   3  -7  -8  119.96    2.52
   3  -6  -7  102.57    2.43
   4 -10  -9   27.67    2.58
   4  -6  -5    5.28    2.21
   4  -1   4  123.47    3.88
   5  -6  -2    4.07    1.91
   5  -4   2   56.91    3.46
   5  -3   5    1.70    3.33
  -5  -9  -2   22.28    4.54
  -5  -8   0   58.35    4.30
  -5  -7   3   -1.24    3.19
  -3  -5  -4    2.80    2.26
  -3  -1   6   18.52    1.94
  -3  -1   7  318.36    3.19
  -3  -1   8  151.28    2.44
  -3  -1   9  129.83    2.68
  -3  -1  10  192.55    3.01
  -2 -14 -14   92.92    3.54
  -1  -5  -7  414.01    5.47
  -1   0   1   80.72    2.95
   0 -14 -15    2.41    2.71
   0 -11 -13   12.53    2.14
   0   2  13  161.99    2.91
   2 -12 -13  133.22    3.00
   2   2  12   35.14    2.35
   3 -12 -12    5.61    1.95
   3  -3  -3   19.91    1.43
   4  -8  -7   -0.79    1.75
   4  -7  -6  144.72    2.60
   4  -4  -2  148.72    2.94
   5  -8  -4   -1.64    3.02
  -5 -11  -5   55.01    4.22
  -5  -7   2   54.95    3.35
  -4  -7  -4   19.12    2.63
  -4  -3   6   17.82    2.28
  -4  -3   7  123.52    2.99
  -3  -1   5    4.35    1.32
  -2   0   3  203.62    3.18
  -2   1   8   78.97    2.10
  -2   1   9   38.64    1.81
  -2   1  10  219.16    3.00
  -1 -13 -14   68.66    2.88
  -1  -9 -11   92.38    2.47
  -1  -6  -8  104.12    3.08
  -1   2   9  149.38    2.41
  -1   2  10  362.08    3.34
  -1   2  11  159.55    2.69
   0   1  16    3.06    2.86
   0   2  14   11.99    2.19
   1 -13 -14  264.49    3.75
   1   2   5  750.78    9.11
   1   2  14    6.84    1.93
   2 -14 -14    0.99    2.64
   2 -11 -12    1.55    2.17
   2  -1  -1  143.13    3.14
   2   2  13  130.13    3.88
   3  -4  -4  191.17    3.03
   4 -11  -9   -1.03    2.86
  -5 -10  -4    1.82    3.32
  -5  -8  -1    9.08    2.84
  -5  -7   1   10.82    2.45
  -4  -5  -1   87.88    2.80
  -4  -4   1    7.56    1.77
  -4  -3   4  182.04    3.06
  -4  -3   5  284.79    3.31
  -4  -3   9   50.88    2.39
  -4  -3  10  173.17    3.55
  -3  -1   4  405.88    4.03
  -3  -1  12   30.32    2.64
  -2  -9 -10   58.53    2.91
  -2   0  14   -0.71    1.97
  -2   1   7  717.97    4.56
  -2   1  11    1.40    1.35
  -2   1  12  321.77    3.44
  -1 -15 -15   30.96    2.85
  -1  -8 -10  543.22    5.04
  -1  -7  -9  567.79    5.41
  -1   1  15  126.79    3.11
  -1   2   7 1260.33    6.65
  -1   2  12  279.86    3.34
   0 -13 -14  109.68    3.06
   0   2   5 2911.14   13.03
   1 -15 -15   73.34    2.73
   1  -9 -11  116.87    2.48
   1  -4  -6  101.36    2.16
   2 -10 -11  154.58    2.84
   2   0   1  622.30    7.20
   3  -2  -1   80.66    2.35
   4 -10  -8   60.55    3.06
   4  -5  -3   70.86    2.46
   5  -7  -2   -0.84    2.80
   5  -4   3   15.36    2.89
  -5  -6   4    5.29    3.06
  -3  -3  -1  331.79    4.59
  -3  -2   1   51.78    2.14
  -3  -1  13   33.25    2.87
  -2 -13 -13    2.35    2.43
  -2  -8  -9  119.13    3.88
  -2   0  15  196.11    3.91
  -2   1   6  211.95    2.96
  -2   1  13   17.07    2.18
  -1 -12 -13    0.91    2.04
  -1   1   3 1275.75    8.35
  -1   2  13  102.96    2.19
   0 -15 -15   -0.32    2.46
   0  -9 -11  160.19    2.88
   0   2  15  108.38    3.08
   1 -12 -13  153.88    2.94
   1  -8 -10   29.11    1.52
   1  -7  -9  243.04    3.15
   1  -6  -8   55.10    2.00
   1  -5  -7  927.51    5.79
   1   2  15  103.98    3.39
   2 -13 -13   22.52    2.15
   2   2  14   33.05    3.19
   3 -12 -11   63.33    2.78
   3  -9  -9   22.97    1.64
   3  -7  -7  109.92    2.55
   3  -6  -6  232.83    3.08
   3  -5  -5    2.96    1.29
   4  -9  -7    1.46    2.36
   4  -8  -6  118.35    3.04
   4  -6  -4   38.09    2.22
   4  -1   5   46.78    3.13
  -5  -9  -3   40.80    3.20
  -5  -7   0   81.11    3.01
  -5  -6   3   34.41    3.01
  -4  -6  -3  189.26    4.16
  -4  -3   3   73.58    2.46
  -4  -2   8   23.33    2.38
  -3 -12 -11    0.76    3.35
  -3  -1   3   21.99    1.91
  -3   0   7  710.67    4.72
  -3   0   8    6.22    1.52
  -3   0   9  148.82    2.35
  -3   0  10  255.21    3.32
  -3   0  11   22.44    2.28
  -2 -15 -14  152.46    4.36
  -2  -7  -8  257.98    5.19
  -2   1  14   65.19    2.69
  -1   1  16   44.82    2.47
  -1   2  14   71.18    2.72
   0 -12 -13   15.13    2.30
   0  -5  -7 1282.53    7.61
   0   3   9  644.45    4.99
   0   3  10  265.11    3.41
   0   3  11   22.63    1.87
   0   3  12  198.71    2.98
   1 -14 -14   50.49    2.63
   1   3  10  214.80    3.33
   1   3  11  173.72    3.00
   1   3  12  283.26    3.63
   2  -8  -9  440.12    3.77
   4  -4  -1   74.22    2.47
   5  -5   2   18.13    3.29
  -5  -8  -2   54.99    3.51
  -5  -6   2   63.79    2.96
  -5  -5   5   80.93    3.20
  -4  -2   6    9.11    2.12
  -4  -2   7  304.21    3.36
  -4  -2   9  117.83    2.69
  -4  -2  10    9.91    2.81
  -3   0   6   88.97    2.29
  -2   1   5  803.20    5.13
  -1 -14 -14  302.44    4.21
  -1   2  15   78.31    2.76
   0 -14 -14   62.07    3.14
   0  -7  -9   27.01    1.49
   0  -6  -8  107.32    2.44
   0   1   2   14.97    2.14
   0   2  16   40.13    2.28
   0   3  13  305.23    3.50
   1 -11 -12   13.85    1.54
   1   3   9    1.24    1.45
   1   3  13  349.27    4.00
   2 -14 -13  112.84    3.13
   3 -11 -10    9.96    1.73
   4 -11  -8   68.79    2.62
   4  -5  -2   15.56    2.03
   5  -8  -2    5.32    2.97
   5  -7  -1   28.58    2.71
   5  -4   5    8.72    3.92
  -5  -5   4   64.38    3.28
  -4  -4   0  179.05    3.30
  -4  -2   5  151.68    2.95
  -3  -4  -3  355.16    5.85
  -3   0  13   16.12    2.62
  -2 -12 -12  149.38    3.61
  -2   1  15   41.32    2.41
  -2   2   9  202.11    2.76
  -2   2  11   41.56    2.13
  -2   2  12  110.83    2.49
  -1   3  11  108.11    2.34
   0 -11 -12  183.84    3.00
   0   3   8  144.67    2.78
   0   3  14  204.45    3.24
   1 -15 -14    9.85    2.75
   1 -13 -13   98.69    2.71
   1 -10 -11  383.43    3.76
   2 -11 -11  110.97    2.33
   2  -2  -2 1013.44    7.00
   3 -10  -9  136.91    2.49
   4 -10  -7    5.42    1.92
   4  -9  -6   45.93    2.61
   4  -6  -3  112.87    2.80
  -5  -7  -1   56.68    3.05
  -5  -6   1    9.22    2.64
  -4  -5  -2  107.52    3.33
  -4  -2   4   28.31    2.10
  -3   0   5  558.29    4.22
  -2   2   8  227.59    2.88
  -1 -13 -13   71.83    2.67
  -1 -10 -11  320.93    3.96
  -1   2  16    1.19    1.93
  -1   3   9  618.08    4.55
  -1   3  10  444.49    3.70
  -1   3  12  216.74    2.72
  -1   3  13   48.46    2.23
   0   2  17   65.00    2.95
   0   3  15  172.20    3.39
   1  -9 -10   82.42    2.32
   1   3   8  305.95    4.39
   1   3  15  115.23    3.24
   2 -13 -12    1.27    1.78
   3  -9  -8  240.64    2.88
   3  -5  -4  680.60    4.91
   4 -12  -8   33.95    2.88
   4  -8  -5   18.04    1.80
   4  -1   6  142.85    4.59
   5  -7   0   17.59    2.85
   5  -5   3   -0.15    2.80
   5  -4   6   46.08    4.34
  -5  -4   6   10.86    3.01
  -4  -1   7   69.54    2.38
  -4  -1   8   56.08    2.63
  -4  -1   9   66.37    2.88
  -4  -1  10   69.70    3.09
  -4  -1  11   43.88    2.87
  -3 -14 -12   89.04    4.52
  -3  -1   2  725.54    5.21
  -3   1  11   -1.25    2.13
  -3   1  12  265.36    3.44
  -2 -14 -13   34.28    2.82
  -2   1   4  322.74    3.53
  -2   2   7  863.16    5.11
  -2   2  14  182.20    2.83
  -1   3  14   49.40    2.31
   0 -15 -14   44.14    2.87
   0 -13 -13  212.99    3.33
   0 -10 -11   92.52    2.46
   0   2   4  266.84    4.56
   0   3   7  681.43    5.58
   0   3  16    1.89    2.20
   1 -14 -13   27.29    2.51
   1 -12 -12   58.01    2.33
   1  -3  -4  972.38    6.79
   2  -9  -9  118.00    2.48
   2   2  16   16.87    3.18
   3 -11  -9    7.73    2.27
   3  -7  -6  166.59    2.50
   3  -6  -5   -0.49    1.28
   4 -11  -7    3.14    2.54
   4  -4   0    0.65    1.87
   5  -8  -1   71.69    3.27
  -5 -11  -6    6.63    4.56
  -5 -10  -5  184.79    5.59
  -5  -9  -4   23.58    3.59
  -5  -6   0  165.47    3.67
  -5  -4   5   27.27    2.89
  -4  -3   1   46.19    2.20
  -4  -2   3    1.21    1.87
  -4  -1   6   94.43    2.62
  -3 -11 -10  222.20    5.61
  -3   0   4  429.10    4.08
  -3   1   7   90.92    2.20
  -3   1  13   12.33    1.88
  -2 -11 -11  152.70    3.58
  -2   2  15  164.66    2.94
  -1  -9 -10    2.49    1.61
   0  -2  -3 1381.83   11.25
   1  -8  -9 1188.90    5.86
   1  -7  -8    6.28    1.58
   1  -4  -5 1577.12    8.10
   1   3  16    9.93    2.86
   2 -14 -12   11.48    2.36
   2 -12 -11  197.88    2.77
   2   3  11  305.54    4.92
   2   3  12  209.97    4.27
   4 -10  -6   17.54    2.55
   4  -5  -1  120.12    2.82
   4  -3   2   11.09    2.54
   5  -5   4   41.15    3.35
  -5  -8  -3   87.92    4.02
  -4  -4  -1   65.78    2.80
  -3   1  14  120.00    2.86
  -2   2   6   15.43    1.66
  -1 -12 -12  108.26    2.80
  -1   3  16   15.98    2.61
   0 -16 -14  103.32    3.51
   0 -12 -12   75.21    2.52
   0  -9 -10  234.61    3.23
   0   3  17   29.00    3.11
   0   4  13   19.50    1.80
   1  -6  -7  401.39    3.88
   1  -5  -6  132.14    2.62
   2 -11 -10    0.21    1.95
   2  -4  -4  164.84    2.61
   2   2   6  313.54   11.36
   2   3  13  158.17    3.64
   3  -3  -1  224.56    3.29
   4 -12  -7    4.61    2.64
   4  -9  -5   34.71    1.92
   4  -8  -4   21.47    2.21
   4  -7  -3   37.88    2.51
   4  -6  -2    5.46    2.02
   4  -2   4   62.01    2.71
   4  -1   7    0.22    3.12
   5  -8   0   19.81    3.13
   5  -7   1    4.07    2.64
  -5  -7  -2   19.44    3.05
  -5  -5   1   19.61    2.37
  -5  -4   3   36.84    2.43
  -5  -3   6    5.02    2.47
  -5  -3   7  193.78    3.90
  -4  -1   5  103.72    2.21
  -4   0  11    6.78    2.88
  -3  -3  -2  279.14    4.90
  -3   1   6   10.94    1.74
  -2   3  10  342.85    3.34
  -2   3  11  127.95    2.19
  -2   3  12  295.21    3.07
  -2   3  13   -1.10    2.08
  -2   3  14   68.17    2.62
  -1 -16 -14   37.36    2.41
  -1 -14 -13   51.84    2.57
  -1  -8  -9  280.84    3.80
  -1  -3  -4   24.09    2.70
  -1   3   7 1094.06    6.11
  -1   3  17  151.95    3.64
   0 -14 -13    8.68    2.31
   0  -8  -9  366.62    3.93
   0   4  11   87.60    2.37
   0   4  14   13.33    2.05
   1 -15 -13  189.22    3.15
   1 -13 -12    6.30    1.70
   1   3   7 1629.68   10.61
   1   3  17   31.46    3.45
   2 -15 -12   10.08    2.13
   2 -13 -11   83.33    2.58
   2   3  10  488.09    6.40
   2   3  14    3.53    2.23
   3 -14 -10   53.81    2.84
   3 -12  -9   99.83    2.45
   3  -9  -7   48.83    1.88
   3  -8  -6  146.25    2.86
   3  -4  -2  193.39    3.10
   5  -6   3    1.75    3.17
   5  -5   5   16.04    3.26
  -5  -3   5  118.37    3.19
  -4  -2   2  410.48    4.19
  -4   0   8   10.14    2.42
  -3  -1   1    8.98    1.66
  -3   0   3   72.66    2.28
  -3   2   9  484.99    3.96
  -3   2  10  126.15    2.67
  -3   2  11  104.93    2.18
  -2 -15 -13    6.46    2.80
  -2 -13 -12   56.50    2.92
  -2 -10 -10  258.49    4.39
  -2   0   1    2.31    1.41
  -2   3   9  515.89    3.95
  -2   3  15  139.42    3.30
  -1   2   4   80.31    2.10
  -1   4  11   25.32    1.83
  -1   4  12  293.97    3.30
  -1   4  14   83.06    2.52
   0 -11 -11  248.03    3.40
   0   3   6   63.02    2.20
   0   4  10  733.87    5.29
   1 -16 -13   31.11    2.93
   1 -10 -10   42.96    1.64
   1  -1  -1  101.17    3.27
   1   4  12  168.18    3.03
   1   4  13  131.78    2.96
   1   4  14    4.53    2.06
   2 -10  -9  488.84    3.71
   3 -11  -8   27.39    2.29
   3  -7  -5    2.48    1.73
   3  -6  -4  114.43    2.57
   3  -5  -3    2.33    1.77
  -5  -6  -1   72.40    3.21
  -5  -4   2  106.37    3.04
  -4 -12  -9   14.00    5.00
  -4  -8  -6   74.78    5.93
  -4  -7  -5  331.86    7.05
  -4  -3   0  209.34    3.48
  -4   0   7  295.27    3.23
  -3 -15 -12  121.21    4.89
  -3 -13 -11   71.66    3.86
  -3   2   8   15.46    1.78
  -3   2  14   32.63    2.23
  -2   3   8   16.35    1.64
  -2   3  16    1.55    2.90
  -1 -11 -11   53.22    2.26
  -1  -7  -8  104.95    2.73
  -1   4  10  553.77    4.25
  -1   4  15  106.80    2.79
   0 -15 -13  127.35    3.40
   0 -13 -12  134.35    2.91
   0  -7  -8   35.91    1.56
   0  -3  -4  586.42    6.52
   0   4   9  258.77    3.37
   0   4  16   19.54    1.92
   1 -14 -12    0.96    2.41
   1 -12 -11  226.47    3.11
   1  -9  -9   18.86    1.88
   1   4  11   11.61    1.68
   1   4  15  147.41    3.16
   2 -12 -10    9.17    1.97
   2  -9  -8   36.65    1.98
   3 -13  -9   -0.50    1.79
   3 -10  -7    0.05    2.02
   4 -12  -6   40.67    2.91
   4  -9  -4   53.77    2.46
   4  -8  -3   84.80    2.63
   4  -3   3   33.92    2.74
  -5  -2   7   42.90    3.11
  -4  -6  -4  200.46    4.89
  -3 -10  -9  182.08    5.20
  -1 -15 -13    9.71    2.42
  -1 -13 -12   66.93    2.59
  -1  -4  -5  439.62    6.97
  -1   3   6  136.33    2.38
  -1   4   9  143.06    2.51
  -1   4  16    7.17    1.77
   0  -6  -7  819.10    5.86
   0  -5  -6  201.19    3.44
   0  -4  -5  169.86    3.42
   1   4  10  257.74    3.71
   1   4  16    1.90    2.56
   2  -2  -1  194.45    3.42
   2   3   9   13.48    2.43
   3 -14  -9    3.40    2.66
   3 -12  -8  128.88    3.00
   4  -7  -2   28.54    1.88
   4  -6  -1  314.84    3.49
   4  -2   5    2.14    2.00
   4  -1   8   18.37    3.90
  -5  -5   0  147.17    3.55
  -5  -2   6   18.75    2.79
  -4  -5  -3  210.60    4.45
  -4  -1   3    1.03    1.87
  -4   1  12   29.01    2.41
  -3   3  12  169.50    2.87
  -2 -16 -13  134.08    3.91
  -2 -12 -11   11.73    2.48
  -2  -9  -9  207.28    4.23
  -2   3   7  368.88    3.49
  -2   4  12  388.18    3.65
  -2   4  13    9.78    2.11
  -2   4  14  134.25    3.00
  -1  -5  -6  175.23    3.90
  -1   0   0  861.43   10.09
   0 -16 -13  154.15    3.59
   1 -15 -12   29.27    2.73
   1 -11 -10   -0.26    2.01
   1  -8  -8   13.00    1.26
   1   4  17   61.89    3.27
   2 -15 -11   46.41    2.30
   2 -13 -10   72.87    2.56
   2 -11  -9    9.74    1.39
   3  -9  -6  181.71    2.68
   3  -3   0   23.38    1.83
   4 -10  -4   30.90    2.51
  -5  -4   1   27.81    2.81
  -5  -3   3    2.83    2.25
  -4  -2   1   84.25    2.51
  -4   0   5  164.73    3.02
  -4   1   8    3.39    2.21
  -3   3  10  127.07    2.56
  -3   3  11   96.84    2.19
  -3   3  13   25.24    1.86
  -3   3  14  106.96    2.60
  -2 -14 -12  192.31    3.83
  -2   4  10   93.08    2.16
  -2   4  11    0.76    1.28
  -2   4  15    9.02    1.91
  -2   4  16   57.53    3.04
  -1 -16 -13   68.18    3.17
  -1 -10 -10  168.65    2.98
   0 -14 -12   39.86    2.47
   0 -12 -11  310.52    3.67
   0   4   8  516.07    4.71
   0   5  13  175.47    2.79
   0   5  14  110.01    2.41
   1 -13 -11  145.01    2.55
   1  -2  -2 1764.90   10.44
   2 -10  -8  106.84    2.41
   2  -4  -3   -0.11    1.42
   2  -3  -2  529.24    4.80
   3 -13  -8   69.32    2.96
   3  -8  -5   37.83    1.74
   3  -7  -4  313.93    3.50
   4 -12  -5    6.26    2.11
   4  -9  -3   93.25    2.94
  -5  -8  -4    9.41    3.36
  -5  -7  -3  212.13    4.96
  -5  -1   8    1.46    2.14
  -4  -4  -2   25.87    2.53
  -4   1   7  176.46    3.04
  -3   3   9   53.55    2.21
  -2   2   4  423.41    4.13
  -1 -12 -11  111.45    2.71
  -1   4   8   31.74    1.46
  -1   5  12  289.04    3.18
  -1   5  14  489.65    4.18
  -1   5  15  103.88    2.74
   0 -17 -13    7.98    2.12
   0  -9  -9 1147.65    6.31
   0   5  12  619.11    4.69
   1 -16 -12   -0.23    2.01
   1 -10  -9  281.44    3.26
   1  -6  -6  317.46    3.59
   1   2   4  239.19    6.90
   1   4   9  347.84    4.49
   2 -14 -10   10.24    2.25
   3 -14  -8   89.43    3.25
   3 -10  -6  163.68    2.97
   3  -5  -2  244.04    3.39
   3  -4  -1  466.05    4.25
   4 -11  -4    0.52    2.51
   4  -8  -2    7.40    1.78
   4  -6   0    0.60    1.99
   4  -3   4  122.36    3.55
  -5  -6  -2   35.63    3.30
  -5  -1   7   44.90    2.38
  -4   0   4  248.46    3.34
  -4   2  10   42.42    2.42
  -4   2  11   84.91    3.08
  -4   2  12   53.63    2.42
  -2  -1  -1  121.71    3.50
  -2   1   2  473.36    4.83
  -2   3   6  426.29    3.90
  -2   4   9  166.48    2.34
  -1 -17 -13    3.94    2.88
  -1  -9  -9  411.68    4.52
  -1   3   5  492.95    4.61
  -1   5  11    5.24    1.70
  -1   5  16   41.14    2.00
  -1   5  17   40.15    2.68
   0 -15 -12   -1.49    2.53
   0   5  11   15.69    1.71
   0   5  17   80.09    3.02
   1 -12 -10    3.17    2.06
   1  -5  -5  474.93    4.42
   1  -4  -4  950.79    6.42
   1  -3  -3   17.33    1.65
   1   3   6   30.90    2.48
   2   1   4    7.17    2.74
   3 -12  -7   60.99    2.41
   4 -10  -3   62.86    2.81
   4  -2   6  247.11    4.75
   4  -1   9   78.44    5.32
  -5  -9  -5   55.05    4.88
  -5  -5  -1   31.72    2.99
  -5  -3   2  118.75    3.20
  -5  -1   6   75.87    3.09
  -4  -3  -1  260.00    4.19
  -4  -1   2  278.04    3.57
  -4   1   6   24.91    2.25
  -3 -14 -11   90.53    4.06
  -3  -1   0 1050.13    7.23
  -3   3   8   -0.70    1.26
  -3   4  13   -0.58    2.23
  -3   4  14  207.89    3.52
  -2 -15 -12   63.44    3.03
  -2 -11 -10  233.97    4.15
  -2  -8  -8  156.26    3.84
  -2   5  13    2.30    1.92
  -2   5  14  172.24    3.15
  -2   5  15   59.98    2.64
  -1   2   3  206.65    3.44
   0 -13 -11  151.06    3.03
   0 -11 -10   90.52    2.34
   0  -8  -8   65.57    2.23
   1 -15 -11  141.92    3.28
   1  -9  -8   23.89    1.86
   1   5  13   55.68    2.24
   1   5  14   20.62    2.17
   1   5  15  219.52    3.57
   2 -13  -9  102.77    2.66
   2 -11  -8  112.54    2.48
   2   4  13  103.23    3.41
   2   4  14    6.69    2.67
   3 -13  -7   25.05    2.70
   3  -9  -5    0.97    1.42
   3  -2   2   12.20    2.09
   4 -12  -4    0.67    2.09
   4  -9  -2   -1.12    2.44
   4  -4   3   57.07    2.70
  -5   0   8    2.95    2.82
  -4   2   8    7.88    2.11
  -3  -9  -8  100.29    4.22
  -3   2   5   78.31    1.99
  -3   4  12   53.22    1.91
  -2 -13 -11  136.71    3.35
  -2   5  12  178.21    2.84
  -2   5  16   36.05    2.28
  -1 -15 -12    3.72    2.28
  -1   4   7  169.37    2.57
  -1   5  10  126.56    2.47
   0 -16 -12    6.99    2.32
   0   5  10  276.88    3.45
   1 -13 -10  118.68    2.70
   1 -11  -9  653.27    4.65
   1   5  12  605.29    5.52
   1   5  16   34.70    2.70
   1   5  17   98.82    3.81
   2   4  12   62.46    3.01
   2   4  16   21.55    3.68
   3 -11  -6  238.29    3.07
   3  -8  -4  210.54    3.03
   4 -11  -3  113.59    3.13
   4  -8  -1   72.33    2.91
   4  -7   0   90.72    2.94
  -5  -4   0    9.71    2.55
  -5  -2   3   11.32    2.32
  -5  -1   5   40.12    2.26
  -4  -2   0  155.46    3.39
  -4   1   5   74.08    2.47
  -4   3  12  150.29    3.43
  -3   3   7  403.43    3.48
  -3   4  10   -0.65    1.84
  -2 -16 -12   48.53    3.53
  -2   5  11  287.59    2.90
  -1 -13 -11  329.68    3.98
  -1  -8  -8    2.92    1.81
   0 -17 -12    9.13    2.89
   0 -14 -11  132.28    2.78
   0 -10  -9  305.44    3.71
   0  -7  -7  554.88    4.83
   1 -16 -11   38.57    2.32
   1   4   8  639.26    6.47
   2 -14  -9    4.40    1.78
   2 -12  -8  353.39    3.52
   3 -14  -7   25.54    2.24
   3 -10  -5    7.42    2.13
   3  -7  -3  305.40    3.49
   4 -10  -2    1.77    2.57
   4  -6   1   46.45    2.02
   4  -3   5    1.05    2.52
   4  -2   7  160.04    4.71
   4  -1  10    0.17    4.06
  -5  -3   1   38.17    2.60
  -4   0   3   73.93    2.08
  -4   2   7  157.31    2.90
  -4   3  10    2.04    2.17
  -3   0   1  316.52    3.91
  -3   4   9  269.34    3.12
  -2   2   3    2.21    1.42
  -2   3   5  135.03    2.30
  -2   5  10  100.95    2.26
  -1 -16 -12   27.85    2.56
  -1   5   9  610.45    4.58
  -1   6  13    1.32    1.88
  -1   6  16   31.38    2.32
  -1   6  17  138.49    3.38
   0 -12 -10   11.10    1.92
   0   6  14  128.28    2.63
   0   6  15  164.69    3.11
   1 -17 -11   33.46    2.41
   1   5  11  100.49    2.54
   2 -15  -9   10.66    2.26
   2   3   8  353.64    7.48
   2   4  17    0.62    3.28
   3  -6  -2   73.25    2.04
   3  -5  -1  251.38    3.42
   3  -4   0  152.67    2.94
   4  -9  -1   61.55    2.98
  -3 -15 -11   42.78    3.28
  -3   2   4  555.93    4.47
  -3   3   6  553.33    4.24
  -3   5  13   19.06    2.32
  -3   5  14   30.84    2.55
  -3   5  15   60.13    3.11
  -2 -14 -11   86.97    3.34
  -2  -7  -7  462.29    6.59
  -2   0   0  421.99    5.29
  -2   6  15   33.43    2.46
  -2   6  16   12.34    2.45
  -1 -17 -12   21.05    2.96
  -1   6  12  214.84    2.92
   0 -15 -11  203.37    3.36
   0  -6  -6   28.17    1.88
   0   5   9  109.58    2.20
   0   6  13   29.26    1.98
   1 -12  -9   79.55    2.49
   1 -10  -8  429.85    3.58
   2 -16  -9    7.03    2.11
   2  -2   0  826.32    6.77
   2   4  11   19.66    2.62
   3  -9  -4   55.21    2.24
   3  -1   4   98.44    3.34
   4 -11  -2   22.12    2.26
   4  -4   4  347.85    4.70
   4  -1  11   68.22    6.55
  -5  -2   2   88.57    2.83
  -5   1   8    0.19    2.75
  -4  -1   1   46.73    2.15
  -4   1   4  225.55    3.18
  -3   4   8    3.78    1.84
  -3   5  12  116.75    2.22
  -2 -12 -10   38.53    2.70
  -2 -10  -9  294.07    4.26
  -2   5   9  722.59    4.59
  -2   6  13   41.87    2.33
  -2   6  14   97.99    2.27
  -1 -14 -11   37.60    2.00
  -1 -10  -9  296.49    3.68
  -1   1   1  101.42    2.98
  -1   3   4  943.51    6.55
  -1   4   6   98.30    2.08
   0  -9  -8   32.52    1.97
   0   6  12  282.34    3.44
   2 -11  -7    9.89    1.40
   2  -4  -2  753.57    5.40
   2  -3  -1  133.63    2.68
   3 -14  -6   16.45    2.18
   3  -8  -3   95.31    2.50
   4 -10  -1   37.39    2.97
   4  -7   1   29.39    2.28
   4  -6   2   25.50    2.24
  -5   0   5   39.65    2.68
  -5   1   7   31.31    2.58
  -4 -11  -8   69.10    5.43
  -4   4  12   28.10    2.15
  -3 -13 -10   27.90    2.79
  -3 -11  -9  254.20    4.97
  -3   1   2  585.72    4.86
  -3   5  11  247.39    2.88
  -2   6  12   89.08    2.36
  -1 -12 -10   37.29    1.71
  -1  -7  -7  770.96    6.38
  -1   5   8   17.40    1.26
  -1   6  11  471.17    3.69
   0 -13 -10   11.52    1.54
   0 -11  -9  248.84    3.27
   1 -17 -10   20.46    3.06
   1 -16 -10   58.92    2.35
   1 -13  -9   82.32    2.48
   1  -6  -5    7.80    1.41
   1   5  10  754.35    6.06
   1   6  15  139.49    3.31
   1   6  16    1.28    2.06
   3 -10  -4   81.25    2.58
   3  -7  -2   68.05    2.34
   4  -9   0   25.53    2.77
   4  -3   6   63.55    3.06
   4  -2   8   45.67    3.62
  -5  -6  -3  144.53    4.27
  -5  -5  -2    1.44    2.71
  -5  -4  -1  194.80    4.32
  -5  -1   3    0.22    2.23
  -5   2   9   38.79    2.84
  -4   0   2   81.94    2.39
  -4   4  10    2.55    2.11
  -3   3   5  127.22    2.55
  -3   5  10   26.15    2.00
  -3   6  15    8.11    2.52
  -2 -15 -11   63.56    2.95
  -2   1   1  150.24    3.12
  -2   3   4 1484.48    7.27
  -2   4   6   77.62    1.80
  -2   5   8   10.25    1.55
  -2   6  11  168.23    2.71
  -1 -15 -11  202.82    3.36
  -1   7  15   23.51    2.01
  -1   7  16   16.09    2.23
   0  -5  -5 1443.26    8.61
   0   4   6   46.83    2.08
   1 -11  -8  197.73    2.61
   1   0   1  124.94    4.86
   1   6  14  148.04    3.11
   1   6  17   53.78    3.11
   1   6  18   63.12    3.94
   2 -16  -8    8.63    2.82
   2 -12  -7   10.03    1.53
   2 -10  -6  231.51    2.75
   3 -13  -5   49.26    2.59
   3  -6  -1  309.61    3.69
   4  -4   5   -0.48    2.71
  -5  -3   0  129.36    3.47
  -5   1   6   70.25    3.04
  -4   2   5  178.11    3.00
  -4   3   7   18.51    2.14
  -3  -3  -3  759.89    8.72
  -3  -2  -2    9.32    2.00
  -3   4   7  289.03    3.01
  -3   6  13   12.64    2.26
  -3   6  14  121.28    2.58
  -2   7  16  115.74    3.09
  -1 -16 -11  183.42    3.60
  -1 -13 -10   52.63    2.38
  -1   6  10  253.80    2.85
   0  -8  -7  732.99    5.31
   0   7  15  180.00    3.10
   0   7  16    1.24    2.10
   1 -14  -9  126.55    2.43
   1  -5  -4  724.57    5.43
   1   6  13   41.43    2.20
   2 -13  -7    3.52    2.01
   2   5  16   21.25    3.58
   3 -14  -5   17.49    2.21
   3 -11  -4   32.23    1.94
   3  -9  -3  169.22    2.65
   4 -10   0   36.22    2.31
   4  -7   2  176.42    3.35
   4  -6   3    1.91    2.13
   4  -5   4  146.72    3.39
  -5  -7  -4    2.36    3.27
  -5  -2   1   23.45    2.38
  -5   0   4   38.10    2.49
  -5   2   8   67.21    3.05
  -4  -4  -3  491.90    6.51
  -4  -3  -2   42.58    2.76
  -4   1   3   33.52    2.20
  -3 -14 -10  107.23    4.09
  -3  -4  -4   28.12    3.40
  -3   2   3   13.03    1.74
  -3   5   9  478.97    3.68
  -3   6  12  159.30    2.88
  -2 -16 -11  183.51    3.95
  -2 -13 -10   35.09    2.39
  -2   6  10  181.59    2.42
  -2   7  14  366.63    3.80
  -2   7  15    1.39    1.83
  -1 -17 -11   16.67    2.98
  -1 -11  -9  268.00    3.53
  -1  -6  -6   34.72    2.08
  -1   5   7  961.69    5.71
  -1   7  13    1.34    1.87
   0 -15 -10   -0.57    2.20
   0 -12  -9  328.65    3.60
   0 -10  -8   54.61    2.21
   0  -4  -4 1097.14    8.20
   0   6  10   49.06    2.06
   0   7  14  119.44    2.62
   0   7  18    8.12    2.02
   1 -16  -9   13.75    2.61
   1 -15  -9    9.51    1.80
   1 -10  -7  109.79    2.41
   1  -4  -3   49.78    2.05
   2 -14  -7   10.48    2.18
   2 -11  -6  211.86    2.99
   2   4  10  224.03    4.98
   2   5  14    4.39    2.54
   3 -12  -4    4.65    2.40
   3  -8  -2    9.74    1.91
   3  -4   1  302.76    3.74
   4 -11   0   21.25    2.40
   4  -9   1    2.17    2.31
   4  -3   7   47.65    3.49
   4  -2   9   61.58    4.05
  -5  -1   2  142.46    3.38
  -5   2   7   75.51    2.80
  -4   3   6   60.54    2.30
  -4   5  11   89.36    2.80
  -4   5  12   27.77    2.11
  -3   6  11   51.65    2.28
  -2 -17 -11   84.67    3.56
  -2 -11  -9  128.56    3.36
  -2  -9  -8    5.19    1.78
  -2   5   7  564.38    4.11
  -2   7  13    4.08    2.01
  -1   2   2 1823.71   10.29
  -1   4   5 1633.12    7.95
  -1   6   9  530.73    4.19
  -1   7  12  540.32    4.17
   0 -16 -10   14.81    2.38
   0   7  13    1.69    1.76
   1 -17  -9   31.80    2.72
   1  -3  -2 1153.42    7.87
   1   4   7  442.02    5.71
   1   6  12  272.73    3.71
   2 -16  -7    9.83    2.72
   2 -15  -7    8.72    2.26
   3 -14  -4    6.78    2.86
   3 -13  -4   38.58    2.58
   4 -10   1    2.30    2.93
   4  -8   2   20.52    2.35
  -5   1   5    0.61    2.46
  -4  -5  -4  159.74    4.92
  -4   2   4  419.63    4.03
  -4   4   8   21.48    1.78
  -3   0   0   47.18    2.08
  -3   5   8    9.04    1.30
  -3   7  15    0.27    2.71
  -2   2   2  974.51    6.47
  -2   4   5   86.94    2.18
  -2   6   9  265.73    2.95
  -2   7  12  198.66    2.87
  -1 -14 -10    1.95    2.06
   0 -13  -9  141.13    2.83
   0  -7  -6  703.89    5.45
   0  -3  -3  183.87    4.09
   1 -13  -8  192.27    2.64
   1  -2  -1  313.40    4.81
   1   5   9   12.58    1.69
   2 -10  -5  129.73    2.53
   2   5  13  373.53    5.68
   3 -11  -3   23.60    2.39
   3  -7  -1  136.17    2.67
   3   3  14   16.22    5.28
   3   3  15  109.54    7.05
   4  -9   2  121.45    3.64
   4  -7   3    2.14    1.88
   4  -5   5   37.76    2.91
   4  -4   6    0.99    2.50
  -5   0   3   77.61    2.79
  -4 -14  -9   94.27    4.91
  -3 -15 -10    3.80    2.65
  -3 -12  -9   26.65    2.77
  -3   3   4  349.07    3.47
  -3   6  10    0.21    1.81
  -3   7  14  175.73    2.75
  -2 -14 -10   23.29    2.32
  -2   8  16   69.82    2.81
  -1   8  15   61.92    2.37
  -1   8  16  158.88    3.08
  -1   8  17   51.30    2.17
   0 -11  -8   77.49    2.24
   0   7  12  591.83    4.75
   1 -14  -8   20.76    2.05
   1   7  16   12.48    2.65
   1   7  17  159.51    3.57
   2 -13  -6   46.96    1.78
   2  -4  -1  574.12    4.99
   3  -9  -2    0.32    1.48
   3  -6   0    8.43    1.90
   3  -1   5  240.38    4.81
   4 -10   2   39.09    3.25
   4  -8   3   -0.82    2.64
   4  -3   8   46.80    3.53
   4  -2  10    3.22    3.18
  -4   3   5   69.85    2.31
  -4   4   7  139.44    2.82
  -4   5   9   52.11    2.38
  -3 -10  -8    3.59    2.33
  -3   1   1  260.31    3.59
  -3   5   7  128.92    2.37
  -2   7  11   54.52    1.74
  -2   8  15   45.85    2.71
  -1 -16 -10    1.23    2.53
  -1 -12  -9  298.50    3.57
  -1  -8  -7  588.90    5.32
  -1   8  14  262.17    3.25
   0 -14  -9  114.90    2.33
   0  -9  -7  247.77    3.18
   0  -2  -2 3165.73   18.74
   0   8  16   12.29    2.02
   0   8  17  137.69    3.21
   0   8  18   38.88    2.93
   1 -17  -8   64.78    3.26
   1 -16  -8   99.33    3.08
   1 -15  -8  173.40    2.82
   1   6  11   84.76    2.40
   1   7  15  305.17    4.06
   1   7  18    0.79    2.89
   2 -16  -6   12.90    2.72
   2 -15  -6   84.97    2.98
   2 -14  -6  121.59    2.39
   2  -7  -3   79.02    2.19
   2  -1   2 1050.32    8.99
   3 -14  -3   32.75    3.00
   3 -13  -3   61.60    2.41
   3 -10  -2    1.57    2.10
   3  -8  -1  221.79    3.23
   3  -5   1  241.20    3.48
   4  -9   3    2.98    2.90
   4  -7   4  107.37    3.48
   4  -4   7   15.14    3.07
  -5  -8  -5  138.64    8.54
  -5   1   4  122.78    3.09
  -3 -16 -10    1.31    2.92
  -3   4   5   28.57    1.95
  -3   6   9   48.81    2.18
  -2 -15 -10    0.20    2.14
  -2 -12  -9  358.85    4.35
  -2   3   3  267.96    3.28
  -2   5   6  240.50    2.99
  -2   6   8   30.19    1.42
  -2   8  14   84.34    2.25
  -1 -17 -10   47.95    2.98
  -1 -10  -8   54.29    2.16
  -1  -5  -5 2612.89   14.16
  -1   3   3   14.53    1.34
  -1   5   6  125.20    2.50
  -1   6   8   61.21    1.68
  -1   7  10   91.56    2.23
  -1   8  13   10.25    1.95
   0 -16  -9   24.59    2.43
   0 -15  -9  109.97    2.46
   0   7  11   10.00    1.80
   0   8  15   25.78    2.34
   1 -12  -7   17.02    1.47
   1   3   5 1755.38   14.52
   1   7  14   89.27    2.75
   2  -9  -4  289.22    3.19
   2   5  12   41.01    2.95
   3 -11  -2    2.69    2.31
   3  -4   2   14.65    1.72
   3  -2   4  629.22    6.19
   4  -5   6  109.25    3.54
   4  -2  11   10.11    3.81
  -5  -4  -2   10.49    2.73
  -5  -3  -1  142.82    3.65
  -5  -2   0   32.55    2.63
  -5  -1   1   50.75    2.45
  -5   2   5    3.18    2.30
  -5   3   7   20.20    2.59
  -4   2   3   23.14    1.95
  -4   5   8   36.52    2.26
  -4   6  11   35.13    2.14
  -3   2   2  678.82    5.19
  -3   7  11  198.81    3.03
  -3   8  15    2.82    2.72
  -2 -17 -10   29.90    2.86
  -2 -16 -10    0.02    2.52
  -2   7  10    3.94    1.21
  -2   8  13   34.68    1.82
  -1 -13  -9  181.03    2.99
   0 -17  -9   58.22    2.35
   0 -12  -8    0.85    1.64
   0  -6  -5  255.58    3.62
   0   8  14  328.74    3.72
   1 -13  -7   36.13    2.13
   2 -13  -5   78.58    2.56
   3 -13  -2    7.08    2.72
   3 -12  -2   14.03    2.57
   3  -9  -1  234.59    3.47
   3  -7   0    5.66    1.87
   4  -9   4   34.33    3.28
   4  -8   4    7.87    2.52
   4  -7   5   10.88    2.77
   4  -3   9   36.60    3.32
  -5   0   2  103.26    2.89
  -4 -12  -8   49.73    4.02
  -4   4   6  141.63    2.46
  -3 -13  -9  204.96    4.14
  -3   6   8  123.42    2.55
  -3   8  14   18.43    1.97
  -2 -10  -8   77.58    2.53
  -2  -8  -7  193.15    3.85
  -2   4   4  157.23    2.74
  -2   8  12   74.71    2.31
  -1   8  12  140.30    2.63
  -1   9  16   84.22    2.55
  -1   9  17  137.27    3.24
   0 -13  -8  260.84    3.35
   0 -10  -7  183.01    2.94
   1 -15  -7    1.60    2.20
   1 -14  -7    4.70    2.08
   1   7  13  255.72    3.69
   2 -16  -5  106.14    3.10
   2 -15  -5   16.82    2.48
   2 -14  -5   47.81    2.34
   2  -8  -3  182.54    2.85
   3 -10  -1   71.94    2.56
   4  -6   6   54.81    3.14
   4  -4   8    7.01    2.84
  -5  -5  -3   46.51    3.35
  -5   1   3   35.12    2.38
  -5   4   8   15.85    2.66
  -4   3   4  176.47    2.99
  -4   7  12    3.22    2.45
  -3   5   6  354.12    3.54
  -3   7  10    1.50    1.41
  -2 -13  -9  436.63    4.66
  -2   6   7   85.53    2.08
  -2   7   9  241.02    2.88
  -2   9  15    3.88    2.41
  -2   9  16   19.79    2.08
  -1 -14  -9  195.04    3.00
  -1 -11  -8  111.77    2.54
  -1   4   4  949.21    6.31
  -1   7   9  244.83    3.03
  -1   9  15   25.15    2.22
   0   6   8  109.90    2.50
   0   7  10  401.04    3.97
   0   8  13    7.91    1.82
   1 -17  -7   20.61    2.26
   1 -11  -6  108.46    2.35
   1  -5  -3    1.69    0.96
   1   5   8  228.08    3.91
   1   6  10  262.06    3.78
   2 -11  -4  250.28    3.23
   2   6  15   13.22    2.75
   3 -11  -1   34.68    2.46
   3  -8   0   19.13    2.05
   3  -6   1  290.78    3.44
   4  -8   5   24.42    2.85
   4  -3  10    3.64    3.54
  -3 -14  -9   74.63    3.37
  -3   8  12    2.53    2.03
  -2   8  11  569.21    4.18
  -2   9  14   94.21    2.71
  -1 -17  -9   73.91    3.11
  -1 -16  -9   37.01    2.91
  -1 -15  -9  255.61    3.36
  -1  -9  -7  606.89    5.15
  -1  -7  -6   27.26    1.90
  -1   6   7  371.81    3.49
  -1   8  11  185.00    2.74
  -1   9  14  155.36    2.84
   0 -16  -8  160.20    3.31
   0 -15  -8   96.02    2.78
   0 -14  -8  112.31    2.22
   0   9  17  124.41    3.19
   1 -12  -6  422.66    3.82
   1   8  17  153.93    3.68
   1   8  18   39.45    3.18
   2 -12  -4   71.89    2.38
   2   4   9  103.49    4.19
   3 -13  -1   25.08    2.63
   3 -12  -1   88.61    2.41
   3  -5   2  567.36    4.87
   3   0   7   40.50    3.01
   4  -6   7   33.79    3.25
   4  -5   8    5.45    3.29
   4  -4   9   73.15    3.76
  -5   5   9   15.95    2.90
  -4  -1  -1  280.19    4.41
  -4   4   5    7.41    2.07
  -3 -11  -8   29.00    2.55
  -3   4   4  191.37    3.04
  -3   9  15   17.68    2.91
  -2 -14  -9   38.07    2.27
  -2  -5  -5  379.94    7.52
  -2   0  -1  609.76    6.91
  -2   1   0  201.58    3.71
  -2   5   5  108.93    2.32
   0 -11  -7  336.02    3.33
   0  -5  -4  316.04    4.32
   0   5   6  209.63    3.41
   1 -13  -6  238.51    3.14
   1   7  12   30.82    2.06
   1   8  16    0.13    2.30
   2 -15  -4   -1.01    2.32
   2 -14  -4   24.08    2.44
   2 -13  -4   21.05    1.68
   2  -7  -2  150.70    2.65
   2   5  11    3.54    2.36
   3 -10   0  103.94    2.68
   3  -9   0   26.67    1.78
   3  -7   1   79.91    2.43
  -5   3   5   64.88    2.92
  -4 -13  -8    0.19    3.29
  -4 -10  -7  121.66    5.13
  -4  -2  -2   45.07    2.71
  -4   1   1   88.21    2.45
  -4   6   8   70.32    2.68
  -3 -16  -9  132.86    4.19
  -3 -15  -9  131.44    3.74
  -3   8  11  175.51    2.55
  -2 -16  -9   57.56    2.93
  -2 -11  -8    1.09    1.82
  -2   7   8  243.20    2.87
  -2   8  10    0.20    1.75
  -1 -12  -8   11.22    1.47
  -1   5   5  493.78    4.44
  -1   9  13   46.09    2.19
   0 -12  -7   28.82    1.92
   0  -9  -6  114.53    2.47
   0   9  15  127.26    3.04
   1 -17  -6   38.53    2.39
   1 -16  -6   34.80    2.49
   1 -15  -6  149.37    3.05
   1 -14  -6  107.54    2.54
   1  -4  -2  734.53    5.88
   1   8  15   17.91    2.23
   2 -10  -3  371.88    3.64
   3 -13   0   44.87    3.17
   3 -12   0   32.32    2.71
   3 -11   0   24.82    2.39
   3  -3   4  457.97    4.88
   3  -2   5   96.01    3.30
   3  -1   6  330.15    5.32
  -5  -6  -4    3.10    3.67
  -5  -1   0    3.13    2.58
  -5   0   1   87.96    3.06
  -5   5   8   62.67    3.11
  -4   2   2  121.19    2.66
  -4   5   6  359.10    3.76
  -4   8  12    6.40    2.46
  -3   5   5    4.18    1.71
  -3   9  13   48.88    2.67
  -2 -17  -9   39.71    2.40
  -2  -1  -2  247.53    5.72
  -2   3   2  530.07    4.82
  -2   6   6  258.34    3.04
  -2   9  12  178.48    2.90
  -2  10  16  175.50    3.53
  -1 -13  -8   53.49    2.22
  -1   7   8    7.66    1.56
  -1   8  10   35.75    1.86
   0 -13  -7  117.31    2.68
   0  -7  -5  832.20    5.81
   0   2   2 3210.99   18.23
   0   9  14  151.91    2.85
   1   4   6   50.74    2.51
   2 -11  -3   62.40    2.26
   3  -6   2    4.63    1.74
  -5  -2  -1   87.53    3.15
  -5   1   2   56.41    2.54
  -4   3   3  110.27    2.61
  -3  -9  -7  322.86    5.39
  -3  -7  -6   81.45    4.20
  -3   0  -1  742.57    6.59
  -3   7   8  119.78    2.08
  -2  -9  -7  612.19    5.96
  -2  10  15    1.56    1.82
  -1 -14  -8  134.33    2.92
  -1 -10  -7  168.45    2.92
  -1   9  12  171.38    2.81
  -1  10  15   12.42    2.20
   0 -17  -7   -0.41    2.70
   0 -16  -7    0.34    2.43
   0 -15  -7    3.14    2.35
   0 -14  -7   81.94    2.42
   0   8  11  335.57    3.46
   1  -6  -3    0.99    1.30
   1   6   9  267.64    4.11
   1   7  11   48.23    2.10
   2 -15  -3   57.84    2.35
   2 -14  -3  104.14    2.84
   2 -13  -3  169.22    2.98
   2 -12  -3  107.74    2.27
   2  -3   1  816.65    6.37
   2   6  13   60.13    3.18
   3 -12   1    0.91    2.74
   3 -10   1   27.35    2.29
   3  -9   1   41.16    2.24
  -5  -3  -2    2.52    2.45
  -5   2   3   29.28    2.46
  -4 -14  -8    5.40    2.96
  -4  -8  -6   74.35    5.53
  -4  -3  -3  245.69    5.08
  -4   4   4  162.41    2.85
  -4   6   7   19.45    2.12
  -4   7   9  157.88    2.63
  -4   8  11   42.20    2.81
  -3 -12  -8    2.19    2.20
  -3  -1  -2    5.36    1.88
  -3   3   2  163.58    2.86
  -3   6   6  223.58    2.97
  -3   9  12   48.70    1.91
  -2 -12  -8   37.64    2.13
  -2   4   3    0.51    1.37
  -2   8   9  447.96    3.69
  -2   9  11  116.30    2.45
  -2  10  14  143.43    2.95
  -1 -17  -8  140.61    2.95
  -1 -16  -8  129.56    3.06
  -1   6   6  333.48    3.62
  -1  10  14  252.19    3.22
   0 -10  -6  578.11    4.43
   0   6   7  894.45    6.09
   0   9  13   48.18    2.12
   0  10  18   -0.11    2.61
   1 -15  -5   58.75    2.58
   1 -13  -5    1.33    1.81
   1 -12  -5    6.57    1.72
   1  -3  -1   89.88    2.69
   1   9  18   19.54    3.38
   2  -9  -2   95.73    2.31
   3  -7   2  275.22    3.47
  -5   3   4   65.94    2.70
  -5   5   7    1.33    1.83
  -3   4   3   96.73    2.37
  -3  10  14   63.86    2.97
  -2 -13  -8    0.83    1.97
  -2   5   4  837.74    5.26
  -2   7   7  429.40    3.40
  -2  10  13   55.22    2.47
  -1 -11  -7  422.18    4.18
  -1  -8  -6  360.04    4.15
  -1  -6  -5  285.48    4.51
  -1   8   9 1154.11    5.86
  -1   9  11  119.15    2.41
   0  -4  -3  584.97    6.18
   0  10  16   46.71    2.42
   1 -14  -5  127.44    2.35
   1   9  17   40.69    2.85
   2 -15  -2   39.27    2.79
   2 -10  -2    3.08    1.92
   2   7  16    2.55    3.21
   3 -12   2   46.96    3.17
   3  -8   2  104.73    2.76
  -5   4   5   13.78    2.72
  -5   6   8   54.32    2.80
  -4   5   5    0.65    1.49
  -4   7   8   21.82    2.38
  -4   8  10   20.19    2.69
  -4   9  12    4.88    2.55
  -3 -13  -8    0.34    2.27
  -3  10  13   70.07    2.57
  -2 -17  -8   62.89    3.21
  -2 -14  -8   51.15    2.47
  -2  11  16  134.90    3.41
  -1   1   0  522.70    7.07
  -1   7   7  242.99    2.97
  -1  10  13  102.90    2.53
  -1  11  17   10.96    2.63
   0 -17  -6   22.85    2.84
   0 -11  -6  223.25    2.74
   0  -8  -5   66.40    2.04
   0   8  10  194.51    2.98
   0   9  12   16.05    1.82
   0  10  15    9.06    2.20
   1   9  16   78.11    2.95
   2 -14  -2    6.96    1.84
   2 -13  -2    2.20    2.10
   2 -12  -2    5.20    2.07
   2 -11  -2   13.56    1.59
   3 -11   2   54.03    2.69
   3 -10   2  120.12    2.98
   3  -9   2   11.83    1.65
  -6  -1   1   46.26    3.76
  -5   5   6   48.76    2.71
  -4 -11  -7  155.82    4.91
  -4   6   6  111.26    2.64
  -3 -16  -8    7.63    2.84
  -3 -15  -8   27.00    3.13
  -3 -14  -8   11.32    2.44
  -2 -16  -8    1.04    1.84
  -2 -10  -7  352.64    4.26
  -2   6   5  121.82    2.38
  -2   8   8   20.39    1.59
  -2   9  10    1.17    1.25
  -2  10  12    7.49    2.07
  -2  11  15   12.26    2.57
  -1 -17  -7   31.81    2.84
  -1 -12  -7  302.69    3.55
  -1  11  16  185.00    3.38
   0 -16  -6  137.57    3.08
   0 -15  -6  162.84    3.25
   0 -13  -6  323.20    3.63
   0 -12  -6  301.03    3.06
   0  -6  -4  300.51    3.72
   0   4   4 1108.66    8.04
   1 -16  -4    8.79    2.26
   1  -5  -2  748.08    5.64
   1   5   7  433.09    5.46
   1   9  15  102.37    3.16
   2  -8  -1  252.29    3.16
   2   6  12  237.85    5.14
   2   7  15  192.99    4.69
   3  -7   3    5.21    2.03
   3  -2   6   32.36    2.67
  -6  -2   0    0.81    3.40
  -5  -4  -3  150.84    4.58
  -5   1   1  119.11    3.39
  -4   1   0  146.29    2.98
  -4   2   1  196.24    3.14
  -4   3   2   78.87    2.36
  -4   8   9    3.99    2.41
  -3 -10  -7  491.12    6.00
  -3   6   5    1.07    1.66
  -3   9  10   24.59    1.55
  -3  10  12    2.51    2.16
  -2  11  14   68.96    2.64
  -1 -15  -7   59.15    2.42
  -1 -14  -7   41.98    2.35
  -1   5   4  734.35    5.54
  -1  10  12  151.46    2.70
  -1  11  15    8.84    2.18
   0  -9  -5    2.91    1.61
   0  10  14  128.09    2.83
   0  11  18    0.71    2.39
   1 -15  -4    1.32    1.65
   1 -14  -4  117.67    2.69
   1 -13  -4   29.07    1.99
   1 -12  -4  270.74    3.12
   1  -2   0 9820.62   26.28
   1   7  10  614.22    5.41
   2 -14  -1   22.70    2.55
   2   5  10  608.97    8.35
   3 -11   3    1.34    2.48
   3 -10   3    3.15    2.59
   3  -9   3    0.08    2.47
   3  -8   3   16.59    2.43
   3  -5   4  153.41    2.93
  -5   0   0   17.75    2.42
  -5   3   3  118.19    2.98
  -5   6   7   17.75    2.70
  -4   0  -1  544.27    5.42
  -4   4   3  104.87    2.51
  -4   7   7   24.58    2.26
  -3  -2  -3  423.60    6.93
  -2   7   6  334.41    3.37
  -2  10  11  165.91    2.62
  -1  -9  -6   16.87    1.58
  -1   8   8   12.73    1.64
   0 -17  -5   61.16    3.18
   0   5   5 1443.04    8.19
   0  11  17    5.90    2.63
   1 -16  -3  128.59    3.25
   2 -12  -1  212.23    3.22
   2 -10  -1  268.88    3.21
   2   0   4  212.98    4.96
   3 -11   4   18.73    3.10
   3  -6   4   95.93    2.69
   3   2  11  108.70    6.15
  -5  -1  -1  159.33    4.01
  -5   4   4  172.78    3.51
  -4   5   4  154.50    2.87
  -3   7   6  172.95    2.42
  -3   9   9   22.66    2.07
  -3  10  11  204.01    3.12
  -2 -11  -7  252.86    3.57
  -2   9   9  115.44    2.01
  -1   0  -1  128.01    4.90
  -1   6   5    9.09    1.51
  -1  11  14   91.13    2.19
   0   8   9  365.06    3.79
   0   9  11  155.51    2.45
   0  10  13   71.41    2.23
   1   6   8  107.24    3.00
   1   9  14  213.45    3.68
   1  10  18    0.79    3.00
   2 -14   0   37.49    3.01
   2  -7   0    6.43    1.77
   2   1   5 1102.59   13.05
   2   7  14   44.77    3.05
   3  -8   4   76.03    2.93
   3  -7   4  206.88    3.53
  -5 -11  -6    3.58    3.87
  -4  -4  -4    0.87    2.74
  -4  -1  -2    0.46    2.08
  -4   6   5    3.94    2.12
  -4   8   8  121.79    2.44
  -3 -11  -7  132.15    3.38
  -2 -16  -7   -0.01    2.52
  -2 -12  -7  241.69    3.56
  -2   8   7   62.95    1.94
  -1 -10  -6  354.88    3.85
  -1  10  11  397.43    3.70
   0 -14  -5   52.49    2.40
   0 -11  -5   19.31    1.83
   0  -7  -4 1863.42    8.42
   0   6   6   27.05    1.82
   1 -14  -3  121.64    2.85
   1  -6  -2  927.75    5.85
   1  -4  -1  366.60    4.39
   1  10  17  158.38    4.01
  -6   0   1   42.29    3.62
  -4 -14  -7   73.03    3.81
  -4 -13  -7   97.99    3.83
  -4   7   6  147.31    2.83
  -4  10  11   86.37    2.98
  -3   2   0   58.00    2.16
  -3   5   3    1.58    1.76
  -3  11  12    9.43    2.13
  -2 -15  -7  153.38    3.07
  -2 -13  -7  135.09    2.96
  -2   3   1  135.07    2.58
  -2   4   2  740.20    5.23
  -2   5   3  260.54    3.21
  -2  10  10  123.69    2.42
  -2  11  12    1.07    2.05
  -1 -16  -6   93.24    2.90
  -1 -11  -6  255.84    3.38
  -1  -7  -5  108.18    2.60
  -1   7   6  539.45    4.17
  -1  11  13    1.20    1.46
   0 -13  -5    1.31    1.37
   0  -3  -2 2336.91   13.48
   0  11  15    4.75    2.25
   1 -16  -2   -0.31    1.98
   1 -13  -3  214.99    2.69
   1 -12  -3  103.60    2.28
   1 -11  -3  182.56    2.60
   1   8  11   11.79    1.69
   1  10  16    1.36    2.33
   2 -10   0    4.94    1.95
   3  -9   5   13.77    2.88
   3  -2   7   14.56    2.60
  -5  -2  -2   20.18    2.37
  -5   7   7    3.92    2.39
  -4   9   9   83.58    2.38
  -3 -16  -7   59.46    3.06
  -3 -15  -7   94.09    3.22
  -3 -12  -7  208.70    3.75
  -2   2   0  827.83    6.62
  -2   6   4  687.21    4.77
  -2   9   8   37.86    1.87
  -2  12  14   67.67    2.88
  -1 -14  -6  149.69    2.93
  -1 -13  -6  225.92    3.23
  -1 -12  -6  250.07    3.29
  -1  -3  -3  787.52   11.11
  -1  12  15   -2.44    2.27
   0 -16  -4   18.06    2.72
   0   7   7  581.11    4.74
   0   9  10  233.87    3.17
   0  10  12  317.96    3.54
   1 -15  -2   47.18    2.42
   2 -13   1   -1.59    2.66
   2   8  16    4.76    3.08
   3  -8   5   17.28    1.95
   3  -7   5    0.40    2.02
   3  -1   8  136.77    3.91
   3   1  10   86.44    4.59
  -6  -1   0   19.07    2.98
  -5   2   1  157.31    3.20
  -5   3   2   45.57    2.58
  -5   4   3   75.48    2.74
  -4   4   2  148.56    2.74
  -4   8   7   -2.07    1.63
  -3 -14  -7   21.57    2.54
  -3 -13  -7  283.10    4.25
  -3  -8  -6   32.15    2.60
  -3   1  -1  272.82    3.97
  -3   7   5    2.58    1.67
  -2 -17  -6  107.90    3.56
  -2   7   5   43.23    1.86
  -2  11  11  111.76    2.43
  -1 -17  -5    4.75    2.64
  -1  -5  -4 1399.87   10.10
  -1   8   7  818.63    4.87
  -1  10  10   43.52    2.02
  -1  11  12   12.01    1.96
   0  -8  -4  382.53    3.69
   0  11  14  385.78    4.19
   0  12  17   63.54    3.11
   2 -12   1   14.50    2.39
   2  -6   1  608.78    4.53
   2   6  11  173.34    4.43
   3  -9   6   22.19    2.68
   3  -8   6    6.81    2.49
  -5   1   0    6.40    2.34
  -5   5   4   38.04    2.76
  -5   6   5   39.21    2.59
  -4  -9  -6   19.68    3.08
  -4   2   0    8.21    1.80
  -4   5   3   72.13    1.99
  -4   6   4   34.62    2.17
  -4   9   8  128.72    3.16
  -4  10  10   15.29    2.05
  -3  10   9  137.95    2.75
  -3  11  11   56.67    1.91
  -2 -16  -6  110.89    3.33
  -2  -9  -6   27.10    1.88
  -2  -6  -5  702.94    7.87
  -2   1  -1  791.39    7.50
  -2   8   6  311.49    3.23
  -1 -16  -5   11.11    2.35
  -1   9   8   22.46    1.74
  -1  12  14   30.85    1.80
   0 -14  -4  156.50    2.93
   0   8   8   64.83    2.11
   0  12  16   30.47    2.42
   1 -15  -1   97.37    2.96
   1 -13  -2    3.68    1.53
   1 -12  -2    3.60    1.82
   1  -5  -1  508.91    4.73
   1  11  18    0.87    2.64
   2 -13   2   66.15    2.92
   2 -11   1   67.58    2.13
   2 -10   1   68.35    2.40
   2  -9   1  314.36    3.57
   2  -8   1  143.64    2.69
   2  -7   1  241.10    3.18
   3  -7   6   88.45    2.92
   3  -3   7   15.61    2.20
  -6  -2  -1   73.89    3.88
  -5   7   6   88.17    2.94
  -4  -2  -3  180.09    4.45
  -4   7   5   50.80    2.34
  -2 -15  -6  145.19    3.27
  -2  13  15   12.50    2.80
  -1 -15  -5   53.80    2.62
  -1  11  11  177.42    2.83
   0 -16  -3   73.61    2.73
   0 -13  -4   16.90    1.88
   0 -12  -4  541.15    4.20
   0 -11  -4  173.97    2.75
   0 -10  -4  688.44    4.73
   0  10  11   97.06    2.39
   0  11  13   10.33    2.00
   1 -14  -1   62.99    2.62
   1 -11  -2   77.35    1.88
   1   9  12  326.68    4.12
   1  10  14   47.76    2.49
   1  11  17   77.55    3.17
   3  -4   7   22.71    2.61
  -5  -8  -5  144.53    8.21
  -5  -5  -4   19.98    4.62
  -5  -3  -3  100.61    4.35
  -5   0  -1   79.83    3.00
  -4   1  -1   75.39    2.56
  -4   8   6  120.89    2.89
  -4  10   9   24.50    2.66
  -3 -16  -6   49.56    3.19
  -3   0  -2    0.58    1.84
  -3  11  10    7.99    2.12
  -3  12  12    7.80    2.45
  -2 -14  -6  177.91    3.35
  -2   9   7    0.90    1.58
  -2  11  10    1.46    1.83
  -2  12  12   35.25    2.36
  -2  13  14   27.53    2.45
  -1 -17  -4   25.88    2.59
  -1 -14  -5    4.26    2.03
  -1  -9  -5  187.91    3.03
  -1   4   2  819.44    6.15
  -1   5   3    2.00    0.99
  -1  12  13  154.23    2.57
   0 -15  -3   77.86    2.62
   0  -6  -3  360.97    4.10
   0   9   9 1106.74    6.04
   0  12  15   54.23    2.66
   1 -15   0   63.92    3.01
   1  -3   0   15.33    1.43
   2 -11   2  144.35    3.08
   2  -5   2  183.88    3.04
   3  -6   7   70.37    2.86
  -5   8   7    2.71    2.07
  -4   9   7   -0.80    2.18
  -3 -15  -6    6.09    3.13
  -3  -9  -6   10.49    2.21
  -3   5   2  244.14    3.21
  -3   6   3   93.57    2.41
  -3  10   8   53.36    2.25
  -2 -13  -6  141.31    2.83
  -2 -12  -6   40.07    2.11
  -2 -11  -6   88.36    2.43
  -2  10   8  109.01    2.23
  -1 -10  -5  104.83    2.45
  -1   7   5  411.69    3.64
  -1  10   9  287.04    3.00
  -1  13  15   19.87    1.90
   1 -13  -1   77.01    2.01
   1 -12  -1  183.97    2.83
   1  -6  -1  276.84    3.47
   1   4   5  443.81    6.89
   1   5   6  185.13    3.89
   1  11  16   17.65    2.67
   2 -12   3    5.41    2.40
   2 -10   2  157.82    2.83
   2  -6   2   33.08    1.96
   2  -1   4  640.29    7.12
   3  -7   8    1.11    2.60
   3  -1   9   62.76    3.14
   3   2  12    1.13    3.43
  -6  -3  -2   -1.00    3.77
  -6   0   0    0.66    2.90
  -5   4   2    1.81    2.18
  -5   5   3   77.56    2.85
  -4 -14  -6    5.09    2.86
  -4 -10  -6    0.72    2.25
  -3 -14  -6   87.49    3.41
  -3   4   1  481.48    4.47
  -2 -16  -5   -0.98    2.67
  -2   5   2  533.92    4.48
  -2   6   3   39.31    1.87
  -2  12  11  205.01    3.10
  -1 -12  -5    2.87    1.34
  -1 -11  -5  189.15    2.70
  -1   3   1   91.85    2.49
  -1   8   6  226.89    2.71
  -1  12  12   55.04    2.37
  -1  13  14  266.75    3.50
   0 -13  -3   57.27    2.22
   0  -7  -3  101.24    2.36
   0   5   4  311.26    3.95
   0  11  12  178.24    2.56
   0  12  14  120.52    2.98
   1 -14   0    0.44    1.89
   1   6   7  910.30    7.26
   1  10  13   15.18    2.18
   2  -7   2   21.82    1.79
   2   7  12  140.52    4.06
   2   8  14   -0.93    2.51
   2   9  17   39.44    4.15
   3  -4   8   50.00    2.66
  -5  -1  -2    2.14    2.41
  -5   3   1   87.73    2.90
  -5   7   5   10.06    2.73
  -4 -13  -6    3.75    2.57
  -4 -12  -6   22.23    3.00
  -4 -11  -6    1.79    2.49
  -4   0  -2   56.76    2.83
  -4   5   2   15.33    1.87
  -4   6   3  114.32    2.68
  -4   7   4  148.51    2.79
  -4  10   8   60.96    2.31
  -3 -13  -6   82.59    2.77
  -3 -10  -6    6.03    1.86
  -3   3   0   24.94    1.77
  -3   9   6  185.89    2.83
  -3  11   9    7.75    1.59
  -2  -4  -4   41.86    3.47
  -2   4   1  582.49    4.90
  -2   7   4  301.11    3.06
  -2   8   5    3.66    1.59
  -2  11   9   11.85    1.84
  -1  -6  -4  307.58    4.31
  -1   9   7  268.18    3.09
  -1  11  10   -0.70    1.45
  -1  14  16   55.76    2.82
   0 -16  -1   84.00    3.20
   0 -15  -2    1.52    1.67
   0 -12  -3  216.42    3.02
   0  -4  -2 1477.28    9.38
   0   4   3  567.92    5.81
   0   7   6  707.69    5.14
   0  10  10  157.14    2.48
   0  13  16   59.45    2.79
   1 -13   0  148.72    2.82
   1   3   4   24.55    2.89
   2 -10   3    0.84    2.19
   3  -6   9   37.59    2.98
   3   3  14   13.22    4.74
  -6  -1  -1   69.11    4.01
  -5   2   0    3.70    2.40
  -5   8   6   47.46    3.02
  -4   8   5   21.93    2.14
  -4  11   9   -1.02    2.69
  -3 -12  -6   70.73    2.63
  -3 -11  -6   78.38    2.71
  -3  13  12   15.57    2.58
  -2 -15  -5    0.50    1.87
  -2   9   6  539.71    4.00
  -2  13  12    2.02    1.97
  -1 -16  -3   23.11    2.82
  -1 -14  -4   93.69    2.59
  -1  10   8  449.13    3.77
  -1  13  13  101.03    2.58
   0 -14  -2   30.71    2.29
   0  -9  -3    8.83    1.52
   0   8   7  735.48    4.91
   0  12  13   16.00    1.99
   1 -12   0   65.78    2.32
   2  -9   3   49.19    2.34
   2  -4   3  196.96    3.12
   2   5   9   58.38    3.60
   2   9  16    3.64    3.18
   3  -6  10    4.58    3.14
   3  -3   9   33.86    2.73
  -4   3   0    4.14    1.74
  -3  -6  -5  587.47    8.69
  -3   2  -1  382.58    4.37
  -3  10   7    0.92    1.41
  -3  12  10   71.00    2.09
  -2 -16  -4  152.80    3.57
  -2 -14  -5   13.30    2.31
  -2   0  -2   78.21    3.03
  -2   3   0   21.11    1.79
  -2  10   7  391.19    3.52
  -2  12  10    7.45    2.13
  -2  14  14    0.62    2.01
  -1 -13  -4  374.81    3.78
  -1  12  11  228.04    2.81
  -1  14  15   -0.09    2.49
   0 -15  -1   57.74    2.77
   0   3   2 2413.09   13.34
   0  11  11  257.41    3.26
   0  13  15   40.52    2.80
   1 -14   2  136.17    3.49
   1 -11   0    1.15    1.82
   1   8   9  288.61    3.80
   1  11  14  243.53    3.76
   1  12  17   96.86    3.53
   2 -11   5    1.40    2.65
   2 -10   4  217.16    3.48
   2  -7   3   63.37    2.28
   2  -6   3  195.97    3.18
   2  -5   3  230.07    3.31
   3  -1  10    4.23    2.18
  -4  10   7    4.09    2.41
  -3 -15  -5   31.26    2.80
  -3  13  11   30.69    2.41
  -2 -13  -5    5.48    1.97
  -2  -8  -5  530.78    5.39
  -1 -12  -4  635.92    4.63
  -1  -7  -4  580.08    5.18
  -1  11   9  689.88    4.62
   0 -13  -2   20.66    1.58
   1  -5   0  450.77    4.39
   1  12  16  180.70    3.66
   2  -9   4   61.76    2.52
   2   0   5  610.66    7.53
   2   6  10  612.70    8.19
   2   9  15   19.23    2.95
   3  -4  10    0.20    2.28
   3  -3  10    1.39    2.44
   3  -2  10   24.81    2.53
   3   0  11    9.00    2.59
   3   2  13   49.61    4.38
  -6   1   0   11.14    2.99
  -5  -9  -5   50.79    4.40
  -5   5   2    3.02    2.16
  -5   6   3   84.02    3.01
  -5   8   5   30.53    2.64
  -4   2  -1  305.85    4.07
  -3 -14  -5   76.30    2.89
  -3  -1  -3  475.70    6.96
  -3   6   2   75.19    2.32
  -3   7   3  304.22    3.40
  -3   8   4  222.83    3.02
  -2 -15  -4  103.34    2.99
  -1 -16  -2    3.51    1.93
  -1 -11  -4   20.84    1.87
  -1  -8  -4  662.40    5.20
  -1   7   4  587.20    4.47
  -1   8   5   -0.25    1.47
   0 -14  -1  167.15    2.61
   0 -12  -2  447.97    3.87
   0  -5  -2 2016.02    9.87
   0  -2  -1  139.17    4.04
   0  10   9  301.18    3.16
   0  12  12   81.27    2.49
   1 -13   2   62.70    2.63
   1 -12   1  157.66    2.55
   1  -6   0    8.68    1.51
   1   0   2 2386.63   19.76
   1   9  10    1.58    1.59
   2 -10   5   26.38    1.97
   2  -8   4  209.67    3.33
   3  -4  11   74.62    3.31
   3  -3  11   31.79    2.92
   3   1  12    9.99    2.80
  -5 -11  -5   62.25    4.06
  -5 -10  -5  183.27    5.43
  -4 -14  -5   10.38    2.83
  -4   6   2    4.80    1.73
  -4   7   3   37.26    2.25
  -4   8   4   19.70    2.08
  -3   5   1  250.05    3.31
  -3   9   5    1.08    1.31
  -3  10   6  157.40    2.86
  -2 -16  -3   24.11    2.87
  -2 -10  -5   69.31    2.25
  -2  -9  -5  718.27    5.57
  -2   8   4  449.14    3.78
  -2  12   9   80.79    2.40
  -1 -14  -3  132.11    2.42
  -1 -10  -4  914.78    5.47
  -1  -9  -4  287.96    3.45
  -1   6   3   -0.36    1.07
  -1  12  10    1.36    1.45
   0 -11  -2  124.02    2.36
   0  11  10   90.86    2.27
   0  14  16  190.14    3.80
   1 -13   3   -1.35    2.64
   1  11  13   48.49    2.42
   1  12  15  103.01    2.97
   2 -10   6   27.19    2.50
   2  -9   5   37.13    2.35
   2  -7   4  423.31    4.11
   3  -2  11  177.78    4.13
   3   0  12   -0.24    2.94
  -6  -2  -2   11.62    3.61
  -5  -2  -3  143.87    4.51
  -5   3   0    1.94    2.03
  -4 -13  -5   78.99    3.48
  -4  -1  -3  284.40    5.14
  -4   5   1  117.94    2.67
  -4   9   5   34.53    1.82
  -4  10   6   17.43    2.50
  -3 -13  -5   10.31    2.24
  -3  11   7   58.45    2.31
  -3  13  10   29.51    2.50
  -2 -14  -4   65.41    2.43
  -2   2  -1  561.28    5.71
  -2   6   2  140.97    2.61
  -2   9   5    0.75    1.15
  -2  10   6  242.88    3.00
  -2  14  12   11.50    2.51
  -1 -16  -1   51.53    2.51
  -1 -15  -2   75.24    2.43
  -1   5   2  777.17    5.44
  -1  10   7  110.94    2.03
  -1  14  13   27.96    2.51
   0 -15   1   50.39    2.32
   0 -14   0   -0.34    2.05
   0  -6  -2  705.00    5.45
   0  13  13  195.63    3.14
   1 -13   4   65.21    3.21
   1 -12   2    1.40    1.72
   2 -10   7   29.12    2.73
   2  -4   4  191.64    3.14
   2   7  11   -0.07    2.27
   3  -2  12    0.14    2.59
   3  -2  13   19.62    3.43
   3  -1  12    3.67    2.89
   3   2  14   11.02    3.63
  -6   0  -1   35.17    3.31
  -5   0  -2    3.40    2.15
  -4   1  -2   21.63    2.33
  -4  11   7    0.84    2.66
  -3 -15  -4  134.53    3.36
  -3 -12  -5  187.39    3.35
  -3   1  -2    5.20    1.69
  -3   4   0  150.41    2.86
  -2 -15  -3  162.63    3.27
  -2 -13  -4  347.65    3.86
  -2  11   7   10.32    1.84
  -1  11   8  206.11    2.95
   0 -12  -1   78.75    2.31
   0  -7  -2  421.35    4.08
   0   7   5  919.46    5.91
   0   8   6  148.55    2.63
   0   9   7  242.57    3.11
   0  12  11  273.22    3.40
   0  14  15    4.26    2.50
   1 -12   3   38.86    2.48
   1 -11   2  168.07    2.97
   1  13  17   78.38    3.45
   2  -8   5   14.50    1.67
   2   9  14  111.07    3.73
   3  -1  13   63.11    3.65
   3   2  15   29.97    4.31
  -5   7   3   43.81    2.59
  -5   8   4    0.38    2.40
  -4 -12  -5  186.36    3.77
  -4  -3  -4   49.53    4.19
  -4   4   0    2.09    1.75
  -3 -11  -5  120.35    2.96
  -2 -16  -2    0.58    2.09
  -2   5   1  166.18    2.58
  -2  12   8  358.98    3.43
  -2  14  11  112.49    2.95
  -2  15  13   86.96    3.23
  -1 -15  -1  127.18    3.01
  -1 -14  -2   21.80    1.84
  -1 -12  -3   37.21    1.61
  -1  12   9   75.15    2.36
  -1  14  12    1.06    2.08
   0 -13   0    3.96    1.87
   0   6   4  310.69    3.66
   0  10   8   54.34    2.13
   1  -9   1  452.21    3.64
   1  -3   1  457.35    5.14
   1   7   7  761.18    6.41
   1  11  12  265.13    3.59
   1  12  14  131.61    3.09
   2  -9   7   82.34    2.61
   2  -9   8   11.26    2.85
   2  -8   6   96.90    2.75
   2  -7   5    1.64    1.68
   2  10  16   31.78    3.47
  -5   2  -1  176.42    3.78
  -5   6   2    7.20    2.34
  -4 -11  -5   45.24    2.68
  -3 -14  -4  195.05    3.34
  -3 -10  -5  115.96    2.95
  -3  -8  -5  292.74    4.75
  -3   3  -1  503.39    4.70
  -3   9   4   56.80    2.21
  -3  10   5    7.24    2.04
  -3  13   9   -0.33    1.71
  -2 -14  -3    0.29    2.15
  -2 -12  -4  134.90    2.70
  -1 -11  -3   62.35    2.11
   0  11   9  244.71    3.17
   0  13  12  131.04    2.77
   0  14  14   68.54    3.00
   1 -12   4  133.65    2.84
   1 -11   3   12.52    2.25
   1  -8   1  186.65    2.55
   1   6   6   34.48    2.00
   1   8   8    4.85    1.51
   1  13  16   96.37    3.41
   2  -6   5    0.64    1.93
  -5   5   1   84.79    2.93
  -4 -10  -5  309.58    4.86
  -4  -9  -5  124.67    3.71
  -4  -8  -5   83.75    3.51
  -4   7   2   28.33    2.25
  -4   8   3   85.58    2.51
  -4   9   4   55.14    2.49
  -4  10   5   89.57    2.79
  -3 -15  -3   22.11    3.07
  -3  -9  -5  223.47    3.73
  -3   7   2   72.03    1.87
  -3  11   6  241.01    3.34
  -3  14  10   52.05    2.90
  -2 -15  -2  107.85    2.83
  -2 -11  -4  402.80    4.06
  -2   4   0  918.50    6.14
  -2  13   9  100.01    2.24
  -2  15  12    8.04    2.72
  -1 -15   0   31.57    2.18
  -1 -14  -1  176.12    3.21
  -1 -10  -3   43.95    2.02
  -1   8   4  202.09    2.78
  -1   9   5   10.86    1.61
  -1  10   6  223.69    2.84
   0 -13   1  172.99    2.89
   0 -12   0    1.58    1.28
   0   2   1  135.24    4.07
   0   5   3  222.80    3.38
   1 -12   5   59.09    2.42
   1  -5   1  557.03    4.73
   1   9   9  446.30    4.45
   2  -8   7   48.79    2.21
   2  -8   8    0.26    2.59
   2  -7   6  147.34    2.95
   2  -5   5   87.17    2.51
   2  -4   5   20.61    1.88
  -6  -1  -2    9.64    3.82
  -5   4   0   30.17    2.53
  -4   6   1  311.74    3.71
  -4  11   6   45.57    2.22
  -4  12   7    3.92    2.48
  -3 -13  -4  143.80    3.03
  -3   6   1  289.23    3.21
  -3  12   7   62.05    2.06
  -2 -13  -3   37.10    2.25
  -2   8   3  187.57    2.81
  -2   9   4  298.83    2.97
  -2  10   5  129.91    2.44
  -2  11   6  208.83    2.88
  -2  14  10    8.64    2.33
  -1 -15   1   54.81    3.14
  -1 -12  -2  195.79    2.94
  -1  -9  -3   37.10    1.90
  -1  -5  -3  584.89    6.22
  -1   1  -1 1124.04   10.34
  -1   7   3   12.14    1.51
  -1  11   7   18.99    1.77
  -1  14  11  108.37    2.87
  -1  15  13  195.10    2.99
   0 -14   3   -0.15    1.97
   0  -3  -1    0.57    1.51
   0  14  13    6.65    2.44
   0  15  15    0.59    2.43
   1 -11   4  163.27    2.73
   1 -10   3    0.16    1.95
   1  -9   2   96.74    2.03
   1  12  13    0.82    2.00
   1  13  15   11.11    2.57
   2  -8   9   57.06    3.33
   2  -7   7    6.30    2.28
   2  -6   6  102.76    2.59
   2   9  13   40.10    2.90
  -5   1  -2   39.07    2.88
  -4 -13  -4  124.30    3.32
  -3 -14  -3   -0.78    2.44
  -3   5   0   67.28    2.15
  -3  13   8   67.33    2.19
  -2 -15  -1  140.36    3.32
  -2 -14  -2   60.72    2.56
  -2 -10  -4 1081.42    6.31
  -2   7   2  154.24    2.68
  -2  12   7    7.75    1.83
  -1 -14   0    2.71    2.29
  -1  -8  -3  101.46    2.35
  -1  -7  -3  239.68    3.49
  -1  -6  -3   22.42    1.73
  -1  12   8   61.68    1.87
   0 -12   1  163.18    2.68
   0 -11   0   75.33    1.86
   0  13  11  147.51    2.87
   1 -11   5    5.59    2.61
   1  -8   2  234.24    3.06
   1  11  11   54.40    2.27
   2  -7   8   30.92    2.57
  -5 -11  -4   41.88    3.66
  -5  -1  -3   97.37    3.88
  -5   7   2    1.96    2.52
  -5   8   3   43.18    2.47
  -4   0  -3  174.27    4.05
  -4   5   0    4.82    1.83
  -3 -12  -4   64.09    2.35
  -3  14   9    1.35    1.89
  -2 -12  -3   34.94    2.09
  -2  -9  -4    0.99    1.57
  -2   1  -2 1007.13    8.66
  -2  13   8  157.29    2.87
  -2  15  11   43.88    2.19
  -1 -11  -2    1.33    1.67
  -1   3   0   16.68    1.75
  -1   6   2  934.80    5.67
  -1  13   9   86.22    2.50
  -1  15  12   29.57    2.61
   0 -13   3    4.24    2.37
   0   8   5   66.24    2.07
   0   9   6  114.78    2.39
   0  10   7  187.24    2.87
   0  15  14   41.30    2.51
   1 -11   6   34.32    2.59
   1 -11   7   27.09    2.96
   1 -10   4   96.21    2.46
   1  -9   3  182.85    3.01
   1  14  16   34.62    2.79
   2  -5   6  273.60    3.44
  -5   3  -1   16.64    2.48
  -5   6   1   24.39    2.60
  -4 -12  -4   66.84    2.87
  -4   2  -2   57.13    2.46
  -4   9   3   92.58    2.71
  -4  10   4   28.54    2.39
  -4  11   5   10.32    2.50
  -3   0  -3  554.03    6.68
  -3   2  -2   13.13    1.69
  -3   9   3  164.95    2.86
  -3  11   5  101.42    2.70
  -3  12   6   75.78    2.69
  -2 -15   0    8.60    2.74
  -2  -8  -4  620.34    5.33
  -2  -7  -4  137.99    3.02
  -2   3  -1  823.87    6.25
  -2   6   1  392.81    3.68
  -1 -14   1   68.44    2.61
  -1 -12  -1  187.04    2.96
  -1  14  10   25.97    2.33
   0 -13   4   50.09    2.88
   0 -12   2  227.12    3.13
   0 -11   1  106.27    2.37
   0  -7  -1  187.42    2.65
   0  -5  -1  403.86    4.44
   0  -4  -1    2.78    1.07
   0   4   2 1441.22    9.03
   0  12   9  317.35    3.37
   0  14  12   35.88    2.30
   1 -10   5    4.86    2.31
   1  -7   2    3.89    1.17
   1  12  12  116.22    2.83
   2  -7  10   24.79    2.30
   2  10  14  136.02    3.71
   2  11  16   15.05    3.56
  -6  -3  -3    9.98    4.92
  -5 -10  -4    0.72    3.20
  -4   8   2    6.87    2.17
  -3 -14  -2    0.50    2.71
  -3 -13  -3   52.26    2.34
  -3 -11  -4  266.22    3.64
  -3   4  -1  289.71    3.62
  -3   8   2    7.81    1.34
  -3  13   7   27.45    2.51
  -2 -14  -1  106.78    2.68
  -2 -13  -2  196.66    2.69
  -2 -11  -3   38.89    2.06
  -1 -14   2    3.74    2.61
  -1 -13   0   20.21    1.64
  -1 -10  -2 1095.53    5.84
  -1   5   1  501.69    4.60
  -1  10   5    7.01    1.54
  -1  11   6  105.63    2.26
  -1  16  13   30.57    2.72
   1  -9   4  113.33    2.64
   1   9   8    9.41    1.60
   1  14  15   -0.46    2.31
   2  -6   9  106.22    3.01
   2  -5   7   60.54    2.21
  -6   0  -2   18.69    3.44
  -4 -13  -3   -0.33    2.52
  -4 -11  -4  101.07    3.10
  -4   7   1   98.98    2.88
  -3 -10  -4   52.04    2.51
  -3   7   1  144.15    2.35
  -2   5   0    5.40    1.54
  -2   9   3   83.71    2.23
  -2  10   4   22.16    1.42
  -2  11   5   56.81    1.69
  -2  12   6   86.28    1.96
  -2  13   7    1.88    1.88
  -1 -14   3    1.99    2.69
  -1 -13   1  183.30    3.12
  -1   9   4  850.72    4.77
  -1  13   8  187.21    2.83
   0 -11   2   16.28    1.95
   0  13  10   12.46    1.59
   1 -10   8   11.50    2.83
   1  -5   2   -0.76    1.39
   1   8   7  594.51    5.27
   1  10   9  296.14    3.63
   1  11  10   11.27    1.74
   1  13  13   71.96    2.63
   2  -6  10    1.27    2.46
   2  -5   8   21.02    2.10
   2  11  15   46.42    3.45
  -5  -9  -4   23.52    3.28
  -5   2  -2   83.22    3.38
  -5   8   2    6.28    2.50
  -3 -12  -3   17.05    2.11
  -2 -14   0    4.79    2.39
  -2 -13  -1  101.10    2.77
  -2 -12  -2  255.65    3.42
  -2 -10  -3    4.13    1.68
  -2   8   2  195.51    2.82
  -2  14   8   36.50    2.35
  -1 -12   0   38.00    2.24
  -1 -11  -1  316.18    3.11
  -1  -9  -2  689.34    4.79
  -1   8   3  629.06    4.28
  -1  14   9  123.53    2.86
  -1  16  12    1.82    2.54
   0 -10   1  407.97    3.36
   0   6   3  369.33    4.06
   1  -9   5    2.45    1.40
   1  -8   4  410.24    3.75
   1  -4   2  236.12    3.41
   1  -3   2    0.14    1.38
   1  -2   2  264.31    4.25
   1   4   4   89.24    3.15
   1   7   6   25.78    1.85
   1  12  11  117.34    2.63
   2  -4   7   12.02    1.40
   2  12  17   24.51    3.79
  -5   4  -1   51.30    2.81
  -4 -12  -3   63.79    3.22
  -4 -10  -4   12.44    2.33
  -4  10   3   61.25    2.56
  -4  11   4    1.89    2.35
  -3 -14  -1   47.58    2.68
  -3 -13  -2  321.81    4.11
  -3  -9  -4  202.72    3.62
  -3   6   0    8.11    1.34
  -3  10   3  225.43    3.08
  -3  11   4   34.75    2.25
  -3  13   6   20.89    2.29
  -2 -14   1  134.37    3.40
  -2  15   9   12.04    2.40
  -1 -13   2   85.10    2.78
  -1   7   2  700.33    4.80
  -1  15  10   67.60    2.51
   0 -12   5    2.72    1.97
   0 -12   6   32.89    2.97
   0 -11   3   58.33    2.31
   0  10   6  574.61    4.38
   0  11   7  333.23    3.46
   0  12   8   -0.86    1.61
   0  15  12   -0.56    2.13
   0  16  14  106.47    3.32
   1  -9   6   61.02    2.43
   1  14  14  316.57    4.38
   1  15  16   93.54    3.52
   2  -5  10    2.62    2.24
   2  -5  12    0.08    2.72
   2  -4   8  183.87    3.14
   2  10  13   25.35    2.44
  -5  -8  -4    7.15    3.08
  -5   0  -3   40.02    3.08
  -4 -13  -2   81.90    3.16
  -4  -2  -4  213.10    6.09
  -4   1  -3   92.33    3.08
  -4   3  -2   10.02    2.03
  -4   9   2    1.54    2.29
  -3   9   2   -0.42    1.82
  -2  -1  -3  494.30    9.23
  -2   7   1  638.67    4.47
  -2  16  10   61.27    3.08
  -1 -13   3   52.00    2.69
  -1 -12   1   93.79    2.51
  -1 -10  -1   95.75    2.21
  -1  -8  -2  368.78    3.62
   0 -11   4  232.76    3.24
   0 -10   2   -1.60    1.60
   0   9   5    4.35    1.59
   1  -9   7  116.60    2.51
   1  -9   8   27.51    2.60
   1  -8   5    9.24    1.98
   1  -6   3  442.30    4.03
   1  13  12   69.78    2.55
   2  -5  11   58.68    2.42
   2  12  16   26.76    3.43
  -5   6   0   11.06    2.49
  -4  -9  -4   45.75    2.79
  -4   5  -1  132.30    2.87
  -4   8   1   77.63    2.76
  -3 -14   0    2.28    2.44
  -3 -11  -3   12.81    1.88
  -3  -8  -4  850.37    6.86
  -3   3  -2    4.32    1.50
  -3   5  -1  238.23    3.28
  -2 -14   2    3.40    2.15
  -2 -13   0    0.93    1.58
  -2 -12  -1  196.29    3.01
  -2 -11  -2  150.18    2.44
  -2  -9  -3    3.70    1.18
  -2   2  -2  141.29    3.34
  -2   4  -1  611.56    5.04
  -2  11   4  250.06    3.09
  -2  12   5    3.95    1.85
  -2  14   7    8.42    1.97
  -1 -13   4   28.24    2.81
  -1 -11   0  132.25    2.28
  -1  -7  -2 1046.49    6.37
  -1   4   0  354.41    3.98
  -1  10   4  223.84    2.76
  -1  11   5   31.66    1.81
  -1  12   6  439.80    3.70
  -1  13   7   36.81    2.06
   0 -11   5    4.60    2.24
   0   8   4  381.50    3.76
   0  14  10   16.63    2.04
   0  16  13  169.29    3.57
   1  -8   6  147.99    2.84
   1   2   3 1231.52   23.43
   1  14  13   58.29    2.50
   2  11  14   72.72    3.11
  -6  -2  -3   31.20    5.15
  -5  -7  -4    2.19    3.04
  -4 -11  -3    0.56    2.18
  -3 -13  -1   82.72    2.80
  -3 -12  -2  131.84    2.87
  -3   1  -3  178.13    3.80
  -2 -13   1  158.43    3.20
  -2   6   0   33.93    1.86
  -2  10   3  373.94    3.30
  -2  15   8  132.89    3.10
  -1 -12   2  110.42    2.57
  -1  -9  -1  232.28    3.07
  -1   2  -1  743.55    6.99
  -1   6   1  302.12    3.46
  -1   9   3    2.85    1.46
  -1  14   8   18.58    1.67
   0 -11   7   14.00    2.94
   0 -10   3  242.55    2.73
   0  -6   0  454.68    4.22
   0   5   2 2010.19    9.48
   1  -8   7   15.03    2.16
   1   9   7  614.21    5.03
   1  11   9  281.21    3.50
   1  12  10   37.90    1.98
   2  -4  10    6.61    2.00
   2  -4  12   28.17    2.76
   2  -1   7    2.62    1.63
   2   5   8  410.30    9.72
  -5 -10  -3  107.69    3.92
  -5   5  -1   52.77    2.68
  -4 -12  -2   34.83    2.62
  -4  12   4    0.53    2.59
  -3 -10  -3   32.78    2.09
  -3  -7  -4   58.12    2.70
  -3   7   0    5.54    1.82
  -3  12   4    6.87    2.19
  -3  14   6   16.96    2.42
  -2 -10  -2  328.82    3.57
  -2   9   2   90.05    1.92
  -2  16   9    5.94    2.65
  -1 -12   3   66.68    2.56
  -1 -11   1  542.06    4.11
  -1 -10   0   32.96    1.86
  -1  -6  -2  744.49    5.85
  -1  16  10   56.13    2.56
   0 -10   4  190.27    2.88
   0   7   3   99.98    2.30
   1  -8   8   16.92    2.33
   1  -8   9   39.27    2.63
   1  -8  10   -1.06    2.70
   1  -7   5    0.24    1.19
   1  -6   4  288.23    3.36
   1  13  11  316.57    3.84
   1  15  14   87.83    3.09
   2   8  10  426.01    6.10
   2   9  11    0.80    1.84
   2  10  12  136.29    3.74
   2  12  15   19.47    2.86
  -5  -6  -4    3.38    3.44
  -4  -8  -4    2.97    1.83
  -4  10   2    1.19    2.39
  -3 -13   0   52.28    2.55
  -3  10   2    0.94    1.95
  -2 -13   2   35.87    2.50
  -2 -12   0   96.20    2.15
  -2 -11  -1  216.05    3.09
   0 -10   5   13.42    2.18
   0  -5   0  924.44    6.16
   0  16  12    8.51    1.78
   1  -4   3  642.46    5.00
   1  14  12   69.50    2.67
   2  -3  10   41.57    2.37
   2  -3  13    7.70    2.74
   2  11  13    8.74    2.79
  -5  -5  -4   19.60    4.39
  -5   7   0   18.28    2.65
  -4 -10  -3   64.68    2.79
  -4   2  -3  166.86    3.73
  -4   6  -1   46.32    2.28
  -4   9   1   59.60    2.82
  -3 -12  -1   64.12    2.42
  -3 -11  -2  258.77    3.37
  -3   4  -2   12.73    1.71
  -3   9   1  245.08    3.25
  -2 -13   3  101.11    2.99
  -2 -12   1  124.49    2.93
  -2  -7  -3   88.51    2.41
  -2  12   4   75.24    2.28
  -2  13   5   79.02    2.44
  -2  14   6  119.43    2.80
  -2  15   7    6.79    2.10
  -1 -12   5    1.40    2.26
  -1 -11   2   17.56    1.82
  -1  -8  -1  305.45    3.44
  -1  12   5    6.77    1.83
  -1  13   6  237.13    3.03
  -1  14   7    7.07    1.95
   0 -10   6  158.18    3.17
   0 -10   7  134.94    3.25
   0  -9   3  180.82    2.38
   0  -4   0  238.69    3.66
   0  10   5   88.63    1.95
   0  15  10    1.76    2.12
   0  17  13    7.97    2.72
   1  -7   7   94.25    2.56
   1  -6   5    7.77    1.76
   1  -5   4  729.82    5.11
   1  -3   3 1010.01    6.88
   2  -3  11   64.95    2.59
   2   7   9  301.58    5.84
   2  13  16   26.84    3.52
  -6  -1  -3    9.47    4.40
  -4 -12  -1    6.96    2.63
  -4 -11  -2  316.11    4.32
  -4  -7  -4   21.42    2.41
  -4  -1  -4   21.07    3.01
  -3 -13   1   53.64    2.31
  -3  -9  -3  126.78    2.81
  -3  -5  -4    2.96    2.12
  -3   6  -1  296.32    3.61
  -2  -9  -2   58.20    2.11
  -2   5  -1  298.53    3.60
  -2   7   0    6.75    1.65
  -2  11   3   63.39    1.79
  -2  16   8    9.48    2.67
  -1 -11   3   64.17    2.27
  -1 -10   1  417.18    3.60
  -1  -9   0    7.21    1.67
  -1  11   4  244.66    2.66
   0 -10   8   56.46    2.46
   0  -9   4  110.15    2.51
   0  16  11   33.03    2.56
   1  -7   8   93.82    2.49
   1  -7   9  144.25    3.11
   1  -7  10   13.68    2.55
   1   7   5  110.09    2.65
   1  11   8  100.88    2.37
   1  12   9  293.86    3.58
   1  15  13   11.17    2.49
   2  -1   8  411.72    4.66
  -5  -9  -3   38.25    2.87
  -5   4  -2   52.97    2.85
  -5   6  -1   22.24    2.70
  -4   8   0   20.93    1.84
  -4  12   3   52.18    3.04
  -3 -13   2   -1.50    2.49
  -3 -12   0   24.37    2.45
  -3   2  -3  386.11    4.70
  -3   8   0   18.17    2.00
  -3  12   3  102.26    2.91
  -3  13   4   37.28    2.67
  -3  14   5   16.70    2.73
  -2 -12   2   13.34    2.29
  -2 -11   0   17.07    1.51
  -2 -10  -1    9.39    1.74
  -2   3  -2 1274.62    7.62
  -2  10   2    1.81    1.38
  -1 -11   4   90.90    2.59
  -1   7   1  333.46    3.27
  -1  10   3  116.99    1.97
  -1  17  10   18.59    2.57
   0  -9   5   23.17    1.97
   0  -6   1  122.69    2.40
   0   6   2  707.99    5.33
   1  -6   6  169.18    2.83
   1  10   7  159.88    2.83
   1  13  10   54.71    2.33
   1  14  11   38.86    2.26
   1  16  14   39.23    2.75
   2  13  15  143.59    4.45
  -5 -10  -2   27.22    3.05
  -5  -2  -4   29.76    4.77
  -4 -12   0   37.70    2.86
  -4  -9  -3  185.12    3.53
  -4   5  -2   82.91    2.71
  -4  11   2   26.70    2.81
  -3 -11  -1   25.93    2.26
  -3 -10  -2  485.05    4.31
  -3  -2  -4   32.34    4.18
  -3  11   2    0.84    2.07
  -2 -12   3   35.54    2.64
  -2   0  -3  977.65    9.69
  -2   9   1  143.47    2.50
  -1 -11   5    2.46    2.02
  -1 -10   2   64.39    2.21
  -1  -7  -1   26.31    1.32
  -1   3  -1  451.53    4.82
  -1   9   2  163.59    2.46
   0  -9   6  120.34    2.73
   0   8   3   24.72    1.65
   0  12   6  303.20    3.25
   0  14   8  110.72    2.58
   0  15   9  107.55    2.61
   0  17  12    5.18    2.02
   1  -6   7   16.81    1.98
   1  -6  12   17.37    2.98
   1  -5   5  160.78    2.74
   1   9   6   14.79    1.52
   1  15  12    3.36    2.06
   2  -1   9    2.17    1.82
   2   0   8  355.15    4.79
   2   9  10   61.46    2.91
   2  10  11   24.24    2.26
   2  11  12  163.60    4.00
  -4   3  -3   31.03    2.61
  -4  10   1   36.49    2.79
  -3 -12   1  142.59    3.00
  -3  -8  -3   78.01    2.38
  -3   5  -2  554.81    4.67
  -3  10   1   73.16    2.42
  -2 -12   4   71.66    2.73
  -2 -12   5    6.25    2.79
  -2 -11   1  306.75    3.14
  -2  -8  -2 1347.31    6.95
  -2  16   7    8.03    2.58
  -1 -11   6  126.21    2.51
  -1 -11   7    3.34    1.98
  -1  -8   0  203.41    2.85
  -1  13   5    1.87    1.78
  -1  14   6  108.73    2.63
  -1  15   7    5.55    2.11
   0  -9   7   24.30    1.85
   0  -9   8   30.41    2.45
   0  -9   9  108.74    2.73
   0  -8   4  279.03    3.17
   0  -2   0  473.27    6.70
   0  11   5   18.51    1.73
   0  16  10   12.74    2.26
   1  -6   8  140.12    2.87
   1  -6   9   91.39    2.69
   1  -6  11   19.40    2.80
   2  -1  10   52.59    2.70
   2  12  13   12.67    2.38
  -5  -8  -3   85.34    3.45
  -5   5  -2   18.79    2.98
  -4 -11  -1    6.65    1.72
  -4 -10  -2  143.08    3.07
  -4   9   0   25.72    2.60
  -3 -12   2   24.34    2.51
  -3 -11   0   37.67    2.18
  -3   7  -1   80.03    2.05
  -2 -11   2    6.50    2.04
  -2 -10   0  248.46    3.03
  -2  -9  -1   87.85    2.29
  -2   8   0  126.70    2.50
  -2  11   2   15.09    1.86
  -2  12   3  106.92    2.18
  -1 -10   3  195.03    2.49
  -1   6   0    8.91    1.49
  -1  16   8   98.77    2.48
  -1  17   9   30.84    2.83
   0  -5   1 1378.65    7.33
   0  10   4  701.90    4.67
   0  17  11  123.26    3.34
   1  13   9  186.04    2.88
   2  -1  11   83.35    2.84
   2  -1  12   10.31    2.65
   2  14  16   20.29    3.19
  -5   7  -1    3.89    2.73
  -4   0  -4  100.77    3.59
  -3 -12   3  121.07    3.27
  -3 -10  -1   60.71    2.22
  -3  -9  -2  124.15    2.64
  -3   3  -3  205.83    3.31
  -3   9   0   24.89    2.20
  -3  13   3   61.06    2.93
  -3  14   4    3.68    2.04
  -2   4  -2   53.32    1.99
  -1 -10   4  187.82    2.50
  -1 -10   5   10.63    2.03
  -1  -9   2    8.44    1.61
  -1  -6  -1   95.99    2.16
  -1   8   1  272.60    2.89
  -1  11   3  181.70    2.35
   0  -8   5   22.63    1.51
   0  -8   6  399.45    3.86
   0   7   2  451.26    4.13
   1  -4   5  170.44    2.86
   1  -3   4  260.28    3.53
   1   6   4  319.24    4.28
   1   8   5  541.44    4.76
   1  11   7  432.47    4.07
   1  12   8   12.89    1.47
   1  14  10    0.66    2.14
   1  15  11  201.69    3.39
   2   0   9   40.19    2.25
   2   6   8   65.19    3.54
  -5 -10  -1    2.05    2.62
  -5  -9  -2  137.79    3.49
  -5  -1  -4  101.98    5.04
  -5   3  -3    2.07    2.46
  -4 -11   0   73.74    2.97
  -4  -8  -3  159.53    3.35
  -4  -5  -4  154.50    4.97
  -4   6  -2   22.65    2.08
  -4   8  -1   71.99    2.55
  -4  11   1   16.64    2.55
  -3 -11   1  164.76    3.06
  -3  -1  -4   52.84    3.39
  -3  12   2   15.28    1.89
  -2 -11   3  153.83    2.59
  -2 -11   4   16.55    2.42
  -2 -10   1  177.12    2.82
  -2  -7  -2  898.88    6.02
  -2   1  -3  739.44    7.37
  -2  10   1  279.85    3.28
  -2  15   5   14.02    2.19
  -2  16   6   15.48    2.42
  -1  -7   0  395.63    3.85
  -1   4  -1 1354.90    7.38
  -1  10   2   58.83    1.91
   0  -8   7    4.24    2.11
   0  -8   8  144.47    3.08
   0  -8   9   60.21    2.85
   0  -8  10    2.08    2.03
   0   5   1  399.56    4.30
   0   9   3    9.69    1.54
   0  14   7   81.30    1.97
   1  -5   8  190.36    3.11
   1  -5  11  342.04    4.37
   1  -5  12   10.76    2.39
   1   0   3 2549.77   17.25
   1   3   3  770.03   10.50
   1  10   6  364.94    3.77
   1  16  12   33.38    2.71
   2   0  10  261.36    4.24
   2   0  15    8.76    2.95
   2  11  11  155.40    3.72
   2  14  15    8.73    2.90
  -4 -10  -1    7.34    2.20
  -4  -9  -2  165.20    3.24
  -4   4  -3   54.88    2.44
  -3  -7  -3   88.76    2.55
  -3   6  -2    3.40    1.76
  -3   8  -1  104.32    2.54
  -3  11   1   32.56    1.90
  -2 -11   5    6.02    2.30
  -2 -11   6  141.11    3.40
  -2  -9   0  499.72    4.14
  -2   7  -1  230.84    3.11
  -1  -9   3  287.87    3.14
  -1  13   4   31.03    1.97
  -1  14   5  136.34    2.31
  -1  16   7    1.01    1.76
  -1  17   8   65.94    3.04
   0  -4   1  662.22    5.44
   0  12   5   17.82    1.41
   0  17  10   35.62    2.77
   1  -5   9   64.26    1.99
   1  -5  10    2.31    1.49
   1  -4   6  463.67    4.21
   1  17  13    4.51    2.48
   2   0  11  234.34    4.07
   2   0  13   62.92    3.24
   2   0  14   50.09    3.01
   2  10  10  262.15    4.22
   2  13  13    2.53    2.41
  -5   6  -2   77.33    3.38
  -4 -11   1   16.95    2.39
  -4   1  -4  119.86    3.58
  -3 -11   2    2.59    1.96
  -3 -10   0  275.75    3.48
  -3   4  -3  103.34    2.52
  -3  10   0  106.88    2.60
  -2 -10   2   43.11    2.10
  -2  -8  -1   67.32    1.79
  -2   5  -2  178.49    2.92
  -2   9   0    0.86    1.66
  -2  12   2    5.42    2.03
  -1  -9   4  217.55    2.90
  -1  -5  -1  100.48    2.51
  -1   7   0  119.73    2.08
  -1   9   1  218.12    2.85
   0  11   4  170.04    2.40
   1  -4  13   30.32    2.93
   1  -2   4   71.81    2.34
   1  13   8   56.53    2.17
   1  14   9  197.52    3.26
   1  15  10    4.86    2.02
   2   0  12   32.28    2.39
   2   1   9   56.96    2.58
   2  14  14  102.92    3.50
  -5   0  -4  174.18    5.17
  -5   4  -3   16.05    2.60
  -4 -11   2   24.40    2.72
  -3 -11   3  212.43    3.30
  -3  -9  -1   48.05    2.19
  -3  -8  -2  267.68    3.46
  -3   0  -4   30.06    2.46
  -3  13   2    8.14    2.57
  -2 -10   3  273.89    3.36
  -2   2  -3  877.11    6.89
  -2  11   1  114.34    2.61
  -1   0  -2 2425.31   18.68
  -1   5  -1  580.57    4.66
  -1  11   2   75.77    2.05
   0  -7   6  220.34    3.02
   0  -7  10   21.76    2.60
   0  -5   2  217.55    2.89
   0   6   1   42.19    1.76
   0   8   2  453.00    3.78
   0  10   3   12.39    1.59
   0  14   6  139.28    2.66
   0  16   8  155.26    3.15
   1  -4   7   49.96    2.02
   1  -4  12    0.40    2.57
   1   7   4  559.04    4.83
   1   9   5  191.13    2.76
   1  16  11  184.64    3.55
   2   1  15   71.69    3.34
   2   3   8  312.29    7.25
   2   7   8  257.56    5.10
   2   9   9  210.56    3.97
   2  15  15    3.64    3.32
  -6  -4  -3   46.61    6.02
  -5  -9  -1   13.47    2.78
  -5  -8  -2   51.00    2.84
  -4 -10   0  143.81    2.90
  -4  -7  -3  109.23    2.96
  -4   5  -3   14.92    2.14
  -4   9  -1    2.97    2.41
  -3 -11   4   17.87    1.99
  -3 -10   1   88.61    2.48
  -3   7  -2  267.55    3.41
  -3   9  -1   41.17    2.14
  -3  12   1   86.17    2.77
  -2 -10   4  128.32    2.77
  -2  -9   1  520.84    4.01
  -2  -6  -2  423.26    4.58
  -2  15   4    0.67    2.40
  -1  -9   7    0.97    1.57
  -1  -6   0  656.89    4.95
  -1  15   5   57.22    2.42
  -1  17   7   18.66    2.83
   0  13   5    2.79    1.91
   0  17   9   59.36    2.25
   1  -4   8  398.72    3.70
   1  -4   9   77.21    2.39
   1  -4  10   49.15    2.31
   1  -4  11  148.40    3.10
   1   4   3   82.36    2.92
   1  11   6  278.58    3.33
   2   1  10   74.32    2.73
   2   1  14    3.76    2.43
   2  12  11   16.00    2.19
   2  13  12   54.95    2.85
   2  14  13   36.77    3.11
  -5   1  -4   25.29    3.09
  -5   7  -2   53.80    3.24
  -4  -9  -1    4.79    1.96
  -4  -8  -2  290.65    4.01
  -4   2  -4   60.37    2.48
  -4  11   0   17.98    2.79
  -3   5  -3  132.64    2.69
  -2 -10   5   65.84    2.05
  -2 -10   6   91.18    2.34
  -2 -10   7    3.67    1.91
  -2  -8   0   99.48    2.42
  -2   6  -2   35.97    1.93
  -2   8  -1  147.15    2.31
  -2  10   0    4.08    1.84
  -2  13   2    0.51    2.21
  -1   1  -2 1609.83   11.63
  -1   8   0   61.95    1.94
  -1  10   1  569.35    4.06
  -1  13   3  214.84    2.81
  -1  14   4  116.50    2.20
   0  -6  12    1.34    2.70
   0  12   4  547.26    4.11
   1  -3   6  326.10    3.75
   1  -3  14   60.99    2.92
   2   1  11  282.55    4.27
   2   1  12   36.34    2.73
   2   2   9    6.27    2.13
   2   2  16   15.17    2.93
   2  15  14  163.21    4.47
  -4 -10   1   56.97    2.45
  -4  -4  -4    2.79    2.86
  -4   8  -2   21.53    2.31
  -3 -10   2    2.66    1.45
  -3  -9   0  226.90    3.11
  -3  11   0   24.24    1.77
  -2  -9   2   68.87    1.79
  -2  -7  -1   21.37    1.62
  -2   3  -3  709.16    5.66
  -1  -8   4   98.00    2.23
  -1  -8  10    5.27    2.71
  -1   2  -2  253.36    4.10
  -1   6  -1  475.62    4.10
   0  -6  11  136.86    3.17
   0  -5   3 1150.87    6.18
   0  -3   1  388.43    4.64
   0   3   0 1418.22    9.17
   0   7   1  193.47    2.81
   0   9   2  533.95    3.92
   1   8   4  656.91    4.91
   1  10   5  106.59    2.44
   1  13   7   35.21    2.01
   1  14   8  142.31    2.52
   1  16  10   -0.54    2.52
   1  17  11   20.71    2.59
   2   8   8  155.52    3.86
   2  10   9  291.50    4.21
  -5  -9   0   51.47    3.17
  -5   2  -4   56.92    3.30
  -4 -10   2   90.78    3.05
  -4   3  -4  125.10    3.08
  -4   6  -3    1.29    1.94
  -4  10  -1    3.75    2.63
  -3 -10   3  107.20    2.31
  -3 -10   4   31.76    2.57
  -3  -8  -1   97.45    2.32
  -3  -7  -2  178.39    3.05
  -3   2  -4  629.22    6.16
  -3   8  -2  103.41    2.62
  -3  10  -1   30.49    2.08
  -3  13   1   23.48    2.65
  -2  -9   3  197.74    2.93
  -2  12   1  211.33    2.75
  -1  -8   7   34.57    2.13
  -1  -8   8  203.18    3.25
  -1  -8   9   18.74    2.28
  -1  12   2    2.21    1.32
  -1  17   6   41.26    2.61
   0  -6   6  354.86    3.42
   0  -6  10   57.69    2.39
   0  -4   2  235.63    3.32
   0  11   3  249.26    2.72
   0  15   6  166.17    2.64
   0  16   7   -0.07    1.71
   0  17   8   67.54    2.31
   1  -3   7   -0.19    1.12
   1  -3  12   54.57    2.66
   1  12   6  253.59    3.26
   2   2  15   67.63    3.25
   2  13  11  135.73    3.31
   2  14  12  191.00    3.88
  -5  -8  -1   11.39    2.54
  -5  -7  -2   19.77    2.78
  -4 -10   3  105.26    3.16
  -4  -9   0   95.82    2.67
  -4  -6  -3  194.78    4.05
  -3 -10   5   73.34    2.43
  -3 -10   6   97.61    2.70
  -3  -9   1  214.13    3.13
  -2  -9   4   75.61    2.26
  -2  -9   5   45.40    2.33
  -2  -8   1  385.83    3.70
  -2  -3  -3  933.21   12.16
  -2   4  -3  197.01    3.02
  -2   7  -2   19.69    1.87
  -2   9  -1  316.57    3.12
  -2  11   0   55.26    2.36
  -2  14   2    9.28    2.28
  -2  15   3   58.67    2.29
  -1  -6   1  344.59    3.60
  -1   9   0    1.83    1.50
  -1  11   1  281.56    3.15
  -1  15   4    2.78    2.14
  -1  16   5   45.89    2.03
   0  13   4   16.86    1.97
   1  -3   8  147.11    2.48
   1  -3   9  170.83    2.97
   1  -3  10   90.96    2.44
   1  -3  11   54.43    2.08
   1   6   3   23.06    1.70
   1   9   4  288.68    3.43
   2   2  10  231.32    4.54
   2   9   8    4.95    2.01
   2  15  13    6.36    2.81
  -5  -9   1    0.00    2.89
  -5   3  -4   60.28    3.29
  -5   6  -3    1.41    2.77
  -4  -8  -1    6.87    2.03
  -4   4  -4  331.68    4.57
  -4   7  -3    1.37    2.02
  -3   3  -4  468.56    4.76
  -2  -9   6  226.10    2.86
  -2  -9   7   23.81    1.93
  -2  -5  -2  878.20    7.03
  -1  -7  11  128.12    3.45
  -1  -5   0 1414.28    7.67
  -1   7  -1  898.50    5.14
  -1  14   3  125.44    2.25
   0  -5  12   15.70    2.43
   0   5   0  927.57    6.13
   0   8   1  601.31    4.40
   0  10   2  118.08    2.03
   0  12   3  201.72    2.76
   1  11   5  186.27    2.64
   1  15   8   34.06    2.41
   1  16   9   38.79    2.71
   2   2  11    2.05    2.10
   2   2  13  124.80    3.33
   2   3  16   66.99    3.42
  -4  -9   1   83.68    2.54
  -4  -7  -2   30.38    2.21
  -3  -9   2   60.19    1.93
  -3  -8   0  281.92    3.45
  -3   9  -2   14.07    2.06
  -3  11  -1   45.89    2.40
  -2  -8   2   27.53    1.75
  -2  -7   0  348.45    3.46
  -2  -6  -1   10.10    1.51
  -2   5  -3  235.71    3.21
  -2  13   1   93.07    2.29
  -1   4  -2  235.39    3.13
  -1  13   2    5.48    1.44
   0  15   5    9.80    2.22
   0  17   7    0.36    1.90
   1   7   3  240.63    3.37
   2   4  17    2.66    3.24
   2  13  10   35.43    2.31
   2  14  11   85.70    2.97
   2  15  12   64.65    2.88
  -5  -8   0  168.07    3.88
  -5   4  -4   49.07    3.34
  -4  -9   2   19.83    2.55
  -3  -9   3  213.51    3.02
  -3  -9   4    0.53    2.11
  -3  -9   7   16.81    2.83
  -3   4  -4   16.23    1.76
  -3   7  -3    4.92    1.40
  -2  -8   3  349.83    3.46
  -2   8  -2  160.81    2.39
  -2  12   0   48.33    2.61
  -1  -7   5  178.65    2.60
  -1  -7   6   89.88    2.22
  -1  -7   7    0.70    1.85
  -1  -7   8  184.04    2.93
  -1  -7   9  125.90    2.41
  -1   5  -2    0.98    1.39
  -1   8  -1  193.37    2.79
  -1  10   0   -0.66    1.13
  -1  12   1  181.25    2.77
  -1  16   4    9.65    2.37
   0  -5   6  654.56    4.50
   0  -5  10  109.07    2.54
   0  -4   3 1240.33    6.67
   0   6   0  439.65    4.09
   0   9   1  300.61    3.22
   0  11   2  128.17    2.34
   0  14   4  158.27    2.89
   1  -2   7  124.35    2.54
   1  -2  12   -0.02    2.00
   1  -1  15   96.56    3.17
   1  10   4  938.33    5.56
   1  12   5    4.21    1.75
   2   3  15  107.48    3.54
   2  10   8   75.02    2.54
   2  12   9  360.55    4.37
   2  16  13  137.46    3.93
  -6  -3  -3   11.21    5.01
  -5  -5  -3   48.40    2.98
  -4  -9   3  166.11    3.39
  -4  -8   0  322.32    3.84
  -4   5  -4  143.16    3.23
  -4   8  -3    0.38    2.36
  -3  -9   5   53.00    2.10
  -3  -9   6  101.30    2.48
  -3  -7  -1   -0.03    1.52
  -3  -6  -2  556.39    5.28
  -3  13   0   40.19    2.30
  -2  -8   4   56.14    2.26
  -2  -8   8  121.00    2.96
  -2  -8   9   61.04    2.24
  -2   6  -3  196.45    3.00
  -1  -6  12   -0.83    2.55
  -1  15   3   31.89    1.87
   0  -5   7    1.12    1.20
   0  -5   8  294.62    3.00
   0  -4  13   64.65    2.76
   0  -2   1 1043.89    8.60
   0  13   3   57.92    2.17
   1  -2   8  563.76    4.66
   1  -2   9   51.62    2.15
   1  -2  11  228.43    3.25
   1  -1  14    7.75    2.29
   1   0   4    0.29    1.74
   1   8   3  102.78    2.34
   1  15   7   59.06    2.42
   2   3  14    4.56    2.46
   2   6   7  798.83    9.85
   2   7   7  479.18    6.39
  -5  -8   1    1.65    2.62
  -5  -7  -1   54.79    2.78
  -5  -6  -2   34.03    2.88
  -4  -9   4   -0.50    1.92
  -4  -9   5   45.10    2.71
  -3  -8   1   91.42    2.09
  -3   5  -4  152.53    2.88
  -3   8  -3   17.07    2.20
  -3  12  -1    4.78    2.51
  -2  -8   5  105.12    2.02
  -2  -8   6  121.64    2.21
  -2  -8   7    7.34    1.62
  -2  -7   1   28.78    1.48
  -2   9  -2   70.75    2.29
  -2  14   1   20.98    1.95
  -1  -6  11   95.40    3.03
  -1   6  -2   35.50    1.79
  -1   9  -1  451.56    3.75
  -1  11   0   -1.92    1.81
  -1  14   2   77.75    2.07
   0  -4  12    1.10    2.13
   0   7   0  254.45    3.06
   0  16   5   21.27    2.46
   0  17   6   26.02    2.70
   1   0  16   60.16    2.96
   1  11   4   20.32    1.80
   1  14   6  150.55    2.87
   2   3  10  476.45    6.57
   2   3  13  155.36    3.93
   2   4  16   19.73    2.93
   2   8   7  199.71    3.85
   2  11   8    2.70    1.86
   2  15  11   66.38    3.00
   2  16  12   45.96    3.16
  -4  -8   1   12.95    2.16
  -4  -7  -1    5.29    1.99
  -4  -5  -3  204.37    4.33
  -3  -8   2   10.25    1.80
  -2  -7   2   78.11    2.20
  -2  13   0   19.47    2.51
  -1  -6  10   16.32    2.29
  -1  13   1   79.98    2.44
   0  10   1  470.22    3.55
   0  12   2  473.16    3.90
   1  -1  13   22.46    2.19
   1  13   5    6.96    1.88
   2   3  12  203.36    4.12
   2   9   7  593.79    5.67
   2  13   9  462.85    4.75
  -5  -8   2   95.05    3.02
  -4  -6  -2  115.63    3.16
  -4   9  -3    5.20    2.58
  -3  -8   3  400.52    3.79
  -3  -8   8   54.99    2.79
  -3  -7   0  536.08    4.46
  -3   6  -4   97.11    2.55
  -3   9  -3    0.33    2.01
  -3  11  -2   60.58    2.71
  -2  -6   0  758.01    5.23
  -2  10  -2  145.23    2.69
  -1  -6   9   11.98    1.51
  -1  -4   0  946.16    6.85
  -1   7  -2    2.49    1.59
  -1  15   2   47.63    2.38
  -1  16   3  129.70    2.66
   0  -4  10  284.25    3.39
   0   8   0  190.82    2.62
   0  14   3  162.41    2.94
   1  -1  12    0.30    1.92
   1  12   4  616.07    4.37
   1  15   6  112.42    2.56
   1  16   7   -0.21    2.23
   1  17   8  146.38    2.95
   2   4  15  140.29    3.72
   2   5  17   63.06    3.60
   2  10   7  356.33    4.38
   2  12   8   40.60    2.27
  -5  -7   0   85.76    3.24
  -4  -8   2   38.58    1.91
  -4  -8   3  110.28    3.06
  -4   2  -5    2.07    2.19
  -4   7  -4  112.27    3.23
  -3  -8   4    9.39    1.50
  -3  -8   5  157.83    2.85
  -3  -8   6   57.74    2.47
  -3  -8   7    0.80    1.80
  -2  -7   3  414.58    3.56
  -2  -7   8  131.53    2.78
  -2  -7   9   19.78    1.80
  -2  -5  -1  117.39    2.66
  -2  -4  -2  381.60    5.33
  -2   1  -4  668.34    6.93
  -2   2  -4   14.84    1.67
  -2   3  -4   35.03    1.86
  -2   8  -3   48.16    1.96
  -1  -6   7  117.23    2.13
  -1  -5  12   -0.91    2.27
  -1  10  -1  173.97    2.39
  -1  12   0   67.11    1.79
   0  -4   6  105.08    2.28
   0  -4   7    3.96    1.62
   0  -4   8  540.76    4.14
   0  -4   9    4.95    1.29
   0  -3   3  789.50    5.79
   0  -2  15  107.83    3.44
   0  11   1  224.51    2.87
   0  17   5   63.73    3.05
   1  -1  11   87.59    2.40
   1   5   2  617.27    5.68
   1   6   2  755.86    5.73
   1  10   3   47.79    1.65
   1  14   5    6.42    1.83
   2  14   9   35.94    2.28
   2  15  10    0.40    2.38
   2  16  11  199.28    4.04
  -6  -4  -2    1.28    3.74
  -4  -8   4    0.98    2.33
  -4  -8   5  118.67    3.12
  -4  -8   6    3.27    2.33
  -4  -7   0  308.85    3.72
  -4  -3  -4   50.58    4.32
  -4   0  -5    4.01    2.42
  -4   3  -5    1.68    2.01
  -3  -7   1  125.63    2.55
  -3  -6  -1    0.85    1.43
  -3   7  -4  220.72    3.40
  -2  -7   4   31.36    1.48
  -2  -7   5  605.74    4.24
  -2  -7   6  139.04    2.62
  -2  -7   7   40.95    1.74
  -2   4  -4  191.58    3.01
  -1  -5   2  290.06    3.20
  -1  -5  11   93.74    2.71
   0  -3  12   16.45    2.20
   0   4  -1  652.48    5.31
   0   9   0  105.03    1.93
   0  15   3   77.85    2.50
   0  16   4   19.09    1.88
   1  -1   9   19.82    1.75
   1  -1  10  370.28    3.90
   1   4   2 1123.84    8.73
   1   7   2 1057.65    6.05
   2   4  14    7.28    2.14
   2   5   7  672.79   17.14
   2  11   7  247.32    3.57
   2  13   8   -0.93    2.02
  -5  -7   1    9.17    2.60
  -5  -6  -1   73.69    3.01
  -4   4  -5   -0.59    2.10
  -4   8  -4    6.50    2.46
  -3  -7   9   11.48    2.78
  -3  -4  -3  340.32    5.57
  -3  10  -3    3.95    2.45
  -3  12  -2   49.18    2.93
  -2  -6   1  337.49    3.37
  -2  -6  11   54.67    2.35
  -2   5  -4  484.24    4.29
  -2   9  -3   50.81    2.12
  -2  11  -2  134.88    2.90
  -2  13  -1    0.67    2.54
  -1  -5  10  140.91    2.85
  -1  -4  13   67.20    3.09
  -1   3  -3 1013.67    6.62
  -1   4  -3  655.09    5.02
  -1  11  -1   53.01    2.15
   0  -3  11  563.81    4.42
   0  -2  14   14.51    2.57
   0   5  -1 1343.15    6.89
   0   6  -1  119.65    2.37
   0  12   1   77.19    2.21
   1   0  13  173.24    3.24
   1  13   4  377.70    3.42
   1  17   7   34.38    2.15
   2  15   9  214.68    3.46
   2  16  10    2.47    2.51
   2  17  11   87.97    3.51
  -5  -7   2   76.53    2.99
  -5  -5  -2    3.36    2.20
  -5   2  -5    5.48    2.70
  -5   3  -5    0.12    2.88
  -4  -7   1   26.77    2.05
  -3  -7   2  349.78    3.53
  -3  -7   8   75.99    2.83
  -3  -5  -2  367.86    4.61
  -3   1  -5  242.50    4.43
  -3   2  -5   96.93    2.80
  -3   3  -5   24.40    2.05
  -3   4  -5    4.19    2.01
  -3   8  -4   75.98    2.77
  -2  -6  10   30.25    1.90
  -2   0  -4  220.45    4.87
  -2   6  -4  117.42    2.54
  -1  -5   9   30.15    2.10
  -1   2  -3  319.77    4.34
  -1   5  -3  352.96    3.65
  -1   9  -2   99.99    2.03
  -1  15   1   93.55    2.79
   0  -3   4  357.63    3.79
   0   7  -1 1134.43    5.79
   0  10   0    4.70    1.10
   0  14   2   33.06    1.71
   1   1  15   94.14    3.11
   1   9   2  669.76    4.70
   1  15   5   51.95    2.56
   2   6  17   62.32    3.89
   2   7   6  109.80    3.32
   2   8   6  121.14    2.99
   2   9   6   26.52    1.87
   2  12   7  270.62    3.62
   2  14   8   46.45    2.40
  -5  -7   3   53.32    2.93
  -5   1  -5   -0.58    3.11
  -5   4  -5    6.55    3.08
  -4  -7   2  191.35    3.23
  -4  -6  -1  247.08    3.56
  -4   9  -4   35.31    2.97
  -3  -7   3  211.57    2.92
  -3  -7   4    3.83    1.89
  -3  -7   5  197.97    3.04
  -3  -7   6  158.22    3.04
  -3  -7   7  159.90    2.62
  -3   5  -5    4.30    1.75
  -3  11  -3   -3.03    2.61
  -2  -6   2  183.65    2.50
  -2  -6   9    6.64    1.53
  -2  -5  12   76.64    3.13
  -2  10  -3    3.04    1.82
  -1  -5   7    4.05    1.63
  -1  -4   1    2.86    1.49
  -1  -4  12   32.34    2.40
   0  -3   9    4.02    1.60
   0  -3  10   64.95    1.86
   0  -2   2 2309.60   11.31
   0  -2  13  217.75    3.33
   0  -1  15   39.77    2.87
   0  11   0   77.97    2.06
   0  13   1  317.61    3.32
   1   0  12   50.94    2.10
   1  10   2 1092.57    5.67
   1  12   3   36.69    1.58
   2   4  12   59.81    3.04
   2   5  15  256.63    4.90
   2  13   7  137.97    2.86
   2  17  10   27.66    2.59
  -6  -2  -3   31.37    5.56
  -5   5  -5   17.63    3.14
  -4  -7   3  107.74    2.79
  -4  -7   4   24.62    2.37
  -4  -7   5  101.25    2.80
  -4  -7   6   32.24    2.50
  -4  -7   7   55.52    2.34
  -4   6  -5   15.14    2.44
  -3  -6   0  198.99    2.93
  -3   9  -4  134.22    3.26
  -2  -6   3  399.10    3.58
  -2  -6   8  277.39    2.90
  -2  -5   0  368.88    3.95
  -2   7  -4  438.82    3.75
  -2  14  -1   26.96    2.33
  -1  -4  11  111.08    2.79
  -1  -3  14    2.28    2.03
  -1   7  -3  412.60    3.69
  -1  10  -2  195.23    2.51
   0  -3   7  155.19    2.65
   0  -3   8  316.12    3.44
   0   2  -1 1089.44    8.59
   0  15   2    0.46    2.26
   1   0  11  304.10    3.64
   1   1  14    4.48    2.23
   1   2  16  120.89    3.38
   1   3   2 1586.93   12.61
   1  13   3   17.75    1.84
   1  16   5   11.14    2.26
   2   4  11   17.35    2.55
   2  11   6   92.01    2.40
   2  15   8   83.03    2.70
   2  16   9   58.67    2.84
  -4  -6   0  106.42    2.61
  -4  -4  -3  485.13    6.58
  -3   0  -5   66.99    3.08
  -3   6  -5   17.06    2.05
  -2  -6   4    9.77    1.28
  -2  -6   5  175.52    2.36
  -2  -6   6  308.54    2.99
  -2  -5  11   51.60    2.06
  -2   8  -4  210.00    3.15
  -2  13  -2   68.75    2.77
  -1   8  -3   66.73    2.01
  -1  11  -2  169.69    2.70
  -1  13  -1   53.03    2.37
   0  -2  12   41.07    1.83
   0   0  16   19.37    2.96
   0  12   0    0.07    1.73
   0  14   1  168.40    2.83
   1  11   2    1.37    1.58
   1  15   4  169.80    3.10
   2   5  14    3.14    2.48
   2   6   6   51.18    2.85
   2   6  16   35.06    3.43
   2  12   6   39.67    2.09
   2  14   7  107.95    2.80
  -5  -6   1   11.31    2.35
  -5   0  -5    1.08    4.18
  -4  -1  -5   63.86    5.53
  -3  -6   1  161.14    2.73
  -3  -6   8  126.04    2.88
  -3   7  -5    0.10    2.07
  -2  -5  10  209.00    3.01
  -1  -4   2   46.12    1.88
  -1  -4  10  256.57    2.85
  -1  -3   0 1965.54   10.72
  -1  -3  13  177.06    2.88
   0  -2  11   64.21    2.35
   0  -1  14    5.59    1.72
   0  10  -1  411.29    3.52
   1   0   9  129.94    2.67
   1   1  13  378.52    4.21
   1   2  15  104.29    3.34
   1   3  17   28.19    2.96
   1   6   1  101.75    2.37
   1   7   1   29.64    1.33
   1   8   1  326.70    3.45
   1  14   3  129.02    2.72
   1  17   5    5.62    2.30
   2  16   8   -0.10    2.41
   2  17   9   43.01    2.96
  -6  -3  -2    1.39    3.36
  -5  -5  -1   35.04    2.61
  -5  -2  -4   29.77    4.31
  -4  -6   1    0.78    1.76
  -4  -6   8   34.19    2.89
  -4   8  -5   21.72    2.87
  -3  -6   2  174.98    2.79
  -2  -5   1  405.10    3.88
  -2  -4  -1  126.35    2.91
  -2  -4  12   80.56    2.87
  -2   9  -4   67.18    1.94
  -1  -4   9   24.15    1.45
  -1  -3  12   17.22    2.35
  -1  12  -2    2.19    1.97
  -1  14  -1   11.36    2.22
   0  -2  10  125.83    2.59
   0  -1  13  144.42    2.82
   0  13   0    1.49    1.96
   1   1   4   38.67    2.83
   1  12   2  198.32    2.56
   2   7  17   60.96    3.88
   2   8   5  520.30    5.13
   2  15   7  146.33    3.11
  -5  -6   3   38.94    2.16
  -5  -6   4    8.67    2.39
  -4  -6   2   89.31    2.46
  -4  -6   7   20.33    2.28
  -3  -6   3  193.28    2.82
  -3  -6   4   19.88    1.91
  -3  -6   5  106.41    3.06
  -3  -6   6   51.25    1.78
  -3   8  -5   20.13    1.73
  -3  11  -4   20.29    2.85
  -2  -5   8  334.49    3.29
  -2   3  -5  153.95    2.79
  -2   4  -5   22.33    1.79
  -2  12  -3    5.61    1.94
  -1  -4   3  686.76    4.74
  -1  10  -3   -0.24    1.88
   0   0  15  103.76    2.93
   0   5  -2  226.88    2.84
   0   7  -2    4.93    1.40
   0  11  -1  109.96    2.34
   0  15   1   57.48    2.12
   1   1  12   29.13    2.03
   1  13   2   30.76    2.11
   2   5  13  356.53    5.42
   2   7   5  355.48    4.99
   2  11   5   72.05    2.23
  -5  -5   0  151.27    3.57
  -5  -4  -2    7.74    2.34
  -4  -6   3  228.13    3.27
  -4  -6   4   22.47    2.32
  -4  -6   5    1.93    3.12
  -4  -6   6   -0.87    1.67
  -4  -5  -1   86.26    2.60
  -4   4  -6    0.20    2.56
  -3   9  -5   13.69    2.56
  -2  -5   2  296.08    3.15
  -2  -5   7   34.82    1.90
  -2   2  -5  188.46    3.30
  -2   6  -5    0.55    1.34
  -1   4  -4   31.86    1.75
   0  -2   9   11.55    1.31
   0  -1  12  256.50    3.47
   0   4  -2  235.64    3.06
   0   8  -2   32.47    1.36
   0  12  -1  163.16    2.57
   0  14   0    1.52    2.06
   1   4   1  216.65    3.70
   1  11   1  301.69    3.31
   1  17   4   25.33    2.52
   2  12   5   85.18    2.38
   2  16   7   -0.31    2.47
  -5  -3  -3   95.71    3.86
  -4   5  -6  112.14    3.22
  -4   6  -6   54.62    3.11
  -3  -5   0  579.20    4.77
  -3  -5   9    1.45    1.68
  -3  -4  -2  233.43    4.03
  -2  -5   3  885.40    5.07
  -2  -5   4   13.69    1.71
  -2  -5   5  385.64    3.43
  -2  -5   6    5.60    1.19
  -2  -4  10   77.83    2.41
  -2  -3  -2  228.80    4.82
  -2  -3  13   93.73    2.51
  -2  11  -4   18.77    2.30
  -1  -3  10  247.58    3.17
  -1   3  -4  267.11    3.46
  -1   7  -4   72.34    2.10
  -1  11  -3    8.62    2.17
   0  -2   5  690.74    5.14
   0  -2   7   95.82    2.24
   0  -2   8  866.82    5.06
   0   0  14    8.05    2.32
   0   1  16    4.26    2.46
   0   9  -2  176.03    2.28
   0  16   1   81.54    3.06
   1  12   1  186.66    2.91
   1  14   2   20.24    2.40
   1  16   3   26.11    2.49
   2   5  12   41.60    2.84
   2  13   5    5.26    1.92
   2  15   6  139.25    3.19
  -5  -5   1   16.90    2.38
  -4  -5   8   26.75    2.72
  -4   7  -6   12.68    3.01
  -3  -4  11   17.74    2.65
  -3   3  -6  308.73    4.08
  -3   6  -6  128.24    2.82
  -3  10  -5   30.73    3.03
  -2   8  -5   11.59    1.52
  -1   8  -4  402.57    3.39
   0  -1  11    4.09    1.77
   0   2  17   65.75    3.37
   0   3  -2  174.22    2.90
   0  10  -2   -0.09    1.25
   0  15   0   44.44    2.50
   1   2  13   68.27    2.49
   1   3  15  121.14    3.06
   1   9   0    8.25    1.59
   2   7  16    0.64    2.79
   2   9   4    0.11    1.53
   2  10   4 1103.16    6.32
   2  11   4  412.57    4.06
  -5  -5   2  177.17    3.54
  -5  -5   3   16.34    2.33
  -5  -5   4   65.57    3.00
  -5  -5   5   76.99    3.29
  -5   4  -6   39.91    3.65
  -4  -4  -2   24.85    2.40
  -3  -5   1    1.71    1.49
  -3  -5   7  130.75    2.48
  -3   2  -6   32.47    2.15
  -2  -4   9   17.93    1.39
  -2  -3  12   19.25    1.92
  -2  -2  14   20.61    2.58
  -2   1  -5   31.16    2.00
  -2  12  -4   17.00    2.60
  -1  -1  14    6.91    2.49
  -1   2  -4   72.84    2.24
  -1   9  -4  117.91    2.13
   0   0  13  273.33    3.43
   0   1  -1  698.93    8.53
   0   1  15  245.45    3.94
   0  11  -2   17.96    1.86
   1   1   5  724.85    7.86
   1   6   0  662.95    4.67
   1  10   0   31.85    1.86
   1  13   1  165.31    2.90
   1  15   2   83.10    2.37
   2   6  14  168.32    4.07
   2  16   6  112.04    2.72
  -5  -4  -1  197.94    3.98
  -5   3  -6   57.01    3.85
  -4  -5   1   -0.23    1.61
  -4  -5   6   27.65    2.27
  -3  -5   2  178.68    2.80
  -3  -5   3  275.86    3.20
  -3  -5   5  627.13    4.35
  -3  -4  10   40.09    1.95
  -3  -3  -3  722.72    8.57
  -3   8  -6    3.41    2.24
  -2  -4   8  250.30    2.93
  -2  -3  11   22.29    2.14
  -2  -1  -4    7.03    2.56
  -2  10  -5   28.81    2.35
  -1   0  -3 2493.41   16.27
  -1  10  -4   91.74    2.40
  -1  13  -3    2.16    2.27
   0  -1  10  344.93    3.47
   0   6  -3  402.47    3.60
   0   7  -3  621.44    4.29
   0  14  -1   21.56    2.25
   1   5   0 1478.97    7.68
   1  11   0  131.22    2.60
   1  14   1  184.36    2.99
   2   5  11    3.72    2.24
   2   8  17  135.21    4.54
   2  13   4  343.41    3.78
   2  15   5   -0.58    2.46
   2  17   6  116.59    3.23
  -6  -2  -2   13.49    3.63
  -4  -5   3   59.01    2.24
  -4  -5   4   25.61    2.07
  -4  -5   5  248.86    3.09
  -3  -4   9   78.21    2.56
  -3  -3  12  151.93    2.79
  -3   9  -6   25.58    2.57
  -2  -4   1   28.41    1.72
  -2  -4   7  366.02    3.39
  -2  -2  13   61.70    2.74
  -2   5  -6  271.87    3.27
  -1  -3   2 1459.88    7.69
  -1  -2  11   14.16    1.54
  -1  -1  13  120.93    2.83
  -1   0  15  211.88    3.57
  -1  11  -4  160.90    3.02
   0  -1   9   44.40    2.01
   0   0  12   56.53    2.32
   0   2  16   39.10    2.78
   0   5  -3 1217.69    6.15
   0   8  -3   40.58    1.45
   0   9  -3  180.83    2.65
   1   1   6  447.08    5.53
   1  12   0   40.67    2.15
   1  16   2    2.85    1.91
   2  14   4   61.77    2.48
   2  16   5   -0.19    2.26
   3  14  12   91.05    4.12
   3  14  14   19.06    3.98
  -6  -3   0   17.01    3.12
  -6  -1  -3   10.69    4.20
  -5  -4   0   11.14    2.44
  -5   2  -6   61.59    4.27
  -4  -4   9   32.04    2.08
  -3  -4  -1   79.62    2.33
  -3  -1  -5  520.82   10.52
  -3   1  -6  335.82    4.91
  -2  -4   2  395.32    3.86
  -2   4  -6  538.09    4.54
  -2   6  -6  105.70    2.14
  -2   7  -6  150.75    2.89
  -1  -3   3 1323.23    6.91
  -1  -2  10  668.75    4.53
  -1   5  -5  154.60    2.61
  -1   6  -5    9.37    1.72
  -1   7  -5   -0.62    1.60
   0   1  14    0.29    2.02
   0   2  -2 2525.37   11.58
   0   4  -3 1243.92    6.53
   0  10  -3  231.46    2.90
   0  13  -2   80.26    2.53
   0  15  -1   47.02    2.25
   1   3   1   47.24    2.61
   1  13   0   23.89    2.07
   1  15   1  125.05    3.14
   2   7  15  186.67    4.38
   2   9   3    4.58    1.62
   2  10   3    3.76    1.19
   2  11   3   43.97    2.10
   2  12   3   37.25    2.11
   3  13  12   83.55    4.26
   3  15  12  119.15    4.36
  -5  -4   6   10.23    2.73
  -5  -3  -2    2.48    2.36
  -4  -4   8   37.31    2.42
  -4  -3  -3  255.57    5.00
  -3  -3  11   -0.29    1.68
  -3  -2  -4   30.59    4.06
  -2  -4   3  280.91    3.25
  -2  -4   4    2.20    1.50
  -2  -2  12  103.62    2.67
  -2  -1  14   63.70    2.92
  -2   3  -6  229.34    3.26
  -1  -3   4   10.41    1.09
  -1   1  16   50.81    2.68
  -1   4  -5  173.43    2.81
  -1   8  -5   10.16    1.44
  -1   9  -5    1.38    1.69
   0  -1   8  379.50    3.67
   0   3  17   25.03    2.66
   0  11  -3   59.56    2.22
   1   7  -1  753.82    4.77
   1   8  -1  635.83    4.16
   1   9  -1   80.07    1.77
   2   8   3  121.58    2.55
   2  13   3   29.54    2.17
   2  15   4   96.05    2.44
   3  13  11   71.27    3.67
   3  14  11   90.37    3.57
   3  15  11   39.97    3.08
  -5  -4   1   28.78    2.29
  -5  -4   2  108.96    2.99
  -5  -4   3   36.49    2.36
  -5  -4   4  123.02    3.14
  -5  -4   5   26.16    2.42
  -4  -3  10  176.08    3.55
  -4   5  -7   31.37    2.57
  -4   6  -7   35.90    2.90
  -3  -4   7  263.36    2.83
  -2  -3   9   16.46    1.38
  -2   9  -6   56.31    1.98
  -1  -2   9  182.07    2.67
  -1  -1  12  178.67    2.53
  -1   0  14   28.07    1.78
  -1  10  -5    4.34    1.96
  -1  13  -4   58.97    2.76
   0  -1   3 1782.31   10.13
   0   0  11  357.26    3.36
   0   1  13   47.38    2.24
   0   2  15  103.46    2.91
   0  12  -3   12.95    2.03
   0  14  -2   81.48    2.31
   1   4   0  980.32    6.69
   1   6  -1  356.47    3.52
   1  11  -1  538.01    4.06
   1  14   0    3.37    1.66
   1  16   1   46.76    2.41
   2   5   6   28.04    3.67
   2   6   4  148.38    3.49
   2   8  16    4.72    2.94
   2  14   3    1.66    2.09
   2  16   4  156.40    3.41
   3  13  10   26.38    3.08
   3  13  14   66.01    6.31
   3  14  10  105.45    3.62
   3  15  10    3.60    2.90
  -6  -2  -1   75.20    4.37
  -4  -4   6    0.41    2.04
  -3  -2  12  166.84    3.06
  -3   4  -7   22.30    2.15
  -3   7  -7   57.03    2.62
  -3   8  -7   94.25    2.86
  -2  -3  -1    0.22    1.39
  -2  -3   8  434.67    3.56
  -2   0  -5  617.21    7.18
  -2   0  15  192.58    3.51
  -2   2  -6  470.67    4.66
  -2  10  -6   28.26    2.53
  -1   3  -5  645.87    4.79
   0  -1   4   68.57    2.26
   0  -1   5 1378.00    7.55
   0  -1   6   35.91    1.73
   0   3  -3  786.00    5.56
   0   7  -4  125.74    2.33
   1  12  -1   97.15    2.08
   1  15   0   38.55    2.69
   2   9   2   58.34    2.00
   2  10   2  343.93    3.60
   2  11   2  149.52    2.70
   2  15   3  165.90    3.07
   3  12  10   84.31    3.41
   3  12  11    2.14    2.78
   3  14   9   71.68    3.34
  -4  -4   1    7.27    1.70
  -4  -4   4  159.45    2.82
  -4  -3   9   50.16    2.56
  -3  -4   1    1.53    1.49
  -3  -4   4    7.98    1.68
  -3  -4   5  233.86    2.60
  -3  -3   9    5.90    1.86
  -3   3  -7   16.69    1.98
  -2  11  -6   15.22    2.72
  -1  -2   0  742.16    7.61
  -1  -1  11  238.29    2.77
  -1   0  13  294.86    3.45
  -1   1  15  123.88    2.52
   0   0  10  355.76    3.43
   0   3  16   -0.14    2.25
   0   5  -4   32.71    1.62
   0   9  -4  119.74    2.11
   0  10  -4  183.08    2.82
   1  13  -1  186.71    3.01
   2   9  17   35.61    3.46
   2  12   2  252.13    2.94
   2  13   2  189.25    2.95
   3  12   9   30.42    2.70
   3  12  13    0.15    4.86
   3  15   9  132.14    3.72
   3  16   9  140.11    4.28
  -5  -3   7  197.03    3.21
  -5  -2  -3  140.46    4.43
  -5   1  -6   37.63    5.33
  -4  -4   2  187.76    2.84
  -4  -4   3   14.92    1.76
  -4  -3   8   35.51    2.46
  -3  -4   2  482.98    3.93
  -3  -4   3  115.78    2.17
  -3  -3   8  246.00    3.11
  -3  -2  11    6.78    2.06
  -2  -2  10  387.82    3.45
  -2   0  14    0.92    2.51
  -2   6  -7  147.87    2.86
  -2   7  -7    6.60    2.12
  -1   2  16    0.74    2.45
  -1   6  -6  176.23    2.74
  -1   7  -6  387.24    3.65
  -1   8  -6  147.90    2.58
  -1  12  -5   62.23    2.89
   0   1  12   65.17    2.22
   0   2  14   12.90    1.94
   0   4  17  142.53    3.56
   0  11  -4  235.41    3.10
   0  14  -3    2.07    2.59
   1   7  -2    2.48    1.42
   1   8  -2   17.58    1.24
   1   9  -2    7.05    1.19
   1  11  -2   17.25    1.88
   2   6  12  224.36    4.60
   2   7  14   47.43    2.82
   2   8   2 1370.45    6.75
   2  14   2   57.52    2.45
   2  16   3   30.47    2.80
   3  13   8    0.26    2.73
   3  14   8    8.43    2.37
   3  15   8   27.63    3.16
  -6  -2   0    1.58    2.81
  -5  -3   6    3.04    2.26
  -4  -3  -2   41.48    2.61
  -3   0  -6  442.99    6.54
  -3   2  -7   13.89    2.03
  -2  -3   0 2317.58   10.63
  -2  -1  12  161.40    2.47
  -2   4  -7   11.62    1.71
  -2   9  -7   81.43    2.81
  -1  -1  10  233.04    2.85
  -1   1  14   26.25    2.31
  -1   5  -6  331.11    3.55
  -1   9  -6   61.10    2.41
   0   0   9   11.90    1.57
   0  12  -4  134.52    2.90
   1   7  18   -1.70    2.78
   1  12  -2  104.07    2.54
   1  15  -1   54.85    2.72
   2  10   1    9.73    1.76
   2  11   1  202.49    3.12
   2  15   2   97.34    2.84
   3  11  10  221.73    5.41
   3  12   8    0.34    2.16
   3  16   8    5.83    2.88
  -6  -1  -2    8.43    3.38
  -5  -3   0  133.65    3.40
  -5  -3   4   65.26    2.68
  -4  -3   7  124.27    2.60
  -4  -2  10    9.52    2.00
  -3  -3   7   77.97    2.31
  -3  -2  10  116.76    2.46
  -3  -1  12   27.49    2.36
  -2  -2   9    8.84    1.56
  -2   1  -6  495.08    5.31
  -2  10  -7   27.30    2.45
  -1   0  12  128.61    2.28
  -1   3  17  158.33    3.04
  -1   4  -6  464.38    4.08
  -1  10  -6  201.25    2.94
   0   1  11    4.21    1.72
   0   3  15  171.74    3.10
   0  13  -4   46.47    2.56
   1   2   2  611.39   11.63
   1   4  -1    1.25    1.47
   1   6  -2  124.02    2.10
   2   7   2  945.96    6.09
   2   8  15  207.77    4.61
   2   9   1   96.25    2.30
   2  12   1  185.15    2.58
   2  13   1   96.62    2.65
   3  11   9  261.46    4.95
   3  13   7  282.56    4.19
   3  14   7   23.59    2.49
   3  15   7   93.33    3.10
  -5  -3   1   37.02    2.29
  -5  -3   2  117.28    2.87
  -5  -3   3    4.14    1.95
  -5   3  -7   12.00    3.55
  -4  -3   6   17.69    2.06
  -4  -2   9  114.88    3.02
  -3  -3   6   37.36    2.01
  -3   5  -8   14.34    1.98
  -3   7  -8    0.00    2.35
  -2  -3   1  540.27    4.82
  -2  -3   2  669.22    5.03
  -2  -3   3  292.98    3.34
  -2  -3   4  292.40    3.19
  -2  -1  11   55.16    2.05
  -2   3  -7    4.58    1.54
  -1  -2   1  229.68    3.72
  -1  -2   5  579.73    4.28
  -1  -1   9   20.90    1.70
  -1   2  15   68.94    2.59
  -1  11  -6   30.28    2.15
   0   2  -3  795.70    6.03
   0   2  13  166.66    2.73
   0   4  16   23.14    2.46
   0   6  -5  379.76    3.53
   0   7  -5   60.68    1.64
   0   8  -5   24.97    1.42
   0   9  -5   22.97    1.46
   0  10  -5   15.84    2.05
   1   3   0 2126.78   10.78
   1   9  -3  265.87    2.94
   1  14  -2   25.25    2.57
   2   8   1   64.46    2.09
   2  14   1  105.06    2.76
   3  11   8   29.63    2.63
   3  12   7  220.88    3.84
   3  16   7   63.51    3.23
  -5  -2   7   41.93    2.82
  -4  -3  -1  254.61    3.84
  -4   5  -8    3.14    2.50
  -3  -3   5  330.82    3.31
  -3  -2   9   82.93    1.92
  -3  -1  11    4.68    2.07
  -3   0  13   14.42    2.39
  -3   4  -8   49.85    2.41
  -1  -2   2 1484.40    8.34
  -1  -2   3 1242.75    7.01
  -1  -2   4   62.42    1.75
  -1   0  11    3.94    1.83
  -1   1  13   53.09    2.24
  -1   3  -6  337.93    3.67
   0   1  -2  195.87    3.83
   0   3  -4  355.71    3.66
   0  11  -5    5.91    2.17
   1   5  -2  296.80    3.18
   1   7  -3  683.30    4.39
   1  10  -3  182.64    2.37
   1  11  -3   69.23    2.27
   2   9  16    4.30    2.90
   2  11   0   14.72    1.81
   2  15   1  130.83    3.18
   3  11   7  134.19    3.43
   3  12   6   73.23    2.86
   3  13   6   78.70    2.77
   3  14   6   82.92    3.12
   3  15   6   56.13    2.89
  -6  -1  -1   64.18    4.18
  -5  -2  -2   21.21    2.54
  -5  -2   6   19.31    2.59
  -5  -1  -4  105.85    4.88
  -4  -3   4  177.45    2.87
  -4  -2   8   20.34    2.41
  -4   1  -7   -0.41    2.48
  -4   4  -8    5.59    2.45
  -3  -3  -1  304.99    4.11
  -3   1  -7   -0.18    2.11
  -2  -1  10  221.09    2.85
  -2   0  12  182.39    2.90
  -2   2  -7    5.45    1.68
  -2   6  -8  105.44    2.65
  -2   7  -8   28.30    2.46
  -1   3  16   15.50    1.84
  -1   6  -7   15.00    1.87
  -1   8  -7   11.41    1.98
   0   1  10  650.02    4.72
   0   3  14  204.18    3.11
   0   5  17   86.52    2.90
   0  12  -5    4.95    2.53
   1   2   7  175.91    3.55
   2   6   2  432.13    4.52
   2   7   1   23.90    1.74
   2   7  13   65.20    3.12
   2   9   0  456.54    3.97
   2  10   0  226.29    2.73
   2  10  17  124.74    4.63
   2  12   0   95.53    2.12
   2  13   0    0.37    2.08
   3  16   6   54.55    3.18
  -4  -3   0  201.19    3.19
  -4  -3   1   45.23    2.00
  -4  -3   2  243.38    3.19
  -4  -3   3   75.34    2.21
  -4  -1  10   68.85    2.89
  -3  -3   0  170.06    2.95
  -3  -3   3  298.08    3.32
  -3  -3   4  167.22    2.44
  -3  -2   8   40.43    1.68
  -3   1  14  128.40    3.31
  -3   3  -8  115.88    2.98
  -2   2  15  171.78    3.30
  -2   5  -8   19.97    1.99
  -2   9  -8    8.38    2.61
  -1   0  -4    0.89    1.66
  -1   1  -5  503.24    5.07
  -1   4  17  169.52    3.38
  -1   5  -7    9.14    1.72
  -1  10  -7   21.37    2.58
   0   6  18    9.58    2.11
   1   8  18   35.61    2.96
   1  14  -3    0.88    2.32
   2   5   4  248.67    4.95
   2   8   0   99.05    2.33
   2  14   0    9.79    2.48
   3  11   6   79.40    2.70
   3  12   5  194.25    3.21
   3  13   5   10.73    2.21
   3  14   5   77.89    2.95
   3  15   5   27.01    2.79
  -6  -1   0   17.56    3.02
  -5  -2  -1   92.48    3.45
  -5  -2   5   18.45    1.98
  -5  -1   8    2.68    2.67
  -4  -2   7  320.01    3.27
  -4   3  -8   44.79    2.74
  -3  -3   1   15.73    1.58
  -3  -3   2  576.60    4.50
  -3  -2   7  450.53    3.77
  -3  -1  10  190.82    2.59
  -3   0  12  122.76    2.33
  -2  -1   9   35.14    1.85
  -2   4  -8  179.90    2.94
  -1   4  -7   51.10    2.00
  -1  11  -7   28.60    2.10
   0   4  15  205.90    3.38
   0   7  -6  217.62    2.89
   0   8  -6  393.97    3.34
   0   9  -6  120.70    2.28
   0  10  -6  156.55    3.04
   1   8  -4   84.24    2.05
   1   9  -4  214.24    2.83
   1  10  -4  178.12    2.75
   1  11  -4   87.88    2.35
   2  11  -1  296.04    3.21
   2  15   0   13.23    2.00
   3  10   8    3.73    2.27
  -5  -2   0   29.76    2.66
  -5  -2   3    8.80    2.06
  -5  -2   4  161.93    2.80
  -5   2  -7   26.26    4.92
  -4  -2   6    9.01    1.94
  -4  -1  -5   67.14    6.08
  -4  -1   9   68.13    2.74
  -4   0  11    6.94    2.63
  -2   0  11   12.04    1.67
  -2   1  13   17.16    1.66
  -2   3  16    2.77    1.97
  -1   3  15  189.89    3.01
   0   3  13  302.15    3.45
   0   6  -6  338.72    3.09
   0  11  -6   64.59    2.22
   0  12  -6   34.38    2.55
   1   2   6  106.76    3.19
   1   3  -1  544.33    5.11
   1   7  -4   35.68    1.69
   1  12  -4  155.88    3.01
   2   6   1    8.65    1.49
   2   7   0  369.48    3.69
   2   8  14    0.79    2.38
   2   9  -1  488.73    3.92
   2  10  -1  185.23    2.54
   2  12  -1  125.35    2.34
   2  13  -1  150.75    3.04
   3  10   6    4.59    2.14
   3  11   5  132.20    3.02
   3  12   4   58.82    2.26
   3  13   4  140.76    3.06
   3  14   4  185.17    3.41
   3  15   4  129.32    3.53
  -5  -2   1   24.40    2.20
  -5  -2   2   87.94    2.67
  -4  -2  -3  185.71    4.51
  -3  -2   6   15.70    1.68
  -3  -1   9  134.67    2.17
  -3   0  11   18.47    2.08
  -3   1  13   10.74    1.75
  -3   2  -8   98.83    2.80
  -3   6  -9   37.27    2.69
  -3   7  -9   23.26    2.17
  -2   0  -6  172.60    3.87
  -2   2  14  187.02    3.13
  -2   3  -8  172.80    2.95
  -1   0   9   23.25    1.82
  -1   3  -7   -0.13    1.44
  -1   7  -8   82.53    2.39
  -1   8  -8   14.30    2.13
  -1   9  -8   27.81    2.30
   0   0   5  694.75    5.70
   0   2  -4   82.00    2.04
   0   2  11   66.05    2.15
   0   6  17   84.71    3.07
   1   6  -4  241.09    2.77
   2   5   3  806.02    7.33
   2   8  -1  368.86    3.61
   2  14  -1  125.52    2.77
   3  11   4  274.83    3.62
  -6   0  -2   20.78    3.63
  -4  -2   5  148.64    2.35
  -4  -1   8   57.41    2.56
  -4   0  10   76.24    2.88
  -4   1  12   27.39    2.87
  -4   2  -8   46.35    2.96
  -3   4  -9  156.67    3.59
  -2  -2  -2  340.82    6.23
  -2  -2   4  156.73    2.58
  -2   0  10  540.69    3.95
  -2   1  -7    2.44    1.54
  -2   1  12  318.98    3.30
  -2   6  -9  105.70    2.64
  -2   7  -9   83.08    2.91
  -2   8  -9   59.42    3.10
  -1   1  11   19.54    1.32
  -1   5  17   40.72    2.85
  -1   6  -8  136.67    2.43
   0   7  18    6.37    2.68
   1   2   1  469.13    7.33
   2   9  15   18.14    2.86
   2  10  -2   45.19    2.09
   2  11  -2    3.55    2.05
   2  12  -2   14.33    1.99
   3  10   5  117.55    2.96
   3  12   3   15.52    2.18
   3  13   3   46.25    2.45
   3  14   3    0.31    2.44
   3  15   3   22.94    3.07
  -5   0  -5    1.41    4.22
  -4  -2   4   29.55    1.91
  -3   1  12  244.13    3.18
  -2   3  15  140.71    2.68
  -2   5  -9   93.63    2.67
  -1  -1   5 1470.00    7.11
  -1   3  14   50.04    2.25
   0   0   4    4.80    1.49
   0   1  -3 1946.09   10.31
   0   7  -7   87.79    2.38
   0   8  -7    1.86    1.51
   0  10  -7  133.69    3.11
   0  11  -7    7.42    2.73
   1   2   5  752.15    8.89
   1   9  -5  180.42    2.37
   1  10  -5    9.84    1.46
   1  11  -5    0.66    1.53
   1  12  -5    2.28    2.26
   2   5   2  886.42    6.93
   2   6   0  696.95    5.03
   2   7  -1   27.16    1.84
   2   7  12  135.66    3.78
   2   9  -2   66.88    2.16
   2  13  -2   32.71    2.04
   2  14  -2    1.69    2.50
   3  10   4   50.76    2.26
   3  11   3   15.50    2.13
  -6   0  -1   31.72    3.76
  -5  -1   5   44.23    2.07
  -5   0   8    1.46    1.94
  -4  -2  -2   44.47    2.55
  -4  -2   3    2.32    1.75
  -4  -1   7   71.92    2.25
  -3  -2   4  182.63    2.78
  -3   0  10  241.79    2.74
  -2  -2   3  488.71    4.18
  -2   2  -8  264.88    3.48
  -2   2  13  104.37    2.51
  -2   4  -9   87.16    2.45
  -1   1  -6  150.25    2.82
  -1   2  12  274.79    3.17
  -1   4  -8  410.79    3.81
   0   2  10  787.24    5.18
   0   3  12  206.18    3.01
   0   5  15   82.43    2.60
   0   6  -7   32.42    1.54
   1   3  -2 1505.02    7.62
   1   5  -4    3.51    0.98
   2   8  -2   27.01    1.78
   2  10  16   25.75    3.16
   2  11  17   98.25    4.34
   3   9   6   12.41    2.21
   3  12   2  123.75    2.78
   3  13   2  312.43    4.06
   3  14   2   10.63    2.68
  -6   0   0    2.29    2.91
  -6   0   1   43.83    3.37
  -5  -1   4  156.69    3.05
  -5   0   7  134.95    3.18
  -4   0   9   93.92    2.23
  -4   1  11   49.23    2.28
  -3  -1   7  314.08    3.25
  -3   0  -7   41.09    2.83
  -3   2  13   15.76    2.09
  -2  -2  -1  929.03    8.24
  -2  -2   2  150.10    2.74
  -2   1  11    1.57    1.68
  -1   1  10  550.30    3.88
  -1   2  -7  125.21    2.47
  -1   4  15  107.61    2.26
  -1   8  -9   40.06    2.34
  -1   9  -9  142.66    3.26
   0   0   3  406.30    5.50
   0   5  -7    1.44    1.59
   0   6  16   64.20    2.63
   1   6  -5  278.61    2.92
   2   5   1  125.33    2.69
   2  10  -3  285.53    3.20
   2  11  -3  150.46    2.93
   2  12  -3   38.21    2.44
   3   9   5  228.07    3.76
   3   9   7  340.14    5.53
   3  10   3   33.82    2.08
   3  11   2  260.71    3.52
  -5  -1  -2    1.95    2.41
  -5  -1   3    0.93    1.96
  -5   1   9   73.15    2.92
  -4  -2  -1  133.84    2.94
  -4  -2   1   84.08    2.31
  -4   2  12   54.49    3.01
  -4   3  -9   36.53    3.05
  -3  -2   3  163.14    2.43
  -3   1  11    1.22    1.42
  -3   3  14   94.95    2.96
  -2  -2   0  507.02    5.32
  -2  -2   1  170.70    2.99
  -2  -1  -5 1089.28   12.49
  -2   3  -9  156.45    2.89
  -2   3  14   64.45    2.43
  -1   0  -5 1290.19    8.98
  -1   3  -8  150.76    2.70
  -1   3  13   45.57    2.20
  -1   5  16   42.42    1.93
  -1   6  17  138.51    3.29
   0   1   7  861.84    5.83
   0   2  -5  684.14    4.88
   0   3  -6  355.99    3.32
   0   4  13   18.91    1.87
   0   7  17  162.84    3.36
   0   8  -8  145.69    2.75
   0  10  -8   53.61    2.67
   1   2   0  773.15    7.57
   1   4  -4    0.10    1.33
   1   8  -6  378.59    3.41
   1   9  -6  149.58    2.69
   1  10  -6  102.92    2.16
   1  11  -6  125.17    2.93
   2   6  -1  348.95    3.57
   2   7  -2   82.85    2.20
   2   9  -3  203.50    2.94
   2  13  -3  107.08    2.64
   3   9   4  201.96    3.33
   3  12   1   65.83    2.51
   3  13   1   72.67    2.92
   3  14   1   50.03    2.92
  -5  -1  -1  162.99    3.91
  -5  -1   1   48.97    2.56
  -5  -1   2  140.14    2.92
  -5   0   6   62.18    2.76
  -4  -1   5  106.18    2.63
  -4   0   8   11.06    2.00
  -4   1  10   57.45    2.49
  -3  -1   6   18.54    1.70
  -3   4  15   39.63    2.80
  -3   5 -10    1.54    2.45
  -2   4  15    9.85    2.38
  -2   6 -10    1.23    2.26
  -1  -1   3  486.95    4.69
   0   0   2  952.10    9.93
   0   4  -7    4.74    1.55
   0   7  -8  223.85    2.72
   0   8  18   35.91    2.26
   1   7  -6   88.70    2.15
   1   8  16    0.01    2.13
   2   5   0  385.08    3.92
   2   8  -3  351.98    3.46
   2   8  13  110.02    3.51
   3   9   3  137.99    2.80
   3  10   2  508.67    4.17
   3  11   1   22.10    2.18
  -5  -1   0    2.39    2.14
  -5   1   8    1.26    2.52
  -3  -2  -2    7.85    1.56
  -3  -2   1   52.68    1.96
  -3   0   8    7.02    1.81
  -3   1  10   59.97    2.08
  -3   2  -9  114.39    3.03
  -3   4 -10    1.40    2.20
  -2  -1   5  717.08    4.71
  -2   1  -8  419.21    4.49
  -2   5 -10    2.93    2.05
  -2   5  16   34.30    2.46
  -1   2  11  162.24    2.31
   0   1  -4   71.37    2.27
   0   2   9    1.34    1.47
   0   3  11   20.47    1.68
   0   5  14  108.40    2.57
   1   6  -6  325.72    3.10
   1   9  17   37.89    2.75
   2   6  -2  184.10    2.77
   2  10  -4  128.71    2.69
   2  11  -4   21.56    2.24
   2  12  -4   64.29    2.83
   3  10   1   62.61    2.23
   3  12   0   26.73    2.23
   3  13   0   58.63    2.75
   3  14   0    1.90    2.66
  -4   0   7  318.44    3.48
  -4   1   9  163.54    3.05
  -4   2  11   87.39    2.79
  -3  -2  -1  573.33    5.68
  -3  -2   0  539.09    4.89
  -3  -1   5    5.78    1.65
  -3   3  13   24.61    2.31
  -2   0  -7    0.33    1.71
  -2   3  13    0.49    2.02
  -2   4 -10    6.32    1.87
  -1  -1   2  491.22    5.18
  -1   0   6  150.47    2.55
  -1   1  -7  147.09    2.64
  -1   2  -8  556.49    4.40
  -1   4  -9   79.40    1.92
  -1   5  15   99.42    2.62
  -1   8 -10    2.08    2.30
   1   2  -1  210.28    3.65
   1   9  -7    0.50    1.91
   1  10  -7   43.30    2.45
   1  11  -7    4.35    2.55
   2   7  -3  403.88    3.33
   2   9  -4   73.18    1.85
   2   9  14  114.04    3.68
   3   9   2  132.48    2.67
   3  11   0   35.92    2.15
  -5   0   4   37.44    2.29
  -5   1   7   30.22    2.52
  -5   2   9   39.05    2.89
  -4   3  12  154.91    3.31
  -3   3 -10    0.91    2.39
  -3   4  14  203.60    3.27
  -2   2  11   40.00    1.91
  -2   4  14  130.31    2.85
  -1   3  12  236.19    2.98
  -1   6 -10   37.04    2.40
  -1   6  16   33.27    2.29
  -1   7 -10   15.32    1.79
   0   1   6    0.33    0.99
   0   2  -6  647.18    4.56
   0   3  -7  159.30    2.34
   0   4  12  278.26    3.36
   0   6  15  172.35    2.76
   0   7  -9  152.72    2.75
   0   7  16    2.34    2.09
   0   8  -9   61.17    2.66
   0   9  -9  108.91    3.11
   1   4  -5 1124.87    5.43
   1   7  -7    0.19    1.66
   1   8  -7   35.69    1.64
   2   5  -1  394.10    3.65
   2   7  11    0.60    2.36
   2   8  -4   61.24    1.80
   3   9   1   46.02    2.12
   3  10   0  289.23    3.54
   3  13  -1   50.89    2.60
  -6   1  -1   56.10    3.60
  -6   1   0   12.00    3.16
  -6   1   1   11.82    3.00
  -4  -1   3    3.48    1.62
  -4   0   6  168.03    2.98
  -4   2  10   42.69    2.52
  -3  -1   4  404.34    3.78
  -3   1   9  174.70    2.75
  -3   2  11  107.86    2.06
  -3   5  15   53.08    2.93
  -2  -1   4   42.20    1.46
  -2   3 -10   41.31    2.07
  -2   5  15   53.35    2.62
  -1  -1   1    1.72    1.47
  -1   2  10  365.22    3.45
  -1   3  -9  177.94    2.84
  -1   5 -10    0.59    1.93
  -1   7  17   55.06    2.26
   0   4  -8  556.29    3.80
   0   9  18   33.32    2.82
   1   3  -4   10.97    1.09
   2   6  -3  432.44    3.67
   2   7  -4   28.20    1.86
   2   9  -5   45.65    2.06
   2  10  -5   68.01    2.48
   2  10  15  277.74    4.87
   2  11  -5   12.33    1.79
   2  11  16   16.93    3.04
   2  12  -5    9.30    2.00
   2  12  17   24.99    3.24
   3   8   3   76.12    2.32
   3   8   5  301.26    4.51
   3  11  -1  163.85    2.95
   3  12  -1  134.60    2.63
  -5   0   3   78.68    2.48
  -4  -1   2  275.73    3.34
  -4   1   8    3.42    1.89
  -3   3  12  172.63    2.88
  -2   3  12  297.34    3.21
  -2   5 -11   60.33    2.58
  -2   6 -11   60.14    2.40
  -2   6  16   10.31    2.67
  -1   0  -6  251.32    3.74
  -1   4  13   13.90    1.79
   0   1  -5 1453.12    7.54
   0   3  10  279.45    3.26
   0   5  -9  186.12    2.74
   0   5  13  184.68    2.89
   1   3   7 1618.66   10.28
   1   5  11  101.33    2.51
   1   9  -8   58.81    2.63
   1  10  -8   38.94    2.80
   2   5  -2  312.02    3.13
   2   8  -5   96.64    2.35
   3   8   2  276.77    3.51
   3   8   6   33.14    2.61
   3   9   0  222.57    3.08
   3  10  -1   97.37    2.49
  -5   0   2  103.02    2.66
  -4  -1  -4   20.84    2.85
  -4   3 -10    4.14    2.99
  -4   3  11   37.61    2.68
  -3   1  -9   62.38    2.51
  -2  -1   3  333.41    3.58
  -1  -1   0  713.36    8.54
  -1   7 -11   89.17    2.81
   0   2  -7   91.20    2.13
   0   8 -10    3.53    2.30
   1   3  -5  451.99    3.78
   1   4  -6  212.75    2.47
   1   5  -7    2.41    1.62
   1   7  -8  186.61    2.75
   1   8  -8  199.70    2.66
   1  11  18   -0.21    2.87
   2   4   1  130.97    2.88
   2   4   2  392.88    5.19
   2   6  -4    7.59    1.66
   2  11  -6  126.81    3.04
   3   8   1   97.28    2.37
   3  11  -2    1.53    2.08
   3  12  -2   25.14    1.92
  -5   0   1   95.95    2.75
  -5   1   5   -0.45    2.02
  -5   3   9   74.80    3.02
  -4  -1   1   48.34    2.01
  -4   1   7  175.04    2.92
  -4   2   9  215.72    3.35
  -4   4  12   28.41    2.67
  -3  -1   3   20.10    1.34
  -3   0  -8  333.40    5.61
  -3   2 -10   26.27    2.30
  -3   2  10  129.25    2.12
  -3   4 -11   75.02    3.09
  -3   4  13    0.92    1.58
  -3   5  14   29.23    2.47
  -2   1  -9    1.21    1.63
  -2   2 -10   83.61    2.44
  -2   2  10   39.03    1.44
  -2   4 -11   93.92    2.83
  -2   4  13    8.59    1.93
  -1   1  -8  398.09    3.93
  -1   3  11  109.63    1.98
  -1   6  15  133.65    2.64
   0   1   5  733.60    6.12
   0   4  -9    3.63    1.71
   0   6  14  144.17    2.70
   2   4   0  882.87    6.12
   2   4   3  303.92    5.47
   2   7  -5  616.93    3.93
   2   9  -6  225.28    3.14
   2  10  -6   90.91    2.28
   3   8   0  292.69    3.44
   3   9  -1  217.93    2.79
   3  10  -2    2.06    1.94
   4  14   6    7.75    3.18
   4  14   7   77.32    3.85
  -5   0  -3   40.32    3.05
  -5   0  -1   82.97    3.36
  -5   0   0   14.59    2.37
  -4  -1   0   68.01    2.29
  -3   3  11   88.05    2.44
  -3   6  15    7.76    2.67
  -2   0  -8  359.01    4.50
  -2   5  14  170.60    2.81
  -1  -1  -3  805.02   13.42
  -1   1   7  510.17    3.93
  -1   3 -10   88.00    2.32
  -1   5 -11  348.88    4.16
  -1   7  16   15.82    1.73
   0   0  -2  951.26    9.67
   0   6 -10   54.86    1.96
   0   8  16   13.52    2.18
   0  10  18    1.80    2.60
   1   6  -8  305.90    2.90
   1   6  12  288.76    3.75
   1   9  -9   46.15    2.54
   2   8  -6  130.76    2.61
   2   8  12  615.73    6.87
   3   9  -2   58.34    2.14
   3  11  -3  193.26    3.34
   3  12  -3  128.46    3.24
   3  12  13    0.24    4.29
   4  14   5   10.21    2.86
   4  14   8    8.66    3.18
  -5   0  -2    2.76    2.06
  -5   1   4  121.10    2.73
  -4  -1  -3  289.64    4.97
  -4  -1  -1  271.83    3.88
  -4   3  10    0.28    2.03
  -3  -1   2  736.68    5.10
  -3   0   5  555.01    4.26
  -3   3 -11   31.08    2.44
  -2  -1  -6  423.02    6.55
  -2   0   5  512.14    4.08
  -2   3 -11   66.13    2.52
  -2   3  11  132.48    2.08
  -2   6  15   31.71    1.97
  -1   0  -7  120.72    2.63
  -1   4  12  290.06    2.91
   0   2   7  219.90    3.21
   0   5 -10  111.64    2.53
   0   9  17  120.19    2.68
   1   2  -4   62.59    1.96
   1   3  -6  334.39    3.24
   1   4  -7  479.84    3.50
   1   5  -8  460.61    3.70
   1   8  -9   19.29    1.78
   2   4  -2  402.84    3.85
   2   5  -4   13.47    1.70
   2   6  -5  171.94    2.28
   2   7  -6  133.63    2.57
   2  10  -7    5.34    2.42
   3   7   2  182.89    3.02
   3   8  -1   93.34    2.44
   3   8   7  140.42    4.76
   3  10  -3  107.51    2.72
   3  13  14   67.61    6.07
   4  13   5   82.33    3.16
   4  13   6    4.81    2.88
  -5   1  -6   37.19    5.72
  -5   1   3   33.41    2.30
  -5   2   6  172.85    2.96
  -5   3   8   19.03    2.00
  -4   1   6   27.47    1.66
  -4   4  11   94.38    3.00
  -3   2   9  496.09    3.65
  -3   4  12   53.69    1.78
  -2   4  12  394.94    3.52
  -2   5 -12    0.56    2.55
  -1   4 -11  141.02    2.53
   0   0  -3  390.85    5.26
   0   2  -8  854.92    4.95
   0   7 -11   75.16    2.74
   1   7  -9  125.67    2.30
   2   9  -7   19.91    1.76
   2   9  13   39.49    2.76
   3   7   0  559.78    4.43
   3   7   1    0.66    1.49
   3   7   4   59.75    2.71
   3   8  -2    5.74    1.82
   3   9  -3  206.64    3.05
   3  11  -4    4.09    2.40
   4  13   3   -0.42    2.26
   4  13   4  110.07    3.59
   4  13   7   86.53    4.40
  -5   4   9   71.51    2.99
  -4   0   3   74.63    1.99
  -4   2 -10    3.40    3.05
  -4   5  12   28.46    2.73
  -3  -1   1    8.33    1.46
  -3   3  10  125.82    2.45
  -3   5  13   17.42    1.71
  -3   6  14  127.89    2.95
  -2   1 -10   56.25    2.48
  -2   4 -12   29.60    2.32
  -1   1  -9   18.41    1.64
  -1   2 -10  105.57    2.42
  -1   3  10  458.00    3.55
   0   1  -7  214.78    2.91
   0   4 -10  282.19    2.94
   0   6 -11  143.31    3.02
   1   2  -5  575.25    4.30
   1   4  -8   80.69    2.01
   1   5  10  755.49    5.95
   1   6  -9   11.18    1.51
   1  11  17   72.75    3.15
   2   4  -3  296.21    3.24
   2   5  -5  388.88    3.40
   2   6  -6  328.96    3.30
   2  10  14  136.48    3.78
   2  12  16   27.54    3.22
   3   7  -1  127.46    2.46
   3  10  -4   17.40    2.60
   4  12   4   74.35    3.29
   4  13   2   74.46    3.15
  -5   1   2   56.38    2.41
  -5   2   5    3.28    2.09
  -5   3   7   19.62    2.27
  -4   1   5   75.61    2.40
  -4   2   7  159.61    2.81
  -4   3   9  101.28    2.34
  -3   0   4  423.75    3.84
  -3   1 -10    3.58    1.98
  -3   2 -11  175.47    3.82
  -3   7  15    1.58    1.94
  -2  -1   1   12.57    1.45
  -2   3  10  333.50    3.17
  -2   5  13    2.08    1.41
  -1  -1  -4   38.76    2.72
  -1   1   6  125.77    2.20
  -1   3 -11   52.97    2.38
  -1   5 -12    8.53    2.52
  -1   7  15   24.47    1.92
  -1   8  16  160.69    2.98
  -1   9  17  145.47    3.11
   0   0  -4    4.17    1.16
   0   1   4  434.70    5.30
   0   5 -11  129.09    2.72
   0   6  13   31.42    1.85
   0  11  18    1.94    2.65
   1   3  -7  105.42    1.91
   1   3   6   29.47    2.36
   1   5  -9   26.83    1.88
   1   7 -10   71.99    2.49
   1   8 -10    2.56    1.90
   2   7  -7   38.29    1.60
   2   9  -8   81.40    2.79
   2  11  15   43.16    2.81
   3   8  -3  437.48    3.88
   3   9  -4   -1.24    2.07
   4  12   2   41.41    2.47
   4  12   3   56.22    2.89
   4  12   5  204.45    3.98
   4  12   6   24.05    2.94
   4  13   8    0.17    3.12
  -4   0   2   78.65    2.17
  -4   4  10    2.99    2.26
  -3  -1   0 1000.14    6.70
  -3   1   6    9.50    1.58
  -3   2   8   13.71    1.28
  -3   4  11   48.84    2.16
  -2   0  -9   39.79    2.04
  -2   0   4  655.96    4.73
  -2   3 -12   17.34    2.15
  -2   7  15   -0.48    1.77
  -2   8  16   75.49    2.77
  -1   0  -8  492.30    4.52
  -1   4 -12    1.03    2.12
  -1   4  11   25.18    1.62
   0   2  -9   12.23    1.67
   0   3 -10   61.11    2.08
   0   4  10  740.12    5.06
   0   7  14  118.48    2.44
   0   9  16  121.38    2.90
   1   2  -6   22.31    1.48
   1   6 -10   16.28    2.02
   2   4  -4    2.54    1.06
   2   4   4   43.25    3.44
   2   5  -6    5.75    1.58
   2   6  -7   36.68    1.97
   2   7  10  161.12    4.16
   2   8  -8  118.89    2.78
   3   7  -2  347.00    3.55
   3  10  -5   71.91    2.96
   4  12   1    8.85    2.28
  -5   1   1  121.04    2.93
  -5   2   4   92.36    2.73
  -5   3   6   38.93    2.61
  -5   4   8   17.85    1.96
  -4   3   8   95.40    2.58
  -4   5  11   90.74    2.92
  -3   0  -9  126.37    3.83
  -3   3 -12   41.94    2.75
  -3   5  12  114.32    2.58
  -2  -1  -7  409.55    5.68
  -2   4  11    1.89    1.65
  -1   0   3  203.24    3.16
  -1   5  12  284.46    3.17
   0   0  -5  672.03    5.39
   0   4 -11   33.73    2.10
   0   6 -12    0.10    2.30
   1   3  -8  294.17    3.04
   1   4  -9   22.36    1.87
   2   4  -5  750.11    4.56
   2   7  -8  125.89    2.63
   3   7  -3  192.83    2.88
   3   8  -4    8.41    1.50
   3   9  -5   50.73    2.59
   4  11   2  334.46    4.24
   4  11   3    0.40    2.17
   4  11   4  105.16    3.17
   4  12   0   32.97    2.60
   4  12   7   70.73    3.62
  -5   1   0    7.30    2.40
  -5   5   9   17.55    2.70
  -4   0   1  193.06    3.03
  -4   1   4  222.86    2.99
  -4   2   6  114.85    2.68
  -4   6  12   27.29    2.70
  -3  -1  -1   76.76    2.71
  -3   6  13   13.64    1.67
  -3   7  14  172.26    3.11
  -3   8  15    1.07    2.64
  -2  -1   0 1100.80    8.00
  -2   5  12  181.30    2.68
  -1  -1  -5  708.74    7.31
  -1   1 -10  363.30    3.46
  -1   3 -12   48.60    2.32
  -1   3   9  624.76    4.34
   0   5  11   15.03    1.65
   1   7 -11  108.08    3.10
   2   3  -1  585.71    4.94
   2   5  -7   34.48    1.86
   2   6  -8  273.22    3.04
   3   6  -1  165.78    2.75
   3   6   0  199.81    3.02
   3   6   1   -0.30    1.42
   3   6   2  588.39    5.33
   3   8  -5  157.20    2.81
   3  10  -6   25.24    3.43
   4  11   1    4.49    2.32
   4  11   5   44.40    2.73
  -5   1  -5    0.77    3.38
  -5   1  -1  101.57    3.42
  -5   2   3   26.40    2.24
  -5   4   7    7.61    2.41
  -4   4   9  197.58    3.27
  -3   1   5  426.16    3.88
  -3   2   7  235.37    2.86
  -2   1 -11   84.67    2.52
  -1   1   5  850.14    5.56
  -1   7  14  142.79    2.70
  -1   8  15   62.63    2.37
  -1   9  16   94.87    2.74
   0   0  -6  819.50    5.50
   0   2 -10  130.18    2.45
   0   3 -11  522.97    4.11
   1   1  -2  539.64    5.29
   1   2  -7   47.13    1.46
   1   6 -11   89.19    2.62
   2   3  -3  284.24    3.21
   2   3  -2  687.06    4.89
   2   3   0 2337.01   10.47
   2   4  -6   85.30    2.01
   2   7  -9   20.47    2.03
   3   6  -2  183.81    2.83
   3   7  -4    2.59    1.36
   3   9  -6   91.93    2.97
   4  11   0   66.35    3.07
  -5   1  -2   41.30    2.97
  -4   0   0   85.66    2.41
  -4   1   3   34.74    2.00
  -4   5  10   25.45    2.41
  -3  -1  -2    2.88    1.79
  -3   1 -11  176.05    3.82
  -3   2 -12    0.47    2.44
  -2   7  14  347.89    3.32
  -2   8  15   47.44    2.12
  -2   9  16   20.45    2.06
  -1  -1  -6  452.53    5.32
  -1   4 -13   33.62    2.71
  -1   4  10  564.37    4.13
   0   1  -9   44.02    1.94
   0   4 -12    0.45    2.02
   0   6  12  271.74    3.36
   0  11  17    8.54    2.59
   1   1  -4   22.16    1.24
   1   1  -1    2.38    1.48
   1   3  -9   52.23    1.59
   1   4 -10  254.54    2.69
   2   3  -4  288.61    3.20
   2   5  -8  337.26    3.22
   2   8  11   75.60    3.11
   3   6  -3  196.77    2.83
   3   6   3  613.91    6.08
   3   7  -5  192.11    2.98
   3   8  -6   50.12    2.60
   4  10   1    6.93    2.17
   4  10   2  126.61    3.02
   4  10   3   65.44    2.83
   4  11  -1   20.76    2.76
   4  11   6    3.26    2.18
   4  12   8   52.24    3.83
  -5   1  -4   26.87    3.02
  -5   1  -3   30.81    2.84
  -5   2   2   16.88    2.21
  -5   5   8   62.59    2.34
  -4   2 -11    9.60    3.57
  -4   2   5  181.48    2.89
  -4   6  11   37.74    2.63
  -3   0   2  380.40    3.84
  -3   3   8   -1.10    1.66
  -3   5  11  264.31    2.83
  -3   6  12  138.86    2.79
  -2   1   5  844.95    5.14
  -2   3 -13    9.08    2.46
  -2   4  10   90.09    2.10
  -1   1 -11   87.21    2.28
  -1   2 -12    1.94    1.97
   0   0  -7  864.78    5.50
   0   7  13    2.30    1.65
   0   9  15  123.51    2.91
   0  10  16   49.07    2.38
   1   1  -5 1608.24    7.14
   1   2  -8  634.96    4.01
   2   3  -5   89.63    2.03
   2   3   1    0.82    1.46
   2   4  -7  374.17    3.38
   2   6  -9    5.53    1.89
   2  13  16   25.85    2.96
   3   6  -4   22.85    1.89
   3   9  -7   17.36    2.78
   4  10  -1   51.89    2.48
   4  10   0  141.23    3.08
   4  10   4   11.91    2.25
   4  11  -2   26.24    2.79
  -5   3   4   64.98    2.62
  -5   4   6   62.44    2.29
  -4   0  -1  535.66    5.13
  -4   4   8   25.91    2.18
  -4   7  12    5.10    1.93
  -3  -1  -7   36.97    4.54
  -3   1   4  221.66    2.99
  -3   2   6  108.60    2.27
  -3   7  13   15.87    1.70
  -3   8  14   20.13    2.29
  -3   9  15   15.49    2.16
  -2  -1  -8  263.93    4.21
  -2   5  11  271.33    3.07
  -1  -1  -7  142.98    2.93
  -1   0 -10  450.33    4.06
  -1   0   2 2627.91   12.08
  -1   3 -13   98.02    2.90
  -1   5  11    3.97    1.60
   0   1 -10  317.06    3.30
   0   3 -12   16.59    2.05
   0   5 -13   99.72    3.14
   1   1  -6   40.79    1.69
   1   3 -10  247.07    3.07
   1   4 -11  113.80    2.53
   1   6 -12    0.77    2.66
   2   6   8   62.76    3.38
   2   7 -10   78.71    2.73
   2   9  12  309.77    4.96
   2  12  15   18.73    2.54
   3   6  -5  162.53    2.61
   3   7  -6  162.36    2.99
   3   8  -7    2.33    2.35
   4  10  -2   92.56    2.83
  -5   2   1  156.25    3.24
  -5   5   7   -0.18    2.39
  -4   1 -10    0.52    3.64
  -4   3   6   60.58    2.27
  -3   0 -10   74.38    3.19
  -2   6  12   71.71    2.22
  -1   6  12  207.87    2.83
   0   0  -8  516.78    4.21
   1   1  -7  523.10    3.98
   1   2  -9  206.19    2.69
   1   5 -12   -0.22    2.15
   2   3  -6  258.52    2.70
   2   4  -8  248.33    2.63
   2   5  -9   31.49    1.54
   2  10  13   28.93    2.57
   3   5  -3  276.72    3.11
   3   5  -2  182.92    2.81
   3   5  -1    0.02    1.50
   3   5   0  599.80    4.74
   3   7   6   85.45    4.11
   4   9  -1   79.92    2.50
   4   9   0   94.43    2.67
   4   9   1    2.37    1.95
   4   9   2  160.88    3.08
   4  10  -3    1.22    3.28
   4  10   5  318.41    4.72
   4  11   7  153.38    4.42
  -5   3   3  109.24    2.85
  -4   0  -2   56.57    2.40
  -4   2   4  410.88    3.78
  -4   6  10   19.66    2.35
  -3   5  10   25.30    1.88
  -2   0   2 1357.04    7.53
  -2   7  13    2.02    1.44
  -2   9  15    3.16    1.78
  -1  -1  -8  512.10    4.92
  -1   1 -12    0.76    1.78
  -1   2 -13  292.94    3.67
  -1   2   6  108.94    2.31
  -1   7  13    0.30    1.35
  -1   8  14  256.66    3.16
   0   1   3 1401.23   10.61
   0   2 -12   40.78    2.01
   0   3   7  675.90    5.30
   0   5  10  268.43    3.26
   0  12  17   68.64    3.07
   1   1   0  726.98    8.30
   1   3 -11  114.97    2.41
   1   6  10  258.59    3.65
   2   3  -7  120.13    2.19
   3   5  -4   54.76    2.05
   3   6   4  119.65    3.46
   3   7  -7  172.28    2.59
   3   8  -8   12.14    3.10
   4   9  -2   20.59    2.63
   4   9   3  186.74    3.72
  -5   2   0    4.14    2.29
  -4   4   7  134.96    2.65
  -4   7  11  183.58    3.18
  -3   1 -12    5.23    2.45
  -3   2 -13   21.68    2.90
  -3   8  13   65.26    2.70
  -3   9  14  110.71    3.07
  -2  -1  -9   55.42    2.59
  -2   1   4  323.52    3.46
  -1   1   4 1338.48    7.27
  -1   3 -14   54.98    2.66
  -1   4   9  139.19    2.43
   0   0  -9   12.70    1.60
   0   2   5 2975.68   12.36
   0   3 -13  136.30    2.86
   0   6  11   96.26    2.34
   0  11  16  139.88    3.14
   1   1  -8  236.77    2.82
   1   2 -10  673.05    4.33
   1   4 -12   32.70    2.44
   1   4   7  430.33    5.43
   2   4  -9   18.45    1.35
   2   5 -10  201.28    2.62
   3   5  -5  633.50    4.37
   3   5   1  111.53    2.50
   3   6  -7   19.03    2.00
   3   7  -8   65.90    2.51
   3  14  14   14.22    4.02
   4   9  -3  173.07    3.47
  -5   5   6   50.74    2.57
  -4   0  -3  174.22    3.74
  -4   3   5   67.47    2.25
  -2  11  16  125.50    3.43
  -1  12  17   51.69    2.84
   0   7  12  579.81    4.58
   0  10  15    6.44    2.09
   1   7  11   50.41    2.03
   2   2  -5 1073.90    5.45
   2   2  -4  170.50    2.61
   2   2  -3  487.18    4.13
   2   3  -8  430.93    3.27
   2   3   2  233.57    4.64
   2  14  16   21.80    3.29
   3   5  -6   19.33    1.99
   4   8  -2   38.72    2.28
   4   8  -1   12.70    2.20
   4   8   0  326.54    3.86
   4   9  -4    7.95    2.53
   4   9   4   43.16    2.73
   4  10   6    0.76    2.29
  -5   3   2   46.33    2.30
  -5   4   4  182.04    3.20
  -5   6   7   16.36    2.62
  -4   0  -4   96.85    3.47
  -4   2   3   22.45    1.86
  -4   5   8   40.97    1.88
  -3   0 -11   10.31    2.35
  -3   4   8    4.17    1.29
  -2  -1  -2  239.10    5.35
  -2   1 -13  174.21    3.34
  -2   5  10   93.45    1.84
  -2   6  11  165.82    2.65
  -2  10  15    0.74    2.45
  -1  -1  -9  230.38    3.19
  -1   1 -13   22.03    1.99
  -1   5  10  130.81    2.36
  -1  11  16  179.84    3.29
   0   0 -10  359.10    3.54
   0   2 -13  191.99    3.08
   0   8  13   10.43    1.64
   0   9  14  153.85    2.71
   1   1  -9   23.00    1.36
   1   3 -12   19.68    2.11
   2   2  -6    1.29    1.43
   2   3  -9   16.12    1.76
   2   4 -10   74.98    1.89
   2   5 -11   51.61    2.48
   3   5   2  379.14    4.53
   3   7  -9   14.82    2.71
   4   8  -3  101.14    3.02
   4   8   1    8.14    1.97
   4   9  -5   44.30    2.95
  -5   2  -2   94.78    3.39
  -5   5   5    3.91    2.43
  -4   0  -6  281.27    7.49
  -4   0  -5    4.52    2.48
  -4   1   0  147.25    3.06
  -4   6   9   86.30    2.24
  -4   7  10   14.48    2.35
  -4   8  11   41.68    2.64
  -4   9  12    5.24    2.72
  -3  -1  -8  184.85    6.15
  -3   0   0   46.26    2.01
  -3   5   9  474.30    3.79
  -3  10  14   59.19    2.87
  -2   0 -12   33.10    2.22
  -2   7  12  196.28    2.74
  -2   8  13   35.47    2.03
  -2   9  14   92.91    2.25
  -1   2 -14   20.34    1.97
  -1   3   7 1089.48    5.89
  -1   6  11  479.30    3.82
  -1   9  14  149.35    2.75
  -1  10  15   15.77    1.98
   0   1 -12  255.70    2.92
   0   3 -14    3.82    2.57
   0  13  17   53.27    2.95
   1   1 -10  203.09    2.68
   1   3   5 1661.84   13.31
   1   4 -13   66.16    2.27
   2   2  -7 1037.45    5.17
   2   2  -1  174.43    3.01
   2  13  15  134.51    3.98
   3   4  -3  120.65    2.50
   3   4  -2  480.99    4.07
   3   5  -7  126.99    2.27
   3  13  13   45.96    4.28
   4   8  -4    1.43    2.34
   4   8   2  272.70    3.90
  -5   3   1   86.36    2.69
  -3   3   6  546.34    3.90
  -3   6  10   -0.10    1.27
  -3   7  11  191.21    2.83
  -3   8  12    3.06    2.04
  -3   9  13   50.53    2.38
  -2   0   1    2.48    1.31
  -1   7  12  531.90    3.80
  -1   8  13   11.38    1.44
   0  -1  -7  888.38    5.67
   0  -1  -6    1.16    1.02
   0  -1  -5  758.79    6.00
   0   0 -11  334.90    3.42
   1   0  -7  719.36    4.63
   1   0  -6  152.81    2.33
   1   0  -5  716.59    4.90
   1   0  -4  346.36    3.80
   1   3 -13  174.20    3.00
   2   3 -10  244.78    2.98
   2   4 -11   56.54    1.94
   2   5 -12   85.85    2.99
   3   4  -6   56.26    2.19
   3   4  -5  235.90    2.62
   3   4  -1    1.68    1.49
   3   5  -8  122.16    2.76
   3   6  -9    6.05    1.81
   4   7  -2  205.64    3.09
   4   8  -5  126.91    3.15
  -5   2  -7   30.45    4.72
  -5   2  -3   31.17    2.62
  -5   6   6   54.26    2.53
  -4   2   2  117.93    2.47
  -4   3   4  168.56    2.48
  -4   5   7   40.79    2.01
  -3   1 -13   64.10    3.24
  -3   1   2  589.09    4.69
  -3   2   4  569.11    4.41
  -3   4   7  284.67    3.16
  -2   1 -14   24.70    2.40
  -2   1   3   58.51    2.00
  -2   2   5  298.35    3.11
  -2  11  15   12.89    2.55
  -1   1 -14    8.84    2.01
  -1   2   5  359.74    3.80
   0  -1  -8  323.19    3.43
   0   1 -13  142.45    2.69
   0   2 -14   16.53    2.38
   0  12  16   32.08    2.00
   1   0  -8  834.33    4.80
   1   1 -11  222.83    2.91
   2   2  -9    8.68    1.57
   2  12  14  285.15    4.79
   3   4  -7  252.23    3.04
   3   5  -9    0.49    2.02
   3   6 -10  112.32    2.95
   3  12  12  254.09    6.85
   4   7  -4   23.77    2.41
   4   7  -3  109.81    2.90
   4   7  -1   24.24    2.07
   4   7   0  308.88    3.81
   4   8  -6    5.21    2.64
   4   8   3  160.59    3.35
  -5   3   0    1.87    2.17
  -5   5   4   39.49    2.61
  -4   1  -1   73.00    2.64
  -4   6   8   70.70    2.34
  -4   7   9  156.51    3.01
  -4   9  11   59.99    2.83
  -2   0 -13   64.39    2.79
  -2  10  14  140.06    2.94
  -1  12  16   68.22    2.27
   0  -1  -9  127.67    2.42
   0   0 -12   59.01    2.19
   0  11  15    6.67    1.98
   1   0  -9   24.84    1.74
   2   3 -11   20.34    2.04
   2  11  13   10.41    2.56
   3   4  -8  144.79    2.55
   3   4   0  573.89    4.82
   4   7  -5   93.31    2.80
   4   7   1    6.03    1.78
  -5   2  -5    6.00    2.81
  -5   4   2    3.84    1.93
  -5   6   5   37.71    2.67
  -4   4   5   10.29    1.75
  -4   8  10   19.06    1.88
  -3   0 -12   -0.09    2.54
  -3   0  -1  731.44    6.31
  -3  10  13   73.15    2.62
  -2   6  10  179.71    2.54
  -2   8  12   74.93    2.25
  -2   9  13   86.53    2.43
  -1   1   3 1250.13    7.66
  -1   5   9  591.81    4.26
  -1  11  15    7.99    1.59
   0  -1 -10  666.76    4.59
   0   3   6   60.20    1.87
   0   6  10   48.23    1.83
   0   7  11   10.18    1.64
   0   9  13   49.00    2.05
   1   1 -12  179.73    2.72
   1   2 -13   86.45    2.20
   2   1  -7  174.24    2.46
   2   1  -5  714.24    4.61
   2   2 -10  375.26    3.34
   2  10  12  133.06    3.49
   3   5 -10  186.96    3.28
   3   5   3  296.80    4.72
   4   7  -6   23.58    2.58
  -5   3  -1   16.38    2.39
  -5   7   6   92.29    3.11
  -3   6   9   49.50    1.67
  -3   7  10    1.14    1.67
  -1  -1 -12   28.09    1.84
  -1   1 -15  110.06    2.96
  -1   6  10  242.88    2.93
  -1   9  13   45.77    2.15
  -1  10  14  250.93    2.88
   0   0 -13  260.09    3.14
   0   1 -14    7.40    1.65
   0   2 -15  108.30    3.19
   0   8  12  298.62    3.17
   1   0 -10   95.35    1.85
   2   1  -8   46.95    1.71
   2   1  -4   39.17    1.44
   2   2 -11   13.99    1.83
   2   3 -12   17.88    1.80
   2   9  11    1.17    1.66
   3   3  -6   37.79    1.96
   3   3  -3  282.26    3.22
   3   4  -9   78.06    1.96
   4   6  -5  129.79    2.71
   4   6  -4   41.36    2.26
   4   6  -3  237.75    3.32
   4   6  -2   92.04    2.52
   4   7  -7   55.90    2.88
  -5   8   7    2.70    1.99
  -1   7  11   40.28    1.55
  -1   8  12  141.39    2.20
  -1  13  16   80.20    2.46
   3   3  -7   79.77    1.86
  -4   1   6   27.25    2.22
  -4   2   6  104.42    2.32
  -4   3   6   61.01    2.45
  -3   5   4  698.05    4.61
  -3  11   7   56.91    2.52
  -2   4   2  778.86    5.42
  -1  12   5    6.22    2.06
   0  -9   5   20.55    2.18
   1  -5   1  557.67    4.96
   1  13   5    5.27    1.95
   2  -9   7   82.72    2.75
   2  -8   5   12.62    2.26
   2  -3   1  812.22    5.64
   3  -8   8    2.51    2.69
   3  -2   2   14.07    1.68
   4  -5   6  109.02    2.48
   4  -4   5   -0.24    1.55
   4  -2   4   60.98    2.36
   4   6   4  202.62    3.81
   5   1   6   65.46    2.70
   5   5   6  276.32    4.09
  -4  -1   6   92.02    3.04
  -4   4   6  138.62    2.63
  -4   5   6  338.18    3.71
  -4   7   7   24.44    1.91
  -4   9   8  137.67    3.17
  -3  -5   5  639.54    9.83
  -3   0   3   69.17    2.28
  -3   1   3    5.82    1.69
  -3   2   3   12.11    1.65
  -3   6   4  115.77    2.35
  -3   8   5   40.68    2.03
  -2   7   3   81.96    2.20
  -2   9   4  303.88    3.40
  -1   4   1  378.49    4.42
  -1   7   2  684.66    5.19
  -1   9   3    3.94    1.63
  -1  17   9   27.77    3.21
   0  -5   1 1299.13    9.31
   0   8   2  484.24    5.18
   0  13   5    1.86    1.85
   1  -9   6   58.43    2.68
   1   8   2  380.39    6.09
   1  10   3   47.86    2.59
   3  -7   6   85.70    2.46
   3   7   3   86.56    3.51
   4  -3   5    1.08    2.00
   4  -1   4  123.17    2.73
   5  -2   8   17.99    2.86
   5  -1   7   21.58    2.14
   5   2   6   37.20    2.03
   5   3   6  232.01    3.80
   5   4   6   14.06    2.28
   5   8   7   43.78    3.06
  -4  -3   7  113.40    4.10
  -4   8   7   -1.51    2.34
  -4  11   9   -1.47    2.74
  -3  -1   3   22.19    1.84
  -3   3   3   19.61    1.85
  -3  10   6  157.19    2.44
  -3  13   8   65.43    2.95
  -3  14   9    4.22    2.16
  -2  -8   7    6.08    3.91
  -2  11   5   62.18    2.31
  -2  16   9    4.21    2.91
  -1  -9   7   -0.34    2.67
  -1  11   4  226.33    3.26
  -1  15   7    2.78    2.35
   0  10   3   11.95    1.62
   1  -6   2   36.82    1.92
   1  17   8  143.21    4.25
   2  -8   6   93.84    2.79
   2  -7   4  435.83    3.77
   2  -2   1  579.04    4.83
   2   3   1    0.57    1.90
   3  -7   7   57.41    2.68
   3  -6   5   17.01    1.66
   3  -5   4  159.84    2.46
   3   0   2    0.21    1.59
   3   2   2    8.85    1.60
   4  -4   6    0.90    1.64
   4   0   4  101.54    2.58
   4  12   7   67.90    4.66
   5  -1   8   10.19    2.90
   5   0   7    2.14    2.41
   5  10   8   63.82    3.54
  -5   3   9   61.91    3.15
  -5   4   9   61.17    3.32
  -4  -4   8   33.75    4.10
  -4  -2   6    6.90    2.81
  -4   1   5   75.57    2.28
  -4   2   5  172.66    3.03
  -4   6   6  106.82    2.33
  -3  -4   4    6.12    2.47
  -3   7   4  320.01    3.37
  -3   9   5    0.93    1.85
  -3  12   7   61.77    2.68
  -2   5   2  536.64    4.23
  -2  14   7   10.54    2.35
  -1  14   6  109.66    2.99
   0  -8   4  269.48    3.86
   0  17   8   68.72    3.17
   1  -4   1 1375.72    7.96
   1  16   7    0.02    2.85
   3  -6   6  129.61    3.09
   3   1   2    3.47    1.17
   4  -4   7   14.68    2.25
   4  -2   5    2.53    2.08
   4   1   4   21.56    2.02
   4   4   4    0.20    1.72
   5   1   7   17.73    2.20
  -5   2   9   37.01    3.19
  -4   0   5  157.00    3.13
  -4   3   5   68.22    2.00
  -4   4   5    8.98    2.20
  -4   7   6  155.42    3.06
  -4   9   7   -0.58    2.28
  -3  -6   6   47.09    6.35
  -3  11   6  230.76    3.28
  -2  -4   2  406.14    8.46
  -2   8   3  189.25    2.58
  -2  10   4   21.61    1.93
  -2  13   6   45.75    1.87
  -1  -9   8   56.84    3.50
  -1   5   1  485.82    4.73
  -1  13   5    2.20    1.86
   0  -9   7   23.07    2.49
   0  -7   3  626.39    5.69
   0  -6   2  210.67    3.68
   0   6   1   42.23    2.12
   0  12   4  557.55    4.92
   0  16   7   -0.73    2.50
   1  -9   8   25.77    2.51
   1  -8   5    9.62    1.80
   2  -7   5    2.60    1.86
   2   0   1  639.11    5.73
   3  -7   9   20.27    2.71
   3  -4   4   17.80    1.75
   4  -3   6   66.90    2.02
   4   2   4  214.88    2.92
   4   3   4   51.88    1.83
   4  10   6    0.79    2.49
   5   0   8   14.63    2.56
   5   2   7    9.35    1.79
   5   3   7    1.58    2.48
   5   4   7    9.69    2.51
   5   5   7    5.14    2.28
   5   6   7   46.56    2.81
   5   9   8   95.58    3.91
  -4  -1   5  101.83    2.90
  -4  11   8   72.08    2.40
  -2   0   1    1.56    1.45
  -2   6   2  145.62    2.57
  -2  12   5    2.73    1.94
  -1  -9   9   37.87    3.26
  -1  -8   5   25.21    2.37
  -1   8   2  152.90    2.76
  -1  10   3  124.03    2.59
   0  15   6  171.29    3.29
   2  -8   8   -0.38    1.92
   2  -8   9   53.92    3.24
   2  -6   4  114.65    2.50
   3   9   4  203.34    5.66
   4  -4   8    4.73    2.28
   4  -1   5   45.51    1.86
   5   1   8  101.10    3.16
  -5   2   8   56.56    3.24
  -5   3   8   20.41    2.95
  -4  -3   6   16.59    2.85
  -4   6   5    5.69    2.12
  -4  10   7    4.46    1.90
  -3   6   3   95.42    2.18
  -3  10   5    6.71    1.55
  -3  13   7   26.24    2.01
  -2  -1   1   13.15    1.67
  -2   2   1  193.78    2.94
  -2   9   3   80.61    2.15
  -2  16   8   11.57    2.83
  -1  12   4  260.50    3.32
  -1  16   7    1.71    2.43
  -1  17   8   64.07    3.29
   0  -9   9   99.80    3.62
   0  -8   5   22.42    2.04
   0  14   5   52.10    2.73
   1  -7   4   76.17    2.33
   1  -5   2    0.50    1.45
   2  -7   6  149.54    2.91
   3  -6   8   12.78    2.71
   3  -5   6   97.62    2.55
   3  -1   3  184.08    2.85
   3   6   3  575.58    6.55
   4  -4   9   83.10    3.03
   4  -3   7   49.46    1.92
   4  -2   6  246.25    2.93
   4   7   5  339.60    4.60
   5   0   9   53.78    2.56
   5   2   8   23.48    2.62
  -5   1   8   -1.26    2.66
  -5   6   8   53.25    2.55
  -5   7   8   32.36    2.78
  -4   2   4  406.43    4.01
  -4   9   6   48.92    2.52
  -4  12   8   29.55    2.87
  -3  -3   3  303.15    4.77
  -3   1   2  587.99    4.86
  -3   2   2  647.33    4.91
  -3  12   6   75.16    2.28
  -2   3   1  135.66    2.40
  -2   7   2  147.32    2.52
  -2  11   4  250.39    3.24
  -2  14   6  120.07    2.87
  -1   6   1  273.94    3.48
  -1  15   6  142.62    3.15
   0  -4   1  652.58    7.13
   0   9   2  529.45    5.00
   0  11   3  248.74    3.46
   1  -6   3  440.09    4.19
   1  -3   1  470.23    4.98
   2  -7   7    8.67    2.03
   2  13   5    4.32    3.02
   3  -4   5    3.36    1.82
   4  -3   8   48.53    2.47
   4  -1   6  149.70    2.89
   4   1   5   68.31    2.26
   5   1   9   57.11    3.07
   5   3   8   98.86    3.16
   5   7   8   84.76    3.12
   5  10   9    0.26    3.29
  -5   0   8    2.80    2.85
  -5   3   7   13.95    2.73
  -5   4   7    8.52    2.78
  -4   0   4  237.94    3.46
  -4   1   4  223.40    3.38
  -4   3   4  169.44    2.61
  -4   4   4  152.95    2.84
  -4   7   5   49.98    1.91
  -4  11   7    2.05    1.83
  -3   3   2  160.95    2.81
  -3   7   3  294.40    3.23
  -3  11   5  104.71    2.63
  -3  14   7   23.97    2.57
  -2  -8   9   64.07    4.45
  -2  13   5   81.15    2.39
  -1  -8   6  358.85    4.99
  -1  14   5  126.92    2.84
   0   2   0  485.75    8.38
   1  -8   7   11.03    1.72
   1  14   5    5.72    2.18
   2  -7   8   33.20    2.55
   2  -6   5    1.14    1.24
   2  -5   4  476.64    4.07
   3  -6  10    0.51    2.10
   3  -5   7   64.00    2.55
   4  -3   9   39.63    2.70
   4  -2   7  154.30    2.56
   4   2   5  112.43    2.51
   4   5   5  198.07    3.26
   4   9   6   19.76    2.82
   4  13   8    0.86    3.43
   5   1  10    2.88    3.01
   5   2   9   41.48    2.91
   5   4   8   81.09    2.56
   5   5   8  120.78    3.14
   5   6   8   33.69    2.46
  -5   2   7   62.35    2.66
  -5   5   7   -0.37    1.86
  -5   6   7   17.86    2.73
  -4  10   6   22.93    2.46
  -3  -1   2  736.58    5.85
  -3   4   2  189.20    2.86
  -2  -2   1  170.22    3.90
  -2  10   3  358.08    3.46
  -1  -7   4   36.72    2.57
  -1   1   0  505.92    5.93
  -1   9   2  169.90    2.78
  -1  11   3  178.16    2.95
   0  -7   4  122.53    2.67
   0   7   1  187.70    3.41
   0  13   4   16.63    2.13
   0  17   7    0.48    2.66
   1  -8   8   14.41    2.15
   1  -8  10    1.12    2.81
   1  -7   5    1.15    1.66
   2  -7   9   82.91    3.03
   2  -2   2  137.18    2.44
   3  -5   8   16.58    2.38
   3  -4   6  308.79    3.40
   3   5   3  303.71    4.34
   4  -3  10    3.18    2.70
   4  -2   8   43.30    2.44
   4   3   5   72.54    2.00
   4   4   5  270.73    3.47
   5   3   9    4.70    2.53
   5   9   9   25.14    2.99
  -5  -1   8    2.45    3.00
  -5   7   7    2.09    2.69
  -4  -1   4  253.69    3.90
  -4  12   7    1.68    2.73
  -3   5   2  244.56    3.01
  -3   8   3   89.19    2.28
  -2   5   1  185.91    2.76
  -2  16   7    6.69    2.70
  -1   0   0  842.76    8.38
  -1   2   0 9999.00   22.78
  -1   7   1  341.15    3.68
  -1  13   4   28.87    2.08
   0  -8   7    3.69    2.34
   0  16   6  134.56    3.44
   1  -4   2  223.85    3.32
   1  -2   1  756.21    6.38
   1  11   3   60.18    2.95
   2  -7  10   26.20    2.26
   2  -6   6  102.31    2.22
   3  -5   9  115.89    3.16
   3   2   3  432.82    4.26
   3   3   3  730.29    5.68
   4  -1   7    1.13    1.55
   4   1   6  134.04    2.80
   4  11   7  154.87    4.37
   5   2  10    1.03    2.44
   5   4   9   24.31    2.73
   5   8   9    1.27    2.64
  -5   3   6   41.45    2.89
  -5   4   6   64.27    2.92
  -5   5   6   45.57    2.61
  -5   8   7    3.19    2.90
  -4  -3   5  273.64    5.10
  -4   7   4  143.50    2.84
  -4  11   6   44.47    2.77
  -3  -2   2  235.64    3.94
  -3  12   5  129.85    2.48
  -1  -8   7   31.23    2.43
  -1   3   0   17.10    1.69
  -1  16   6   33.54    2.48
  -1  17   7   18.90    2.11
   0  -6   3  394.71    4.48
   0  -5   2  214.86    3.78
   0   3   0 1330.26   11.43
   1  -7   6  400.30    3.97
   1  -6   4  265.99    3.17
   1  -5   3  357.68    3.85
   1   9   2  677.87    7.67
   1  17   7   30.44    3.07
   2  -1   2 1043.21    6.45
   3  -5  10    0.50    2.43
   3  -4   7   25.86    2.02
   3  -1   4  101.71    2.29
   4  -2   9   64.84    2.19
   4  -1   8   18.03    2.25
   4   0   7   22.66    2.13
   4   8   6   77.41    2.87
   5   3  10   15.03    2.82
   5   5   9   15.46    2.03
   5   6   9    6.26    2.64
   5   7   9   28.42    2.58
  -5   1   6   63.95    2.90
  -5   6   6   43.64    2.86
  -4  -4   6   -0.01    2.68
  -4  -2   4   30.22    2.33
  -4   1   3   32.28    2.10
  -4   2   3   22.98    1.99
  -3  -5   4   51.12    3.86
  -3   6   2   76.43    1.77
  -2   6   1  387.38    3.40
  -2  11   3   62.48    2.29
  -2  14   5   49.89    2.51
  -1  -8   8  185.20    4.21
  -1  -6   3  216.03    4.65
  -1  -5   2  293.96    6.55
  -1  10   2   54.56    2.11
   0  -8   8  146.70    3.14
   0  -8   9   61.66    2.91
   0  -8  10    1.05    2.69
   0  10   2  117.08    2.61
   0  12   3  188.75    3.17
   0  15   5   11.31    2.25
   1  13   4  344.73    4.87
   1  16   6  105.95    3.82
   2  -6   8  106.36    2.73
   3  -4   8   56.77    2.49
   3  -3   6  308.60    3.30
   4  -2  10    0.40    1.90
   4  -2  11   13.85    2.73
   4   2   6  164.22    2.60
   5   4  10   38.82    2.92
  -5  -1   7   40.03    3.30
  -4   0   3   76.47    2.39
  -4   5   3   71.63    2.40
  -4  12   6   37.92    2.95
  -3   7   2   67.91    2.05
  -2  13   4   18.20    2.07
  -1  -8   9   18.06    2.99
  -1  -8  10    3.68    3.01
  -1   4   0  343.98    3.82
  -1  12   3   99.56    2.48
   0  -7   5   63.70    2.12
   1  -7   8   84.60    2.81
   2  -6   9  111.87    2.92
   2  -5   6  279.00    3.30
   2   0   2   77.42    2.28
   3  -4   9  175.68    3.30
   3   0   4   29.67    1.46
   3   8   4  837.39    8.49
   4  -1   9   77.19    2.50
   4   0   8  177.65    3.14
   4   1   7    5.00    1.96
   4   3   6  209.14    2.83
   4   4   6   34.30    2.02
   4   7   6  219.44    3.65
   5   5  10   16.79    2.47
   5   6  10   19.24    2.77
   5   8  10   48.50    3.10
   5   9  10   38.57    3.19
  -5   2   5    3.50    2.11
  -5   3   5   61.52    2.97
  -5   4   5   14.04    2.46
  -5   5   5    6.08    2.10
  -5   8   6   44.67    3.14
  -4  11   5    9.31    2.22
  -3   2   1   76.25    1.89
  -3  10   3  223.19    3.05
  -2   7   1  664.53    4.58
  -2  16   6   13.22    2.79
  -1  -7   5  169.99    3.73
  -1  14   4  117.73    2.79
   0   4   0  237.86    4.52
   0   8   1  575.22    5.41
   0  14   4  154.36    3.21
   1  -7   9  144.26    3.27
   1  -7  10   12.64    2.54
   1  -7  11   81.91    3.31
   1  -1   1 1126.41    8.19
   2  -6  10    0.74    1.76
   2  -6  11   58.38    2.52
   2   6   2  418.26    8.03
   3  -4  10    0.06    2.40
   3  -4  11   77.48    3.27
   3  -3   7   17.05    1.78
   3   1   4   55.21    2.06
   4  -1  10    2.69    2.20
   4   5   6  252.91    3.40
   4  10   7  121.72    3.47
   4  12   8   49.18    3.60
   5   4  11   43.14    2.49
   5   7  10  144.17    3.22
  -5  -2   7   32.54    3.52
  -5  -1   6   60.80    3.62
  -5   1   5    0.45    2.16
  -5   6   5   36.68    2.81
  -4  -1   3    2.68    1.80
  -4   7   3   37.41    2.24
  -3   0   1  315.91    3.71
  -3   4   1  468.30    3.73
  -3   8   2    9.09    1.82
  -3  12   4    5.35    1.79
  -2  -7   6  137.78    4.98
  -2   1   0  214.67    3.27
  -2   2   0  777.57    5.37
  -2   3   0   21.22    1.56
  -2  10   2    1.75    1.78
  -2  15   5   16.42    2.55
  -1   5   0  461.09    4.47
   0  -3   1  385.60    6.08
   1  -5   4  717.95    5.20
   1  -3   2   -0.75    1.51
   1  15   5   51.14    3.00
   2  -5   7   59.27    2.31
   2  -4   5   22.61    1.74
   2   1   2  245.57    3.71
   3  -2   6   31.15    1.42
   4  -1  11   71.13    2.31
   4   0   9   40.31    2.41
   4   1   8   71.69    2.44
   4   2   7   28.86    1.72
   5   5  11   38.79    2.34
   5   6  11   34.07    3.07
  -5   0   5   33.95    2.52
  -5   7   5    7.59    2.09
  -4  -4   5   97.97    4.03
  -4  -3   4  179.99    3.76
  -4   2   2  119.14    2.59
  -4   3   2   78.35    2.35
  -4  10   4   30.89    2.35
  -4  12   5    5.17    2.41
  -3  -3   2  554.92    6.10
  -3  -1   1    8.66    1.47
  -3   5   1  247.83    2.75
  -3  14   5   13.16    2.65
  -2   0   0  425.11    4.51
  -2   4   0  933.20    5.53
  -2   8   1  246.58    3.02
  -1  11   2   76.44    2.31
  -1  17   6   39.54    2.95
   0  -6   4  231.46    3.41
   0  17   6   26.48    3.07
   1  -6   6  167.73    2.79
   1  -4   3  642.38    5.05
   2  -5   8   23.43    2.03
   3  -3   9   34.52    2.33
   3   2   4   34.33    1.88
   3   7   4   61.77    2.87
   4   0  10    5.17    2.28
   4   3   7    5.58    1.85
   4   9   7   94.96    3.04
   5   7  11   22.79    2.74
   5   8  11   63.53    3.30
  -5   3   4   63.51    2.82
  -5   4   4  172.28    3.24
  -4  -2   3    0.89    1.97
  -4   1   2  356.26    3.84
  -4   5   2   14.99    2.04
  -3   6   1  298.57    3.13
  -3  11   3   22.66    1.74
  -2  -6   4    9.06    3.34
  -2   5   0    2.84    1.45
  -2  14   4   21.57    1.87
  -1   6   0    9.32    1.46
  -1   9   1  210.37    3.08
   0   5   0  959.03    8.04
   0  11   2  122.18    2.74
   0  13   3   61.62    2.72
   0  16   5   19.68    2.33
   1  -6   7   17.55    1.93
   2  -5   9   91.21    2.64
   2  -5  10    2.97    2.16
   2  -4   6  529.52    4.15
   2  -1   3  767.05    5.36
   2   2   2  349.47    4.41
   3  -3  10   -0.71    2.20
   3  -3  11   31.86    2.69
   3  -2   7   14.44    1.36
   3   0   5   66.54    1.86
   3   3   4    9.50    1.53
   4   0  11   59.53    2.64
   4   0  12   26.52    2.81
   4   1   9   59.06    2.38
   4   2   8   84.53    2.47
   4   4   7    7.80    1.89
   4   8   7  314.84    4.21
  -5  -2   6   14.24    3.05
  -5   6   4   11.28    2.70
  -4   6   2    5.13    1.89
  -4   9   3   93.27    2.57
  -4  11   4    2.10    2.39
  -2  -1   0 1082.14    7.71
  -2  11   2   14.34    2.01
  -1  -7   6   90.05    2.81
  -1  15   4    2.36    1.94
   0  -7   8  218.14    3.42
   0  -7   9  147.04    3.19
   0  -7  10   24.46    2.62
   0  -7  11   76.72    3.27
   0   9   1  288.08    3.78
   1  -6   8  141.85    2.91
   1  -5   5  153.79    2.72
   2  -5  11   57.71    2.19
   2   5   2  907.38    9.53
   3  -3  12   48.02    2.39
   3  -2   8   97.61    2.37
   3   4   4   31.07    1.77
   3   6   4  118.89    2.94
   4   1  10   40.94    2.53
   4   3   8  378.62    3.94
   4   5   7   56.92    1.85
   4   6   7    5.75    1.77
   4  11   8   64.94    3.35
   4  13   9  122.81    4.63
  -5   7   4   24.10    2.70
  -4   7   2   31.52    2.13
  -3  -2   1   49.93    2.25
  -3  12   3  105.46    2.82
  -2   6   0   34.25    1.40
  -1   7   0  108.79    2.36
   0  15   4  118.43    3.46
   1  -6   9   89.78    2.74
   1  -6  10   35.34    2.53
   1  -6  11   18.68    2.66
   1  -6  12   16.80    2.26
   1   7   1   29.31    2.74
   1  10   2 1113.30    9.33
   1  14   4  106.64    3.42
   2  -4   7   12.82    1.75
   2   4   2  375.19    5.58
   3  -2   9  115.91    2.56
   3  -1   7   -0.93    1.65
   3   1   5  497.40    3.96
   4   1  11  119.18    3.03
   4   2   9  111.94    2.31
  -5  -3   7  142.86    5.37
  -5   4   3   73.35    2.55
  -5   8   4   -2.11    2.63
  -4  -1   2  277.73    3.66
  -4   8   2    4.01    1.88
  -4  10   3   59.28    2.11
  -4  12   4    2.12    2.71
  -3   1   0  244.93    3.14
  -3   2   0   61.52    2.08
  -3   4   0  146.85    2.51
  -3   8   1  226.38    3.04
  -2  -7   8  124.79    4.24
  -2   7   0    6.51    1.57
  -2  15   4   -1.01    2.51
  -1  -7   7    0.32    1.82
  -1  -7  11  126.25    4.06
  -1  -6   4  232.33    4.29
  -1  10   1  570.67    4.60
  -1  12   2    2.40    1.25
   0   6   0  443.01    5.19
   1  -4   4   30.59    1.81
   1  17   6  116.21    4.42
   2  -4   8  204.80    3.03
   2   0   3  990.21    6.06
   3   0   6  433.14    3.61
   4   1  12    1.54    1.93
   4   2  10   31.73    2.44
   4   3   9   30.85    2.19
   4   4   8   81.97    2.39
   4  10   8   58.28    3.08
  -5  -2   5   16.82    3.01
  -5   2   3   30.28    2.53
  -4  -5   6   25.68    4.41
  -4  -3   3   71.38    3.04
  -4   2   1  193.40    2.97
  -4   3   1  247.84    3.19
  -4   4   1   74.46    2.34
  -3   5   0   67.81    1.96
  -3  11   2    1.52    2.23
  -2  -7   9   21.27    3.07
  -2  -7  10   77.43    3.98
  -2  10   1  262.46    3.24
  -2  12   2    4.68    1.94
  -1  -7   8  182.19    3.66
  -1  -7   9  128.81    3.72
  -1  -7  10   69.52    3.03
   0  12   2  448.78    4.86
   1  -3   3 1011.08    6.49
   2  -4   9   90.92    2.35
   2  -4  12   25.82    2.68
   2  -3   6  238.67    2.96
   3  -2  11  195.65    2.90
   3  -2  12    1.99    1.85
   3  -2  13   20.75    2.26
   3  -1   8  138.51    2.55
   3   2   5  148.65    2.42
   4   2  11  141.15    3.07
   4   5   8  189.00    3.00
   4   9   8   85.33    3.15
   4  14  10   34.57    3.97
  -5  -1   4  153.30    3.54
  -5   1   3   34.82    2.52
  -5   7   3   39.81    2.80
  -4  -4   4  155.97    4.30
  -4  -2   2  402.96    4.48
  -4   1   1   90.60    2.03
  -4   5   1  123.05    2.22
  -4   9   2    0.13    2.08
  -4  11   3  116.59    2.63
  -3   6   0    7.92    1.53
  -2   8   0  114.36    2.33
  -2  14   3   95.50    2.45
  -1   8   0   64.76    2.11
   0  -6   6  339.50    3.85
   0  10   1  459.09    4.78
   0  14   3  158.42    3.59
   1  -5   7    9.60    1.83
   3   1   6  130.93    2.52
   3   3   5  336.39    3.71
   4   2  12    0.44    2.34
   4   2  13   58.06    3.02
   4   3  10   70.25    2.62
   4   4   9   27.77    2.17
   4   6   8  249.46    3.15
   4   7   8  190.11    3.34
   4  12   9   13.90    2.70
  -5  -3   6    1.73    2.93
  -5   0   3   76.91    2.70
  -5   8   3   44.90    2.91
  -4   0   1  195.30    3.09
  -4   7   1   97.44    2.41
  -3  -4   2  464.00    6.21
  -3   7   0    5.18    1.55
  -2  -2   0  514.56    5.90
  -2   2  -1  541.15    4.53
  -2   3  -1  827.42    5.27
  -2   4  -1  566.77    4.27
  -1   3  -1  469.92    4.85
  -1  11   1  281.81    3.47
  -1  13   2    3.19    2.00
   0  -6  12   -0.71    2.62
   0  -5   4   31.83    1.85
   0   7   0  248.27    3.83
   1  -5  12   10.68    2.72
   1  16   5   12.87    2.94
   2  -3   7    3.80    1.26
   2   1   3  517.72    4.65
   2  17   7   24.35    5.22
   3  -1  10    1.90    1.87
   3  -1  11  194.42    3.16
   3   9   5  225.16    4.53
   4   3  11   24.57    2.42
   4   5   9    1.47    2.00
  -5   2   2   15.15    2.14
  -5   4   2    2.72    2.18
  -4  10   2    1.54    1.75
  -4  12   3   56.13    2.49
  -3  -3   1   15.57    2.03
  -3  -1   0 1050.70    6.45
  -3  10   1   71.24    2.01
  -3  14   3   30.04    2.88
  -2   1  -1  779.56    5.50
  -2   5  -1  281.45    3.13
  -2   9   0    2.06    1.57
  -2  13   2   -0.01    1.57
  -1   2  -1  739.90    6.22
  -1   9   0    0.59    1.51
  -1  15   3   30.91    2.35
   0  -6   8   42.31    2.21
   0  -6   9   49.47    2.38
   0  -6  10   58.08    2.50
   0  -6  11  141.46    3.41
   1  -5  10    0.28    2.06
   1  -5  11  352.67    4.23
   2  -3   8  175.11    2.69
   3  -1  12    3.33    1.77
   3   0   8  333.89    3.13
   3   1   7   36.14    1.93
   3   2   6  619.97    4.67
   3   4   5  451.01    4.24
   4   3  12    8.94    1.86
   4   3  13   41.51    2.83
   4   4  10  112.71    2.29
   4   6   9    0.24    2.06
   4  11   9   97.35    3.29
  -5  -2   4  160.11    3.94
  -5  -1   3   -0.85    2.13
  -5   7   2    0.64    2.27
  -4  -1   1   47.47    2.05
  -4   3   0    3.13    1.75
  -4   4   0    0.69    1.72
  -4   8   1   73.44    1.98
  -4  11   2   24.88    2.41
  -3   8   0   19.23    1.91
  -2   6  -1  601.96    4.27
  -2  15   3   60.14    3.03
  -1  -6   5  273.26    4.22
  -1   5  -1  577.80    4.90
   1  -1   2 1656.64    9.19
   1  13   3   19.12    2.48
   2  -3   9  156.86    2.39
   2  -3  12   19.19    2.46
   2  -3  13   10.26    1.95
   3   0   9  127.20    2.51
   3   5   5  225.90    3.28
   3   8   5  292.17    4.45
   4   4  11  110.90    2.71
   4   5  10   61.39    2.34
   4   7   9   -0.45    2.07
   4   8   9   13.39    2.10
   4  10   9   11.52    2.41
   4  13  10   10.84    2.78
  -5  -3   5   92.79    4.08
  -5   8   2    6.84    2.59
  -4  -3   2  247.22    4.29
  -4   1   0  147.76    2.72
  -4   2   0    7.86    1.30
  -4   5   0    6.92    1.81
  -3  -6   6   45.23    5.45
  -3  -5   3  287.99    7.30
  -3   2  -1  409.68    3.73
  -3   3  -1  533.76    4.11
  -3   4  -1  315.10    3.20
  -3  11   1   32.78    1.85
  -3  13   2    6.94    2.43
  -2   0  -1  651.20    5.33
  -2  12   1  205.61    3.08
  -1  -5   3  705.44    7.86
  -1   6  -1  420.35    4.05
   0  -5   5   98.88    2.43
   0  -2   1 1061.17   11.10
   0   8   0  178.49    3.20
   0  11   1  218.26    3.65
   0  13   2   22.89    2.28
   1  -4   6  458.99    4.04
   1  11   2    0.91    2.07
   2   2   3  808.25    6.07
   3   0  10   77.02    2.13
   3   0  11    8.33    2.02
   3   0  13   46.90    2.64
   3   0  14   68.13    3.01
   3   1   8  197.56    2.86
   3   3   6  156.34    2.76
   3   7   5  695.76    5.95
   4   4  12   26.18    1.99
   4   4  13   73.18    2.99
   4   4  14   15.80    2.98
   4   5  11  105.43    2.82
   4   6  10  162.16    3.05
  -5   0   2  103.31    2.97
  -5   4   1   57.20    2.45
  -4  -4   3   14.75    2.37
  -4  -2   1   92.31    2.72
  -4   6   0    1.95    1.38
  -4   7   0   88.08    2.41
  -4  10   1   38.91    2.37
  -3   1  -1  271.14    3.32
  -3   5  -1  245.60    2.61
  -3   6  -1  298.36    3.05
  -2  10   0    5.04    1.31
  -2  14   2    7.78    1.89
  -1  -6   6  337.05    4.55
  -1  -6  12    0.11    2.45
  -1  10   0   -0.29    1.55
  -1  14   2   74.49    2.67
   0  15   3   85.60    3.37
   1  -4   7   49.62    2.11
   1  -2   3  324.12    3.84
   1  15   4  171.32    4.40
   3   0  12    1.92    1.56
   3   2   7    3.83    1.59
   4   5  12   15.14    2.41
   4   7  10  111.76    3.01
   4  12  10  167.08    4.01
  -5  -2   3   10.64    2.40
  -5   2   1  166.34    3.08
  -5   3   1   88.92    2.27
  -5   5   1   88.09    2.47
  -5   6   1   29.05    2.58
  -4   0   0   86.22    2.02
  -3   0  -1  692.03    4.93
  -3  10   0  105.25    2.55
  -1  -6  11   94.82    3.34
   0  -5  13  102.35    3.14
   0  -3   2  170.97    3.68
   1  -4   8  410.51    3.88
   1  -4  11  140.25    2.86
   1  -4  12    0.13    2.17
   2  -2   8  265.23    2.82
   2  -2   9  252.30    3.15
   2  -2  13   63.69    2.91
   2  -2  14   10.16    2.06
   3   1   9   96.24    2.04
   3   4   6   47.17    1.98
   3  15   8   22.77    4.50
   4   5  13  131.34    3.17
   4   5  14   24.51    2.86
   4   6  11   35.60    2.26
   4   8  10   85.38    2.80
   4   9  10  284.73    3.94
   4  11  10   55.63    2.92
  -5  -1   2  141.47    3.25
  -5   1   1  121.82    3.02
  -5   7   1   31.89    2.08
  -4  11   1   18.66    2.65
  -2  -1  -1  122.84    2.80
  -2   8  -1  147.39    2.24
  -2  11   0   54.12    2.28
  -2  13   1   86.93    2.96
  -1  -6   7  122.46    3.04
  -1  -6   8  297.53    4.14
  -1  -6   9   10.45    2.25
  -1  -6  10   14.31    2.38
  -1   0  -1  124.73    3.30
   0   9   0  100.58    2.51
   1  -3   5  658.63    4.91
   2  -2  10   87.71    2.30
   2  -2  11  296.66    3.39
   2  -2  12    1.69    1.60
   2   1   4    7.43    1.46
   3   1  10   88.24    1.94
   3   1  11  227.13    3.10
   3   1  12   12.61    2.07
   3   1  13  153.60    2.95
   3   1  14   25.58    2.39
   3   2   8  394.72    3.57
   3   3   7   83.41    2.32
   4   6  12   35.17    2.27
   4   6  13   87.93    2.94
   4   7  11   30.15    2.58
   4  13  11    0.18    2.74
  -5  -4   6    7.28    3.67
  -5   8   1   70.21    2.48
  -4  -1   0   64.60    2.17
  -4   2  -1  293.10    3.28
  -4   3  -1  185.15    2.94
  -4   4  -1  149.04    2.72
  -4   5  -1  123.13    2.54
  -4   9   0   27.66    2.41
  -3  -6  10   88.60    4.70
  -3   8  -1  106.45    2.52
  -3  13   1   23.84    2.38
  -2  -6  11   51.48    3.28
  -2   9  -1  320.59    3.35
  -2  15   2   40.76    3.12
  -1   8  -1  193.67    2.96
  -1  11   0   -1.08    1.64
   0  -5   7    0.39    1.60
   0  -5   8  282.33    3.53
   0  -5  10  112.40    2.75
   0  -5  11  124.26    2.82
   0  17   4   39.16    3.18
   2   9   3    3.04    3.11
   3   2   9    1.40    1.83
   3   5   6  281.14    3.50
   3  10   6    6.60    2.28
   4   6  14    3.89    1.94
   4   7  12   37.75    2.58
   4   8  11   36.33    2.36
   4   9  11    5.06    2.14
   4  12  11    9.67    2.82
  -5   3   0   -0.79    2.18
  -5   5   0   18.35    2.52
  -4   1  -1   75.27    2.23
  -4  10   0   32.61    2.33
  -3  -6   7   17.21    3.91
  -3  -6   9    6.05    3.44
  -3  -1  -1   79.78    1.84
  -3   3  -2    2.78    1.45
  -3   9  -1   37.67    2.01
  -2  -6   6  306.30    5.49
  -2  -6  10   30.25    3.08
  -2  -4   1   28.67    3.27
  -2   2  -2  137.20    2.50
  -2   3  -2 1258.23    6.14
  -2   4  -2   47.67    1.53
   0  -4   4  126.59    2.76
   0  12   1   88.24    2.69
   0  14   2   34.19    2.56
   1  -3   6  335.24    3.60
   1  -3  13  102.22    2.99
   1  -2   4   71.18    2.12
   1   2   1  439.58    7.72
   1  17   5    4.53    3.22
   2  -1  14   25.84    2.67
   3   2  10   71.48    2.27
   3   2  15   31.79    2.56
   3   3   8  271.55    3.21
   3   4   7  348.76    3.68
   3   6   6    0.88    1.44
   4   7  13   21.00    2.36
   4   7  14    0.65    2.64
   4   8  12   23.40    2.73
   4  10  11   31.74    2.59
  -5  -3   3    1.68    2.43
  -5  -1   1   50.55    2.55
  -5   1   0    7.99    2.02
  -5   2   0    3.79    1.46
  -5   6   0   11.99    1.86
  -5   7   0   17.51    2.62
  -4  -3   1   43.80    2.23
  -4  -2   0  151.28    2.72
  -4   0  -1  546.23    4.36
  -4   7  -1   29.04    1.56
  -3  -6   8  125.69    5.28
  -3  -4   1    1.06    1.90
  -3   2  -2   11.26    1.52
  -3   4  -2   14.01    1.19
  -3   5  -2  577.21    4.04
  -2  -6   9    3.84    2.70
  -2   1  -2 1007.98    6.11
  -2   6  -2   39.08    1.83
  -2  10  -1   70.01    2.25
  -2  12   0   41.06    1.96
  -1  -5   4    2.23    1.82
  -1  -4   2   43.46    3.22
  -1   9  -1  439.40    4.16
   0  16   3   73.76    3.49
   1  -3   7    0.00    1.68
   1  -3  12   54.48    2.46
   1   9   1  229.55    4.91
   1  14   3  132.19    3.95
   2  -1   9    2.01    1.60
   2  -1  12   10.63    2.23
   2  -1  13  160.85    2.70
   3   2  11  107.63    2.13
   3   2  12    2.37    1.94
   3   2  13   51.63    2.25
   3   2  14    9.69    1.81
   3   8   6   33.41    2.07
   3   9   6   12.26    1.97
   4   8  13  161.31    3.52
   4   8  14   21.60    2.80
   4   9  12   58.15    2.81
   4  10  12  119.74    3.35
   4  13  12   78.54    3.58
  -5   8   0   18.80    2.76
  -4  -5   4   25.31    3.38
  -4  -4   2  184.94    3.79
  -4   8  -1   70.55    2.04
  -4  11   0   19.71    2.85
  -3   1  -2    4.84    1.53
  -3   6  -2    3.55    1.16
  -3  10  -1   28.48    2.28
  -3  12   0   33.17    1.97
  -2  -6   7   35.38    2.66
  -2   7  -2   21.07    1.74
  -1  -5  12    0.35    2.63
  -1  12   0   72.16    2.49
  -1  14   1   62.01    2.72
   0   4  -1  660.09    6.82
   0   5  -1 1341.72    9.10
   0  10   0    5.25    1.60
   1  -3  10   88.64    2.45
   1  -3  11   54.54    2.34
   1  -1   3 1696.17    8.78
   2  -1  10   54.77    1.71
   2  -1  11   86.74    2.04
   2   0  15    6.81    2.75
   2   1   5 1083.83    6.22
   2   2   4    0.15    1.02
   3   3   9   15.29    1.75
   3   5   7  164.74    2.84
   3  16   9   85.07    5.93
   4   9  13   26.36    2.76
   4   9  14    0.24    2.77
   4  11  12   53.99    2.78
  -5   0   0   17.54    2.44
  -4  -1  -1  276.24    3.33
  -4   3  -2   10.91    1.85
  -4   4  -2   95.27    2.37
  -3  -2  -1  594.86    4.92
  -3   0  -2   -0.95    1.40
  -2  13   0    9.77    2.58
  -1   3  -2   -0.39    1.51
  -1   4  -2  224.15    3.01
  -1   5  -2    0.44    1.38
  -1  10  -1  173.26    2.81
  -1  16   2    0.12    2.51
   0  -4   5  171.87    2.98
   0  -4  12   -0.22    2.18
   0   6  -1  126.25    2.96
   1  -2   5  338.47    3.65
   1  16   4   23.95    3.40
   2   5   3  758.37    7.39
   3   3  10  245.30    2.84
   3   3  11   87.07    2.52
   3   3  13  201.72    3.18
   3   3  15  103.38    2.55
   3   4   8  165.60    2.50
   4  10  13   18.18    2.15
   4  10  14    5.46    3.23
   4  11  13   67.40    3.17
   4  12  13    4.11    2.88
  -5  -4   4   98.83    4.65
  -5  -3   2  116.32    3.83
  -5   2  -1  178.10    3.13
  -5   3  -1   17.53    1.74
  -5   4  -1   52.46    2.05
  -4   2  -2   56.45    1.71
  -4   5  -2   81.40    1.88
  -4   6  -2   24.11    2.00
  -4  10  -1    0.03    2.28
  -3  11  -1   46.33    2.64
  -2  -2  -1  921.48    7.52
  -2   0  -2   74.92    1.99
  -2   8  -2  161.13    2.35
  -1  -5   5  180.65    3.80
  -1  -5  11   91.95    3.11
  -1   6  -2   37.56    1.85
   0  -3   3  767.66    6.82
   0   7  -1 1109.34    7.71
   0  13   1  314.25    4.25
   0  15   2    1.53    2.65
   1  -2  14   21.46    2.03
   2   0  13   71.80    2.64
   3   3  12    3.28    1.61
   3   4   9   68.53    2.17
   3   6   7   84.08    2.38
  -6   1   1    2.65    3.07
  -5  -1   0    2.98    2.14
  -5   1  -1  100.36    2.56
  -5   7  -1    4.24    1.90
  -4  -3   0  204.54    3.42
  -4   1  -2   20.08    1.37
  -4   7  -2  177.36    3.09
  -2   9  -2   70.99    2.29
  -1  -5  10  138.29    3.09
  -1   2  -2  260.75    3.56
  -1   7  -2    5.18    1.57
  -1  13   0  134.52    3.09
   0  -4  10  279.12    3.53
   0  -3  14   -0.79    2.85
   0  11   0   74.35    2.51
   1  -2   6  969.89    5.87
   1  -2  13  287.48    3.60
   2   0  10  270.82    3.12
   2   0  11  245.18    3.13
   2   0  12   35.22    2.12
   2   3   4  140.49    2.84
   2   6   3  372.54    5.81
   2   8   3  117.66    4.57
   3   4  10  221.27    3.04
   3   4  15    5.78    2.27
   3   5   8  516.49    4.16
   3   7   7  326.26    3.84
   3  11   7  134.44    3.68
  -5   0  -1   78.08    2.54
  -4  -4   1    8.89    2.08
  -4   0  -2   58.24    2.06
  -3  -1  -2    5.17    1.52
  -3   2  -3  397.51    3.48
  -3   3  -3  206.67    2.73
  -3   4  -3   97.21    1.84
  -3   5  -3  136.09    2.41
  -3  12  -1    2.17    2.43
  -2   4  -3  201.30    2.75
  -1  -5   6  367.83    4.52
  -1  -1  -1  478.18    6.78
  -1   8  -2  228.93    3.09
  -1  11  -1   51.09    2.22
   0  -4   8  543.59    4.53
   0   8  -1  438.99    4.64
   1  -2  12    0.60    1.89
   1  -1   4   66.91    2.17
   1  10   1   96.52    3.50
   2   1  15    6.55    2.72
   2   2   5  222.86    3.16
   2   7   3   85.70    3.41
   3   4  11  198.75    2.67
   3   4  12   55.41    2.28
   3   4  13   15.36    3.12
   3   4  14   -3.14    1.97
   3   5   9   20.19    1.90
   3  10   7  492.48    5.73
  -6   0   1   38.16    3.20
  -5  -4   3   32.41    3.36
  -5   3  -2   31.63    2.33
  -5   4  -2   56.57    2.71
  -5   5  -2   18.01    2.53
  -4   9  -2  121.49    3.20
  -3   1  -3  187.21    2.60
  -3   6  -3   31.86    1.53
  -3  10  -2  113.55    2.92
  -2   2  -3  928.97    5.50
  -2   3  -3  665.07    4.43
  -2   5  -3  233.22    2.68
  -2   6  -3  195.85    2.75
  -2  10  -2  157.10    2.84
  -1  -5   7    4.30    1.70
  -1  -5   8  467.23    4.77
  -1  -4  13   62.83    3.08
  -1   1  -2 1627.99    9.13
   0  -3  13  145.90    3.37
   1  -2   8  555.47    4.40
   1  -2   9   48.81    2.06
   1  -2  11  225.49    2.82
   2   1  14    2.63    1.70
   2  12   4  131.01    8.92
   3   5  10  213.51    3.04
   3   5  15  123.42    3.15
   3   5  16   32.28    2.27
   3   6   8  142.27    2.46
   3   9   7  340.68    4.36
  -5  -3   1   37.16    2.70
  -5  -1  -1  156.81    3.04
  -5   2  -2   96.34    2.75
  -4  -1  -2   -0.01    1.61
  -4   2  -3  174.36    2.83
  -4   3  -3   33.12    1.55
  -4   4  -3   55.74    1.83
  -4   5  -3   13.40    1.48
  -4   6  -3    0.67    1.93
  -3  -3  -1  337.52    4.24
  -2  -5   3  864.69   13.54
  -2   7  -3   65.06    2.06
  -2  13  -1    0.42    2.19
  -1   9  -2  100.20    2.47
  -1  14   0    2.07    2.23
   0   9  -1  378.85    4.45
   0  12   0    1.80    2.23
   0  14   1  165.83    3.70
   1  -1  14    6.53    1.70
   1   1   2 3974.37   16.85
   1  13   2   33.07    2.92
   1  15   3   82.29    4.11
   2   1  12   39.10    2.05
   2   1  13  257.46    3.04
   2   2  16   18.23    2.06
   3   5  11   38.55    2.17
   3   5  12    5.96    2.06
   3   5  13   65.95    2.61
   3   5  14    1.62    2.06
   3   6   9    6.15    1.88
   3   7   8  138.85    2.67
   3  13   8    0.35    2.35
  -6   0   0    2.07    2.45
  -5   1  -2   39.37    1.75
  -4   7  -3    0.66    2.05
  -3  -4   0  569.19    6.48
  -3   0  -3  538.32    4.30
  -3  11  -2   54.89    2.25
  -2   8  -3   49.14    2.17
  -2  11  -2  142.50    3.01
  -1  -4  12   30.50    2.66
  -1  12  -1  159.64    3.06
   0  -3   4  350.34    4.32
   0  -2   2 2332.77   13.99
   0   2  -1 1077.60   10.63
   0  16   2    8.27    3.02
   1  -1   5  496.16    4.48
   1  -1  13   21.37    2.29
   2   1  10   78.44    2.03
   2   1  11  296.21    2.97
   2   2  15   65.25    2.58
   3   6  10  352.08    3.77
   3   6  15  150.22    3.31
   3   6  16   18.50    2.21
   3   8   8  307.01    3.72
  -5  -4   2  104.40    3.97
  -5   0  -2    2.45    2.10
  -4  -3  -1  254.53    3.36
  -4   0  -3  175.59    2.63
  -4   8  -3    0.48    2.36
  -3   9  -3    0.57    2.14
  -2  -5  10  210.79    4.02
  -1  10  -2  189.00    2.99
   0  -3  11  556.84    4.64
   1  -1  12   -0.91    1.92
   1   0  15   69.59    3.02
   1   3   1   45.38    3.52
   2   2  14   35.78    2.10
   2   3   5 2100.05    8.75
   3   6  11   27.33    2.04
   3   6  12  270.82    3.43
   3   6  13  139.98    3.04
   3   6  14   17.87    2.54
   3   7   9   66.51    2.28
   3  12   8    0.23    2.06
   3  16  10    0.00    3.54
  -6  -1   0    5.24    2.77
  -5   3  -3    1.89    2.40
  -5   5  -3    3.02    2.43
  -4  -4   0  179.02    3.86
  -4  -2  -2   43.33    1.89
  -4   9  -3    3.32    2.56
  -3   4  -4   17.53    1.70
  -3  10  -3    1.80    2.09
  -2   0  -3  984.35    6.09
  -2  12  -2  138.67    3.37
  -2  14  -1   16.85    3.09
  -1  -4   3  686.44    8.13
  -1   4  -3  649.61    5.01
  -1   5  -3  352.28    3.73
   0  -3   5 1014.95    6.69
   0  -3  10   64.80    2.25
   0  10  -1  415.16    4.59
   1  17   4   22.63    3.97
   3   7  10   73.68    2.48
   3   7  15   10.72    2.70
   3   7  16   -0.65    2.04
   3  10   8    5.11    1.90
   3  11   8   29.88    2.34
  -5  -1  -2    0.68    2.20
  -5   1  -3   31.00    2.28
  -4  -5   2  324.55    5.87
  -4  -1  -3  280.02    3.23
  -4   2  -4   59.20    2.12
  -4   4  -4  363.64    3.57
  -4   6  -4    8.92    1.90
  -3  -1  -3  492.20    4.11
  -3   2  -4  632.41    4.07
  -2  -3  -1    1.19    1.72
  -2  10  -3    2.13    1.79
  -1  -4  10  245.19    3.56
  -1   7  -3  419.45    3.99
  -1  13  -1   52.55    2.75
  -1  15   0   59.26    3.15
   0  -3   6  363.78    3.93
   0  -3   7  153.47    2.78
   0  -3   9    1.22    1.71
   0  -2  13  214.32    3.57
   0  13   0    2.27    2.59
   0  15   1   60.45    3.43
   1  -1   7  146.87    2.58
   1  -1   8  404.80    3.77
   1  -1  10  357.20    3.29
   1   0  14    1.81    1.74
   1   1  16   10.57    2.87
   2   3  15  109.08    2.74
   2   4  17    3.16    2.62
   3   7  11   41.45    2.33
   3   7  12  155.46    2.96
   3   7  13  199.37    3.23
   3   7  14   -0.73    2.43
   3   8   9   77.05    2.03
  -5  -5   5   53.02    5.87
  -5  -4   1   25.78    3.06
  -4   1  -4  123.22    2.38
  -4   7  -4  110.62    2.90
  -3  -5  10  189.83    4.96
  -3   1  -4  101.21    1.96
  -3   8  -4   75.49    2.67
  -3  11  -3   -0.20    2.44
  -2  -5   8  338.08    4.87
  -2   3  -4   38.61    1.75
  -2   4  -4  196.18    2.50
  -2   5  -4  475.80    3.70
  -1  -3  13  180.58    3.63
  -1   8  -3   68.26    2.19
   0  -1   1  715.59   10.60
   0  -1  15   39.57    2.99
   1   0   4    0.52    0.87
   2   4   5  424.09    4.46
   2   4  16   22.27    2.53
   3   8  10  346.05    3.73
   3   8  15  232.75    3.74
   3   8  16    4.72    2.08
   3   9   9   27.24    2.00
   3  13   9  201.70    4.28
   3  15  10    3.24    3.05
  -6  -2   0    0.14    2.76
  -5  -3  -1  145.31    3.27
  -5  -2  -2   18.73    2.08
  -5   0  -3   37.46    1.81
  -5   4  -4   47.13    2.60
  -4   8  -4    8.26    2.46
  -3  -3  -2  280.59    3.74
  -3   0  -4   30.60    1.73
  -2  -5   4   11.97    2.48
  -2   2  -4   13.59    1.54
  -2  11  -3    8.06    2.26
  -2  13  -2   64.82    3.23
   0  -2  12   42.58    2.25
   0   6  -2  212.85    3.76
   0  11  -1  109.97    2.92
   1   0  12   49.98    2.36
   1  14   2   21.22    3.20
   3   8  11    1.63    1.85
   3   8  12  108.92    2.70
   3   8  13   91.95    2.64
   3   8  14   25.20    2.25
   3   9  10  269.93    3.57
   3   9  16   18.94    2.79
   3  11   9  250.72    3.93
   3  12   9   28.70    2.49
  -5  -1  -3  103.59    2.62
  -5   2  -4   57.01    2.76
  -5   3  -4   60.54    2.29
  -5   5  -4   36.74    2.19
  -4  -3  -2   42.31    2.01
  -4   0  -4   95.40    1.96
  -3   9  -4  137.26    2.69
  -2  -5   7   36.22    2.41
  -2   1  -4  698.21    4.84
  -1  -4   4    0.72    1.47
  -1  -4   8   82.44    2.43
  -1  -3  12   18.10    2.25
  -1   9  -3  175.80    3.00
  -1  12  -2    3.93    2.05
  -1  14  -1   12.07    2.58
   0   7  -2    5.27    1.51
   1   0  11  307.35    3.47
   1   1   3  810.72    6.86
   2   3   8  313.26    3.39
   2   3  11  325.23    3.40
   2   4  15  140.78    2.51
   2   5  17   61.77    2.31
   2   6   4  146.63    3.38
   3   9  11    0.04    2.05
   3   9  14   34.49    2.47
   3   9  15   77.35    2.70
   3  10  10   99.57    2.78
  -5  -4   0    8.24    2.24
  -5   1  -4   24.17    2.28
  -4  -5   1    0.34    2.10
  -4   3  -5    1.25    1.76
  -4   5  -5   37.37    2.17
  -3  -5   9    2.30    2.69
  -3   3  -5   26.22    1.70
  -3   4  -5    1.93    1.21
  -3   5  -5    5.49    1.81
  -3   6  -5   15.33    2.11
  -3  10  -4   64.79    2.86
  -2  -5   5  388.51    5.94
  -2  -5   6    4.26    1.82
  -2  -4  11   56.34    3.10
  -2   9  -4   66.09    2.37
  -1  -4   5 1091.08    8.04
  -1  -4   6  216.49    3.64
  -1  -4   7  476.35    4.67
   0   4  -2  231.61    3.95
   0   8  -2   28.33    1.86
   0  14   0    1.05    2.31
   1   1  14    5.08    1.71
   1   2  16  123.36    2.72
   2   5  16   23.74    2.51
   3   9  12  115.93    2.41
   3   9  13    3.92    1.62
   3  10  11    2.26    2.07
   3  10  15   65.21    2.96
   3  10  16    3.67    2.08
   3  12  10   80.83    2.95
   3  13  10   28.72    2.73
  -6  -2  -1   73.39    3.51
  -6  -1  -2    4.89    2.91
  -5  -5   3   14.94    3.29
  -5   0  -4  179.66    3.07
  -4  -1  -4   20.04    1.34
  -4   2  -5    3.39    1.36
  -4   6  -5   13.79    1.62
  -4   7  -5    6.76    2.54
  -3  -5   1    0.75    2.28
  -3   7  -5   -0.83    2.24
  -1  -3   1  503.29   14.89
  -1  -3  11  123.50    2.92
  -1  -2  14   32.72    2.23
  -1   1  -3 1788.26    9.01
  -1  10  -3    1.00    1.82
   0  -2  10  129.44    2.54
   0  12  -1  162.50    3.40
   0  16   1   78.76    4.17
   1   0   6  254.64    3.19
   1   0   7  123.61    2.45
   1   3  17   30.20    2.97
   2   6  17   66.91    3.00
   3  10  12  104.55    3.01
   3  10  13  156.84    3.37
   3  10  14  123.90    3.00
   3  11  11   20.22    2.19
   3  11  15  118.00    3.46
   3  11  16   -1.66    2.55
  -5  -3  -2    2.16    1.87
  -5  -2  -3  144.11    3.08
  -5   3  -5   -1.47    2.47
  -5   4  -5    5.56    2.58
  -5   5  -5   13.76    2.83
  -4   1  -5   46.66    1.66
  -4   8  -5   21.49    2.76
  -3   1  -5  244.86    2.73
  -3  11  -4   17.72    2.19
  -2  -4   0  909.48   12.11
  -2  -3  13   95.92    3.52
  -2   4  -5   21.62    1.82
  -2   5  -5   88.84    2.26
  -2  10  -4  216.47    3.49
  -1   5  -4  745.56    5.20
  -1  13  -2   60.48    2.81
   0  -2   4   82.67    2.57
   0  -2   9   13.17    1.84
   0   0  15  102.98    2.51
   1   8   0  201.36    5.25
   2   5  15  269.35    3.11
   2  14   5   13.15    4.60
   3  11  12   95.60    3.00
   3  11  13    8.52    2.37
   3  11  14   30.28    2.57
   3  12  15    6.77    2.93
   3  15  12  117.58    4.03
  -6  -2  -2    8.85    2.61
  -5  -5   2  165.49    5.09
  -5  -1  -4  107.50    2.81
  -5   1  -5    0.56    2.06
  -5   2  -5    5.48    1.83
  -4  -2  -4  211.58    3.00
  -4   0  -5    5.69    1.80
  -3  -5   8  117.38    3.94
  -3   0  -5   65.65    2.14
  -2   3  -5  156.24    2.32
  -2   6  -5    0.74    1.21
  -2   7  -5    0.80    1.85
  -1  -3  10  246.27    3.50
  -1  -2  13   87.10    2.81
  -1  -1  15   48.88    3.07
  -1   7  -4   76.75    2.28
  -1  11  -3   10.38    2.13
   0  -2   5  679.82    5.73
   0   1  16    4.17    2.66
   1   1   4   43.10    1.99
   1   3  16   10.69    2.59
   2   4   8  426.79    3.82
   2   4   9  105.89    2.41
   2   4  11   19.30    1.42
   2   5  14    5.37    1.49
   2   6  16   31.99    2.03
   2  11   4  407.88    8.67
   3  12  13   -0.35    2.10
   3  12  14   72.06    2.85
   3  13  12   74.23    3.29
   3  13  15   54.62    3.36
   3  14  13   19.46    2.85
  -6  -3  -1   19.68    3.13
  -6  -1  -3   11.70    3.06
  -4  -5   0  356.08    5.35
  -4  -5   8   23.27    4.14
  -4   3  -6   65.28    2.36
  -4   4  -6   -0.13    1.93
  -3  -4  11   19.96    3.20
  -3  -2  -4   34.89    1.90
  -3   4  -6  308.93    3.20
  -3   5  -6   97.87    2.35
  -3  10  -5   28.93    2.60
  -2  -2  -3  774.56    6.11
  -2   2  -5  193.49    2.50
  -2   8  -5   13.49    2.09
  -2  11  -4   15.35    2.03
  -1  -1  -2 4354.45   17.05
   0  -2   7   90.99    2.06
   0  10  -2    0.63    1.83
   0  13  -1  177.89    4.14
   0  15   0   42.25    3.46
   1   1  11   80.93    1.92
   1   9   0    6.94    2.39
   2   6  15   12.59    2.23
   2   7  17   62.90    2.36
   3  14  14   13.43    2.65
  -5  -5   1   15.83    3.06
  -5  -3  -3   98.87    2.65
  -5  -2  -4   33.25    2.37
  -5   0  -5    0.11    1.56
  -4  -1  -5   67.57    1.79
  -4   2  -6  244.08    2.85
  -3   2  -6   31.27    1.81
  -3   3  -6  302.85    2.92
  -2  -4   9   16.67    2.53
  -2  -3  -2  233.19    4.09
  -2  -3  12   19.56    2.66
  -2  -1  -4    6.89    1.46
  -2   1  -5   35.66    1.74
  -2   9  -5   36.88    2.15
  -1  -3   9   52.87    2.24
  -1  -2  12   54.52    2.58
  -1   9  -4  115.54    2.63
  -1  12  -3   35.88    2.61
  -1  14  -2  134.74    3.88
   0  -1  11    5.25    1.32
   0   1  -1  717.49   10.26
   1   1  10  226.47    2.92
   2   5  12   39.53    1.95
   2   6  14  173.34    3.01
   2   7  16    1.11    2.38
   2  10   4 1130.30   11.88
   2  17   7   19.81    5.59
  -5  -4  -2    9.36    2.28
  -5  -1  -5    1.43    2.03
  -5   2  -6   79.35    2.91
  -5   3  -6   56.64    2.34
  -4   1  -6  147.84    2.35
  -3  -5   7  127.00    4.17
  -3  -1  -5  526.01    4.04
  -3   8  -6    4.96    2.27
  -2  -2  14   17.84    2.74
  -2  12  -4   18.14    2.24
  -1  -2  -1  476.77    8.06
  -1  -1  14    4.92    2.53
  -1   0  -3 2615.01   11.23
   0  -1  10  341.61    3.68
   0  11  -2   16.00    2.18
   1   1   5  751.09    5.63
   1   1   6  474.57    4.46
   1   4  16    2.59    2.28
   1  13   1  173.87    4.91
   2   5   8  418.49    3.96
   2   5  10  619.24    4.45
   2   5  11    2.64    1.29
   2   8  17  125.13    2.84
  -6  -3  -2    1.24    3.01
  -5   1  -6   41.94    2.63
  -4  -5  -1   90.58    3.08
  -4  -4  -3  494.67    4.67
  -4  -3  -4   53.27    1.82
  -4  -2  -5  103.04    2.49
  -4   0  -6  290.05    3.05
  -1  -3   8  310.20    3.73
  -1  10  -4   97.50    2.69
   0   2  16   40.75    2.73
   1   3  14   27.61    2.04
   1  10   0   32.76    2.74
   2   6  13   64.05    1.98
   2   7  15  188.46    2.81
   2   8  16    5.31    2.45
  -5  -3  -4  110.80    2.73
  -5  -2  -5   51.18    2.50
  -5   0  -6  100.23    2.72
  -4  -1  -6  142.80    2.62
  -4   3  -7   46.41    2.34
  -4   4  -7   14.09    2.07
  -4   5  -7   36.79    2.52
  -3  -4  10   39.52    3.03
  -3  -3  -4   10.28    1.47
  -2  -4   8  250.04    4.04
  -2  -3  11   22.84    2.60
  -2   0  -5  626.69    4.48
  -2   4  -6  532.74    3.88
  -2   6  -6  105.49    2.19
  -2   7  -6  151.37    2.82
  -1  -2  11   16.16    2.05
  -1  13  -3    0.08    2.55
   0  -1   2  208.40    4.76
   0   1  14    2.06    2.13
   0   8  -3   43.38    2.24
   0  14  -1   21.24    2.77
   1   2   3 1196.02    8.85
   1   2  11   52.88    1.99
   1   6  18   61.51    2.92
   2   6  12  238.64    2.87
   2   7  14   43.98    2.21
   2   9  17   37.33    2.34
  -6  -3  -3   12.59    2.95
  -5  -5  -1   30.84    2.83
  -5  -1  -6   67.30    2.31
  -5   2  -7   31.10    2.55
  -5   3  -7   13.01    2.81
  -4  -5   7  270.06    7.95
  -4   1  -7    0.85    1.96
  -4   2  -7  158.51    2.44
  -3  -5   6   17.80    3.04
  -3  -3  12  142.24    4.41
  -3  -2  -5  152.44    2.41
  -3   5  -7   63.90    2.55
  -3   6  -7   73.84    2.72
  -2  -2  13   60.71    3.03
  -2   2  -6  536.36    4.17
  -2  11  -5    0.89    2.06
  -1  -3   7  107.65    2.55
  -1  -1  13  120.54    2.56
  -1   1  -4   69.92    2.23
  -1   4  -5  171.83    2.83
  -1   6  -5    8.86    1.79
  -1   7  -5    0.90    1.82
   0   3  17   25.82    2.16
   0  12  -2  233.87    4.09
   2   6   8   65.39    2.20
   2   6   9   21.15    1.86
   2   7  13   70.49    2.43
   2   8  15  211.25    3.05
   2   9  16    4.14    2.54
  -5   1  -7   18.10    2.52
  -4  -3  -5   77.79    2.35
  -3  -1  -6  130.28    2.42
  -3   7  -7   59.60    2.81
  -2  -2  -4    2.35    1.50
  -2   9  -6   58.88    2.77
  -1  -2  10  683.25    5.09
  -1   1  16   51.32    2.83
  -1   3  -5  680.98    4.95
   0   2  15  106.28    2.71
   1   6  17   51.11    2.75
   2   7  12  140.20    2.72
   2   8  14    0.71    2.14
   2  13   5    5.18    3.32
  -5  -3  -5    8.12    2.15
  -5  -2  -6   31.69    2.17
  -5   0  -7    0.72    2.35
  -4  -4  -4    1.46    1.63
  -4  -2  -6  182.28    2.98
  -4   0  -7   21.69    1.61
  -3   1  -7   -1.18    1.20
  -3   8  -7   92.63    2.55
  -2  -4   7  359.11    4.73
  -2  -3  10  254.24    3.91
  -2   1  -6  505.15    3.84
  -1   0  14   33.27    2.76
  -1   9  -5    2.48    1.93
  -1  12  -4  139.67    3.47
   0  -1   7  225.07    3.14
   0   3  16    0.52    2.54
   1   2   4  226.26    3.73
   1   7  18    1.05    2.05
   2   7  11    0.92    1.68
   2   8  13  107.98    2.66
   2   9  15   16.79    1.96
   2  10  16   31.25    2.78
   2  11  17  103.62    3.33
  -5  -5  -2    0.68    2.37
  -5  -4  -4    1.18    2.11
  -4  -1  -7    2.30    1.97
  -4   3  -8   43.67    2.36
  -4   4  -8    5.96    1.78
  -4   5  -8    2.01    2.55
  -3  -5  -1  112.99    3.56
  -3  -4   9   78.24    3.28
  -3   0  -7   42.36    1.95
  -2  -2  12  103.03    3.19
  -2  -1  14   63.92    2.90
  -2   4  -7   12.38    1.73
  -1  -3   2 1517.18   15.30
  -1  -3   5  462.69    5.32
  -1   2  -5  333.19    3.70
   0  -1   3 1820.77   11.43
   0  -1   5 1438.88    8.41
   0  -1   6   35.33    1.85
   0   2  14   10.36    2.14
   0   4  17  143.92    3.53
   0  13  -2   76.26    3.21
   1   4   1  223.12    8.28
   1   6  16    1.64    2.17
   2   7   8  262.10    3.47
   2   7   9  301.35    3.53
   2   7  10  162.99    2.59
   2   8  12  613.27    4.73
   2   9   5  723.21    7.14
   2   9  14  110.44    2.75
   2  12  17   25.78    3.05
  -5  -1  -7   20.61    1.75
  -5   1  -8    6.46    2.43
  -5   2  -8   21.20    2.93
  -4   1  -8   19.20    2.25
  -3  -3  -5  333.19    3.49
  -3  -3  11    0.06    2.96
  -3  -2  -6  692.44    4.94
  -3   3  -8  118.90    2.63
  -3   5  -8   13.27    2.33
  -3   6  -8    9.34    2.41
  -2   0  -6  175.09    2.44
  -2   6  -7  150.77    2.54
  -2   7  -7    7.61    1.99
  -1  -3   4   11.68    2.05
  -1  -2   9  209.22    3.19
  -1  -1  -3  813.43    6.81
  -1   0  -4    0.48    1.34
  -1  10  -5    3.71    2.15
  -1  13  -4   58.07    3.89
   0  -1   4   67.61    2.21
   0  11  -3   59.94    2.94
   1   8  18   37.13    2.71
   2   8  11   79.17    2.39
   2   9  13   39.63    2.28
   2  10   5   67.12    3.14
   2  10  15  269.23    3.40
   2  11   5   69.56    3.59
   2  11  16   15.68    2.05
   2  12   5   78.49    3.80
   2  16   7    0.58    3.41
  -5  -4  -5   58.68    2.48
  -5  -3  -6  231.66    3.62
  -5  -2  -7    5.80    2.08
  -5   0  -8   15.96    2.43
  -4  -4  -5  296.18    3.58
  -4  -3  -6  226.07    2.89
  -4  -2  -7   33.26    2.20
  -4   0  -8  176.10    3.07
  -3  -4  -4   32.23    1.87
  -3   7  -8    0.49    2.64
  -2  -4   6   86.99    2.91
  -2   2  -7    8.84    1.62
  -2   8  -7   47.04    2.59
  -1  -3   3 1407.24   11.69
  -1   2  16   -0.32    2.71
  -1   5  -6  333.70    3.67
  -1  11  -5    5.03    2.28
   0   0   9   13.46    1.91
   0   3  15  170.30    2.75
   1   5  14   20.72    1.49
   1  12   0   38.49    3.53
   1  16   2    2.27    4.30
   2   8  10  416.64    4.10
   2  10  14  133.59    2.97
   2  12  16   23.84    2.57
   2  17   8   45.27    4.34
  -4  -4   9   27.51    3.81
  -3   1  -8  140.23    2.25
  -2  -3   9   18.57    2.19
  -2  -2  -5  249.93    3.30
  -2  -1  13  112.34    3.37
  -2   1  -7    3.64    1.58
  -2   9  -7   83.34    3.20
  -1  -2   8  606.13    5.15
  -1   3  17  153.81    3.80
   0   4  16   21.35    2.07
   0   5  17   87.22    3.17
   0  14  -2   80.87    3.92
   1   7  16   12.49    2.22
   1   8  17  156.01    3.28
   2   8   9  115.63    2.31
   2   9  12  312.87    3.38
   2  11  14   67.91    2.70
   2  12  15   16.63    2.63
   2  14   6  158.50    5.35
  -5  -5  -4   23.37    2.34
  -5  -1  -8   93.89    2.40
  -4  -5  -4  163.00    3.41
  -4  -5   6   28.68    4.30
  -4  -1  -8   77.47    2.09
  -4   3  -9   39.20    2.07
  -3  -4   8  146.81    4.01
  -3  -3  -6  166.54    2.74
  -2  -3  -4  144.14    2.94
  -2  -2  11   12.63    2.06
  -2  -1  -6  436.94    3.79
  -2  10  -7   26.08    2.82
  -1  -2  -2  605.27    7.53
  -1   1  14   25.92    2.30
  -1   3  -6  338.40    3.73
  -1   8  -6  144.59    2.59
   0   0   8  525.79    4.55
   0   6  -4  234.98    3.53
   0  12  -3   16.03    2.54
   1   5  13   56.08    1.71
   2   9  10   59.18    2.26
   2   9  11    1.76    1.35
   2  10   6  188.35    4.06
   2  10  12  137.26    2.86
   2  14  16   22.90    2.86
  -5  -4  -6   12.65    2.34
  -5  -3  -7    3.18    2.40
  -5  -2  -8   21.77    2.15
  -4  -4  -6   33.23    2.05
  -4  -3  -7    4.90    2.01
  -3  -2  -7    2.85    1.23
  -3  -2  12  152.08    4.03
  -3   3  -9   32.01    2.29
  -3   4  -9  176.28    3.27
  -3   5  -9  116.51    3.11
  -2  -4   5  771.74    7.77
  -2   0  -7    0.77    1.44
  -2   0  14   -1.10    2.76
  -2   3  -8  177.27    2.79
  -2   5  -8   22.40    2.11
  -1  -1  10  234.11    3.34
  -1   0  12  131.98    2.92
   0   2  12  278.78    3.31
   0   9  -4  130.19    3.10
   1   6  14  144.21    2.36
   1   7  15  309.99    3.54
   1   8  16    0.03    2.36
   1   9  17   39.51    2.76
   1  10  18    2.60    2.93
   2   9   8    4.74    1.66
   2   9   9  208.71    3.21
   2  10  11   26.53    2.12
   2  11  13    8.21    2.01
   2  12  14  287.33    3.90
   2  14  15    8.42    2.83
  -5  -6  -1   73.79    3.57
  -5  -6   0  149.71    4.84
  -5  -6   1    8.07    3.65
  -5   0  -9   53.86    2.39
  -4  -2  -8   85.74    2.11
  -4   0  -9   39.18    1.97
  -3  -4  -5  470.27    4.23
  -3  -3  10  212.02    4.17
  -3   6  -9   39.46    2.33
  -3   7  -9   21.09    2.95
  -2   7  -8   30.54    2.45
  -1  -2   7   51.85    2.11
  -1   2  -6  984.87    6.03
  -1   3  16   14.43    2.58
  -1  10  -6  217.42    3.73
   0   0   7  881.47    5.90
   0   4  -4  124.84    2.76
   0   5  16    2.50    2.46
   0   6  17   85.59    3.11
   0   7  18    8.66    2.96
   1   3   4   24.94    1.96
   1   3   6   29.01    1.86
   1   5  12  611.25    4.12
   2  10   7  359.19    4.52
   2  12  13   13.41    2.48
   2  13  14   83.49    3.06
   2  16   8    1.31    2.97
  -5  -6  -2   33.87    2.95
  -5  -5  -5  175.31    3.54
  -5  -1  -9   52.77    2.86
  -4  -6  -1  252.37    5.10
  -4  -6   1    0.86    3.56
  -4  -5  -5  213.33    3.36
  -4  -1  -9   65.47    2.59
  -4   2 -10    2.34    2.28
  -4   3 -10    2.83    2.70
  -3  -5   4   53.70    3.94
  -3   1  -9   61.09    1.88
  -2  -2  -6  302.32    3.50
  -2  -2  10  389.32    4.50
  -2  -1  12  160.80    3.24
  -2   1  15   42.47    2.87
  -2   8  -8    1.23    1.94
  -1  -1  -4   43.35    2.00
  -1   0  -5 1327.08    7.19
  -1   1  13   54.25    2.49
  -1   4  17  174.24    3.49
   0   2  -3  821.03    7.37
   0  13  -3    6.01    2.71
   1   6  13   43.61    1.68
   1   7  14   93.16    2.49
   1   8  -1  655.01    8.96
   1   9  -1   84.28    3.88
   1  10  17  159.62    3.57
   1  11  18   -0.87    2.75
   1  13   0   22.21    3.51
   1  15   1  115.92    6.49
   2  10   9  284.74    3.70
   2  11   7  246.99    4.25
   2  13  13    3.35    2.42
   2  17  10   29.86    3.39
  -5  -6   2   55.62    6.44
  -5  -4  -7    8.98    1.84
  -5  -3  -8   99.27    2.54
  -5  -2  -9   40.59    2.59
  -4  -4  -7    7.58    1.90
  -4  -3  -8  399.50    3.96
  -4   1 -10   -0.98    2.47
  -3  -3  -7   92.65    2.46
  -3  -2  -8  420.45    3.76
  -3  -1  13   34.62    3.24
  -2  -3  -5 2159.87    9.36
  -2  -1  -7  441.67    3.95
  -1  -1   9   21.79    1.91
  -1   0  11    3.17    1.90
  -1   1  -6  157.56    2.76
  -1   2  14   73.19    2.54
  -1   5  -7   11.86    1.39
  -1   6  -7   17.23    1.55
  -1   7  -7   98.97    2.69
  -1  11  -6   34.53    2.76
   0   0   6  834.53    6.15
   0   1   9  130.66    2.65
   0   4  14   14.87    2.18
   0  11  -4  230.41    4.29
   1   8  15   18.49    1.68
   1   9  16   82.38    2.25
   1  10  -1  416.37    7.14
   2  11   8    2.31    1.95
   2  12  11   11.68    2.22
   2  15  13    6.80    2.69
   2  16  10    1.73    3.16
  -5  -6  -3  143.34    3.68
  -5  -5  -6  280.62    4.02
  -4  -4   8   34.11    3.77
  -4  -2  -9  137.32    2.92
  -4   0 -10    5.07    2.33
  -3  -5  -4    3.16    1.62
  -3  -4  -6   54.12    2.10
  -3  -4   7  268.59    4.83
  -3   3 -10    1.27    2.30
  -3   4 -10    1.17    2.45
  -3   5 -10    1.95    2.78
  -2  -4  -3  310.72    4.65
  -2  -4   4    0.97    1.89
  -2   0  13   62.39    2.77
  -2   4  -9   89.47    2.52
  -1  -2   6   23.67    1.85
  -1   3  -7    1.09    1.73
  -1   3  15  197.32    3.38
  -1   8  -7   14.57    2.37
   0   3  -4  354.53    4.43
   0   5  15   84.49    2.56
   0   6  16   66.44    2.68
   1   6  12  293.31    3.19
   1  11  17   73.44    3.21
   2  13   8    1.58    2.37
   2  14   8   46.40    2.88
   2  15  10   -0.88    2.88
   2  15  11   51.48    3.00
  -5  -6  -4    2.04    2.44
  -5  -4  -8   93.44    3.24
  -5  -3  -9    8.44    2.37
  -5  -1 -10    5.22    2.14
  -4  -5  -6  267.22    3.59
  -4  -3  10  154.64    4.75
  -4  -1 -10   43.53    2.62
  -3  -3   9    7.57    2.72
  -3  -2  11    5.76    2.55
  -3  -1  -9   98.59    2.12
  -3   1 -10    2.88    1.92
  -3   2 -10   27.88    1.79
  -2  -3   7  123.88    2.99
  -2  -1  11   53.75    2.59
  -2   1  14   65.85    2.99
  -2   2  -9  255.24    3.15
  -2   3  -9  156.76    2.53
  -1  -2  -3 1197.09    9.07
  -1   1  12  419.78    4.16
  -1   4  16    8.27    2.55
  -1   5  17   40.46    2.98
  -1   9  -7  121.62    3.20
   0   0   5  693.67    6.14
   0   3  12  210.92    2.72
   0   6  -5  394.94    4.30
   0   7  -5   61.73    2.33
   0   8  -5   24.85    2.10
   0  14  -3    1.03    3.49
   1   7  -1  780.95   10.60
   1   8  14  256.30    3.31
   1   9  15   97.42    2.80
   1  10  16    3.58    1.76
   1  11  -1  527.66    8.08
  -5  -5  -7    2.69    2.30
  -5  -2 -10    1.32    2.68
  -4  -4  -8   89.69    2.57
  -4  -3  -9   34.25    2.26
  -4   2 -11   11.15    2.72
  -3  -3  -8  279.42    3.33
  -2  -2  -7   56.12    1.96
  -2  -2   9   10.53    2.07
  -2   2  15  164.30    3.76
  -2   8  -9   57.41    3.24
  -1  -1   8  235.53    3.39
  -1   0  10  100.07    2.57
  -1   2  -7  122.97    2.30
  -1  10  -7   19.78    2.72
   0   4  13   20.31    2.01
   0   5  -5  102.23    2.55
   0   9  -5   20.72    2.30
   0   9  18   33.74    2.96
  -5  -6  -5   60.38    2.73
  -4  -5  -7   65.45    2.35
  -4  -2 -10   30.95    2.61
  -4   0 -11   68.56    2.92
  -3  -5  -5  247.61    3.59
  -3  -4  -7  380.25    3.93
  -3  -2  -9    0.38    1.40
  -3  -1  12   29.15    2.98
  -2  -3  -6    7.41    1.59
  -2  -1  -8  298.08    2.98
  -2   1  -9    0.69    1.20
  -2   3  16    1.49    2.94
  -1  -2   5  579.36    6.02
  -1  -1  -5  732.18    5.66
  -1   5  -8  197.72    3.01
  -1   6  -8  143.48    2.87
   0   0   4    3.84    1.21
   0   5  14  106.47    2.19
   0   7  16    3.96    2.30
   0  10  -5   17.12    2.83
   1   8  13   -0.72    2.04
   1   9  14  222.34    3.27
   1  10  15  182.07    3.38
   1  13  17   77.44    3.37
  -5  -5  -8  126.35    3.18
  -5  -4  -9   27.05    2.88
  -5  -3 -10   15.43    2.86
  -4  -6  -5  273.97    4.02
  -4  -5   5  233.51    6.81
  -4  -1 -11  118.65    2.99
  -3   2 -11  192.78    3.34
  -2   0  -9   40.14    1.91
  -2   0  12  180.03    3.28
  -2   4 -10    9.71    2.06
  -2   5 -10    1.54    2.10
  -1   1  -7  145.34    2.36
  -1   3  14   51.28    2.32
  -1   4  15  102.53    2.94
  -1   6  17  132.27    3.60
  -1   7  -8   95.40    3.02
   0   2   9    1.42    1.58
   0   3  11   21.55    1.56
   0   4  -5  173.67    3.15
   0  10  18    3.90    2.87
   1   6  10  269.41    3.35
   1  14   0    0.76    3.91
  -5  -6  -6  124.29    3.29
  -4  -4  -9   20.08    1.74
  -4  -3 -10   69.33    2.77
  -3  -5  -6  298.85    3.80
  -3  -4   6   58.55    3.15
  -3  -3  -9   18.10    2.00
  -3   0  13   18.10    2.83
  -2  -4   3  281.77    6.21
  -2  -3   6  260.09    4.47
  -2  -1  10  220.62    3.50
  -2   1  13   17.44    2.57
  -2   3 -10   45.25    1.86
  -2   6 -10   -1.30    2.47
  -1  -2  -4  236.47    3.91
  -1   1  11   19.64    1.54
  -1   3  -8  153.04    2.49
  -1   8  -8   16.82    1.84
   0   0   3  386.19    5.60
   0   9  17  121.98    3.18
   1   4   4   89.16    2.76
   1  10  14   50.11    2.43
   1  11  15    2.18    2.19
   1  12  -1   97.40    4.73
   1  13  16   96.33    3.29
  -5  -6  -7   45.46    2.59
  -5  -4 -10   28.86    3.04
  -4  -6  -6    3.33    1.97
  -4  -5  -8  196.78    2.96
  -4  -2 -11  132.07    3.19
  -4   0 -12   22.65    2.70
  -3  -5   3  280.91    7.75
  -3  -4  -8  181.65    2.61
  -3  -3   8  245.84    4.47
  -3  -2 -10   75.55    2.39
  -3   0 -11    9.84    2.13
  -2  -4  -5  445.48    4.64
  -2  -3  -7  167.66    2.82
  -2  -2  -8  813.30    4.90
  -2  -2   8   58.78    2.39
  -2   1 -10   53.09    2.30
  -2   2  14  187.42    3.92
  -1  -1   7  567.03    5.09
  -1   2  12  274.66    3.46
  -1   9  -8   25.80    2.89
   0   0   2  933.04   10.36
   0   3  -5  979.61    6.77
   0   6  14  144.46    2.60
   0   7  15  178.51    3.04
   0  11  18   -0.13    2.94
   1   5   7  437.40    4.33
   1   8  12  390.97    3.55
   1   9  13   21.96    1.72
  -5  -5  -9   14.40    2.07
  -5  -5   5   57.74    6.49
  -4  -4 -10  112.92    2.71
  -4  -4   7   62.15    3.66
  -4  -1 -12    3.86    2.40
  -3  -1 -11  229.51    3.19
  -2   4  16   41.63    2.96
  -1  -2   4   62.84    2.65
  -1  -1  -6  470.38    4.35
  -1   0  -7  120.65    2.22
  -1   3  13   48.50    2.34
  -1   7  17   53.91    3.09
  -1  10  -8    7.48    2.94
   0   1   6   -0.01    1.48
   0   5  -6  631.15    5.28
   0   6  -6  353.01    4.06
   0   7  -6  208.12    3.41
   0   8  -6  400.64    4.68
   0  10  17  135.58    3.27
   1   6  -1  348.42    7.98
   1   7  10  629.47    4.75
   1  11  14  241.35    3.46
  -5  -6  -8   35.79    2.67
  -4  -6  -7    7.23    1.96
  -4  -5  -9    2.39    2.10
  -4  -3 -11   19.85    1.86
  -3  -5  -7  161.51    2.61
  -3  -4  -9   68.05    2.13
  -3  -3 -10  269.38    3.37
  -3  -1  11    4.60    2.51
  -3   1 -12    4.37    2.41
  -3   2 -12    1.79    1.96
  -2   0 -10  267.96    2.97
  -2   0  11   12.32    2.13
  -2   4 -11   95.18    3.02
  -1   1  10  544.04    4.65
  -1   5  -9   67.15    2.53
  -1   7  -9  148.18    3.13
   0   9  -6  122.86    3.25
   0  12  -5    2.27    2.80
   1   5   6  183.57    3.30
   1   8  11   11.52    1.84
   1   9  -2    7.95    2.73
   1   9  12  325.53    3.60
   1  10  13   14.31    1.64
   1  13  15    7.11    1.80
   1  14  15    2.83    2.68
  -5  -7  -5   46.77    3.19
  -5  -7  -4    2.90    2.45
  -5  -7  -3  208.53    4.71
  -5  -7  -2   17.93    3.42
  -5  -5 -10   19.81    2.91
  -5  -4 -11   45.28    2.53
  -4  -2 -12    2.05    2.63
  -3  -6  -3  619.63    6.92
  -3  -6  -2  592.45    7.55
  -3   0 -12   -0.32    2.29
  -2  -4  -6  605.18    5.14
  -2  -2  -9    5.28    1.68
  -2   1  12  325.34    4.09
  -2   2 -11  295.95    3.71
  -2   3 -11   71.17    2.26
  -2   6 -11   60.84    3.28
  -1  -2  -5  748.06    5.87
  -1   3  -9  176.04    2.99
  -1   8  -9   40.50    2.95
   0   4  -6  112.02    2.63
   0   5  12  639.59    4.33
   0   6  13   30.72    2.07
   0   8  15   23.54    1.76
   0  10  -6  162.52    3.80
   0  11  17    7.79    2.82
   1   8  -2   13.98    2.77
   1  10  -2   62.13    3.66
   1  15  15   30.21    3.21
  -5  -7  -6    1.18    2.20
  -5  -6  -9    6.53    2.71
  -4  -6  -8  288.12    3.78
  -4  -5 -10   53.21    2.42
  -4  -4 -11  121.42    3.04
  -4  -3 -12   10.46    2.42
  -4  -2  10    9.08    2.91
  -3  -5  -8  598.42    4.81
  -2  -1 -10   77.33    1.85
  -2  -1   9   34.81    2.12
  -2   2  13  102.88    3.04
  -1  -1  -7  160.54    2.73
  -1  -1   6   39.14    2.08
  -1   0  -8  491.92    4.18
  -1   0   8  883.49    5.96
  -1   9  -9  143.25    3.91
   0   1   5  765.45    6.54
   0   2  -5  690.93    5.63
   1   5   5 2620.10   11.95
   1   7   9  587.71    4.76
   1   8  10  540.40    4.61
   1   9  11   93.99    2.43
   1  10  12  443.67    4.18
   1  13  14   71.61    2.73
  -5  -7  -7   36.43    3.19
  -5  -7  -1   54.67    4.82
  -5  -5 -11   45.36    3.04
  -3  -6  -5  641.24    5.65
  -3  -6  -1    0.55    2.71
  -3  -4 -10  228.90    3.19
  -3  -3 -11   94.13    2.63
  -3   1  13   12.65    2.54
  -3   2  14   31.22    3.33
  -2  -4  -7  269.18    3.41
  -2  -3   5   92.43    2.97
  -2  -2   7 1022.31    7.09
  -2   3  14   65.04    2.32
  -2   4  15    6.84    2.45
  -2   5  16   34.89    2.33
  -1   1  -9   18.37    1.80
  -1   4  13   13.06    2.08
  -1   5  14  470.70    4.31
  -1   6  15  132.69    3.22
  -1   7  16   16.70    1.94
   0   1  -4   71.44    2.27
   0   3  -6  374.53    4.17
   0   6  -7   30.01    2.43
   0   7  -7   88.86    3.04
   0   9  15  125.34    2.87
   0  11  -6   60.08    3.24
   0  12  17   62.26    2.64
   1   7  -2    4.29    2.34
   1  11  -2   16.36    3.34
   1  12  13    1.50    2.21
   1  15  14   79.84    3.44
   1  16  14   35.78    3.45
  -5  -6 -10   20.02    2.88
  -4  -7  -5  344.35    4.67
  -4  -7  -4   20.88    2.20
  -4  -6  -9    0.63    2.29
  -4  -3   8   33.33    3.51
  -4  -2 -13   62.87    2.59
  -4  -1  11   41.76    3.55
  -3  -6  -6   -0.13    1.64
  -3  -5  -9   23.05    2.05
  -3  -4   5  235.04    5.00
  -3  -3   7   76.99    3.16
  -3   0 -13   43.94    2.59
  -3   1 -13   72.77    2.48
  -2  -3  -9   15.16    1.76
  -2   0  10  522.43    4.67
  -2   3 -12   20.03    2.61
  -2   4 -12   26.56    2.85
  -2   5 -12    0.34    2.95
  -1  -2  -6  108.46    2.30
  -1  -2   3 1272.39   11.16
  -1   1   9   93.34    2.50
  -1   4 -10   48.01    2.47
  -1   5 -10    1.66    2.31
  -1   6 -10   33.40    2.82
   0   5  -7    1.45    1.79
   0   7  13    2.01    1.77
   0   8  -7    2.67    2.18
   0   8  14  328.78    3.26
   0  13  17   46.25    3.09
   1  11  12  257.92    3.51
  -5  -7  -8   90.23    3.25
  -4  -7  -6  229.48    3.86
  -4  -5 -11  110.78    2.47
  -4  -4 -12   31.69    2.16
  -4  -3 -13   44.97    3.02
  -3  -6  -7   91.91    2.54
  -3  -1 -13  155.19    3.03
  -3  -1  10  196.34    3.60
  -2  -4  -8  435.13    4.09
  -2  -1 -11  294.15    3.00
  -2   1 -12   11.77    2.35
  -2   2 -12    1.61    1.85
  -1  -1  -8  534.87    4.40
  -1   3 -10   92.34    2.24
  -1   8 -10    1.69    2.64
  -1   8  16  150.42    3.39
   0   3   8  146.89    2.71
   0   4  -7    3.40    1.76
   0   9  -7   23.22    2.70
   0  10  15    8.58    2.33
   0  12  -6   32.86    3.80
   1   6   6   36.51    1.96
   1   8   9  280.63    3.52
   1   9  10    2.30    1.98
   1  15  13   11.60    2.82
   1  17  13    3.56    3.17
  -5  -7  -9   30.45    2.84
  -5  -6 -11   39.50    3.16
  -4  -7  -7  120.86    3.08
  -4  -7  -2   32.83    3.56
  -4  -6 -10  172.31    3.24
  -4  -5   4   25.73    3.88
  -4  -4   6    0.72    2.83
  -3  -5 -10  203.55    3.17
  -3  -4 -11  205.42    2.82
  -3  -3 -12    8.73    1.67
  -3   0  11   19.28    2.45
  -2  -5  -5  393.27    4.55
  -2  -5  -4  254.21    4.22
  -2  -4   2  390.03    8.74
  -2   0 -12   32.96    2.23
  -2   1  11   -0.19    1.75
  -2   2  12  106.28    2.81
  -1  -3  -3  803.55    7.89
  -1  -3  -2 1567.66   13.28
  -1  -2  -7  177.08    2.92
  -1   0  -9  126.48    2.36
  -1   0   7  707.95    5.63
  -1   2 -10  102.98    2.17
  -1  10  17   93.74    3.28
   0   0  -2  929.13   10.15
   0   1  -5 1373.42    8.27
   0   2  -6  624.87    5.13
   0   2   6    8.03    1.57
   0   9  14  157.81    2.95
   1   5   3  582.23    7.34
  -4  -7  -8  194.49    3.44
  -4  -5 -12   11.31    2.49
  -4  -4 -13   80.92    3.25
  -3  -6  -8  153.65    3.00
  -3   1  12  248.71    4.01
  -3   4  15   37.83    3.41
  -2  -3 -10  502.54    3.85
  -2  -2 -11    2.04    1.29
  -2  -1   8   50.11    2.21
  -2   3  13    1.97    2.00
  -1  -3  -4   26.25    2.01
  -1  -1   5 1575.58    9.57
  -1   1 -10  362.81    3.73
  -1   4  12  276.97    3.38
  -1   5  13   58.10    2.49
  -1   6  14   56.74    1.96
   0   3  -7  160.91    3.03
   0   7  12  576.18    4.39
   0   8  13    6.60    1.89
   0  13  16   55.53    2.49
   1   5   2  611.80    9.03
   1   8   8    4.03    1.76
   1  14  12   69.51    3.07
   1  15  12    5.43    2.56
   1  17  12   20.47    3.22
  -5  -7 -10  157.45    3.88
  -4  -7  -9   -0.10    2.22
  -4  -6 -11   34.69    2.63
  -4  -2   9  119.33    3.90
  -3  -4 -12   57.92    2.51
  -3  -3 -13  197.78    3.20
  -3  -2   8   44.27    2.72
  -3  -1 -14   22.66    2.58
  -3   2  13   13.21    2.56
  -3   3  14   93.82    3.27
  -2  -5  -6   27.33    1.50
  -2  -4  -9  100.52    2.20
  -2   2 -13   77.32    3.22
  -2   3 -13   12.05    2.11
  -1  -3  -5 1687.79    9.20
  -1  -1  -9  220.69    3.07
  -1   4 -11  147.46    3.08
  -1   5 -11  362.47    4.72
  -1   6 -11   17.27    2.85
  -1   9  16   86.03    2.59
  -1  11  17    8.66    2.87
   0   0  -3  412.43    5.83
   0   5  -8  286.12    3.81
   0   6  -8   41.64    2.40
   0  11  -7   15.06    3.24
   0  12  15   51.74    2.90
   0  14  16  165.85    3.85
   1   5   1  100.33    5.91
   1   6  -2  125.52    4.38
   1   6   5  299.74    4.28
   1   8  -3  424.23    6.47
   1   9  -3  263.10    5.41
   1  12  11  111.65    2.70
   1  14  -1   63.49    6.89
  -5  -8  -6   39.52    3.37
  -5  -7 -11   26.82    2.90
  -4  -5 -13  144.93    3.59
  -3  -6  -9    6.46    1.43
  -3  -5 -11   38.85    1.84
  -2  -5  -7  622.41    5.08
  -2  -3 -11  321.87    3.54
  -2  -2   6    1.06    1.62
  -2   0   9  583.91    5.00
  -2   1 -13  171.84    2.92
  -2   7  16  116.56    3.03
  -1  -3  -1   45.72    3.75
  -1  -2  -8  723.57    5.12
  -1   0 -10  472.14    3.88
  -1   1   8  237.43    3.33
  -1   2 -11  235.50    3.38
   0   1  -6   34.92    2.01
   0   2  -7   95.05    2.57
   0   3   7  683.01    5.43
   0   4  -8  530.45    4.74
   0   8  -8  145.22    3.45
   0   9  13   48.76    2.35
   0  15  16   93.25    3.11
   1  14  11   39.54    2.68
  -5  -8  -8  119.82    3.67
  -5  -8  -7   43.07    3.03
  -5  -4   6    9.78    3.67
  -4  -7 -10  112.91    3.19
  -4  -6 -12   37.34    2.56
  -4  -4 -14   16.03    2.42
  -4   0  11    9.83    3.52
  -3  -6 -10  366.65    3.93
  -3  -4 -13  128.97    2.90
  -3  -2 -14   12.47    1.97
  -2  -5  -8  410.55    4.02
  -2  -4 -10  220.22    3.10
  -2  -2 -12   31.62    1.64
  -2   1  10  215.75    3.38
  -2   5  14  165.50    3.37
  -2   6  15   31.55    2.25
  -1  -3  -6   29.48    1.95
  -1   1 -11   86.99    2.59
  -1   2   9  145.99    2.84
  -1  10  16   26.54    2.00
  -1  12  17   52.75    3.05
   0   0  -4    5.49    1.71
   0   3  -8  312.15    3.83
   0   8  12  291.00    3.33
   0   9  -8   27.25    2.88
   0  11  14  379.95    4.06
   0  13  15   42.26    2.34
   1   7  -3  666.09    7.98
   1   9   8    9.42    1.83
  -5  -8  -9    1.90    2.71
  -5  -8  -4    9.09    3.32
  -4  -7 -11   32.21    2.58
  -4  -7  -1    4.67    4.10
  -4  -5 -14   23.40    2.85
  -4  -3   7  114.06    4.22
  -4   1  12   25.05    3.30
  -3  -5 -12    7.02    1.57
  -3  -3 -14   13.98    2.67
  -3  -3   6   40.80    2.56
  -2  -1 -13  264.32    3.17
  -2   2 -14    8.22    2.97
  -2   3  12  298.70    3.84
  -2   8  16   69.94    3.30
  -1  -3  -7 1622.70    7.93
  -1  -2  -9   13.24    1.65
  -1  -1 -10  219.56    3.10
  -1   0   6  147.49    3.09
  -1   3  10  445.57    4.14
  -1   4 -12    1.54    2.31
  -1   4  11   25.56    1.91
  -1   5 -12   12.75    2.64
  -1   5  12  289.14    3.49
  -1   6  13    0.63    1.46
  -1   9  15   25.57    2.53
   0   1   3 1430.06   10.95
   0  10  -8   55.77    3.58
   0  12  14  121.56    3.38
   0  14  15    4.33    2.07
   0  15  15   -0.27    2.99
   1  11  -3   63.85    4.09
   1  13  10   53.84    2.51
   1  14  10   -0.54    2.22
  -5  -8 -10   55.72    3.31
  -5  -5   4   51.51    5.49
  -4  -6 -13   88.66    3.16
  -3  -7  -7  341.94    4.13
  -3  -7  -6   85.16    2.56
  -3  -7  -5  710.44    6.41
  -3  -6 -11   24.27    2.28
  -3  -2 -15   37.42    2.76
  -3   1  11   -0.05    2.31
  -3   2  12  132.55    3.40
  -3   3  13   24.72    3.04
  -2  -5  -9   61.25    2.22
  -2  -3 -12  202.49    2.72
  -2   0 -14   52.68    2.80
  -2   1 -14   27.78    2.30
  -1   0 -11  292.29    3.22
  -1   2 -12    1.74    2.14
  -1   6 -12   14.67    3.33
  -1   8  14  249.53    3.44
   0   0  -5  690.59    6.10
   0   1  -7  218.32    3.28
   0   5  -9  192.34    3.42
   0   6  -9   52.71    2.60
   1   5  -1 1324.00   18.38
   1  15  10    3.35    2.28
   1  17   9   69.32    3.72
  -5  -8 -11   56.44    3.09
  -4  -8  -9   12.98    2.12
  -4  -8  -8   48.78    2.53
  -4  -8  -7  331.43    4.47
  -4  -7 -12   38.21    2.74
  -3  -7  -8  143.53    2.92
  -3  -5 -13   69.00    2.88
  -3  -5   2  182.46    6.57
  -3  -4 -14   23.61    2.57
  -3  -4   4    6.45    2.47
  -2   7  15   -0.08    2.12
  -1  -3  -8  297.37    3.49
  -1  -2   2 1434.17   14.48
  -1  -1   4   20.62    2.22
  -1   1 -12   -1.67    2.09
  -1  10  15   13.53    2.42
  -1  12  16   64.10    3.19
   0   4  -9    3.88    1.96
   0   9  12   17.34    1.52
   0  11  13   10.05    2.32
   1   6  -3  214.85    4.87
  -5  -8  -3   83.38    5.01
  -4  -8 -10   83.26    2.86
  -4  -8  -5   87.85    3.00
  -4  -6 -14    9.03    2.84
  -4  -2   8   17.74    2.86
  -3  -7  -9   61.94    2.02
  -3  -7  -4   58.13    2.82
  -3  -6 -12  264.56    3.18
  -3  -3 -15  107.87    2.79
  -3   6  15    7.02    3.10
  -2  -4 -12   61.17    2.35
  -2  -3 -13  154.25    2.90
  -2  -1 -14    3.50    1.77
  -2   6  14   89.18    2.42
  -2   9  16   18.21    2.21
  -1  -2 -10  659.29    4.54
  -1  -1 -11   81.82    2.04
  -1   0 -12   50.38    2.37
  -1   1   7  493.16    4.71
  -1   7  13    1.60    1.44
  -1  13  16   75.11    3.40
   0   0  -6  816.67    6.20
   0   3  -9    1.56    1.96
   0  15  14   43.07    3.08
   1   6   3   23.13    2.20
   1   7  -4   35.05    2.73
   1   8  -4   90.75    3.66
   1   9  -4  211.11    4.88
   1  17   7   30.68    3.89
  -4  -8 -11   37.43    2.57
  -4  -7 -13   23.38    2.17
  -4  -4   5   95.68    3.96
  -3  -7 -10   76.04    2.08
  -3  -5 -14    3.10    2.47
  -3  -4 -15    0.91    2.70
  -2  -5 -11    2.85    1.88
  -2  -2 -14   35.99    2.50
  -2   0 -15    8.38    2.67
  -2   1   9   37.04    2.17
  -2   5  13    3.05    1.61
  -1  -3  -9    2.16    1.49
  -1   2 -13  295.34    3.79
  -1   2   8   85.28    2.34
  -1   4 -13   31.39    3.13
  -1   5  11    5.79    1.80
  -1   6  12  213.13    2.75
  -1   9  14  152.32    2.58
  -1  11  15    8.95    2.52
  -1  14  16   52.71    3.60
   0   1  -8  357.66    3.71
   0   4   7  539.24    4.78
   0  10  12  307.23    3.28
   0  12  13   14.87    1.75
   1   5  -2  296.90    6.80
   1  10  -4  180.15    4.91
   1  12   8   11.23    1.99
   1  16   8  119.04    3.90
   1  17   5    5.26    3.88
   1  17   6  104.17    5.05
  -4  -8  -4    2.29    2.60
  -4  -7 -14    0.78    2.57
  -4   1  11   49.71    3.22
  -3  -7 -11   44.47    2.43
  -3  -6 -13  121.87    2.68
  -3   4  13    0.82    2.56
  -2  -6  -7  770.69    5.58
  -2  -6  -6   51.78    2.18
  -2  -6  -5  709.90    6.38
  -2  -4 -13  101.98    2.58
  -2  -1 -15   65.40    3.17
  -2   3  11  126.29    2.71
  -2  10  16  153.93    3.21
  -1  -2 -11   54.56    2.13
  -1  -1 -12   30.41    2.29
   0   7 -10   20.54    2.88
   0   9  11  153.51    2.83
   0  13  13  197.64    3.14
   0  14  13    6.09    2.53
   1   6  -4  234.03    4.64
   1  15   8   32.89    2.73
   1  16   7    1.91    3.19
  -5  -9 -10   33.70    3.29
  -5  -9  -9   24.91    3.19
  -5  -9  -8   94.17    3.67
  -5  -9  -7   15.64    3.48
  -4  -8 -12   23.88    2.26
  -3  -7 -12  161.41    3.14
  -3  -7  -3   84.35    3.65
  -3  -5 -15  121.07    3.35
  -3   3  12  163.84    3.60
  -3   7  15   -0.63    2.64
  -2  -6  -9   20.66    2.00
  -2  -5 -12   40.89    2.17
  -2  -3 -14    5.07    1.61
  -2  -2 -15   67.15    2.77
  -1  -4  -7  439.54    4.36
  -1  -4  -6   53.09    2.21
  -1  -4  -5  460.08    5.14
  -1  -3 -10  219.98    2.75
  -1   0 -13  177.31    3.20
   0   1  -9   47.51    2.20
   0   2   4  256.72    4.15
   0   8 -10    2.45    2.99
   0   8  10  186.19    3.02
   0  15  13  127.00    3.37
   0  16  13  156.57    3.90
   0  17  13    6.08    3.09
   1   5  -3  710.91    8.42
   1  15   7   53.13    3.50
   1  16   2    1.71    5.11
  -5  -9  -6   22.99    3.48
  -4  -8 -13  155.03    3.84
  -3  -6 -14   17.15    2.09
  -2  -6 -10  621.02    4.79
  -2  -6  -4  144.99    3.74
  -2  -4 -14    7.41    1.99
  -2   6  13   38.43    2.27
  -1  -4  -8  663.95    5.02
  -1  -4  -4   84.05    2.80
  -1  -2 -12  164.72    2.91
  -1   0   5  739.88    6.54
  -1   2 -14   22.93    2.68
  -1   3 -14   54.30    3.31
  -1   7  12  523.41    4.00
  -1  13  15   14.96    2.21
  -1  14  15   -0.54    3.05
   0   2 -10  132.51    2.87
   0  10  11   91.66    2.52
   0  12  12   74.96    2.21
   1   6   2  735.71    9.76
   1   8  -5   23.96    2.87
   1  13   7   34.48    2.58
   1  14   7   39.37    2.76
   1  16   6   92.40    3.98
  -5  -4   5   20.64    3.81
  -4  -8 -14   20.88    2.79
  -4  -5   3   57.35    4.30
  -4  -3   6   17.73    2.62
  -3  -8  -9   72.53    2.51
  -3  -8  -8  303.10    3.92
  -3  -7 -13  194.78    3.01
  -3  -6 -15  136.44    3.29
  -3  -5 -16   32.06    2.97
  -3  -3   5  321.30    5.00
  -3   8  15   -0.64    3.18
  -2  -6 -11  173.52    2.92
  -2  -5 -13  356.98    3.77
  -2  -3 -15  111.50    3.16
  -2  -1   6   37.11    2.12
  -2   8  14   82.09    3.00
  -1  -4  -9  371.18    3.80
  -1  -3 -11  175.20    2.53
  -1  -1 -13  376.99    3.71
  -1   1 -14   10.48    2.51
  -1   6  11  461.92    3.77
  -1  11  14   87.28    2.42
  -1  15  15   71.98    3.65
   0  -1  -6    1.14    1.62
   0  -1  -4  453.40    5.51
   0   3   5 1278.32    8.20
   0   4 -11   37.21    2.71
   0  17  12    8.04    3.26
   1   5  -4    3.10    2.04
   1   6  -5  269.87    4.73
   1   9  -5  165.69    4.49
   1  15   6  107.91    4.03
   1  16   4   21.00    3.71
   1  16   5   11.19    2.95
  -4  -9 -11    4.99    2.36
  -4  -9 -10  291.05    4.28
  -4  -9  -9   19.20    2.45
  -4  -9  -8   90.19    3.27
  -3  -8 -11    2.09    2.14
  -3  -8 -10  317.37    3.53
  -3  -8  -7  142.61    3.11
  -3  -7 -14   -1.26    2.62
  -2  -6 -12  224.47    3.19
  -2  -2 -16   20.32    3.05
  -2   4  11    1.40    2.02
  -1  -4 -10  250.84    3.18
  -1  -3 -12  301.98    3.39
  -1  -2 -13   68.48    2.59
  -1   0 -14    1.16    2.55
  -1   1   6  125.07    2.91
  -1   4   9  144.26    2.72
  -1  12  14   31.30    2.44
   0  -1  -7  870.71    5.99
   0  -1  -3 1424.06   10.69
   0   0  -9   11.19    1.45
   0   1   2   13.81    1.73
   0   3 -11  516.24    4.90
   0   4   6   45.43    2.01
   0   5   7 1225.35    7.17
   0   7 -11   75.89    3.62
   0   9  10  245.17    3.24
   0  11  11  242.84    3.33
   0  15  12   -1.65    2.13
   1  10  -5    9.59    3.04
  -5  -9  -5   52.84    3.81
  -4  -9 -12   52.51    3.08
  -4  -9  -7   97.39    3.31
  -4  -8  -3  160.34    5.44
  -3  -8 -12   98.91    2.89
  -3  -8  -6   35.14    2.30
  -3  -6 -16   26.40    2.89
  -3   4  12   51.65    2.55
  -2  -5 -14    2.67    1.64
  -2  -4 -15  137.21    2.69
  -2  -3 -16   66.55    3.21
  -2   0   7  138.96    2.85
  -2   1   8   75.02    2.46
  -2   7  13    4.64    1.75
  -2  11  15   10.39    2.57
  -1  -1 -14    4.32    2.48
  -1   3   8   74.28    2.24
  -1  10  13  102.12    2.31
  -1  13  14  278.49    4.00
   0  -1  -8  329.22    3.82
   0   2 -11   61.58    2.06
   0  12  11  277.15    3.83
   1  13   6  211.18    4.12
  -5  -8  -2   50.53    7.08
  -5  -3   6    2.59    3.19
  -4  -9 -13   25.06    3.08
  -3  -8 -13   80.16    2.76
  -3  -7 -15   17.37    2.96
  -3  -2   6   13.60    2.16
  -3   3  11   86.58    2.80
  -3   9  15   15.62    2.56
  -2  -6 -13   62.80    2.62
  -2   6  12   71.18    2.68
  -2  12  15   38.15    3.19
  -1  -4 -11    9.10    1.27
  -1  -4  -3   82.83    3.07
  -1  -3 -13  359.26    3.78
  -1   1 -15  107.63    3.58
  -1  11  13    1.24    2.30
  -1  15  14    8.97    3.07
   0   1 -11    3.29    2.05
   0   4 -12   -0.17    2.46
   0   5 -12   14.85    2.57
   0  10  10  155.22    2.84
   0  16  11   33.40    3.08
   1   5  -5  171.19    3.78
  -5 -10  -9   -0.19    3.61
  -5  -1   8   -0.21    3.68
  -4  -9 -14   -0.60    3.05
  -4  -9  -6   17.32    2.56
  -3  -8 -14   26.58    2.47
  -3   0   8    4.91    2.04
  -3   6  13   13.73    2.39
  -2  -7 -11    1.12    1.82
  -2  -7  -7  456.95    4.68
  -2  -6  -3  377.58    6.33
  -2  -5 -15  253.63    3.30
  -2  -4 -16   19.64    2.13
  -2   8  13   33.36    2.55
  -2  10  14  141.22    3.28
  -1  -4 -12  168.60    2.86
  -1  -2 -14    8.49    1.75
  -1  -1   3  483.97    6.68
  -1   0 -15   65.05    2.50
   0   2 -12   40.99    2.58
   0   3 -12   14.61    2.01
   0   6 -12   -0.61    2.85
   0  15  11  189.63    3.36
   1   9  -6  139.79    3.92
   1  11  -5    0.34    3.19
   1  14   5    6.13    2.47
  -5 -10  -8   68.57    4.03
  -4   4  12   26.22    3.20
  -3  -8  -5  295.56    4.78
  -3  -7 -16    0.52    2.26
  -3   8  14   19.81    2.41
  -1  -5  -9    9.79    1.25
  -1  -5  -8  222.48    3.02
  -1  -5  -7  417.04    4.41
  -1  -3 -14   26.10    2.31
  -1   8  11  183.42    2.95
  -1  10  12  151.01    2.98
   0   0 -11  334.01    3.49
   0   1 -12  247.93    3.65
   0   9   9 1097.03    6.33
   0  17  10   32.64    3.28
   1   4  -4    0.08    1.71
   1   5  -6  360.10    4.81
   1  12   5    5.73    2.13
   1  13   5    4.70    2.18
   1  15   3   73.60    4.38
  -5  -5   3   15.05    3.93
  -4 -10 -11   35.55    2.78
  -3  -9 -11    0.85    2.18
  -3  -9 -10  263.30    3.76
  -3  -8 -15  228.07    4.13
  -3   7  13   18.11    2.89
  -2  -7 -13   65.25    2.61
  -2  -7  -6  105.00    2.83
  -2  -6 -15   14.45    2.37
  -2  -5 -16   24.67    1.99
  -2  -4 -17    0.98    2.84
  -2  -2   4  152.54    3.70
  -2   9  13   88.48    2.94
  -2  11  14   68.89    2.30
  -1  -5  -6  178.30    3.31
  -1  -4 -13  123.41    2.31
  -1  -2 -15  104.38    2.64
  -1   0 -16   63.27    3.45
  -1  15  13  186.89    4.00
  -1  16  13   28.95    3.34
   0  -2  -8  324.33    3.77
   0  -2  -7  218.57    3.27
   0  -2  -6    8.02    1.67
   0   3 -13  136.47    3.52
   0   4 -13   60.59    3.34
   0  12  10   12.58    1.56
   0  13  10   12.62    2.37
   1   7  -7   -0.04    2.19
   1   8  -7   32.60    3.35
   1  14   4   96.74    3.85
   1  15   2   66.90    5.03
  -5 -10  -7   35.41    4.18
  -4 -10 -13   19.06    3.09
  -4 -10 -12  129.95    3.67
  -4 -10 -10  112.54    3.49
  -4 -10  -9   11.51    3.06
  -4  -9  -5  125.25    4.10
  -4  -6   1    0.42    3.76
  -3  -9 -13    1.46    2.34
  -3  -9 -12  124.27    2.65
  -3  -9  -9   29.76    2.28
  -3  -8 -16    4.16    3.09
  -3  -7  -2  183.96    6.56
  -2  -7 -14   46.50    2.56
  -2  12  14   65.81    2.87
  -1  -4 -14    4.52    1.86
  -1  -3 -15  116.47    3.10
  -1  -1 -16    5.37    3.13
  -1  11  12   10.79    2.09
   0  -2  -9    1.50    1.68
   0  -1 -11    2.37    1.90
   0  -1  -2   14.27    1.81
   0   2 -13  193.63    3.87
   0   3   4  585.98    6.22
   0   8   8   65.36    2.33
   0  10   9  299.89    3.64
   0  14  10   17.46    1.94
   0  15  10    1.22    1.90
   1   5  -7    2.51    2.07
   1   9  -7   -0.39    3.00
   1  12  -5    1.11    4.11
  -4 -10 -14   21.56    3.50
  -3  -9 -14   30.38    2.71
  -3  -9  -8  103.10    2.97
  -2  -6 -16   32.11    2.10
  -2  -5 -17   59.99    2.55
  -2  13  14   26.69    2.77
  -2  14  14   -1.70    3.20
  -1  -5 -13   55.76    2.19
  -1  -5  -5 2784.39   12.15
  -1  -2 -16  133.73    3.57
  -1   2   6  104.59    2.61
  -1   9  11  118.70    2.30
   0  -2 -10  744.70    5.17
   0  -1 -12   62.38    2.36
   0   1 -13  141.74    2.69
   0  11   9  250.59    3.57
  -5  -4   4   96.02    4.84
  -4 -10  -8   64.03    3.10
  -4  -2   6    5.40    2.80
  -3  -9 -15   15.72    3.24
  -3   8  13   66.88    2.59
  -2  -8  -9  119.92    2.68
  -2  -7 -15  181.55    2.95
  -2  -7  -5  347.19    4.80
  -2  -4   1   25.81    3.64
  -2   1   7  727.68    5.66
  -1  -4 -15  133.56    3.12
  -1  -3 -16    5.25    2.57
  -1  14  12    3.02    2.57
  -1  16  12    0.42    3.07
   0   0 -13  260.48    3.76
   0   2 -14   15.35    2.77
   0   3 -14   -0.64    3.22
   1   8  -8  181.91    4.66
   1  10  -7   41.26    3.95
  -5   0   8   -0.32    3.53
  -5   1   9   57.38    3.65
  -3  -9 -16    8.15    3.08
  -3  -9  -7  328.82    4.60
  -3  -8  -4  843.78    8.96
  -3  -3   4  160.35    3.83
  -3   1   8   27.55    2.21
  -3  11  14    7.63    2.41
  -2  -8 -13  108.29    2.85
  -2  -7 -16    1.35    2.61
  -2  11  13   47.86    2.20
  -1  -6 -11   84.66    2.32
  -1  -6 -10  263.05    3.48
  -1  -6  -9  260.72    3.41
  -1  15  12   26.13    2.22
   0  -2  -4  260.62    4.10
   0  -1 -13   44.92    2.46
   0  13   9  136.19    2.85
   0  14   9  112.40    3.20
   0  15   9  108.76    3.18
   1   3  -6  323.32    4.38
   1   3  -4    9.26    1.86
   1  14   2   19.08    3.66
  -5 -10  -6    2.82    3.95
  -5  -3   5   92.29    4.26
  -5  -1   7   38.72    3.63
  -4 -10  -7  120.54    4.00
  -3 -10 -12  101.74    2.98
  -3  -2   5  562.48    5.93
  -3   7  12   34.65    2.78
  -2  -8 -14   -0.14    1.64
  -2   7  11   52.14    1.85
  -2   9  12  163.24    2.63
  -2  12  13  133.04    2.86
  -2  13  13   28.09    3.03
  -1  -5 -15  211.82    3.43
  -1  -4  -2 1125.24   11.89
  -1  11  11  180.01    3.13
   0  -3 -10  252.06    3.29
   0  -3  -9  701.30    5.09
   0  -3  -8  145.20    2.79
   0  -2 -12  254.90    3.04
   0   0 -14   10.73    2.50
   0   6   6   27.49    1.92
   0  10   8   52.98    2.33
   1   5  -9   26.37    2.50
   1   6  -9   10.39    2.58
  -4 -11 -13   70.95    3.53
  -4 -11 -12   60.55    3.27
  -4 -11 -11   19.44    3.26
  -4   3  10   -0.28    1.98
  -3 -10 -14  119.82    3.47
  -3 -10 -13  145.35    3.07
  -3 -10 -11    3.20    2.23
  -3 -10 -10   98.66    2.82
  -3   4  10   -1.28    2.33
  -2  -8 -15  205.35    3.08
  -2  -8  -7  198.96    3.36
  -2   4   9  156.59    2.57
  -2  14  13  102.41    3.46
  -1  -6 -13   42.51    1.79
  -1  -6  -7  907.19    6.23
  -1  -5  -4 1365.26    9.59
  -1  12  11  223.53    3.36
   0  -1 -14   -0.37    2.28
   0   1 -15   38.89    2.93
   0   2 -15   98.28    3.92
   0  11   8   73.95    2.53
   1   3  -8  297.23    3.94
   1   3  -3 1334.13   11.49
   1   4  -9   23.10    2.39
   1   8  -9   17.06    3.53
  -4   7  12    3.17    2.97
  -3 -10 -16   -2.22    2.77
  -3 -10 -15   57.31    2.60
  -3  -9  -6    9.78    2.60
  -3   8  12    4.56    2.63
  -3  11  13    8.82    3.75
  -2   8  11  529.14    4.42
  -2  11  12    0.44    2.35
  -1  -6 -14  145.18    2.46
  -1  -5 -16   36.51    2.79
  -1  -4 -17   59.84    3.28
  -1   4   7  170.40    2.95
  -1  14  11  110.51    3.11
  -1  15  11  140.09    3.29
  -1  16  11   33.78    2.60
   0  -3 -12  202.05    3.10
   0   5   5 1402.52    8.46
   0  12   8    0.93    2.02
   0  13   8  255.64    3.73
   0  14   8  110.17    3.06
   0  15   8   93.30    3.21
   1  10  -8   31.01    4.39
   1  13   2   32.18    3.64
   1  14  -1   63.31    7.38
   1  14   0    1.56    4.51
  -4 -11 -10   56.56    3.23
  -4   1   8    0.73    2.36
  -3 -10  -9  184.22    3.58
  -3   3   9   53.64    2.34
  -2  -9 -14  107.70    2.98
  -2  -9 -12  309.18    3.92
  -2  -9 -11   -0.10    2.03
  -2  -7  -4  144.70    3.95
  -1  -7 -12   29.19    2.06
  -1  -6 -15  135.73    2.58
  -1  -6  -6   34.56    2.05
   0  -2 -14   11.53    1.68
   0  -1 -15  217.86    3.68
   0   9   7  241.80    3.47
   1   6 -10   12.97    2.80
   1   7 -10   68.90    3.81
   1   9  -9   39.63    4.18
  -5  -6   1    8.09    4.07
  -5   1   8   -0.15    2.96
  -4 -11  -9  104.49    3.98
  -4  -5   2  311.98    6.47
  -4   8  12    2.34    3.17
  -3   2   8   13.73    2.05
  -3   9  12   52.31    2.73
  -2  -9 -15   19.59    2.66
  -2  -9 -10   57.40    2.38
  -2  13  12    2.14    2.67
  -2  14  12    9.88    2.95
  -2  15  12    8.13    3.19
  -1  -7 -13  256.25    3.48
  -1  -7 -10  605.75    4.54
  -1  -6 -16    2.42    2.40
  -1  -5 -17   94.13    2.68
  -1  -2   1  204.72    7.39
  -1  17  10   19.96    3.21
   0  -4 -11   83.30    2.29
   0  -4 -10  750.07    5.08
   0  -4  -9  232.50    3.20
   0  -3  -5 1252.83    8.10
   0  -2  -3 1343.28   10.29
   0   4   4 1081.17    8.18
   1   2  -9  183.76    3.27
  -4 -10  -6    2.12    2.74
  -4   6  11   35.80    2.31
  -3 -11 -15  132.33    3.57
  -3 -11 -14   31.92    3.10
  -3 -11 -13    5.75    2.43
  -3 -10  -8    5.43    2.24
  -3  10  12    0.55    2.70
  -2  -9 -16    2.59    2.02
  -2  -8  -6  126.79    3.06
  -2  -6  -2  426.32    8.56
  -2   7  10    2.48    1.46
  -1  -7 -14   90.38    2.18
  -1  -7  -9  586.04    4.66
  -1  12  10    0.91    2.01
  -1  14  10   22.69    2.47
   0  -4 -12  262.08    3.00
   0  -4  -8  527.30    4.59
   0  -1 -16    0.88    2.86
   0  10   7  183.91    3.17
   0  15   7    3.48    2.38
   0  17   6   24.05    3.25
   1   1  -7  482.33    4.87
   1   3 -11  113.10    3.00
   1   8 -10    1.70    3.23
  -5   0   7  125.01    3.89
  -4 -12 -13    1.62    3.24
  -4  -4   3   12.77    2.78
  -4   9  12    0.85    2.98
  -3 -11 -16   -1.42    3.12
  -3 -11 -12   98.14    3.16
  -3  -5   1    1.08    2.91
  -2  -9 -17   35.56    2.44
  -2   4   8   21.24    2.02
  -1  -7 -16   11.80    2.25
  -1  -7  -8  101.91    2.56
  -1   9   9   18.93    1.56
   0  -4  -7  545.85    4.87
   0  -3 -15  168.90    3.45
   0   3   3  176.60    3.85
   0  11   7  330.03    4.02
   0  12   7   29.90    2.26
   0  13   7  117.30    2.93
   0  14   7   77.68    2.97
   1   1 -10  204.16    3.32
   1   2 -11   14.79    2.25
   1   7 -11  105.18    4.31
   1   7   1   27.37    3.13
   1  11   2    1.11    2.53
   1  13   1  164.23    5.50
  -5  -1   6   59.29    3.57
  -5   3   9   58.49    3.06
  -4 -12 -12   93.09    3.84
  -4 -11  -8   68.13    3.73
  -4   5  10   23.18    2.68
  -3 -11 -11   16.02    2.41
  -3   6  10   -0.86    2.20
  -2 -10 -15  271.61    3.91
  -2 -10 -13   28.19    2.45
  -2  -9  -8    5.92    1.81
  -2   8  10    2.45    1.45
  -2  12  11  201.77    3.48
  -1  -6  -5  282.66    4.18
   0  -4 -14   15.40    1.81
   0  -3 -16    0.38    2.41
   1   5 -12    0.34    2.99
  -5  -4   3   31.51    3.72
  -5  -3   4   59.01    3.97
  -5  -2   5   17.16    3.09
  -5   2   8   58.54    3.58
  -4 -12 -11    7.66    2.85
  -4   2   8    6.33    2.51
  -3  -9  -5  221.52    4.94
  -3   9  11   55.97    2.87
  -3  13  12   16.63    2.42
  -2 -10 -16   26.31    2.98
  -2 -10 -12  131.62    2.63
  -2 -10 -11   25.69    2.09
  -2   9  10    1.18    1.94
  -2  14  11  106.45    3.26
  -2  15  11   46.85    2.72
  -1  -8 -14  248.87    3.00
  -1  -8 -13   -0.57    1.53
  -1  -8 -12  385.20    3.70
  -1  -8 -11   12.56    1.92
  -1  -7 -17  143.98    2.97
  -1  15   9    6.83    2.77
  -1  16   9   10.73    2.84
   0  -5 -11   14.48    1.42
   0  -5 -10  279.81    3.33
   0  -4 -15  192.22    3.00
   0  -2 -17   64.35    3.61
   1   0  -9   23.17    1.99
   1   2 -12   56.12    2.89
   1   6 -12    1.75    3.31
  -5 -11  -7   46.37    4.32
  -4   6  10   19.94    2.65
  -4   8  11   42.39    2.65
  -3 -10  -7  479.80    5.68
  -3  -1   5    3.67    1.69
  -3   3   8    0.26    1.83
  -2 -10 -17  127.82    3.15
  -2   3   7  342.06    3.68
  -1  -8 -16   -0.45    2.40
  -1  -8 -10  564.46    4.79
  -1  -7 -18   -0.84    3.00
  -1  -5  -3  571.61    7.19
  -1  14   9  124.60    3.06
   0  -5 -14  104.96    2.71
   0  -5  -9  114.30    2.21
   0  -4 -16   21.19    2.90
   0  -4  -6   44.26    2.06
   0  -3 -17   26.52    3.08
   0  -3  -4  579.16    6.06
   0  14   6  144.58    3.45
   0  17   4   40.51    4.16
   1   0  -7  691.08    5.64
   1   1 -12  173.10    3.50
   1   4  -1    2.32    3.81
   1  13   0   21.30    4.15
  -5   1   7   27.83    3.03
  -5   4   9   62.90    3.13
  -4 -12 -10  168.97    4.55
  -4   1   7  165.77    3.50
  -4   9  11   61.62    3.35
  -3 -12 -15    9.39    3.20
  -3 -12 -14   85.47    3.41
  -3  11  11   56.78    2.82
  -2 -10 -10  266.72    3.76
  -2  -9  -7  599.99    5.71
  -2  -8  -5  528.38    6.41
  -2   5   8    9.61    1.97
  -2   7   9  232.87    2.81
  -2  10  10  119.16    2.34
  -2  16  10   59.55    3.57
  -1  -8 -17  154.64    3.46
  -1  -8  -9  280.88    3.57
   0  -5  -8   54.92    2.05
   0  -4 -17  137.92    3.43
   0   5   4  314.42    4.50
   0  10   6  569.73    5.08
   0  11   6  211.57    3.50
   0  13   6  305.86    4.16
  -4   7  10   13.10    2.85
  -4  10  11   83.65    3.76
  -3 -12 -13    0.83    1.91
  -3 -11  -9  255.37    4.17
  -3  -8  -3   79.39    4.88
  -3   8  10    7.63    2.34
  -3  12  11   60.55    2.91
  -3  13  11   30.69    3.22
  -2 -11 -16   13.67    2.60
  -2 -11 -15   47.45    2.79
  -2 -11 -14   73.46    2.67
  -2   2   6   13.11    1.83
  -2  11  10   -0.33    1.58
  -2  12  10    9.12    2.40
  -2  14  10   11.25    2.84
  -2  15  10   58.06    3.36
  -1  -9 -14  203.49    3.33
  -1  -9 -13   22.31    2.15
  -1  -8 -18   33.35    3.13
  -1  16   8   98.23    3.37
   0  -6 -12  260.98    3.27
   0  -5 -16    4.93    2.58
   0  12   6  298.51    3.65
   1  -1 -11   18.14    2.12
   1  -1  -9   89.06    2.59
   1   0  -6  147.03    2.83
   1   2 -14   32.31    3.20
   1   3 -14    2.40    3.00
   1   8   1  307.72    6.60
  -5  -8  -2   52.04    7.35
  -5   0   6   56.93    3.45
  -5   3   8   21.00    2.94
  -5   5   9   18.20    3.35
  -4   0   6  160.35    3.47
  -4   3   8   91.91    2.86
  -4   5   9   51.54    2.78
  -3 -12 -12  259.05    4.22
  -1  -9 -12  337.13    3.79
  -1  -7  -6   24.67    1.93
  -1   3   5  477.43    4.78
  -1  10   8  436.88    4.14
  -1  15   8  173.61    3.85
  -1  17   7   16.58    3.26
   0  -6 -11   95.47    2.03
   0  16   4   17.86    3.50
   1  -1  -8  220.39    3.11
   1   1  -4   21.22    2.00
  -4 -13 -12   86.89    4.35
  -4 -11  -7  154.69    4.79
  -4  -1   5   99.37    3.46
  -4   8  10   18.50    2.93
  -3 -12 -11    1.52    2.39
  -3   9  10   27.78    1.96
  -2 -11 -12  167.75    3.34
  -2   4   7  610.60    4.86
  -1  -9 -18   15.15    2.76
  -1  -9 -11   92.18    2.54
  -1  -8  -8    3.34    1.83
  -1  12   8   58.44    2.52
  -1  13   8  188.82    3.42
  -1  14   8   19.75    1.86
   0  -6 -16   64.45    2.76
   0  -5  -7 1235.00    6.94
   0  -4  -5  170.63    3.31
   1  -2 -11  158.48    2.91
   1  -2 -10  355.87    3.85
   1  -1  -7  479.23    4.65
  -5  -1   5   42.97    3.14
  -5   2   7   62.20    3.44
  -4 -10  -5  323.77    7.85
  -4   2   7  145.17    3.28
  -4   9  10    8.95    2.92
  -3 -13 -15   57.57    3.63
  -3 -11  -8   30.43    2.89
  -3   7   9  337.40    3.95
  -3  10  10   66.84    2.18
  -2 -11 -11  147.75    3.09
  -2  16   9    5.01    2.32
  -1  -9 -10    4.17    1.80
  -1  -6  -4  308.81    4.81
  -1   8   7  775.83    5.30
  -1  16   7   -1.76    2.89
   0  -7 -14  114.92    2.58
   0  -6 -17   81.09    3.21
   0  -6  -9 1246.69    6.42
   0   6   4  307.74    4.28
   0   9   5    3.94    1.73
   1  -2 -13   96.02    2.86
   1  -2  -9  145.36    2.85
   1  -1 -14   24.10    2.13
   1   0 -15  215.86    4.28
  -5   4   8   17.10    2.36
  -4  -2   4   31.28    2.54
  -4   4   8   25.30    2.27
  -3 -10  -6    6.68    2.59
  -3   5   8    7.64    2.01
  -3  12  10   63.90    2.45
  -3  13  10   26.82    2.72
  -3  14  10   51.08    2.73
  -2 -12 -17   22.45    3.22
  -2 -12 -16   21.97    2.96
  -2 -12 -15   21.73    2.62
  -2 -10  -8   74.87    2.48
  -2  11   9   10.52    2.04
  -2  12   9   77.15    2.74
  -2  13   9  100.07    3.18
  -2  14   9    5.82    2.76
  -1 -10 -16   -0.66    2.55
  -1 -10 -15  176.99    3.51
  -1  15   7    4.30    2.67
  -1  17   6   38.14    3.55
   0  -7 -16    3.12    2.43
   0  -7 -15  176.53    2.83
   0  -7 -12  590.47    4.26
   0  -6 -18    8.97    3.20
   0  -2  -2 2941.21   17.66
   0  10   5   85.77    2.57
   0  11   5   19.55    1.95
   0  12   5   17.66    2.06
   0  15   4  118.95    3.78
   0  16   3   71.05    3.80
   1  -2  -8   82.72    2.40
   1  -1  -6  122.43    2.87
  -5   1   6   64.85    3.24
  -4 -13 -11    1.04    3.08
  -4  -7  -1    5.35    4.18
  -4   1   6   24.73    2.36
  -4   7   9  149.64    3.50
  -4  11  10   33.80    2.57
  -3 -13 -13   47.07    3.12
  -3 -12 -10   81.73    3.21
  -3   0   5  539.85    5.10
  -3   8   9  158.13    2.87
  -2 -12 -14  309.35    4.25
  -2 -11 -10  236.51    3.55
  -2  -9  -6   24.14    2.12
  -2   3   6  405.40    4.20
  -1 -10 -18    0.65    3.19
  -1 -10 -13   13.78    1.64
  -1  -8  -7  577.59    5.10
  -1   9   7  264.52    3.47
  -1  14   7    2.69    2.39
   0  -7 -17  164.68    3.60
   0  -7 -11    9.71    1.39
   0  -6  -8  104.07    2.20
   0  -5  -6  209.98    3.34
   1  -3 -12  218.68    3.36
   1  -3 -11  104.04    2.62
   1  -3 -10  436.13    4.16
   1  -2 -15   69.76    3.01
   1  -1 -16   44.64    3.38
  -5   3   7   13.69    3.12
  -5   5   8   62.48    3.25
  -4  -3   3   72.43    2.97
  -4   5   8   41.90    2.64
  -4   8   9    4.13    2.69
  -3   9   9   21.56    2.24
  -2 -12 -13   10.28    2.72
  -2  16   8   10.75    2.35
  -1 -10 -12  449.12    3.97
  -1  -9  -9  438.66    4.07
  -1  11   7   22.04    2.08
  -1  12   7   17.95    2.21
  -1  13   7   33.30    2.47
  -1  16   6   39.84    3.28
   0  -8 -15   23.43    2.18
   0  -8 -14  328.26    3.64
   0  -7 -18    7.92    3.11
   0  -3  -3  179.29    4.00
   0   7   4 1786.46    9.50
   0  14   4  159.29    3.68
   1  -3 -14   49.76    2.07
   1  -3  -9  594.75    4.80
   1  -2 -16    0.49    2.95
   1  -2  -7 1232.53    7.06
   1  13  -2   84.56    5.97
  -5  -4   2  103.13    4.24
  -4  -4   2  191.58    4.49
  -4   9   9   82.52    3.26
  -3  -1   4  383.32    4.59
  -3   2   6  100.34    2.73
  -3   4   7  280.33    3.60
  -3   6   8  122.86    2.45
  -3  14   9    3.48    2.95
  -2 -12 -12  146.34    3.13
  -2   9   8   37.10    2.14
  -2  15   8  132.64    2.94
  -1 -11 -16   21.09    2.70
  -1 -10 -11  333.04    3.83
  -1  -7  -5  110.50    2.94
   0  -8 -17  129.43    3.33
   0  -8 -16   14.01    1.83
   0  -8 -13    9.27    2.01
   0  16   2    6.98    3.29
   1  -4 -14   80.02    2.57
   1  -4 -13   13.46    2.22
   1  -4 -12  278.99    3.42
   1  -3 -16   17.84    2.73
   1  11   0  131.73    4.77
  -5  -5   1   17.22    3.32
  -5   0   5   34.35    2.87
  -5   6   8   52.46    2.79
  -4 -13 -10   12.06    3.50
  -4  -6   0  100.94    4.63
  -4  -5   1    0.44    2.55
  -4   0   5  158.12    3.35
  -4   6   8   63.91    2.78
  -4  10   9   25.76    3.00
  -4  11   9   -0.07    2.90
  -3 -12  -9   27.88    2.99
  -3   7   8  118.06    2.85
  -3  12   9  100.75    2.67
  -2 -13 -16   24.28    3.19
  -2  -1   3  326.65    4.81
  -2   2   5  294.83    3.84
  -2  10   8  109.80    2.60
  -2  11   8  114.76    2.82
  -2  12   8  361.40    4.07
  -2  13   8  152.59    3.35
  -2  14   8   34.96    2.16
  -1 -11 -18    0.37    2.39
  -1 -11 -15    1.06    1.89
  -1 -11 -14  234.27    3.53
  -1   1   3 1226.98    9.17
  -1  15   6  147.27    3.39
   0  -8 -18   38.10    3.22
   0  -8 -12  302.69    3.18
   0  -7  -9   28.09    1.47
   0  -6  -7  888.61    5.93
   0  -4  -4 1103.27    8.04
   1  -4 -11   26.88    1.59
   1  -3 -17  153.13    3.73
   1  -3  -8   75.80    2.32
   1  -1  -5  830.79    6.58
   1   0  -4  353.15    4.91
   1   1  -3  486.86    6.48
  -5 -11  -6    7.17    6.26
  -5   2   6  170.73    3.79
  -5   4   7    6.48    2.39
  -5   7   8   28.60    3.06
  -4   2   6  104.12    2.79
  -3 -14 -14   19.65    2.91
  -3 -11  -7  136.04    3.86
  -3  -9  -4  209.26    5.86
  -2 -13 -15  144.05    3.23
  -2 -12 -11   16.25    2.16
  -2 -11  -9  130.85    3.08
  -2 -10  -7  348.23    4.53
  -2  -8  -4  631.01    7.79
  -1 -10 -10  174.27    3.15
  -1  -9  -8   10.97    1.84
  -1  14   6  105.20    3.34
  -1  16   5   46.91    3.29
   0  -9 -16  121.27    2.87
   0  -9 -15  125.92    2.78
   0   5   3  226.07    4.05
   0  16   1   83.33    4.55
   1  -4 -16    9.94    1.98
   1  -4 -10  548.71    4.30
   1  -2  -6  107.01    2.66
  -4   7   8   18.59    1.97
  -3   1   5  434.15    4.49
  -3   8   8  108.77    2.23
  -3  14   8   86.86    3.50
  -2 -13 -14   97.80    2.95
  -2  15   7    5.72    2.73
  -1 -11 -12  263.48    3.58
  -1  -8  -6  375.70    4.43
  -1   3   4  940.04    6.84
  -1   9   6  673.85    5.14
   0  -9 -18   31.16    3.01
   0  -9 -14  159.98    2.64
   0  -7  -8   35.62    2.01
   0  -5  -5 1443.96    8.38
   0   9   4  576.88    5.16
   0  10   4  714.50    5.87
   0  14   3  161.78    3.88
   0  15   2    1.41    3.26
   1  -5 -16   42.88    2.70
   1  -5 -14  481.75    4.05
   1  -5 -13   58.46    2.03
   1  -4 -17  173.73    3.33
   1  -4  -9  143.97    2.70
   1  10   0   30.58    3.37
   1  13  -3   49.12    6.20
  -5   1   5   -0.38    2.47
  -5   3   6   39.46    3.24
  -5   5   7    0.94    2.22
  -4 -11  -6    3.52    3.59
  -4  -1   4  262.34    3.96
  -4   5   7   40.82    2.55
  -4   8   8  120.66    3.14
  -3 -14 -13   27.39    3.08
  -3  11   8   28.19    2.41
  -3  12   8  135.93    3.19
  -3  13   8   69.14    3.13
  -2 -13 -13    2.90    2.44
  -2  14   7    7.77    2.48
  -1 -12 -17   93.30    2.87
  -1 -12 -16  182.87    3.81
  -1 -12 -15   99.52    2.90
   1  -5 -11    5.38    1.41
   1   2  -2 1434.15   13.70
  -5  -2   3    9.60    2.74
  -5   6   7   14.44    3.00
  -4   9   8  130.26    2.76
  -4  10   8   59.33    3.02
  -4  11   8   71.21    3.15
  -4  12   8   30.51    3.11
  -3   6   7  109.62    2.68
  -2 -14 -16   25.66    2.98
  -2 -12 -10   34.61    2.31
  -2  -2   2  148.95    3.88
  -2   1   4  322.85    4.10
  -2   9   7    0.73    1.74
  -2  10   7  389.94    3.95
  -2  12   7    8.88    2.29
  -2  13   7    0.14    2.09
  -2  16   6   16.23    2.36
  -1 -11 -11   52.10    2.29
  -1 -10  -9  300.71    3.76
  -1   6   5    7.33    1.67
  -1  16   4   10.03    3.02
   0 -10 -17  133.93    3.36
   0 -10 -16   45.46    2.69
   0  -6  -6   29.60    1.96
   1  -6 -16   33.01    2.80
   1  -6 -14   58.37    2.46
   1  -6 -13    0.11    2.05
   1  -5 -10  123.37    2.56
   1  -4  -8   29.68    1.90
   1   7   0  389.24    8.43
  -5   7   7    3.58    3.00
  -4 -13  -9  125.42    4.88
  -4   6   7   14.09    2.39
  -3 -13 -10   30.94    2.98
  -3  -3   2  536.27    6.29
  -3   7   7  109.99    2.71
  -2 -13 -12   53.52    2.78
  -2 -11  -8    2.14    2.00
  -2  -9  -5  713.92    7.26
  -2   3   5  137.12    2.75
  -2  11   7    8.37    1.70
  -2  15   6   85.68    3.31
   0 -10 -18    1.71    2.20
   0 -10 -15    8.61    1.74
   0 -10 -14  127.51    2.93
   0  -9 -11  158.02    2.80
   0   6   3  381.16    4.88
   0  14   2   31.21    3.36
   0  15   1   55.34    3.92
   1   8   0  202.41    5.80
   2   3 -11   20.86    2.57
   2   3 -10  243.94    4.04
   2   5  -9   33.00    3.11
  -5   0   4   33.35    2.88
  -5   2   5    3.71    2.66
  -5   4   6   62.20    2.65
  -5   8   7    2.10    2.97
  -4   7   7   24.10    2.69
  -3 -14 -12   91.45    3.78
  -3 -12  -8    0.15    2.32
  -3   0   4  406.75    4.45
  -3   2   5   80.97    2.47
  -3   4   6  117.61    2.36
  -3  14   7   33.85    2.40
  -2  16   5  110.59    3.89
  -1 -13 -17   76.87    3.45
  -1 -12 -13    1.23    1.64
  -1   0   2 2768.19   15.75
  -1  15   4    3.49    2.50
   0 -10 -13   71.70    2.58
   0  -7  -7  567.95    4.82
   1  -7 -15   21.62    2.48
   1  -7 -14  143.38    2.87
   1  -2  -5  381.13    4.46
   1  -1  -4 1274.18    8.57
   1  13  -4   29.01    6.10
   2   1 -11   53.21    2.53
   2   2 -12  105.48    3.43
   2   2 -11   13.84    2.36
   2   2 -10  369.23    4.57
   2   2  -9    8.05    2.40
   2   3 -12   19.88    2.93
   2   3  -9   17.13    2.38
   2   4 -12   82.54    3.50
   2   5 -11   55.28    3.71
   2   5 -10  206.69    4.36
   2   5  -8  331.95    5.22
   2   6  -9    5.05    2.98
  -5   5   6   48.00    2.97
  -3   8   7    3.59    1.43
  -3   9   7   47.88    2.22
  -3  10   7   -0.18    2.02
  -3  11   7   59.47    2.66
  -3  13   7   23.96    2.21
  -2  14   6  117.27    2.67
  -1 -13 -16   95.51    2.77
  -1 -13 -15    9.08    2.30
  -1 -12 -12  116.40    2.76
  -1 -11 -10   11.91    2.04
  -1  -6  -3   22.12    2.49
  -1  -5  -2  594.32    8.75
  -1   4   4 1010.53    6.77
   0 -11 -17    6.60    2.83
   0 -11 -16  144.85    3.09
   0  -9 -10  248.12    3.21
   0   7   3   97.59    2.73
   1  -7 -17   54.02    2.56
   1  -3  -6  140.22    2.59
   1  11  -1  538.89    8.46
   1  12  -2  109.64    5.28
   2   0 -13   57.32    2.71
   2   0 -11   11.79    1.96
   2   1 -10  221.46    3.55
   2   2 -14   15.99    3.66
   2   2 -13   54.83    3.22
   2   3 -13   91.60    3.78
   2   5 -12   83.80    4.39
   2   5  -7   35.93    2.82
   2   6 -10   29.74    3.28
   2   6  -8  264.17    5.17
  -5   6   6   53.30    3.18
  -4  -3   2  245.10    4.55
  -4   0   4  242.45    3.41
  -4   2   5  177.61    3.05
  -4   9   7    1.30    1.80
  -4  10   7    6.23    2.36
  -4  11   7   -0.86    2.46
  -3  -4   1    1.40    2.11
  -3   5   6  352.10    3.67
  -2 -13 -11  135.15    3.19
  -2 -12  -9  367.86    4.48
  -2 -10  -6  189.53    4.12
  -2   4   5   84.75    2.29
  -2  12   6   86.51    2.66
  -2  13   6   52.08    2.07
  -2  15   5   14.70    2.89
  -1 -10  -8   53.76    2.28
  -1  -7  -4  568.97    6.45
  -1   2   3  214.36    3.90
  -1   9   5   11.16    1.92
   0 -11 -15    5.11    2.56
   0  13   2   19.68    2.58
   0  15   0   41.59    3.96
   1   0  -3  203.68    4.12
   2  -1 -12  313.78    3.97
   2   0 -14    2.22    2.85
   2   0 -10  524.40    4.70
   2   1  -9   35.13    2.15
   2   2  -8   56.18    2.46
   2   6 -11   54.66    3.77
   2   6  -7   36.59    2.94
  -5  -1   3    0.37    2.35
  -5   1   4  117.03    3.39
  -5   7   6   92.25    3.58
  -4 -12  -7   73.74    4.80
  -3 -14 -11   92.21    3.51
  -3  -1   3   21.04    1.93
  -2 -14 -13   33.72    2.72
  -2  -3   1  588.16    8.30
  -2   0   3  196.40    3.55
  -2   9   6  550.88    4.34
  -1  16   2   -0.74    3.32
   1  -8 -17   53.50    2.46
   1  -8 -16  152.58    2.83
   1  -8 -14  257.09    3.42
   1  -7 -11   38.21    1.88
   1  -5  -8   17.46    1.36
   2  -1 -15   41.90    3.26
   2  -1 -14   63.82    2.46
   2  -1 -11    1.40    1.99
   2   0 -15  200.49    4.29
   2   0  -9  591.54    5.02
   2   1  -8   53.14    2.17
   2   3  -7  118.76    3.07
   2   7 -10   83.01    4.74
  -5   8   6   46.78    3.15
  -4 -14 -10   35.16    4.13
  -4   3   5   70.75    2.69
  -3 -13  -9  210.07    4.41
  -3   1   4  228.33    3.47
  -3   3   5  128.11    2.45
  -3   6   6  229.84    2.89
  -3  13   6   17.43    2.46
  -2 -15 -15    3.93    3.14
  -2  14   5   47.64    2.70
  -1  -8  -5  548.44    5.58
  -1   5   4  763.64    5.71
  -1  13   4   30.41    2.40
   0 -11 -13    9.25    2.23
   0  -9  -9 1135.95    6.22
   0  -6  -5  258.97    3.69
   0  -4  -3  580.47    6.35
   2  -2 -14  188.67    3.28
   2  -2 -13  103.02    2.54
   2  -1 -10  231.96    3.45
   2   2  -7 1018.79    7.08
   2   5  -6    5.47    2.41
   2   7  -7   40.65    3.77
  -5  -5   0  149.21    4.58
  -5   4   5   15.49    2.11
  -4  -4   1    6.95    2.62
  -4  -1   3    2.51    1.91
  -4   1   4  223.29    3.48
  -4  11   6   48.67    2.95
  -4  12   6   37.23    2.90
  -3 -11  -6   80.77    3.69
  -3   8   6  146.62    2.74
  -3  11   6  239.00    3.48
  -3  12   6   74.44    2.32
  -2 -14 -12  185.11    3.65
  -2 -11  -7  257.49    4.09
  -2  15   4   -0.45    2.80
  -1 -14 -16   32.12    2.40
  -1  -9  -6   16.14    2.08
   0 -12 -15   56.84    2.62
   0  12   2  472.25    5.18
   0  15  -1   49.74    3.86
   1  -9 -17  147.23    2.96
   1  -9 -16   93.32    2.98
   1  -9 -15   25.96    2.22
   1  -7 -10   92.82    2.21
   2  -3 -16   -0.70    2.74
   2  -3 -15  131.66    3.51
   2  -3 -13   -0.61    2.16
   2  -2 -11   42.75    1.88
   2   0  -8  231.29    3.42
   2   4  -6   84.98    2.98
   2   6  -6  326.95    5.95
  -5  -2   2   87.68    3.27
  -5   2   4   95.26    3.22
  -5   5   5    3.96    2.35
  -4   4   5    8.33    2.28
  -4  10   6   23.52    2.03
  -3  -5   0  590.72    8.45
  -3   4   5   27.08    2.06
  -3   9   6  183.73    2.63
  -3  10   6  164.14    2.54
  -3  14   5   15.06    2.54
  -2 -15 -14  162.91    3.93
  -2  12   5    1.74    2.03
  -1 -14 -15    0.66    1.99
  -1   6   4 1059.45    6.43
  -1  15   2   46.18    3.10
   0  14   0   -0.26    3.26
   1  -4  -6  102.77    2.21
   1  10  -1  423.68    7.19
   2  -4 -16   56.36    2.88
   2  -4 -15   10.44    2.60
   2  -3 -12  302.52    3.41
   2  -2 -10   37.29    2.19
   2   1  -7  177.63    3.16
   2   3  -6  256.42    4.24
  -5  -6  -1   74.48    4.05
  -5   6   5   39.75    2.83
  -5   7   5   10.14    2.96
  -3  13   5   48.29    2.90
  -2  14   4   21.84    2.62
  -1   3   3   15.85    1.72
   0 -13 -17   55.13    2.99
   1 -10 -17  103.76    3.15
   1  -9 -13   44.37    2.16
   1  -8 -11  207.99    2.91
   1   1  -2  543.66    7.71
   1  12  -3   66.56    4.76
   2  -4 -13    7.30    1.66
   2  -4 -12  403.33    3.99
  -5   8   5   31.95    2.46
  -4 -13  -8   -0.25    3.71
  -4   2   4  423.04    4.23
  -4  12   5    5.83    2.94
  -3  -2   2  240.73    3.96
  -3   5   5    3.55    1.74
  -3  12   5  132.70    3.17
  -2   9   5    1.39    1.71
  -2  15   3   61.57    3.21
  -1  10   4  252.21    3.13
   0 -12 -13   17.53    2.22
   0 -11 -11  253.86    3.33
   0  -9  -8   32.45    2.08
   1 -10 -16   27.71    1.99
   1 -10 -15   14.06    2.29
   1  11  -2   17.48    3.45
   2  -5 -15   62.11    2.79
   2  -3 -10  335.77    3.69
   2  -2  -9  196.96    2.81
   2  -1  -8   82.83    2.06
   2   0  -7  139.25    2.84
   2   2  -6   -0.06    1.62
  -5   1   3   35.07    2.77
  -4  -5   0  362.83    5.74
  -4   0   3   72.62    2.51
  -4   6   5    7.55    2.02
  -4  10   5   89.83    2.71
  -4  11   5    7.76    1.91
  -3   0   3   68.28    2.29
  -3   6   5   -0.11    1.71
  -3  14   4    4.96    2.49
  -2  -1   2 1565.41   10.06
  -2   1   3   55.53    2.20
  -2  13   4   17.78    2.08
  -1 -11  -8  114.01    2.71
  -1  -1   1    1.30    2.07
   0 -13 -15   42.35    2.83
   1  -8 -10   32.66    1.86
   2  -6 -16   12.22    2.49
   2  -6 -15   33.05    2.53
   2  -5 -13    1.96    1.55
   2  -4 -11    0.86    1.35
  -6  -3   0   15.31    3.25
  -6  -1   1   44.94    3.45
  -5  -7  -2   17.85    3.16
  -5   5   4   33.35    2.68
  -4   9   5   37.06    1.90
  -3   9   5    0.76    1.83
  -3  10   5    8.06    1.59
  -3  13   4   37.70    2.82
  -2 -13  -9  467.86    5.36
  -2  14   3   95.22    3.10
  -1 -15 -15   32.03    3.03
  -1   1   2  458.84    5.90
   0  13   0    3.05    2.80
   0  14  -1   21.43    3.10
   1 -11 -17   10.52    2.05
   1 -11 -16  182.39    3.46
   2  -5 -12  183.33    2.64
   2  -4 -10   91.25    2.39
   2  -3  -9  528.91    4.48
   2  -2  -8  218.40    3.20
   2   1  -6   36.63    2.07
  -5   2   3   26.63    2.68
  -5   6   4   10.65    2.54
  -5   7   4   27.12    2.87
  -5   8   4   -2.01    2.92
  -4  12   4   -0.74    2.87
  -3 -13  -8    0.36    2.50
  -3   3   4  378.68    3.68
  -2  15   2   41.03    2.85
  -1   4   3   49.04    2.12
   0 -13 -14  117.35    2.63
   1 -11 -15    7.67    2.44
   1  -7  -8    8.20    1.63
   2  -7 -16  117.44    3.53
   2  -6 -13   42.36    1.81
   2  -5 -11  287.17    3.44
  -5  -8  -3   87.32    4.60
  -5  -4   0   12.15    2.58
  -4  11   4    0.46    2.46
  -3  -6  -1    0.15    2.63
  -3  12   4    5.35    1.80
  -3  14   3   31.33    2.41
  -2 -15 -12   65.42    3.19
  -2  -4   0  881.18   11.98
  -2  11   4  254.64    2.99
  -2  13   3  162.01    3.07
   0 -13 -13  213.39    3.30
   0  -8  -6  152.12    2.79
   0  -7  -5  906.53    6.27
   1  12  -4  163.55    6.25
   2  -7 -14  370.08    4.02
   2  -6 -12   89.33    2.52
   2   0  -6    6.90    1.70
  -6  -2   0   -0.95    3.15
  -6   0   1   39.26    3.03
  -5   3   3  120.89    3.18
  -4 -14  -9   95.28    5.05
  -4  -6  -1  256.80    5.24
  -4   5   4  165.74    3.04
  -4  10   4   29.59    2.44
  -3   1   3    5.75    1.70
  -2 -14 -10   27.09    2.58
  -2  -9  -4    1.39    2.04
  -2   2   3    3.39    1.52
  -2   9   4  287.71    3.42
  -2  14   2    9.89    2.63
  -1   5   3    1.46    1.50
   0 -14 -15    4.77    2.64
   0 -12 -11  309.65    3.76
   1  -9 -10   79.26    2.16
   2  -8 -15   49.43    2.57
   2  -7 -13    2.73    2.00
   2  -4  -9  175.43    2.58
   2  -3  -8   16.51    1.49
   2  -2  -7  879.21    5.76
   2   2  -5 1111.02    8.02
  -5  -9  -4   19.13    4.23
  -4   6   4   35.66    1.81
  -4   8   4   22.03    2.20
  -3 -14  -9   74.17    3.75
  -3  -1   2  753.01    5.98
  -3  10   4   80.60    2.35
  -1   6   3    0.93    1.46
  -1   9   3    3.52    1.71
  -1  12   2    4.29    1.85
   0  12   0    1.80    2.11
   1 -12 -15   -1.99    2.36
   1 -11 -13    2.76    2.03
   1 -10 -11  395.66    3.66
   2  -6 -11  172.73    2.50
  -5 -11  -6    7.55    5.80
  -5 -10  -5  181.56    8.46
  -5  -5  -1   32.29    3.15
  -5   5   3   76.39    2.32
  -5   6   3   82.99    3.14
  -5   7   3   43.26    2.92
  -5   8   3   46.66    2.40
  -3  12   3  104.02    3.03
  -2  13   2   -1.24    2.09
  -1 -14 -11   41.45    2.38
  -1  14   0   -0.88    2.62
   0 -14 -14   69.86    2.19
   0  14  -3   -0.34    3.52
   1  -7  -7  257.00    3.12
   2  -9 -16   18.73    2.81
   2  -5  -9  768.01    4.89
   2  -4  -8   23.11    1.79
   2  -1  -6  237.48    3.30
   2   1  -5  732.90    6.16
  -6  -3  -1   15.70    3.14
  -5  -1   1   51.90    2.54
  -4   3   3  109.26    2.60
  -3   2   3   13.09    1.71
  -3  13   2    4.39    2.60
  -2   0   2 1394.46    8.55
  -2   3   3  286.93    3.46
  -1 -12  -8   11.43    1.77
  -1   2   2 1781.65   10.14
   0 -12 -10   13.10    2.00
   1  -9  -9   19.93    1.82
   1  -6  -6  348.08    3.47
   1   0  -2 2899.53   15.15
   1  12  -5    3.36    3.92
   2  -9 -15    1.08    1.85
  -5  -3   0  134.00    3.48
  -4  -7  -2   33.54    3.30
  -4   4   3  106.58    2.62
  -3 -15 -10    5.90    3.06
  -2 -13  -8    1.31    1.99
  -2  10   3  368.95    3.51
  -1 -15 -12    1.84    2.14
   0 -15 -15   -1.22    2.66
   0 -14 -13    9.63    2.26
   1 -13 -15   18.62    2.50
   1 -12 -13  159.24    3.07
   1 -10 -10   41.67    2.16
   1  -5  -5  490.92    4.29
   2  -8 -12   76.28    2.37
   3  -1 -14  129.76    3.47
  -6   0   0   -0.43    2.58
  -5   4   2    4.69    2.24
  -5   8   2    7.75    2.67
  -4  -2   1   93.35    2.61
  -4   6   3  111.63    2.69
  -4  11   2   23.42    2.76
  -3   0   2  388.29    4.13
  -3   3   3   20.87    1.76
  -3  12   2   16.67    2.51
  -2 -16 -12   49.69    3.13
  -2   4   3    1.55    1.42
  -2  12   2    5.68    1.48
  -2  13   1   87.70    2.98
  -2  14   0   40.94    3.02
  -1  14  -1   12.68    2.68
   2 -10 -15    0.73    2.47
   2  -7 -10    4.05    1.61
   2  -6  -9  279.31    3.16
   2  -5  -8   10.52    1.64
   2  -2  -6   17.78    1.33
   2   4  -4    2.04    1.95
   3  -2 -14   30.56    3.05
   3  -1 -13   13.14    2.63
   3   0 -13   15.89    2.67
   3   0 -12  123.29    3.22
   3   1 -13   33.45    3.17
   3   1 -12   30.76    2.76
  -6  -4  -2    0.45    2.96
  -6  -2  -1   75.91    3.42
  -6   1   0   13.56    3.12
  -5   0   1   94.98    2.75
  -5   5   2    2.87    2.14
  -5   6   2    7.02    2.30
  -5   7   2    2.94    1.87
  -4   1   2  352.83    3.84
  -4  10   2    0.35    2.35
  -3   4   3  100.32    2.38
  -3   8   3   94.18    2.35
  -3  13   1   24.38    2.49
  -2 -14  -9   39.13    2.57
  -1 -14 -10    1.07    1.81
  -1  13   0  145.29    3.05
   0 -15 -14   42.13    2.78
   1  -4  -4 1004.66    6.30
   2  -4  -7  628.34    4.66
   2   3  -4  292.16    4.73
   2   5  -4   15.21    2.70
   3  -4 -15   45.56    3.18
   3  -3 -14  107.44    2.73
   3  -2 -12  137.98    3.08
   3   0 -11   20.97    2.35
   3   2 -11    4.46    2.78
  -5  -2   0   32.63    2.23
  -3  -4   0  560.52    6.32
  -3  11   2    1.51    2.05
  -2  11   2   13.58    1.50
  -1 -16 -13   74.54    3.12
   1 -12 -12   56.63    1.91
   1  -9  -8   24.79    1.83
   1  -8  -7  857.82    5.10
   3  -4 -13    0.68    2.23
   3  -3 -12  166.68    3.28
   3  -1 -11   -0.03    2.10
   3   3 -11    0.53    2.88
  -5   8   1   73.33    3.10
  -4  -1   1   47.87    2.03
  -4   9   2    0.63    1.56
  -4  11   1   18.16    2.43
  -3  10   2    2.55    1.96
  -3  13   0   46.15    2.92
  -2 -15 -10    0.97    2.28
  -2   1   2  468.78    4.58
  -2  10   2    1.00    1.70
  -2  13   0   19.09    2.60
  -1 -15 -11  196.82    3.51
  -1   8   2  153.57    2.69
   0 -15 -13  129.06    3.14
   0 -13 -10   11.73    1.93
   0  10   0    3.76    1.69
   0  13  -3    6.01    2.77
   1 -14 -15    1.04    1.93
   1 -13 -13  102.30    2.85
   1 -11 -10    0.95    1.85
   1  -7  -6  589.80    4.29
   2 -11 -15    9.65    1.87
   2 -10 -13   60.85    1.92
   2  -8 -10    1.52    1.60
   2  -6  -8   35.26    1.72
   2  -3  -6  412.67    3.77
   3  -6 -15    4.90    2.51
   3  -2 -11  103.81    2.46
   3  -1 -10   60.58    2.40
   3   0 -10  258.32    3.56
   3   3 -10  205.13    4.21
  -6  -3  -2    0.71    2.78
  -6   0  -1   34.60    3.05
  -5   2   1  166.04    2.71
  -5   6   1   28.25    2.63
  -5   7   1   30.36    2.39
  -4   7   2   30.81    2.08
  -4  10   1   36.55    2.56
  -1   4   2  805.80    5.96
   1 -14 -14   51.22    2.60
   1  -6  -5    7.60    1.09
   1  -3  -3   15.61    1.55
   1   9  -2    8.17    2.29
   2  -5  -7  595.52    4.27
   2   1  -4   41.88    2.05
   3  -5 -13   19.38    1.74
   3  -2 -10  131.11    2.74
   3   1  -9  134.75    3.24
   3   4 -11   18.92    3.48
  -5  -1   0    4.50    1.91
  -5   4   1   58.41    2.06
  -5   5   1   88.83    2.37
  -4   4   2  152.49    2.40
  -4   6   2    4.30    1.39
  -4  11   0   22.43    2.76
  -3 -13  -7  282.29    6.16
  -3 -12  -6   73.89    4.15
  -3  -7  -2  186.08    5.95
  -3   9   2   -0.29    1.30
  -3  11   1   35.70    2.29
  -2  11   1  112.21    2.60
  -1 -16 -12   32.24    2.65
  -1 -12  -7  308.07    3.89
  -1 -11  -6  278.02    3.70
  -1   0   1   81.93    3.00
  -1  10   1  561.32    4.56
   0 -16 -14  107.21    3.18
   0 -14 -11  139.45    2.46
   1 -13 -12    8.44    2.20
   1  -1  -2  459.00    5.53
   2 -12 -15   38.63    2.61
   2  -2  -5  321.77    3.59
   2   6  -4   11.03    3.19
   3  -7 -15    0.13    1.89
   3  -6 -13   12.03    2.24
   3  -5 -12  117.20    2.71
   3  -4 -11   52.48    2.27
   3  -1  -9  180.07    2.88
   3   0  -9  154.30    2.98
   3   2  -9   91.58    2.88
   3   3  -9    7.04    2.51
   3   4 -10   42.27    3.42
  -6  -2  -2   10.56    2.60
  -5  -5  -2    1.77    2.29
  -5  -3  -1  150.41    3.12
  -5   0   0   16.32    2.31
  -5   8   0   20.78    2.43
  -3 -14  -8    9.60    2.60
  -3 -11  -5  130.48    6.23
  -3   8   2    9.09    1.32
  -3  12   0   34.88    1.98
  -2   8   2  196.86    2.69
  -2  12   0   50.57    2.49
  -2  13  -1    0.14    2.18
  -1 -13  -8   54.49    2.36
  -1  13  -2   64.12    2.77
   0 -15 -12   -0.13    2.33
   0  -6  -3  375.57    4.40
   1 -15 -15   69.54    3.16
   1 -10  -8  444.46    3.71
   1   6  -1  356.87    7.68
   2 -11 -13   51.48    1.81
   2  -9 -10    2.30    1.49
   2  -8  -9  445.08    3.62
   2  -4  -6   79.26    1.81
   3  -8 -15    0.90    2.40
   3  -7 -14  174.72    2.89
  -6  -4  -3   60.13    3.30
  -6  -1  -2    6.30    2.75
  -4  10   0   32.21    2.49
  -2  -1   1   12.04    1.54
  -2   3   2  527.56    4.33
  -2  10   1  274.41    3.18
  -1 -17 -13    5.40    2.56
  -1  11   0    0.43    1.53
   0 -12  -8    0.02    1.64
   0 -10  -6  567.69    4.57
   1 -14 -13   27.58    1.91
   1 -12 -10    1.91    1.81
   1  -9  -7  262.39    2.89
   1  -8  -6  234.25    2.96
   2  -7  -8  256.62    2.72
   2  -6  -7   86.17    2.11
   3  -8 -14   20.85    2.42
   3  -7 -13   17.65    2.41
   3  -6 -12  159.30    2.59
   3  -5 -11  260.81    2.96
   3  -4 -10    2.93    1.91
   3   0  -8    4.90    1.68
   3   1  -8  156.46    3.06
   3   2  -8   44.72    2.32
  -5  -8  -4    8.23    2.80
  -5   1   0    7.41    1.64
  -5   5   0   20.28    2.38
  -5   6   0   10.35    1.86
  -4  -2   0  158.06    2.90
  -4   1   1   90.13    2.01
  -3 -15  -9  130.11    4.50
  -3  11   0   25.00    2.18
  -3  12  -1    4.44    2.30
  -2 -13  -7  141.29    3.27
  -2 -12  -6   39.63    2.31
  -2  13  -2   69.00    2.97
  -1 -15 -10    2.92    2.05
   0 -14 -10   16.26    1.92
   0  -9  -5    4.15    1.39
   1 -15 -14    9.40    2.60
   1 -13 -11  151.12    2.77
   1  11  -5    2.12    3.06
   2 -13 -15   13.95    2.64
   2 -12 -13  138.86    2.76
   2 -11 -12    1.24    1.39
   2  -3  -5  139.64    2.50
   3  -9 -15   18.38    2.78
   3  -7 -12   37.40    2.17
   3  -6 -11   49.83    2.05
   3  -3  -9   57.64    2.20
   3  -1  -8   29.96    1.85
   3   3  -8  252.74    3.93
  -6  -3  -3   12.10    2.69
  -6   0  -2   21.73    2.25
  -5  -2  -1   92.89    2.52
  -5   3   0    0.99    1.53
  -5   4   0   30.55    1.91
  -4   3   1  243.47    3.02
  -4   9   0   25.44    1.67
  -3  -3   0  173.18    3.52
  -2 -15  -9  218.27    4.16
  -2 -11  -5   73.16    3.10
  -2   9   1  148.99    2.45
  -2  11   0   55.98    1.85
  -2  12  -1   16.89    2.16
  -1 -16 -11  176.90    3.45
  -1   8   1  282.73    3.26
  -1  13  -3    0.18    2.19
   0  11  -2   15.95    2.05
   1 -14 -12    0.31    2.13
   1  -7  -5  447.40    3.72
   2  -5  -6  262.86    2.81
   3  -9 -14  116.30    3.07
   3  -8 -13   74.03    2.19
   3  -5 -10   27.46    1.54
   3  -4  -9  279.19    3.09
   3  -2  -8   13.46    1.71
  -5  -6  -3  144.50    3.72
  -5  -4  -2    8.09    2.03
  -5  -1  -1  162.00    3.08
  -4  -6  -2  118.37    3.15
  -4  -4  -1   66.71    2.38
  -4   8   0   20.18    2.04
  -4  10  -1    1.59    1.73
  -3 -16 -10    0.02    3.24
  -3  -5  -1  106.14    3.34
  -3   0   1  322.45    3.59
  -3  10   0  108.75    2.45
  -3  11  -1   45.98    2.44
  -3  12  -2   46.31    2.75
  -1  10   0    0.09    1.41
  -1  12  -2    2.73    1.83
   0 -15 -11  203.32    2.89
   1  -4  -3   50.00    1.66
   2 -13 -14   28.46    1.88
   2 -11 -11  101.11    2.40
   2  -9  -9  117.58    1.99
   2  -8  -8   21.76    1.24
   3  -8 -12    1.79    2.04
   3   4  -8  144.83    3.43
   3   5  -9    0.13    2.79
  -6  -2  -3   36.72    2.56
  -5  -9  -5   58.34    3.54
  -5   6  -1   27.32    2.17
  -4  -9  -4   42.16    3.60
  -4  -1   0   65.34    2.10
  -4   9  -1    1.81    2.14
  -3   7   1  142.60    2.42
  -2 -16 -10    3.84    2.35
  -2  -3   0 2485.54   14.36
  -2   0   1    2.89    1.19
  -2   8   1  243.30    2.85
  -2  10   0    5.86    1.70
  -2  12  -2  134.00    3.12
  -1 -17 -12   25.53    2.67
  -1   1   1   91.42    2.75
   0 -16 -12    8.60    2.34
   0  12  -4  142.01    3.58
   1 -13 -10  120.00    2.41
   1 -11  -8  208.58    2.74
   1  -6  -4  995.88    5.66
   2 -13 -13   27.19    2.19
   2 -12 -12   34.36    1.77
   2  -7  -7  454.79    3.43
   2  -4  -5   89.60    2.04
   3  -9 -13   51.00    2.03
   3  -6 -10    0.86    1.28
   3  -5  -9  469.66    3.82
   3   0  -7  687.21    4.99
  -6  -1  -3   10.24    2.39
  -5   0  -1   81.61    2.07
  -5   1  -1  100.74    2.40
  -5   4  -1   51.63    2.43
  -5   5  -1   53.58    2.01
  -5   7  -2   47.37    2.65
  -4  10  -2   33.71    2.48
  -3   1   1  260.99    3.12
  -3   9   0   26.65    1.88
  -2 -17 -11   83.86    3.70
  -2  11  -1   64.12    1.86
  -1 -13  -7   38.58    2.24
   0 -17 -13    7.45    2.43
   0 -13  -8  257.90    3.06
   1 -14 -11  107.87    2.65
   1  -9  -6  691.16    4.52
   1   5  -1 1329.95   16.88
   2 -14 -14    2.52    2.19
   2  -6  -6  273.62    2.93
   2  -2  -4  427.19    3.86
   3  -9 -12   51.47    2.15
   3  -8 -11  180.36    2.88
   3  -4  -8    3.65    1.43
   3  -1  -7   89.36    2.22
   3   3  -7   79.66    2.52
  -5  -3  -2    1.90    1.61
  -5   2  -1  175.52    2.56
  -5   3  -1   17.70    1.57
  -4   5   0    6.03    1.66
  -4   6   0    0.47    1.25
  -4   8  -1   68.99    2.24
  -3   3   1  221.19    2.81
  -3  10  -1   30.39    1.70
  -2   7   1  671.11    4.16
  -2   9   0    3.19    1.56
  -2  12  -3    6.08    2.15
  -1 -15  -9  255.24    3.62
  -1 -14  -8  137.72    2.89
  -1 -12  -6  248.41    3.51
  -1   6   1  303.78    3.33
  -1   9   0    0.89    0.97
   0 -15 -10    1.05    1.82
   0 -12  -7   30.38    1.44
   0  -3  -1    1.15    1.37
   0   9  -1  367.33    4.06
   0  11  -3   57.35    2.39
   0  12  -5    3.65    2.64
   1 -15 -12   27.32    2.21
   1  -8  -5   -0.35    1.25
   2 -11 -10    0.20    1.21
   2 -10  -9  501.27    3.51
   2  -9  -8   35.92    1.70
   3 -11 -14   12.21    2.27
   3  -6  -9   44.55    2.01
   3  -2  -7  232.31    3.02
  -5  -7  -4    0.95    2.25
  -5  -5  -3   44.84    2.49
  -5   6  -2   81.25    2.20
  -4  -3  -1  254.02    3.38
  -4   1   0  150.86    2.25
  -4   2   0    8.14    1.59
  -4   3   0    3.72    1.61
  -4   4   0    2.24    1.61
  -4   9  -2  128.00    2.68
  -3  -2   0  527.49    4.76
  -3   8   0   19.43    1.31
  -2   1   1  142.25    2.65
  -2  10  -1   68.47    2.21
  -1 -16 -10    0.92    2.13
  -1   2   1  304.07    4.09
  -1   5   1  503.73    4.26
  -1  10  -1  182.53    2.62
   0  10  -2    0.30    1.61
   1   1  -1    1.17    1.52
   2 -13 -12    0.66    1.44
   2  -8  -7   59.43    1.48
   2  -5  -5  109.09    2.13
   2  -3  -4 1508.30    6.83
   2   4  -3  298.41    5.70
   3  -5  -8    7.25    1.63
   3  -3  -7  393.33    3.61
   3   4  -7  257.48    4.42
  -6  -2  -4    2.62    2.54
  -5 -10  -6    4.06    2.75
  -3   7   0    4.83    1.45
  -3   9  -1   37.58    1.92
  -3  11  -3   -2.20    1.90
  -2  -5  -1  118.47    4.80
  -2   2   1  194.47    2.83
  -2  12  -4   11.31    2.38
  -1 -17 -11   13.22    2.48
  -1   4   1  376.08    3.92
   0 -10  -5   87.83    1.88
   1 -12  -8   57.72    1.93
   1  -5  -3    1.89    0.92
   1  11  -7    2.50    3.02
   2  -7  -6  300.51    2.93
   2   0  -3  198.21    3.11
   3 -11 -13   20.33    3.10
   3 -10 -12   -0.39    1.57
   3  -7  -9  341.51    3.28
   3   0  -6   83.44    2.10
   3   1  -6   18.00    1.61
   3   2  -6   13.91    1.99
  -5  -1  -2    2.08    1.71
  -5   0  -2    4.05    1.78
  -5   3  -2   31.73    2.18
  -5   4  -2   54.04    1.92
  -5   6  -3    0.21    2.12
  -4  -7  -3  108.03    3.12
  -4  -5  -2  102.67    2.67
  -4  -2  -1  139.09    2.48
  -4   6  -1   50.97    1.99
  -4   8  -2   21.24    1.89
  -4   9  -3    6.82    2.17
  -2   3   1  135.53    2.34
  -2   4   1  566.48    4.02
  -2   8   0  125.72    2.00
   0 -17 -12    8.01    2.45
   1 -15 -11  141.15    2.64
   1 -14 -10   22.76    1.45
   1 -11  -7   18.75    1.23
   1 -10  -6  214.55    2.71
   1  -7  -4  591.80    4.27
   1  -3  -2 1166.83    6.97
   2 -13 -11   76.82    2.36
   2 -12 -10    6.85    1.83
   2 -11  -9    9.37    1.67
   2 -10  -8  109.06    2.18
   2   9  -8   73.94    6.83
   3  -6  -8  126.59    2.34
   3  -4  -7  281.71    3.03
   3  -1  -6   11.39    1.54
   4  -3 -12  132.63    3.16
   4  -2 -12   52.31    2.63
   4  -1 -12   27.46    2.60
  -5  -4  -3  146.52    2.88
  -5   1  -2   40.31    1.60
  -5   2  -2   81.42    2.01
  -5   5  -3    1.47    2.01
  -4   5  -1  120.93    2.23
  -3  -1   0  999.22    5.94
  -3   8  -1  106.22    2.17
  -3  11  -4   16.15    1.84
  -2   9  -1  304.56    3.09
  -2  10  -2  144.71    2.52
  -2  11  -3   10.38    1.85
  -1 -10  -4  909.58    6.80
  -1   9  -1  434.07    3.72
  -1  11  -3   11.21    1.81
   0  -9  -4  582.67    4.56
   0   8  -1  441.78    4.25
   1 -16 -12    0.08    2.13
   1  10  -5   11.12    2.40
   2 -14 -12   10.62    2.12
   2  -9  -7    1.00    1.34
   2  -6  -5  115.19    2.04
   2  -1  -3   56.72    1.86
   3 -12 -13   33.53    2.17
   3 -11 -12    9.06    2.08
   3  -9 -10   28.61    1.95
   3  -8  -9  143.92    2.28
   3  -2  -6  101.08    2.23
   3   5  -7  127.84    3.93
   4  -4 -12   30.04    2.45
   4  -2 -11   73.67    2.43
  -5 -11  -7   44.40    3.76
  -5  -8  -5  141.39    3.69
  -5  -6  -4    2.87    2.04
  -4   4  -1  144.71    2.36
  -4   7  -2  174.70    2.34
  -4   8  -3    1.33    1.92
  -4   9  -4   34.50    2.53
  -3  -4  -1   76.69    2.39
  -3  10  -3    2.67    1.47
  -2 -16  -9   53.31    3.15
  -2 -15  -8   80.11    2.91
  -2 -14  -7  113.16    3.22
  -1  10  -2  190.25    2.69
   0 -15  -9  104.53    2.55
   0 -13  -7  115.18    2.29
   0  10  -3  232.03    3.38
   1   0  -1   76.45    2.67
   2 -15 -13   80.10    2.32
   2  -8  -6  296.83    2.84
   3  -7  -8  115.77    2.23
   3  -5  -7  126.31    1.94
   3  -3  -6  533.01    3.96
   4  -5 -12   25.69    1.85
   4  -4 -11  103.04    2.55
   4  -3 -11   37.50    2.33
   4  -1 -11   49.94    2.53
   4   0 -11    7.36    2.36
  -5  -3  -3   99.25    2.36
  -5   3  -3    1.03    1.94
  -5   4  -3   14.37    1.58
  -4  -4  -2   26.61    1.89
  -4   0  -1  544.59    3.96
  -4   3  -1  183.74    2.46
  -3   0   0   48.64    1.47
  -3   1   0  248.52    2.89
  -3   7  -1   75.88    1.95
  -3  10  -4   64.79    2.37
  -2 -17 -10   29.27    2.58
  -2 -13  -6  139.04    3.64
  -2  11  -4   15.36    1.94
   0 -17 -11  118.31    2.77
   0 -16 -10   13.99    1.98
   0   9  -2  175.87    2.74
   0  11  -5    5.59    1.90
   1  -6  -3    0.64    1.17
   2 -13 -10   75.29    2.23
   2  -2  -3    3.61    1.21
   3 -12 -12    8.46    1.83
   3 -11 -11   47.76    2.14
   3 -10 -10   70.02    2.04
   3   4  -6   59.20    2.64
   4  -6 -12   21.80    1.75
   4  -5 -11   84.01    2.51
   4  -2 -10   37.15    1.98
   4  -1 -10   50.34    2.18
   4   1 -11   39.87    2.74
  -5  -1  -3   96.43    2.39
  -5   1  -3   32.47    1.93
  -5   2  -3   30.14    1.96
  -5   5  -4   37.08    2.08
  -4   7  -3    3.07    1.63
  -4   8  -4    7.79    1.95
  -3   8  -2   97.72    2.13
  -3   9  -3   -0.71    1.77
  -2   9  -2   70.23    1.95
  -2  10  -3    3.30    1.52
  -2  11  -5    1.26    1.99
  -1 -17 -10   49.16    2.86
  -1 -16  -9   36.97    2.26
  -1 -15  -8   31.67    2.18
  -1 -14  -7   39.48    2.00
  -1  -7  -2 1069.48    8.97
   0  -6  -2  684.06    5.55
   1 -15 -10   65.53    1.87
   1 -12  -7   18.77    1.63
   1  -8  -4  194.51    2.53
   2 -15 -12    7.22    2.20
   2 -14 -11  106.30    2.20
   2 -11  -8  109.90    1.92
   2  -7  -5   38.63    1.47
   2  -5  -4  846.85    4.64
   2   5  -3  872.41   12.23
   3  -4  -6  113.97    2.15
   3   1  -5    4.23    1.24
   4  -6 -11   36.48    2.08
   4  -4 -10    3.01    1.80
   4  -3 -10   -0.59    1.97
   4   0 -10   69.70    2.63
  -5  -5  -4   19.08    1.95
  -5   4  -4   47.29    2.30
  -4   5  -2   81.27    1.71
  -3   6  -1  290.69    2.55
  -3  10  -5   30.60    2.20
  -1 -13  -6  211.78    3.21
  -1   6   0    8.03    0.92
  -1   9  -2   97.04    2.11
  -1  10  -3   -0.55    1.43
  -1  11  -5    5.38    1.75
   0 -11  -5   19.10    1.46
   0  -8  -3   24.49    1.45
   0  11  -6   60.28    2.84
   1   9  -4  209.29    3.92
   1  10  -6  100.03    3.37
   3  -8  -8  102.86    1.78
   3  -1  -5  466.69    3.80
   3   2  -5  573.71    4.89
   4  -8 -12    5.48    2.22
   4  -5 -10   24.55    1.94
   4   1 -10   66.66    2.77
  -5  -9  -6    6.69    2.69
  -5  -7  -5   38.49    2.28
  -5   5  -5   16.87    1.93
  -4  -8  -4    1.95    1.86
  -4   4  -2   92.82    1.90
  -4   6  -3    3.01    1.51
  -4   8  -5   20.21    2.24
  -3   7  -2  264.50    2.64
  -3   9  -4  119.13    2.45
   0  -4  -1    2.41    1.21
   1 -10  -5    7.45    1.28
   1   8  -3  414.68    5.34
   2  -3  -3  262.09    2.76
   3 -12 -11   61.59    1.85
   3 -11 -10    7.66    1.66
   3  -7  -7  109.90    1.79
   3  -2  -5   78.59    1.66
   4  -7 -11  181.93    2.52
   4  -3  -9  101.35    2.43
   4  -2  -9  194.20    2.60
   4  -1  -9  148.52    2.70
   4   0  -9   85.65    2.45
  -5  -4  -4    0.22    1.42
  -5   4  -5    3.96    1.93
  -2 -12  -5   77.68    3.10
  -2  -1   0 1102.85    6.93
  -1 -12  -5    4.90    1.45
  -1  -9  -3   34.87    1.75
  -1  -5  -1   97.38    4.26
   0 -16  -9   24.50    1.79
   2  -8  -5    2.19    1.22
   2  -6  -4  662.12    3.93
   3  -9  -8  234.41    2.57
   3  -3  -5  119.97    2.16
   3   3  -5  325.86    4.05
   4  -9 -12    0.83    1.73
   4  -4  -9  187.18    2.51
   4   1  -9   65.31    2.30
  -5  -3  -4   97.24    2.17
  -5  -2  -4   28.78    1.86
  -5   1  -4   24.52    1.67
  -4  -1  -2    0.05    1.33
  -4   1  -2   20.73    1.45
  -4   5  -3   13.67    1.10
  -4   6  -4    7.78    1.56
  -4   7  -5    6.86    1.84
  -3   6  -2    4.88    1.25
  -3   9  -5   23.24    1.92
  -2   3   0   19.49    1.24
  -2  10  -5   27.73    1.91
  -1   7  -1  864.90    4.86
   0   8  -2   24.06    1.38
   1 -17 -11   33.93    2.14
   1 -15  -9    6.72    1.37
   1  -7  -3    8.94    1.19
   1  10  -7   44.37    2.72
   2 -11  -7    9.68    1.19
   2  -4  -3    0.51    1.08
   3 -13 -11   30.15    1.94
   3 -12 -10   63.50    2.01
   3  -8  -7    5.41    1.40
   3  -4  -5   29.73    1.49
   3   5  -6   17.84    2.43
   4  -7 -10   12.91    1.45
   4  -2  -8    6.98    1.70
   4  -1  -8    1.00    1.55
  -5 -10  -7   42.45    2.92
  -5  -6  -5   41.99    2.07
  -5   3  -5    1.75    1.63
  -3   7  -3    4.37    1.47
   0  10  -5   14.41    1.91
   1  -9  -4  813.28    4.34
   2 -10  -6  228.96    2.52
   2   1  -2 1518.48    8.09
   3 -11  -9    6.83    1.22
   3 -10  -8   48.87    1.66
   4  -8 -10   17.15    1.96
   4  -6  -9   81.68    1.78
   4   0  -8    9.08    1.66
   4   3 -10  151.58    3.79
  -5  -8  -6   30.56    2.20
  -4   7  -6   10.37    1.76
  -1 -16  -8  117.61    2.85
  -1 -11  -4   20.84    1.70
  -1  10  -5    3.00    1.44
   0  -7  -2  386.66    3.81
   1  10  -8   31.88    2.64
   2 -15 -10   54.48    2.18
   2 -14  -9    3.46    1.78
   2  -9  -5    0.95    1.15
   2  -7  -4  269.76    2.59
   3  -5  -5    2.13    1.25
   4   1  -8   53.71    2.21
  -5  -5  -5  132.89    2.44
  -5   1  -5   -0.39    1.42
  -5   3  -6   50.36    1.95
  -4   6  -5   13.86    1.28
   1 -11  -5   27.51    1.49
   2 -12  -7    6.88    1.45
   2  -5  -3  225.90    2.33
   4  -9 -10    9.93    1.90
  -5   0  -5    0.60    1.08
  -3   6  -3   28.21    1.11
   4  -8  -9    2.45    1.26
   4  -3  -7   19.79    1.27
   0   0   0    0.00    0.00
_computing_structure_solution     'SHELXT 2014/5 (Sheldrick, 2014)'
_computing_structure_solution     'SHELXT 2014/5 (Sheldrick, 2014)'
;
_shelx_hkl_checksum              69516
_shelx_res_file
;
TITL g68_a.res in P-1
    g68.res
    created by SHELXL-2018/3 at 14:49:38 on 02-Apr-2020
REM Old TITL G68 JODOPOCHODNA
REM SHELXT solution in P-1
REM R1 0.063, Rweak 0.009, Alpha 0.047, Orientation as input
REM Formula found by SHELXT: C14 I N2 O S
CELL 0.71073 4.4279 13.0767 13.441 61.622 86.203 85.241
ZERR 2 0.0005 0.0014 0.0014 0.007 0.009 0.009
LATT 1
SFAC C H I N O S
UNIT 28 22 2 4 2 2
EQIV $1 1-X,1-Y,2-Z
L.S. 20
PLAN  4
SIZE 0.334 0.077 0.047
TEMP -153.15
HTAB N2 O1
HTAB C22 S1
HTAB N1 S1_$1
BOND $H
list 4
MORE -1
fmap 2
acta
MERG 2
OMIT -2 58
OMIT -3 11 13
REM <olex2.extras>
REM <HklSrc "%.\\G68.hkl">
REM </olex2.extras>
WGHT    0.036500    0.168200
FVAR       0.43986
I1    3    1.541658    0.977221    0.303151    11.00000    0.02755    0.02270 =
         0.01967   -0.00969    0.00314   -0.00760
S1    6    0.694410    0.636340    0.853771    11.00000    0.03716    0.02775 =
         0.02047   -0.01575    0.00619   -0.01240
O1    5    0.422505    0.430206    0.684137    11.00000    0.03155    0.02442 =
         0.01985   -0.01289    0.00419   -0.00644
N2    4    0.723795    0.600527    0.671109    11.00000    0.02195    0.01994 =
         0.01946   -0.01154    0.00200   -0.00421
AFIX  43
H2    2    0.659541    0.556723    0.644375    11.00000   -1.20000
AFIX   0
N1    4    0.410011    0.487600    0.820666    11.00000    0.02178    0.02106 =
         0.01985   -0.01242    0.00372   -0.00449
AFIX  43
H1    2    0.322999    0.474879    0.886008    11.00000   -1.20000
AFIX   0
C24   1    1.299698    0.845426    0.433729    11.00000    0.01963    0.01805 =
         0.01778   -0.00690    0.00033   -0.00285
C21   1    0.926885    0.684026    0.597604    11.00000    0.01853    0.01722 =
         0.01686   -0.00789   -0.00077   -0.00037
C23   1    1.190403    0.860149    0.525238    11.00000    0.02716    0.02083 =
         0.02147   -0.01232    0.00071   -0.00473
AFIX  43
H23   2    1.243847    0.925496    0.531840    11.00000   -1.20000
AFIX   0
C22   1    1.002398    0.779751    0.607814    11.00000    0.02615    0.02194 =
         0.02215   -0.01391    0.00309   -0.00394
AFIX  43
H22   2    0.926668    0.790207    0.670373    11.00000   -1.20000
AFIX   0
C11   1    0.125278    0.322908    0.850741    11.00000    0.01885    0.01793 =
         0.01753   -0.00899   -0.00218    0.00018
C12   1    0.085682    0.239044    0.817043    11.00000    0.02322    0.02291 =
         0.02072   -0.01224   -0.00023   -0.00296
AFIX  43
H12   2    0.183570    0.245258    0.749489    11.00000   -1.20000
AFIX   0
C1    1    0.612597    0.576675    0.774224    11.00000    0.02061    0.01840 =
         0.02112   -0.01072   -0.00082   -0.00076
C25   1    1.232883    0.748014    0.424765    11.00000    0.02579    0.02198 =
         0.01833   -0.01183    0.00184   -0.00150
AFIX  43
H25   2    1.314542    0.736362    0.363510    11.00000   -1.20000
AFIX   0
C26   1    1.045354    0.668364    0.506649    11.00000    0.02636    0.01887 =
         0.02130   -0.01259    0.00000   -0.00220
AFIX  43
H26   2    0.996650    0.602062    0.500796    11.00000   -1.20000
AFIX   0
C10   1    0.328766    0.417298    0.777827    11.00000    0.01917    0.01786 =
         0.01887   -0.00989   -0.00131   -0.00008
C14   1   -0.238500    0.137645    0.980320    11.00000    0.02554    0.02115 =
         0.02286   -0.00823    0.00075   -0.00518
AFIX  43
H14   2   -0.361951    0.074328    1.024676    11.00000   -1.20000
AFIX   0
C16   1   -0.022034    0.313512    0.949415    11.00000    0.02692    0.02061 =
         0.01846   -0.01017   -0.00007   -0.00252
AFIX  43
H16   2    0.000485    0.370853    0.972299    11.00000   -1.20000
AFIX   0
C15   1   -0.201661    0.220636    1.014438    11.00000    0.02859    0.02384 =
         0.01942   -0.00996    0.00256   -0.00369
AFIX  43
H15   2   -0.299221    0.213934    1.082217    11.00000   -1.20000
AFIX   0
C13   1   -0.095124    0.146978    0.881369    11.00000    0.02965    0.02225 =
         0.02610   -0.01442   -0.00014   -0.00501
AFIX  43
H13   2   -0.121186    0.090296    0.857955    11.00000   -1.20000
AFIX   0
HKLF 4
REM  g68_a.res in P-1
REM wR2 = 0.0542, GooF = S = 1.045, Restrained GooF = 1.045 for all data
REM R1 = 0.0209 for 3348 Fo > 4sig(Fo) and 0.0234 for all 3617 data
REM 172 parameters refined using 0 restraints
END
WGHT      0.0365      0.1682
REM Highest difference peak  0.800,  deepest hole -0.392,  1-sigma level  0.089
Q1    1   1.6895  0.9362  0.2590  11.00000  0.05    0.80
Q2    1   1.3970  1.0214  0.3413  11.00000  0.05    0.66
Q3    1   0.9921  0.6772  0.5491  11.00000  0.05    0.46
Q4    1   1.3890  1.0049  0.2831  11.00000  0.05    0.46
;
_shelx_res_checksum              70627
loop_
_space_group_symop_operation_xyz
'x, y, z'
'-x, -y, -z'
loop_
_atom_site_type_symbol
_atom_site_label
_atom_site_fract_x
_atom_site_fract_y
_atom_site_fract_z
_atom_site_U_iso_or_equiv
_atom_site_adp_type
_atom_site_calc_flag
_atom_site_occupancy
_atom_site_disorder_assembly
_atom_site_disorder_group
I I1 1.54166(3) 0.97722(2) 0.30315(2) 0.02325(5) Uani d 1 . .
S S1 0.69441(13) 0.63634(4) 0.85377(4) 0.02636(10) Uani d 1 . .
O O1 0.4225(3) 0.43021(12) 0.68414(11) 0.0242(3) Uani d 1 . .
N N2 0.7238(4) 0.60053(13) 0.67111(13) 0.0195(3) Uani d 1 . .
H H2 0.659541 0.556723 0.644375 0.023 Uiso calc 1 . .
N N1 0.4100(4) 0.48760(13) 0.82067(13) 0.0198(3) Uani d 1 . .
H H1 0.322999 0.474879 0.886008 0.024 Uiso calc 1 . .
C C24 1.2997(4) 0.84543(15) 0.43373(15) 0.0191(3) Uani d 1 . .
C C21 0.9269(4) 0.68403(15) 0.59760(14) 0.0176(3) Uani d 1 . .
C C23 1.1904(4) 0.86015(16) 0.52524(16) 0.0221(3) Uani d 1 . .
H H23 1.243847 0.925496 0.531840 0.026 Uiso calc 1 . .
C C22 1.0024(4) 0.77975(16) 0.60781(16) 0.0220(3) Uani d 1 . .
H H22 0.926668 0.790207 0.670373 0.026 Uiso calc 1 . .
C C11 0.1253(4) 0.32291(15) 0.85074(14) 0.0178(3) Uani d 1 . .
C C12 0.0857(4) 0.23904(16) 0.81704(16) 0.0214(3) Uani d 1 . .
H H12 0.183570 0.245258 0.749489 0.026 Uiso calc 1 . .
C C1 0.6126(4) 0.57668(15) 0.77422(15) 0.0195(3) Uani d 1 . .
C C25 1.2329(4) 0.74801(16) 0.42476(15) 0.0212(3) Uani d 1 . .
H H25 1.314542 0.736362 0.363510 0.025 Uiso calc 1 . .
C C26 1.0454(4) 0.66836(16) 0.50665(15) 0.0209(3) Uani d 1 . .
H H26 0.996650 0.602062 0.500796 0.025 Uiso calc 1 . .
C C10 0.3288(4) 0.41730(15) 0.77783(15) 0.0182(3) Uani d 1 . .
C C14 -0.2385(5) 0.13765(17) 0.98032(16) 0.0239(4) Uani d 1 . .
H H14 -0.361951 0.074328 1.024676 0.029 Uiso calc 1 . .
C C16 -0.0220(4) 0.31351(16) 0.94942(15) 0.0216(3) Uani d 1 . .
H H16 0.000485 0.370853 0.972299 0.026 Uiso calc 1 . .
C C15 -0.2017(5) 0.22064(17) 1.01444(16) 0.0241(4) Uani d 1 . .
H H15 -0.299221 0.213934 1.082217 0.029 Uiso calc 1 . .
C C13 -0.0951(5) 0.14698(17) 0.88137(17) 0.0246(4) Uani d 1 . .
H H13 -0.121186 0.090296 0.857955 0.030 Uiso calc 1 . .
loop_
_atom_site_aniso_label
_atom_site_aniso_U_11
_atom_site_aniso_U_22
_atom_site_aniso_U_33
_atom_site_aniso_U_12
_atom_site_aniso_U_13
_atom_site_aniso_U_23
I1 0.02755(7) 0.02270(7) 0.01967(7) -0.00760(4) 0.00314(4) -0.00969(5)
S1 0.0372(3) 0.0277(2) 0.0205(2) -0.01240(19) 0.00619(18) -0.01575(18)
O1 0.0316(7) 0.0244(6) 0.0199(6) -0.0064(5) 0.0042(5) -0.0129(5)
N2 0.0220(7) 0.0199(7) 0.0195(7) -0.0042(6) 0.0020(6) -0.0115(6)
N1 0.0218(7) 0.0211(7) 0.0199(7) -0.0045(6) 0.0037(6) -0.0124(6)
C24 0.0196(8) 0.0181(7) 0.0178(7) -0.0028(6) 0.0003(6) -0.0069(6)
C21 0.0185(8) 0.0172(7) 0.0169(7) -0.0004(6) -0.0008(6) -0.0079(6)
C23 0.0272(9) 0.0208(8) 0.0215(8) -0.0047(7) 0.0007(7) -0.0123(7)
C22 0.0262(9) 0.0219(8) 0.0222(8) -0.0039(7) 0.0031(7) -0.0139(7)
C11 0.0188(8) 0.0179(7) 0.0175(7) 0.0002(6) -0.0022(6) -0.0090(6)
C12 0.0232(8) 0.0229(8) 0.0207(8) -0.0030(7) -0.0002(6) -0.0122(7)
C1 0.0206(8) 0.0184(7) 0.0211(8) -0.0008(6) -0.0008(6) -0.0107(6)
C25 0.0258(9) 0.0220(8) 0.0183(8) -0.0015(7) 0.0018(6) -0.0118(7)
C26 0.0264(9) 0.0189(8) 0.0213(8) -0.0022(7) 0.0000(7) -0.0126(7)
C10 0.0192(8) 0.0179(7) 0.0189(7) -0.0001(6) -0.0013(6) -0.0099(6)
C14 0.0255(9) 0.0211(8) 0.0229(8) -0.0052(7) 0.0007(7) -0.0082(7)
C16 0.0269(9) 0.0206(8) 0.0185(8) -0.0025(7) -0.0001(7) -0.0102(7)
C15 0.0286(9) 0.0238(8) 0.0194(8) -0.0037(7) 0.0026(7) -0.0100(7)
C13 0.0297(10) 0.0223(8) 0.0261(9) -0.0050(7) -0.0001(7) -0.0144(7)
loop_
_atom_type_symbol
_atom_type_description
_atom_type_scat_dispersion_real
_atom_type_scat_dispersion_imag
_atom_type_scat_source
C C 0.0033 0.0016 'International Tables Vol C Tables 4.2.6.8 and 6.1.1.4'
H H 0.0000 0.0000 'International Tables Vol C Tables 4.2.6.8 and 6.1.1.4'
I I -0.4742 1.8119 'International Tables Vol C Tables 4.2.6.8 and 6.1.1.4'
N N 0.0061 0.0033 'International Tables Vol C Tables 4.2.6.8 and 6.1.1.4'
O O 0.0106 0.0060 'International Tables Vol C Tables 4.2.6.8 and 6.1.1.4'
S S 0.1246 0.1234 'International Tables Vol C Tables 4.2.6.8 and 6.1.1.4'
loop_
_exptl_crystal_face_index_h
_exptl_crystal_face_index_k
_exptl_crystal_face_index_l
_exptl_crystal_face_perp_dist
0 1 1 0.0390
0 -1 -1 0.0210
0 1 0 0.0430
0 -14 1 0.0360
17 6 -2 0.1330
-28 -10 -9 0.2560
0 6 29 0.0440
0 -7 -33 0.0460
loop_
_geom_angle_atom_site_label_1
_geom_angle_atom_site_label_2
_geom_angle_atom_site_label_3
_geom_angle_site_symmetry_1
_geom_angle_site_symmetry_3
_geom_angle
_geom_angle_publ_flag
C21 N2 H2 . . 114.5 ?
C1 N2 H2 . . 114.5 ?
C1 N2 C21 . . 131.06(16) ?
C1 N1 H1 . . 115.7 ?
C10 N1 H1 . . 115.7 ?
C10 N1 C1 . . 128.66(15) ?
C23 C24 I1 . . 119.07(13) ?
C23 C24 C25 . . 120.57(17) ?
C25 C24 I1 . . 120.23(13) ?
C22 C21 N2 . . 124.91(16) ?
C22 C21 C26 . . 119.73(17) ?
C26 C21 N2 . . 115.30(15) ?
C24 C23 H23 . . 119.8 ?
C24 C23 C22 . . 120.46(17) ?
C22 C23 H23 . . 119.8 ?
C21 C22 C23 . . 119.28(17) ?
C21 C22 H22 . . 120.4 ?
C23 C22 H22 . . 120.4 ?
C12 C11 C10 . . 116.82(16) ?
C16 C11 C12 . . 119.22(17) ?
C16 C11 C10 . . 123.95(16) ?
C11 C12 H12 . . 119.8 ?
C13 C12 C11 . . 120.50(17) ?
C13 C12 H12 . . 119.8 ?
N2 C1 S1 . . 128.09(15) ?
N2 C1 N1 . . 114.60(16) ?
N1 C1 S1 . . 117.28(13) ?
C24 C25 H25 . . 120.6 ?
C26 C25 C24 . . 118.89(16) ?
C26 C25 H25 . . 120.6 ?
C21 C26 H26 . . 119.5 ?
C25 C26 C21 . . 121.00(16) ?
C25 C26 H26 . . 119.5 ?
O1 C10 N1 . . 122.06(17) ?
O1 C10 C11 . . 121.19(16) ?
N1 C10 C11 . . 116.74(15) ?
C15 C14 H14 . . 119.9 ?
C15 C14 C13 . . 120.15(18) ?
C13 C14 H14 . . 119.9 ?
C11 C16 H16 . . 119.9 ?
C15 C16 C11 . . 120.28(17) ?
C15 C16 H16 . . 119.9 ?
C14 C15 C16 . . 119.97(17) ?
C14 C15 H15 . . 120.0 ?
C16 C15 H15 . . 120.0 ?
C12 C13 C14 . . 119.86(18) ?
C12 C13 H13 . . 120.1 ?
C14 C13 H13 . . 120.1 ?
loop_
_geom_bond_atom_site_label_1
_geom_bond_atom_site_label_2
_geom_bond_site_symmetry_2
_geom_bond_distance
_geom_bond_publ_flag
I1 C24 . 2.0930(18) ?
S1 C1 . 1.6656(19) ?
O1 C10 . 1.236(2) ?
N2 H2 . 0.8800 ?
N2 C21 . 1.413(2) ?
N2 C1 . 1.336(2) ?
N1 H1 . 0.8800 ?
N1 C1 . 1.400(2) ?
N1 C10 . 1.375(2) ?
C24 C23 . 1.384(2) ?
C24 C25 . 1.392(3) ?
C21 C22 . 1.392(2) ?
C21 C26 . 1.395(2) ?
C23 H23 . 0.9500 ?
C23 C22 . 1.394(3) ?
C22 H22 . 0.9500 ?
C11 C12 . 1.398(2) ?
C11 C10 . 1.488(2) ?
C11 C16 . 1.394(2) ?
C12 H12 . 0.9500 ?
C12 C13 . 1.384(3) ?
C25 H25 . 0.9500 ?
C25 C26 . 1.385(3) ?
C26 H26 . 0.9500 ?
C14 H14 . 0.9500 ?
C14 C15 . 1.388(3) ?
C14 C13 . 1.391(3) ?
C16 H16 . 0.9500 ?
C16 C15 . 1.389(3) ?
C15 H15 . 0.9500 ?
C13 H13 . 0.9500 ?
loop_
_geom_hbond_atom_site_label_D
_geom_hbond_atom_site_label_H
_geom_hbond_atom_site_label_A
_geom_hbond_site_symmetry_A
_geom_hbond_distance_DH
_geom_hbond_distance_HA
_geom_hbond_distance_DA
_geom_hbond_angle_DHA
_geom_hbond_publ_flag
N2 H2 O1 . 0.88 1.87 2.620(2) 141.9 yes
N1 H1 S1 2_667 0.88 3.08 3.8864(17) 152.8 yes
C22 H22 S1 . 0.95 2.54 3.200(2) 126.3 yes
