#------------------------------------------------------------------------------
#$Date: 2020-04-10 08:33:41 +0300 (Fri, 10 Apr 2020) $
#$Revision: 250649 $
#$URL: file:///home/coder/svn-repositories/cod/cif/2/02/20/2022070.cif $
#------------------------------------------------------------------------------
#
# This file is available in the Crystallography Open Database (COD),
# http://www.crystallography.net/. The original data for this entry
# were provided by IUCr Journals, http://journals.iucr.org/.
#
# The file may be used within the scientific community so long as
# proper attribution is given to the journal article from which the
# data were obtained.
#
data_2022070
loop_
_publ_author_name
'Jha, Kunal Kumar'
'Gruza, Barbara'
'Kumar, Prashant'
'Chodkiewicz, Michal Leszek'
'Dominiak, Paulina Maria'
_publ_section_title
;
 TAAM: a reliable and user friendly tool for hydrogen-atom location using
 routine X-ray diffraction data
;
_journal_issue                   3
_journal_name_full
'Acta Crystallographica Section B Structural Science, Crystal Engineering and Materials'
_journal_paper_doi               10.1107/S2052520620002917
_journal_volume                  76
_journal_year                    2020
_chemical_absolute_configuration unk
_chemical_formula_moiety         'Cl, C5 H13 N2 O2'
_chemical_formula_sum            'C5 H13 Cl N2 O2'
_chemical_formula_weight         168.62
_space_group_crystal_system      monoclinic
_space_group_IT_number           4
_space_group_name_Hall           'P 2yb'
_space_group_name_H-M_alt        'P 1 21 1'
_symmetry_Int_Tables_number      4
_audit_creation_date             2019-08-05
_audit_creation_method
;
Olex2 1.2
(compiled 2018.05.29 svn.r3508 for OlexSys, GUI svn.r5506)
;
_cell_angle_alpha                90
_cell_angle_beta                 83.13(1)
_cell_angle_gamma                90
_cell_formula_units_Z            2
_cell_length_a                   9.9480(2)
_cell_length_b                   7.9637(2)
_cell_length_c                   4.9826(1)
_cell_measurement_temperature    100
_cell_volume                     391.902(17)
_computing_molecular_graphics    'Olex2 (Dolomanov et al., 2009)'
_computing_publication_material  'Olex2 (Dolomanov et al., 2009)'
_computing_structure_refinement  'olex2.refine (Bourhis et al., 2015)'
_diffrn_ambient_temperature      100
_diffrn_measured_fraction_theta_full 0.8980
_diffrn_measured_fraction_theta_max 0.8980
_diffrn_measurement_device_type  'Oxford Diffraction Xcalibur S'
_diffrn_radiation_type           'Mo K\a'
_diffrn_radiation_wavelength     0.7107
_diffrn_reflns_av_R_equivalents  0.0000
_diffrn_reflns_av_unetI/netI     0.0130
_diffrn_reflns_limit_h_max       22
_diffrn_reflns_limit_h_min       0
_diffrn_reflns_limit_k_max       17
_diffrn_reflns_limit_k_min       -17
_diffrn_reflns_limit_l_max       11
_diffrn_reflns_limit_l_min       -11
_diffrn_reflns_number            8876
_diffrn_reflns_theta_full        52.8956
_diffrn_reflns_theta_max         52.90
_diffrn_reflns_theta_min         3.29
_exptl_absorpt_coefficient_mu    0.433
_exptl_crystal_density_diffrn    1.4289
_exptl_crystal_F_000             180.3727
_refine_diff_density_max         0.3038
_refine_diff_density_min         -0.2098
_refine_diff_density_rms         0.0314
_refine_ls_abs_structure_details
'Flack, H. D. (1983). Acta Cryst. A39, 876-881.'
_refine_ls_abs_structure_Flack   0.007(10)
_refine_ls_d_res_high            0.4456
_refine_ls_d_res_low             6.1994
_refine_ls_goodness_of_fit_ref   0.9514
_refine_ls_hydrogen_treatment    refall
_refine_ls_matrix_type           full
_refine_ls_number_constraints    0
_refine_ls_number_parameters     143
_refine_ls_number_reflns         8330
_refine_ls_number_restraints     1
_refine_ls_restrained_S_all      0.9514
_refine_ls_R_factor_all          0.0139
_refine_ls_R_factor_gt           0.0139
_refine_ls_shift/su_max          0.0004
_refine_ls_shift/su_mean         0.0001
_refine_ls_structure_factor_coef Fsqd
_refine_ls_weighting_details
'w=1/[\s^2^(Fo^2^)+(0.0174P)^2^+0.0078P] where P=(Fo^2^+2Fc^2^)/3'
_refine_ls_weighting_scheme      calc
_refine_ls_wR_factor_gt          0.0304
_refine_ls_wR_factor_ref         0.0304
_reflns_Friedel_coverage         0.852
_reflns_limit_h_max              22
_reflns_limit_h_min              -22
_reflns_limit_k_max              17
_reflns_limit_k_min              -17
_reflns_limit_l_max              11
_reflns_limit_l_min              -11
_reflns_number_gt                8330
_reflns_number_total             8330
_reflns_threshold_expression     I>=2u(I)
_iucr_refine_instructions_details
;
TITL L-ORNITHINE OLEX2: imported from CIF
CELL 0.71073 9.948 7.9637 4.9826 90 83.13 90
ZERR 2 0 0 0 0 0 0
LATT -1
SYMM -X,0.5+Y,-Z
SFAC C Cl H N O
UNIT 10 2 26 4 4

L.S. 10
PLAN  20
BOND 
BOND $H
CONF 
fmap 2 53
acta 
OMIT 0 0 -10
OMIT 0 0 -11
OMIT 0 -3 0
OMIT 0 3 0
OMIT 0 3 -9
OMIT 0 -5 0
OMIT 0 5 0
OMIT 0 -5 -10
OMIT 0 5 -10
OMIT 0 -6 -9
OMIT 0 6 -9
OMIT 0 -6 -10
OMIT 0 6 -10
OMIT 0 -7 0
OMIT 0 7 0
OMIT 0 8 -7
OMIT 0 8 -9
OMIT 0 9 0
OMIT 0 -11 0
OMIT 0 11 0
OMIT 0 12 -8
OMIT 0 -13 0
OMIT 0 13 0
OMIT 0 -15 0
OMIT 0 15 0
OMIT 0 -15 -5
OMIT 0 15 -5
OMIT 0 -16 -3
OMIT 0 16 -3
OMIT 0 -17 0
OMIT 0 17 0
OMIT 1 0 7
OMIT 1 0 -9
OMIT 1 -1 -11
OMIT 1 1 -11
OMIT 1 -2 -10
OMIT 1 2 -10
OMIT 1 -4 -8
OMIT 1 4 -8
OMIT 1 9 9
OMIT 1 9 -6
OMIT 1 -10 7
OMIT 1 10 7
OMIT 1 -12 8
OMIT 1 12 8
OMIT 1 12 -8
OMIT 1 -13 -6
OMIT 1 13 -6
OMIT 1 -13 -7
OMIT 1 13 -7
OMIT 1 -14 -4
OMIT 1 -15 3
OMIT 1 15 3
OMIT 1 15 -1
OMIT 1 16 -2
OMIT 1 17 -2
OMIT 2 0 -10
OMIT 2 1 -9
OMIT 2 -2 7
OMIT 2 2 7
OMIT 2 -3 10
OMIT 2 3 10
OMIT 2 -4 10
OMIT 2 4 10
OMIT 2 4 6
OMIT 2 4 -4
OMIT 2 -4 -10
OMIT 2 4 -10
OMIT 2 5 3
OMIT 2 7 10
OMIT 2 8 9
OMIT 2 -9 9
OMIT 2 9 9
OMIT 2 -11 -8
OMIT 2 11 -8
OMIT 2 -12 2
OMIT 2 12 2
OMIT 2 12 -3
OMIT 2 12 -7
OMIT 2 -13 4
OMIT 2 -14 6
OMIT 2 -14 2
OMIT 2 14 2
OMIT 2 -14 -6
OMIT 2 14 -6
OMIT 2 -15 4
OMIT 2 15 4
OMIT 2 -15 -4
OMIT 2 17 3
OMIT 2 -17 -2
OMIT 2 17 -3
OMIT 3 0 11
OMIT 3 0 -8
OMIT 3 0 -10
OMIT 3 -2 10
OMIT 3 2 10
OMIT 3 -2 8
OMIT 3 2 8
OMIT 3 -4 9
OMIT 3 4 9
OMIT 3 -4 7
OMIT 3 4 -10
OMIT 3 -5 10
OMIT 3 5 10
OMIT 3 -5 -10
OMIT 3 5 -10
OMIT 3 -6 -10
OMIT 3 6 -10
OMIT 3 7 9
OMIT 3 -7 8
OMIT 3 7 8
OMIT 3 -7 7
OMIT 3 7 7
OMIT 3 -9 -7
OMIT 3 9 -7
OMIT 3 -9 -8
OMIT 3 9 -8
OMIT 3 -12 -6
OMIT 3 12 -6
OMIT 3 -13 -7
OMIT 3 13 -7
OMIT 3 -14 6
OMIT 3 14 6
OMIT 3 -15 3
OMIT 3 15 3
OMIT 3 -16 3
OMIT 3 16 3
OMIT 3 17 3
OMIT 3 -17 2
OMIT 3 17 2
OMIT 4 0 11
OMIT 4 0 9
OMIT 4 0 8
OMIT 4 0 -10
OMIT 4 -1 11
OMIT 4 1 11
OMIT 4 -2 9
OMIT 4 2 9
OMIT 4 -6 10
OMIT 4 6 10
OMIT 4 -7 -8
OMIT 4 7 -8
OMIT 4 -9 7
OMIT 4 9 7
OMIT 4 10 9
OMIT 4 -10 -7
OMIT 4 10 -7
OMIT 4 -12 4
OMIT 4 -15 5
OMIT 4 15 5
OMIT 4 -15 1
OMIT 4 -16 4
OMIT 4 -16 1
OMIT 4 16 1
OMIT 4 -17 2
OMIT 4 17 2
OMIT 5 0 11
OMIT 5 0 9
OMIT 5 0 -2
OMIT 5 0 -6
OMIT 5 -1 11
OMIT 5 1 11
OMIT 5 -1 -10
OMIT 5 -2 -9
OMIT 5 2 -9
OMIT 5 3 6
OMIT 5 5 10
OMIT 5 6 -7
OMIT 5 -7 -9
OMIT 5 7 -9
OMIT 5 -9 9
OMIT 5 9 9
OMIT 5 -10 9
OMIT 5 10 9
OMIT 5 -10 0
OMIT 5 10 -7
OMIT 5 10 -8
OMIT 5 11 -3
OMIT 5 -11 -8
OMIT 5 11 -8
OMIT 5 12 8
OMIT 5 -12 5
OMIT 5 12 5
OMIT 5 -12 4
OMIT 5 -13 6
OMIT 5 -13 -6
OMIT 5 13 -6
OMIT 5 -14 -6
OMIT 5 14 -6
OMIT 5 15 -4
OMIT 5 -15 -5
OMIT 5 15 -5
OMIT 5 -16 4
OMIT 5 16 4
OMIT 5 16 3
OMIT 5 -16 -2
OMIT 5 16 -2
OMIT 6 0 9
OMIT 6 0 3
OMIT 6 0 -4
OMIT 6 1 11
OMIT 6 -1 -10
OMIT 6 1 -10
OMIT 6 -2 -3
OMIT 6 -4 -10
OMIT 6 4 -10
OMIT 6 -5 10
OMIT 6 5 10
OMIT 6 6 -8
OMIT 6 -8 9
OMIT 6 8 -8
OMIT 6 -9 8
OMIT 6 -9 -5
OMIT 6 9 -5
OMIT 6 13 4
OMIT 6 -14 3
OMIT 6 14 3
OMIT 6 -16 3
OMIT 6 16 3
OMIT 6 -16 2
OMIT 6 -16 0
OMIT 6 16 0
OMIT 6 -16 -2
OMIT 6 16 -2
OMIT 6 -16 -3
OMIT 6 16 -3
OMIT 7 0 8
OMIT 7 -1 9
OMIT 7 1 9
OMIT 7 2 -9
OMIT 7 -3 10
OMIT 7 5 10
OMIT 7 5 -6
OMIT 7 -7 0
OMIT 7 7 -8
OMIT 7 -7 -9
OMIT 7 7 -9
OMIT 7 -8 7
OMIT 7 8 7
OMIT 7 -11 4
OMIT 7 11 4
OMIT 7 -12 2
OMIT 7 13 -1
OMIT 7 15 -2
OMIT 7 -16 3
OMIT 7 16 3
OMIT 8 0 10
OMIT 8 0 9
OMIT 8 0 -5
OMIT 8 0 -8
OMIT 8 -1 9
OMIT 8 1 9
OMIT 8 -1 -6
OMIT 8 1 -6
OMIT 8 -3 -7
OMIT 8 3 -7
OMIT 8 -3 -9
OMIT 8 3 -9
OMIT 8 -4 9
OMIT 8 -4 -9
OMIT 8 9 9
OMIT 8 -9 -8
OMIT 8 9 -8
OMIT 8 11 -1
OMIT 8 -11 -7
OMIT 8 11 -7
OMIT 8 -13 -1
OMIT 8 13 -1
OMIT 8 -13 -2
OMIT 8 13 -2
OMIT 8 -14 2
OMIT 8 14 2
OMIT 8 14 -5
OMIT 8 15 4
OMIT 8 -15 3
OMIT 8 15 3
OMIT 8 -16 1
OMIT 8 16 1
OMIT 9 0 10
OMIT 9 0 -8
OMIT 9 0 -9
OMIT 9 -1 9
OMIT 9 -2 9
OMIT 9 2 9
OMIT 9 -3 10
OMIT 9 3 10
OMIT 9 -3 8
OMIT 9 3 8
OMIT 9 -4 10
OMIT 9 4 10
OMIT 9 -7 8
OMIT 9 7 8
OMIT 9 7 -7
OMIT 9 -8 9
OMIT 9 -9 7
OMIT 9 -9 -2
OMIT 9 9 -2
OMIT 9 11 8
OMIT 9 -12 -4
OMIT 9 12 -4
OMIT 9 -15 3
OMIT 9 15 3
OMIT 9 -16 2
OMIT 9 16 2
OMIT 10 0 10
OMIT 10 0 2
OMIT 10 0 -5
OMIT 10 -4 10
OMIT 10 -5 6
OMIT 10 5 6
OMIT 10 -5 -8
OMIT 10 5 -8
OMIT 10 7 9
OMIT 10 -8 5
OMIT 10 8 5
OMIT 10 -10 -5
OMIT 10 10 -5
OMIT 10 -10 -6
OMIT 10 10 -6
OMIT 10 -10 -7
OMIT 10 10 -7
OMIT 10 12 5
OMIT 10 -13 2
OMIT 11 0 9
OMIT 11 0 8
OMIT 11 -1 10
OMIT 11 1 10
OMIT 11 -5 9
OMIT 11 -5 1
OMIT 11 5 1
OMIT 11 -7 6
OMIT 11 8 8
OMIT 11 8 -6
OMIT 11 -10 -6
OMIT 11 10 -6
OMIT 11 11 6
OMIT 11 11 5
OMIT 11 -12 3
OMIT 11 12 3
OMIT 11 -12 -4
OMIT 11 12 -4
OMIT 11 13 4
OMIT 11 -13 1
OMIT 11 13 1
OMIT 11 -13 -4
OMIT 11 13 -4
OMIT 11 -14 1
OMIT 11 14 1
OMIT 11 -14 -1
OMIT 11 14 -1
OMIT 11 -15 3
OMIT 11 15 3
OMIT 12 0 9
OMIT 12 0 1
OMIT 12 0 -6
OMIT 12 0 -8
OMIT 12 -2 -6
OMIT 12 2 -6
OMIT 12 -4 7
OMIT 12 4 7
OMIT 12 -5 6
OMIT 12 5 6
OMIT 12 -7 0
OMIT 12 7 0
OMIT 12 -9 5
OMIT 12 -10 2
OMIT 12 10 2
OMIT 12 -10 -4
OMIT 12 10 -4
OMIT 12 11 6
OMIT 12 -11 0
OMIT 12 11 0
OMIT 12 11 -4
OMIT 12 -12 3
OMIT 12 12 3
OMIT 12 12 -2
OMIT 12 -13 -3
OMIT 12 13 -3
OMIT 12 -15 1
OMIT 12 15 1
OMIT 12 -15 0
OMIT 13 0 -7
OMIT 13 -1 -6
OMIT 13 -3 6
OMIT 13 3 6
OMIT 13 -3 -8
OMIT 13 3 -8
OMIT 13 -5 8
OMIT 13 5 8
OMIT 13 -5 -5
OMIT 13 5 -5
OMIT 13 -6 -3
OMIT 13 6 -3
OMIT 13 -7 7
OMIT 13 -7 0
OMIT 13 7 0
OMIT 13 9 5
OMIT 13 9 -4
OMIT 13 -9 -6
OMIT 13 9 -6
OMIT 13 -11 -5
OMIT 13 11 -5
OMIT 13 -12 3
OMIT 13 -12 2
OMIT 13 12 -2
OMIT 13 -12 -3
OMIT 13 13 4
OMIT 13 -14 2
OMIT 13 14 2
OMIT 14 0 8
OMIT 14 0 -7
OMIT 14 -1 -7
OMIT 14 1 -7
OMIT 14 -2 9
OMIT 14 2 9
OMIT 14 -3 9
OMIT 14 -3 8
OMIT 14 3 8
OMIT 14 -5 -7
OMIT 14 7 -5
OMIT 14 -7 -6
OMIT 14 7 -6
OMIT 14 8 -5
OMIT 14 -10 0
OMIT 14 -11 -1
OMIT 14 11 -1
OMIT 14 -12 2
OMIT 14 12 2
OMIT 14 -12 -1
OMIT 14 13 1
OMIT 15 0 9
OMIT 15 0 -5
OMIT 15 0 -7
OMIT 15 -1 9
OMIT 15 1 9
OMIT 15 -1 -6
OMIT 15 1 -6
OMIT 15 -1 -7
OMIT 15 1 -7
OMIT 15 -2 -6
OMIT 15 -3 7
OMIT 15 3 7
OMIT 15 -3 -7
OMIT 15 -4 1
OMIT 15 4 1
OMIT 15 6 8
OMIT 15 6 -5
OMIT 15 -7 -3
OMIT 15 7 -3
OMIT 15 8 -5
OMIT 15 -10 4
OMIT 15 -12 3
OMIT 15 12 3
OMIT 15 -12 2
OMIT 15 -13 0
OMIT 16 0 5
OMIT 16 0 -4
OMIT 16 0 -5
OMIT 16 0 -6
OMIT 16 -4 8
OMIT 16 -4 -6
OMIT 16 -5 7
OMIT 16 5 7
OMIT 16 -6 7
OMIT 16 6 7
OMIT 16 -7 5
OMIT 16 -7 -4
OMIT 16 7 -4
OMIT 16 8 6
OMIT 16 -8 0
OMIT 16 8 0
OMIT 16 -8 -1
OMIT 16 8 -1
OMIT 16 -10 4
OMIT 16 10 4
OMIT 16 -10 0
OMIT 16 -11 3
OMIT 16 11 3
OMIT 16 -11 2
OMIT 16 11 2
OMIT 16 -12 0
OMIT 17 0 -5
OMIT 17 -3 6
OMIT 17 -5 6
OMIT 17 5 6
OMIT 17 -7 -4
OMIT 17 -8 5
OMIT 17 8 5
OMIT 17 -9 1
OMIT 17 9 1
OMIT 17 -9 -3
OMIT 17 9 -3
OMIT 17 -10 -2
OMIT 17 -11 1
OMIT 18 -1 0
OMIT 18 1 0
OMIT 18 2 7
OMIT 18 -2 4
OMIT 18 -2 -2
OMIT 18 2 -2
OMIT 18 -3 -4
OMIT 18 3 -4
OMIT 18 -5 5
OMIT 18 5 5
OMIT 18 -7 0
OMIT 18 7 0
OMIT 18 -8 3
OMIT 18 8 3
OMIT 18 -9 1
OMIT 18 9 1
OMIT 19 0 2
OMIT 19 0 -1
OMIT 19 2 6
OMIT 19 -3 5
OMIT 19 3 5
OMIT 19 -5 5
OMIT 19 -5 -1
OMIT 19 5 -1
OMIT 19 -6 4
OMIT 19 6 4
OMIT 19 -6 -2
OMIT 19 6 -2
OMIT 19 -7 4
OMIT 19 7 4
OMIT 19 -7 0
OMIT 19 7 0
OMIT 19 -7 -1
OMIT 19 7 -1
OMIT 19 -8 1
OMIT 19 -9 0
OMIT 19 9 0
OMIT 20 0 3
OMIT 20 0 0
OMIT 20 0 -3
OMIT 20 1 0
OMIT 20 -2 1
OMIT 20 2 1
OMIT 20 -3 2
OMIT 20 -3 -1
OMIT 20 3 -1
OMIT 20 -4 -3
OMIT 20 -5 0
OMIT 20 5 0
OMIT 20 5 -2
OMIT 20 -6 1
OMIT 20 6 1
OMIT 21 0 -2
OMIT 21 -1 4
OMIT 21 1 4
OMIT 21 -1 3
OMIT 21 1 3
OMIT 21 1 -1
OMIT 21 -1 -2
OMIT 21 1 -2
OMIT 21 -2 0
OMIT 21 3 3
OMIT 21 -3 -2
OMIT 21 -4 1
OMIT 21 4 1
OMIT 21 -6 1
OMIT 21 6 1
WGHT 0.017419 0.007764
FVAR 0.99978
REM <olex2.extras>
REM <HklSrc "%.\\L-ornithine.hkl">
REM </olex2.extras>

Cl1   2     0.42074  0.21959  0.40162  11.00000  0.00935  0.01116  0.01368 =
 -0.00067 -0.00214  0.00076 

O1    5    -0.00481 -0.06138 -0.17383  11.00000  0.01302  0.01299  0.00731 =
 -0.00082 -0.00254 -0.00239 
O2    5    -0.09586 -0.06694  0.25879  11.00000  0.00876  0.01793  0.00891 =
 0.00259 -0.00133 -0.00264 
N1    4     0.11001  0.14221  0.39043  11.00000  0.00941  0.00845  0.00891 =
 -0.00185 -0.00159  0.00035 
N2    4     0.35614 -0.53174 -0.07905  11.00000  0.01104  0.00944  0.01217 =
 -0.00204 -0.00182  0.00205 
C1    1    -0.00163 -0.03876  0.07539  11.00000  0.00838  0.00858  0.00684 =
 0.00036 -0.00168 -0.00056 
C2    1     0.13387  0.02198  0.16101  11.00000  0.00776  0.00804  0.00783 =
 -0.00068 -0.00108 -0.00019 
C3    1     0.21360 -0.12790  0.25235  11.00000  0.00958  0.00913  0.00999 =
 -0.00165 -0.00236  0.00175 
C4    1     0.25890 -0.24926  0.02337  11.00000  0.01166  0.00911  0.01011 =
 -0.00121 -0.00123  0.00226 
C5    1     0.32133 -0.40401  0.13668  11.00000  0.01152  0.00928  0.01080 =
 -0.00123 -0.00289  0.00184 
H1a   3     0.06190  0.25179  0.33287  11.00000  0.03031 
H1b   3     0.20382  0.17807  0.44539  11.00000  0.02523 
H1c   3     0.05213  0.08812  0.55934  11.00000  0.02770 
H2    3     0.19078  0.08791 -0.00828  11.00000  0.02411 
H3a   3     0.30107 -0.07972  0.33865  11.00000  0.02634 
H3b   3     0.15101 -0.19393  0.41416  11.00000  0.02331 
H4a   3     0.32887 -0.18809 -0.12956  11.00000  0.03045 
H4b   3     0.17395 -0.28559 -0.08156  11.00000  0.02689 
H5a   3     0.41259 -0.37238  0.22806  11.00000  0.02793 
H5b   3     0.25026 -0.45774  0.29365  11.00000  0.02907 
H2a   3     0.39615 -0.63974  0.00909  11.00000  0.02871 
H2b   3     0.43015 -0.48557 -0.22628  11.00000  0.02693 
H2c   3     0.27065 -0.56226 -0.17158  11.00000  0.03044 
HKLF 4

END
Q1 1 0.416667 0.188889 0.333333 11 0.05 0.3
Q2 1 0.266667 -0.277778 0.222222 11 0.05 0.28
Q3 1 0.016667 0 0.148148 11 0.05 0.2
Q4 1 0.266667 -0.355556 0.592593 11 0.05 0.19
Q5 1 0 -0.033333 -0.074074 11 0.05 0.19
Q6 1 0.433333 0.255556 0.518519 11 0.05 0.19
Q7 1 0.483333 -0.533333 -0.111111 11 0.05 0.18
Q8 1 0.15 -0.555556 0.037037 11 0.05 0.18
Q9 1 -0.066667 -0.077778 0.555556 11 0.05 0.16
Q10 1 0.516667 -0.411111 -0.333333 11 0.05 0.16
Q11 1 0.05 0.144444 0.814815 11 0.05 0.15
Q12 1 0.15 -0.533333 0.259259 11 0.05 0.15
Q13 1 0.25 -0.066667 -0.074074 11 0.05 0.15
Q14 1 0.2 -0.033333 -0.259259 11 0.05 0.15
Q15 1 0.366667 0.366667 0.444444 11 0.05 0.14
Q16 1 0.1 0 -0.259259 11 0.05 0.13
Q17 1 0.3 -0.477778 0.333333 11 0.05 0.13
Q18 1 0.166667 -0.066667 0.37037 11 0.05 0.12
Q19 1 0.316667 0.022222 -0.185185 11 0.05 0.12
Q20 1 0.066667 0.211111 0.518519 11 0.05 0.12

  REM The information below was added by Olex2.
  REM
  REM R1 = 0.0139 for 8330 Fo > 4sig(Fo) and 0.0139 for all 8330 data
  REM 143 parameters refined using 1 restraints
  REM Highest difference peak 0.3038, deepest hole -0.2098
  REM Mean Shift 0.0001, Max Shift 0.0004.

  REM +++ Tabular Listing of Refinement Information +++
  REM R1_all = 0.0139
  REM R1_gt = 0.0139
  REM wR_ref = 0.0304
  REM GOOF = 0.9514
  REM Shift_max = 0.0004
  REM Shift_mean = 0.0001
  REM Reflections_all = 8330
  REM Reflections_gt = 8330
  REM Parameters = 143
  REM Hole = -0.2098
  REM Peak = 0.3038
  REM Flack = 0.007(10)

  
;
_cod_data_source_file            42_TAAM_iso_max.cif
_cod_data_source_block           42_TAAM_iso_max
_cod_original_cell_volume        391.90(2)
_cod_original_sg_symbol_Hall     ' P 2yb'
_cod_database_code               2022070
_olex2_refinement_description
;
;
_iucr_refine_fcf_details
;
data_L-ornithine
_computing_structure_refinement   'olex2.refine (Bourhis et al., 2015)'
_shelx_refln_list_code            4
loop_
  _space_group_symop_id
  _space_group_symop_operation_xyz
  1  x,y,z
  2  -x,y+1/2,-z

_space_group_crystal_system       monoclinic
_space_group_IT_number            4
_space_group_name_H-M_alt         'P 1 21 1'
_space_group_name_Hall            ' P 2yb'
_symmetry_space_group_name_H-M    'P 1 21 1'
_symmetry_space_group_name_Hall   ' P 2yb'
_symmetry_Int_Tables_number       4
_cell_length_a                    9.948
_cell_length_b                    7.9637
_cell_length_c                    4.9826
_cell_angle_alpha                 90
_cell_angle_beta                  83.13
_cell_angle_gamma                 90
_cell_volume                      391.901799
loop_
  _refln_index_h
  _refln_index_k
  _refln_index_l
  _refln_F_squared_calc
  _refln_F_squared_meas
  _refln_F_squared_sigma
  _refln_F_squared_weight
  _refln_observed_status
-22 -2 -1 13.961 14.386 0.950 33.564 o
-22 -2 0 14.954 13.516 0.940 33.969 o
-22 -1 -2 13.630 11.555 0.880 38.883 o
-22 -1 -1 8.391 7.813 0.480 114.470 o
-22 -1 0 19.396 21.399 0.970 29.532 o
-21 -5 -3 5.274 5.122 0.760 57.451 o
-21 -5 -2 3.261 2.471 0.650 80.242 o
-21 -5 -1 7.677 7.143 0.710 62.118 o
-21 -5 0 17.875 18.238 0.680 51.396 o
-21 -4 -2 25.008 25.971 1.131 21.576 o
-21 -4 0 10.170 9.934 0.900 39.152 o
-21 -3 -4 9.653 8.544 0.800 48.753 o
-21 -3 -2 11.369 11.505 0.920 36.931 o
-21 -3 -1 5.042 5.442 0.820 49.935 o
-21 -3 0 16.047 15.577 0.970 31.548 o
-21 -2 -4 13.263 13.346 0.860 40.153 o
-21 -2 -3 4.895 3.782 0.810 51.601 o
-21 -2 -2 6.845 6.773 0.620 79.720 o
-21 -2 -1 3.992 3.031 0.860 46.605 o
-21 -1 -2 3.671 3.131 0.510 123.719 o
-21 -1 -1 9.837 10.104 0.590 79.097 o
-21 -1 0 4.771 5.542 0.540 106.386 o
-21 0 1 9.817 10.235 0.580 81.109 o
-21 2 1 7.547 8.274 0.740 57.448 o
-21 4 1 13.476 13.446 0.830 42.420 o
-20 -7 -2 13.853 13.126 0.900 37.033 o
-20 -7 -1 1.458 1.591 0.510 132.091 o
-20 -7 0 2.764 2.651 0.610 90.989 o
-20 -6 -4 6.214 5.282 0.990 34.721 o
-20 -6 -3 2.123 2.241 0.760 60.402 o
-20 -6 -2 8.534 6.423 0.680 66.430 o
-20 -6 0 28.797 30.573 0.800 31.852 o
-20 -5 -3 12.293 12.476 0.820 44.182 o
-20 -5 -2 13.046 12.585 0.960 33.569 o
-20 -5 -1 20.108 20.419 1.050 26.018 o
-20 -4 -5 12.711 14.046 0.890 38.016 o
-20 -4 -4 12.519 12.065 0.580 75.174 o
-20 -4 -2 2.698 2.481 0.720 66.537 o
-20 -4 -1 33.798 35.255 1.251 16.472 o
-20 -4 0 4.385 4.482 0.800 52.907 o
-20 -3 -5 5.691 4.742 0.790 53.349 o
-20 -3 -3 17.888 17.398 0.930 32.786 o
-20 -3 -1 12.069 12.445 0.900 37.894 o
-20 -3 0 23.465 23.390 1.070 24.099 o
-20 -2 -5 3.048 2.531 0.740 62.868 o
-20 -2 -4 6.899 5.232 0.760 56.317 o
-20 -2 -3 27.440 27.552 1.060 22.985 o
-20 -2 -2 4.376 3.942 0.510 120.620 o
-20 -2 0 36.451 37.436 0.870 24.779 o
-20 -1 -5 9.792 9.604 0.950 35.748 o
-20 -1 -4 31.281 31.424 1.131 19.800 o
-20 -1 -3 15.807 16.327 0.630 60.150 o
-20 -1 -2 18.809 17.598 0.560 64.369 o
-20 -1 -1 26.679 27.502 0.650 42.246 o
-20 -1 0 1.070 1.100 0.440 177.861 o
-20 0 1 43.024 46.490 0.930 20.000 o
-20 0 2 15.389 15.537 0.630 61.107 o
-20 1 1 13.765 13.466 0.620 65.787 o
-20 1 2 4.901 4.862 0.550 103.510 o
-20 1 3 6.698 6.273 0.580 89.901 o
-20 2 1 11.484 11.625 0.600 73.478 o
-20 2 2 1.805 1.871 0.700 71.235 o
-20 2 3 17.126 16.507 0.840 38.962 o
-20 3 2 14.110 13.936 0.840 41.153 o
-20 4 1 27.755 28.623 1.070 22.480 o
-20 4 2 7.797 6.863 0.730 59.193 o
-20 5 1 5.300 5.492 0.700 66.601 o
-20 6 1 8.365 7.583 0.550 93.403 o
-19 -9 -2 10.450 11.735 0.910 37.946 o
-19 -8 -3 2.913 2.261 0.840 49.384 o
-19 -8 -2 4.278 3.752 0.820 50.733 o
-19 -8 0 23.743 24.881 0.750 38.861 o
-19 -7 -3 14.073 14.556 0.930 34.711 o
-19 -7 -2 12.760 11.485 0.620 68.388 o
-19 -7 -1 2.369 1.841 0.520 124.579 o
-19 -6 -5 7.020 6.123 0.920 39.449 o
-19 -6 -3 9.754 8.764 0.820 46.589 o
-19 -6 -2 1.999 1.371 0.480 146.735 o
-19 -6 -1 5.348 4.932 0.530 109.203 o
-19 -6 0 11.261 10.985 0.470 104.200 o
-19 -5 -6 5.583 5.222 0.780 54.540 o
-19 -5 -4 9.370 8.254 0.560 88.214 o
-19 -5 -3 16.670 15.947 0.880 36.584 o
-19 -5 -2 4.585 4.722 0.800 52.734 o
-19 -5 -1 6.085 5.823 0.790 52.803 o
-19 -4 -6 7.313 6.563 0.760 55.577 o
-19 -4 -5 4.825 4.652 0.570 97.585 o
-19 -4 -4 9.157 8.924 0.810 47.885 o
-19 -4 -3 6.908 5.993 0.740 58.798 o
-19 -4 -2 9.830 8.524 0.880 41.173 o
-19 -4 -1 12.532 12.435 0.930 35.658 o
-19 -4 0 32.900 35.255 0.870 26.418 o
-19 -3 -6 7.682 8.124 0.810 48.934 o
-19 -3 -4 16.074 15.797 0.920 34.345 o
-19 -3 -3 10.695 11.705 0.830 44.353 o
-19 -3 -2 19.655 20.499 0.710 46.181 o
-19 -3 -1 29.839 31.604 0.820 30.264 o
-19 -3 0 5.296 4.522 0.430 155.334 o
-19 -2 -5 51.657 54.274 1.411 11.134 o
-19 -2 -4 13.822 15.317 0.910 35.938 o
-19 -2 -3 3.224 2.821 0.470 145.245 o
-19 -2 -2 16.657 16.337 0.460 85.068 o
-19 -2 -1 6.511 6.423 0.440 140.233 o
-19 -2 0 13.684 13.706 0.520 83.026 o
-19 -1 -6 11.994 12.045 0.650 64.329 o
-19 -1 -5 10.251 10.204 0.600 76.378 o
-19 -1 -4 33.133 34.305 0.850 27.196 o
-19 -1 -3 39.217 40.288 0.620 30.860 o
-19 -1 -2 33.279 34.005 0.580 38.403 o
-19 -1 -1 2.418 2.321 0.370 229.019 o
-19 -1 0 2.051 1.671 0.360 247.074 o
-19 0 2 3.370 3.191 0.360 226.901 o
-19 0 3 3.018 2.601 0.470 146.436 o
-19 0 4 2.069 1.861 0.440 171.101 o
-19 1 1 3.233 3.452 0.380 207.584 o
-19 1 2 39.432 41.108 0.620 30.511 o
-19 1 3 10.619 10.145 0.570 81.932 o
-19 1 4 5.541 5.352 0.550 101.631 o
-19 2 1 35.389 36.816 0.610 34.594 o
-19 2 2 2.415 2.171 0.540 115.581 o
-19 2 3 6.656 6.013 0.530 104.781 o
-19 2 4 14.800 15.197 0.840 40.478 o
-19 3 1 16.571 15.907 0.550 70.511 o
-19 3 2 4.466 4.492 0.660 75.542 o
-19 3 3 4.226 3.742 0.510 121.315 o
-19 3 4 9.721 9.654 0.740 55.249 o
-19 4 1 5.164 5.022 0.680 70.558 o
-19 4 2 11.652 10.915 0.780 48.873 o
-19 4 3 5.368 4.862 0.540 105.802 o
-19 5 2 13.609 14.546 0.850 40.469 o
-19 6 1 31.849 32.124 0.660 36.253 o
-19 7 2 3.142 2.811 0.440 163.646 o
-19 8 1 1.745 1.491 0.370 238.931 o
-18 -10 -2 5.579 5.182 0.650 75.962 o
-18 -10 -1 5.010 4.992 0.640 78.917 o
-18 -10 0 13.065 13.046 0.930 35.354 o
-18 -9 -3 36.707 37.426 1.261 15.728 o
-18 -9 -2 15.841 16.337 0.980 30.963 o
-18 -9 0 7.125 6.783 0.510 109.252 o
-18 -8 -4 3.319 2.661 0.840 49.125 o
-18 -8 -2 2.099 2.181 0.600 95.237 o
-18 -8 -1 40.004 42.269 0.910 21.838 o
-18 -8 0 7.770 8.514 0.810 48.777 o
-18 -7 -5 4.449 3.892 0.900 42.408 o
-18 -7 -4 34.444 33.935 1.191 17.657 o
-18 -7 -3 8.968 8.234 0.830 46.158 o
-18 -7 -2 6.551 6.963 0.540 100.789 o
-18 -7 -1 5.974 5.582 0.550 100.469 o
-18 -6 -5 15.613 16.147 0.940 33.269 o
-18 -6 -4 11.317 11.005 0.830 44.210 o
-18 -6 -3 2.045 1.951 0.660 79.537 o
-18 -6 -2 18.844 19.008 0.690 49.230 o
-18 -6 -1 23.417 24.341 1.080 23.659 o
-18 -6 0 33.842 34.705 0.680 33.312 o
-18 -5 -6 2.376 1.961 0.690 72.704 o
-18 -5 -4 14.530 14.796 0.650 59.908 o
-18 -5 -3 35.494 36.846 1.201 17.051 o
-18 -5 -2 36.297 37.406 1.261 15.786 o
-18 -5 -1 7.683 7.073 0.840 46.102 o
-18 -5 0 5.722 5.302 0.430 151.427 o
-18 -4 -6 26.996 28.413 1.131 20.938 o
-18 -4 -5 8.282 8.044 0.560 90.504 o
-18 -4 -4 15.123 15.307 0.930 34.189 o
-18 -4 -3 5.282 4.982 0.520 112.904 o
-18 -4 -2 15.048 14.716 0.630 62.001 o
-18 -4 -1 5.107 5.182 0.560 99.577 o
-18 -4 0 41.316 42.089 0.710 26.646 o
-18 -3 -7 2.199 1.721 0.690 72.968 o
-18 -3 -6 2.831 1.891 0.720 66.660 o
-18 -3 -5 7.303 7.043 0.780 52.908 o
-18 -3 -4 54.952 56.105 1.441 10.488 o
-18 -3 -3 5.623 5.753 0.520 111.040 o
-18 -3 -2 29.543 29.623 0.800 31.722 o
-18 -3 -1 9.806 9.154 0.450 118.085 o
-18 -3 0 10.128 9.834 0.470 109.314 o
-18 -2 -7 1.404 1.981 0.720 67.701 o
-18 -2 -6 12.042 12.175 0.860 41.004 o
-18 -2 -5 12.791 12.515 0.870 39.795 o
-18 -2 -3 6.522 6.513 0.330 208.792 o
-18 -2 -2 16.974 16.837 0.460 83.729 o
-18 -2 -1 31.761 32.844 0.610 38.526 o
-18 -2 0 20.101 19.469 0.490 69.968 o
-18 -1 -7 6.788 6.693 0.620 79.855 o
-18 -1 -6 4.962 4.582 0.580 94.454 o
-18 -1 -5 6.137 6.163 0.590 88.371 o
-18 -1 -4 21.206 21.189 0.490 66.542 o
-18 -1 -3 14.152 13.966 0.430 101.547 o
-18 -1 -2 21.047 21.119 0.480 68.097 o
-18 -1 -1 4.295 4.092 0.350 223.925 o
-18 0 1 1.241 1.161 0.290 382.982 o
-18 0 2 0.625 0.780 0.310 354.583 o
-18 0 3 20.485 20.169 0.500 67.391 o
-18 0 4 0.620 0.980 0.380 239.422 o
-18 0 5 4.962 4.652 0.470 135.418 o
-18 1 1 31.215 32.414 0.580 40.679 o
-18 1 2 7.437 7.203 0.360 177.180 o
-18 1 3 3.142 2.741 0.360 231.156 o
-18 1 4 1.837 1.821 0.490 140.944 o
-18 1 5 3.547 2.751 0.680 73.274 o
-18 2 1 3.183 2.501 0.390 202.538 o
-18 2 3 2.889 2.681 0.370 223.262 o
-18 2 4 7.304 7.563 0.700 63.819 o
-18 2 5 6.817 6.713 0.710 63.062 o
-18 3 1 8.020 7.833 0.400 149.367 o
-18 3 2 16.348 16.237 0.510 77.012 o
-18 3 3 19.480 19.749 0.650 52.123 o
-18 4 1 22.333 22.780 0.510 61.230 o
-18 4 2 0.997 0.960 0.360 261.663 o
-18 4 3 24.108 24.661 0.690 42.666 o
-18 4 4 2.851 2.851 0.710 68.069 o
-18 5 1 26.905 27.752 0.630 43.260 o
-18 5 2 10.191 10.645 0.560 84.424 o
-18 5 3 11.066 11.655 0.840 43.283 o
-18 6 1 4.850 4.762 0.450 145.729 o
-18 6 2 3.641 3.412 0.490 132.496 o
-18 6 3 21.757 22.250 0.700 44.663 o
-18 6 4 17.904 19.569 0.660 52.760 o
-18 7 1 15.909 15.537 0.470 85.910 o
-18 7 2 36.271 38.657 0.860 24.928 o
-18 8 1 16.894 17.338 0.910 34.327 o
-18 8 2 3.827 3.862 0.530 114.192 o
-18 8 3 15.077 15.987 0.920 34.689 o
-18 9 1 12.821 12.165 0.900 37.647 o
-18 9 2 5.505 5.662 0.580 92.541 o
-17 -11 -3 11.920 11.505 0.940 35.383 o
-17 -11 -2 5.517 4.852 0.650 76.231 o
-17 -11 0 16.300 16.347 0.970 31.343 o
-17 -10 -3 1.821 1.591 0.650 82.358 o
-17 -10 -2 2.864 2.751 0.750 61.322 o
-17 -10 -1 39.619 43.689 1.341 13.723 o
-17 -10 0 2.922 2.491 0.570 103.175 o
-17 -9 -3 14.184 12.946 0.930 34.965 o
-17 -9 -2 21.212 21.950 0.740 42.157 o
-17 -9 0 6.884 6.783 0.590 86.617 o
-17 -8 -4 1.868 1.681 0.730 65.682 o
-17 -8 -3 3.901 3.872 0.590 93.990 o
-17 -8 -2 45.756 46.620 0.760 22.813 o
-17 -8 -1 1.608 1.651 0.420 189.624 o
-17 -8 0 13.706 13.786 0.520 82.900 o
-17 -7 -5 11.270 10.074 0.870 41.031 o
-17 -7 -4 12.422 11.695 0.840 42.585 o
-17 -7 -3 42.669 42.489 0.890 21.510 o
-17 -7 -2 4.373 4.142 0.530 112.521 o
-17 -7 -1 16.005 15.347 0.440 91.897 o
-17 -7 0 22.803 22.670 0.620 50.122 o
-17 -6 -7 17.314 18.328 0.950 31.737 o
-17 -6 -6 2.132 2.411 0.820 52.067 o
-17 -6 -5 12.791 12.025 0.620 67.991 o
-17 -6 -4 2.376 1.911 0.490 139.041 o
-17 -6 -3 39.264 39.978 0.880 23.160 o
-17 -6 -2 12.372 11.435 0.870 40.229 o
-17 -6 -1 42.908 45.240 0.720 25.063 o
-17 -6 0 4.955 4.342 0.550 103.950 o
-17 -5 -7 1.997 1.931 0.740 63.795 o
-17 -5 -5 37.895 40.028 1.271 15.222 o
-17 -5 -4 78.079 80.395 1.161 9.366 o
-17 -5 -3 7.272 7.293 0.550 95.958 o
-17 -5 -2 4.277 4.042 0.740 61.462 o
-17 -5 -1 3.549 3.091 0.500 128.596 o
-17 -5 0 30.174 29.883 0.800 31.359 o
-17 -4 -7 3.243 2.961 0.790 55.234 o
-17 -4 -6 30.536 32.614 1.181 18.643 o
-17 -4 -5 1.453 1.141 0.480 149.067 o
-17 -4 -4 10.898 9.154 0.800 47.836 o
-17 -4 -3 14.541 14.616 0.630 62.671 o
-17 -4 -2 37.568 38.587 0.850 24.781 o
-17 -4 -1 19.799 19.108 0.670 50.205 o
-17 -4 0 47.204 48.781 0.650 24.260 o
-17 -3 -7 1.746 1.731 0.720 67.540 o
-17 -3 -4 29.640 29.683 1.100 21.086 o
-17 -3 -3 52.452 52.923 0.690 20.883 o
-17 -3 -2 3.661 3.972 0.320 264.805 o
-17 -3 -1 40.817 41.398 0.540 32.142 o
-17 -3 0 7.481 7.563 0.350 181.901 o
-17 -2 -8 8.586 7.413 0.630 74.842 o
-17 -2 -7 23.927 23.980 1.070 23.920 o
-17 -2 -6 19.652 19.288 0.700 47.529 o
-17 -2 -5 4.212 3.311 0.670 74.371 o
-17 -2 -4 8.519 8.574 0.440 127.649 o
-17 -2 -3 31.476 31.654 0.490 45.772 o
-17 -2 -2 10.465 10.124 0.380 139.924 o
-17 -2 -1 62.058 64.078 0.670 16.907 o
-17 -2 0 1.142 1.221 0.250 499.977 o
-17 -1 -8 9.432 9.624 0.650 68.742 o
-17 -1 -7 2.414 2.371 0.530 119.454 o
-17 -1 -6 2.144 1.781 0.490 140.008 o
-17 -1 -5 8.858 8.204 0.560 89.242 o
-17 -1 -4 36.147 36.216 0.670 31.957 o
-17 -1 -3 40.411 41.238 0.550 32.132 o
-17 -1 -2 8.294 7.743 0.360 169.383 o
-17 -1 -1 1.299 1.391 0.270 429.684 o
-17 -1 0 13.418 13.196 0.420 107.778 o
-17 0 1 3.256 3.001 0.300 305.875 o
-17 0 2 4.443 4.322 0.280 303.869 o
-17 0 3 6.548 6.663 0.370 178.913 o
-17 0 4 59.906 62.127 0.750 16.754 o
-17 0 6 2.676 2.201 0.720 66.660 o
-17 1 1 56.640 58.446 0.810 17.190 o
-17 1 2 12.760 12.525 0.340 136.972 o
-17 1 3 38.745 39.307 0.540 34.172 o
-17 1 4 2.772 3.021 0.620 87.983 o
-17 1 5 1.848 1.461 0.500 136.194 o
-17 1 6 6.702 7.133 0.710 62.979 o
-17 2 1 42.608 43.709 0.630 27.893 o
-17 2 2 34.706 36.226 0.590 36.090 o
-17 2 3 27.277 27.202 0.520 50.904 o
-17 2 4 2.465 2.471 0.440 167.705 o
-17 2 5 13.891 14.196 0.840 41.198 o
-17 2 6 4.969 4.122 0.670 73.157 o
-17 3 1 16.174 16.547 0.520 75.386 o
-17 3 2 32.015 32.895 0.570 40.345 o
-17 3 3 9.204 9.014 0.550 90.251 o
-17 3 5 3.907 3.592 0.640 81.147 o
-17 4 1 25.146 25.361 0.590 48.861 o
-17 4 2 11.888 11.815 0.450 106.721 o
-17 4 3 2.156 1.771 0.380 222.999 o
-17 4 4 30.945 34.155 1.141 19.361 o
-17 5 1 25.791 25.871 0.610 46.467 o
-17 5 2 10.476 10.495 0.560 84.038 o
-17 5 3 2.471 2.731 0.630 85.944 o
-17 5 4 9.702 9.944 0.560 85.989 o
-17 5 5 8.434 8.354 0.750 55.437 o
-17 6 1 3.830 3.432 0.410 179.104 o
-17 6 2 11.085 10.235 0.800 47.404 o
-17 6 3 29.886 31.694 0.640 38.782 o
-17 6 4 4.015 3.842 0.720 64.976 o
-17 6 5 3.317 3.301 0.710 67.503 o
-17 7 1 40.465 42.589 0.640 28.954 o
-17 7 2 11.179 11.695 0.590 75.728 o
-17 7 3 2.953 2.771 0.490 135.760 o
-17 7 4 1.277 1.211 0.520 128.244 o
-17 8 1 17.319 17.378 0.500 75.659 o
-17 8 2 6.193 5.983 0.550 99.587 o
-17 8 3 14.375 14.266 0.900 36.588 o
-17 8 4 3.121 3.181 0.740 62.590 o
-17 9 1 20.935 21.249 0.580 56.778 o
-17 9 2 7.519 6.983 0.580 87.841 o
-17 10 1 1.943 1.641 0.400 205.261 o
-17 10 2 1.680 1.601 0.450 166.483 o
-16 -12 -2 6.523 6.263 0.930 38.804 o
-16 -12 -1 7.287 7.933 0.870 43.245 o
-16 -11 -1 10.635 9.804 0.620 72.367 o
-16 -11 0 5.994 5.122 0.730 61.305 o
-16 -10 -3 7.263 6.513 0.580 88.701 o
-16 -10 -2 24.826 26.412 0.800 34.885 o
-16 -10 -1 7.425 7.623 0.590 85.030 o
-16 -9 -4 9.243 8.434 0.830 45.965 o
-16 -9 -3 14.601 14.886 0.950 33.260 o
-16 -9 -2 2.715 2.861 0.500 131.456 o
-16 -9 -1 12.922 13.106 0.520 85.232 o
-16 -9 0 13.647 12.776 0.520 84.063 o
-16 -8 -5 2.699 1.981 0.780 57.184 o
-16 -8 -4 8.000 8.134 0.820 47.701 o
-16 -8 -3 9.538 9.054 0.580 82.577 o
-16 -8 -2 13.473 13.006 0.510 86.264 o
-16 -8 -1 5.953 6.013 0.440 143.515 o
-16 -7 -4 25.337 24.861 1.080 23.159 o
-16 -7 -3 1.244 1.271 0.420 192.862 o
-16 -7 -2 2.352 2.291 0.410 191.586 o
-16 -7 -1 1.404 1.431 0.310 334.241 o
-16 -7 0 35.231 36.206 0.540 37.853 o
-16 -6 -6 8.389 8.094 0.790 50.739 o
-16 -6 -5 1.006 1.151 0.460 163.490 o
-16 -6 -4 4.100 3.462 0.500 126.388 o
-16 -6 -3 24.559 25.091 0.520 55.553 o
-16 -6 -2 6.413 6.123 0.520 108.560 o
-16 -6 -1 6.685 6.183 0.420 150.044 o
-16 -6 0 5.153 4.592 0.340 222.688 o
-16 -5 -6 7.964 8.384 0.780 52.066 o
-16 -5 -5 18.776 18.258 0.650 53.573 o
-16 -5 -4 5.755 5.262 0.480 127.051 o
-16 -5 -3 39.391 40.158 0.860 23.619 o
-16 -5 -2 9.048 8.474 0.540 93.694 o
-16 -5 -1 76.331 77.954 0.870 11.444 o
-16 -5 0 6.836 7.153 0.540 99.947 o
-16 -4 -7 26.879 27.762 1.100 21.881 o
-16 -4 -5 1.127 1.100 0.420 194.045 o
-16 -4 -4 17.154 16.437 0.900 35.008 o
-16 -4 -3 18.066 18.038 0.640 55.491 o
-16 -4 -2 29.537 28.433 0.740 34.878 o
-16 -4 -1 24.992 25.431 0.430 62.970 o
-16 -4 0 8.981 8.634 0.360 161.958 o
-16 -3 -7 1.425 1.861 0.690 73.588 o
-16 -3 -6 5.663 5.973 0.760 56.904 o
-16 -3 -5 63.611 65.199 1.521 8.874 o
-16 -3 -4 39.142 39.998 0.850 23.997 o
-16 -3 -3 4.714 4.792 0.330 236.010 o
-16 -3 -2 12.775 12.866 0.390 119.500 o
-16 -3 -1 1.119 1.301 0.250 499.299 o
-16 -3 0 61.134 61.847 0.620 17.973 o
-16 -2 -8 41.876 44.469 0.940 20.344 o
-16 -2 -7 10.223 9.604 0.810 47.089 o
-16 -2 -6 1.280 1.381 0.500 138.032 o
-16 -2 -5 3.847 3.071 0.500 127.730 o
-16 -2 -4 1.333 0.960 0.360 258.118 o
-16 -2 -3 91.305 91.260 0.830 9.172 o
-16 -2 -2 69.406 70.151 0.730 14.146 o
-16 -2 -1 38.972 39.867 0.510 34.862 o
-16 -2 0 8.310 7.773 0.300 207.870 o
-16 -1 -8 10.141 9.764 0.630 71.260 o
-16 -1 -7 6.579 6.913 0.570 92.187 o
-16 -1 -6 15.653 15.977 0.660 56.835 o
-16 -1 -5 40.948 41.628 0.690 27.482 o
-16 -1 -4 31.351 30.924 0.530 43.979 o
-16 -1 -3 51.821 50.912 0.590 23.182 o
-16 -1 -2 8.589 8.174 0.350 171.605 o
-16 -1 -1 39.069 38.427 0.490 36.016 o
-16 -1 0 98.922 101.054 0.750 8.283 o
-16 0 1 16.005 16.117 0.340 113.144 o
-16 0 2 182.460 186.482 0.930 2.872 o
-16 0 3 51.928 53.173 0.600 22.539 o
-16 1 1 38.858 38.017 0.470 37.050 o
-16 1 2 8.330 8.194 0.300 205.551 o
-16 1 3 12.070 11.915 0.360 134.975 o
-16 1 4 14.748 14.146 0.440 97.101 o
-16 1 5 22.444 22.800 0.590 53.120 o
-16 1 6 11.548 11.215 0.500 95.109 o
-16 2 1 52.440 53.253 0.530 23.488 o
-16 2 2 8.839 8.484 0.330 180.287 o
-16 2 3 9.548 9.144 0.430 126.365 o
-16 2 4 45.596 47.101 0.760 22.785 o
-16 2 6 12.285 12.085 0.820 44.294 o
-16 3 1 54.534 54.854 0.650 20.547 o
-16 3 2 7.783 7.813 0.350 178.710 o
-16 3 3 14.667 14.957 0.430 98.457 o
-16 3 4 16.370 16.497 0.670 54.701 o
-16 3 5 9.225 9.984 0.790 49.646 o
-16 4 1 1.853 1.601 0.390 215.787 o
-16 4 2 35.072 35.596 0.560 37.345 o
-16 4 3 13.352 13.016 0.470 95.518 o
-16 4 4 13.475 13.726 0.510 85.477 o
-16 4 5 1.514 1.891 0.680 75.612 o
-16 5 1 4.083 3.802 0.390 191.550 o
-16 5 2 20.837 20.059 0.640 51.587 o
-16 5 3 1.038 1.000 0.380 235.709 o
-16 5 4 3.294 2.831 0.420 176.627 o
-16 5 5 6.432 6.453 0.510 111.545 o
-16 5 6 12.268 13.426 0.870 39.826 o
-16 6 1 6.631 6.413 0.430 144.632 o
-16 6 2 9.613 8.974 0.430 126.445 o
-16 6 3 12.686 13.406 0.600 70.435 o
-16 6 4 1.332 1.391 0.510 132.724 o
-16 6 5 0.945 1.100 0.470 157.193 o
-16 7 1 16.776 15.687 0.520 75.068 o
-16 7 2 1.119 1.020 0.400 213.212 o
-16 7 3 1.641 1.351 0.530 122.571 o
-16 7 5 15.513 15.527 0.880 37.185 o
-16 8 2 18.085 19.669 0.960 30.731 o
-16 8 3 2.604 2.421 0.420 181.668 o
-16 8 4 9.717 9.154 0.560 86.704 o
-16 9 1 6.291 6.013 0.400 163.778 o
-16 9 2 3.963 3.512 0.520 118.228 o
-16 9 3 4.338 3.862 0.710 66.419 o
-16 9 4 6.913 6.593 0.750 57.181 o
-16 10 1 3.561 3.271 0.370 214.958 o
-16 10 2 8.290 7.313 0.480 115.559 o
-16 10 3 18.190 19.789 0.980 29.694 o
-16 11 1 17.534 17.888 0.560 66.031 o
-16 11 2 4.089 3.732 0.480 135.302 o
-16 12 1 14.500 12.435 0.890 37.601 o
-15 -13 -2 5.024 4.732 0.870 44.845 o
-15 -13 -1 10.068 11.005 0.920 37.502 o
-15 -12 0 12.733 13.526 0.940 34.748 o
-15 -11 -3 1.765 1.801 0.620 90.161 o
-15 -11 -2 10.100 9.924 0.620 73.016 o
-15 -11 -1 18.266 18.108 0.720 47.336 o
-15 -11 0 2.831 2.571 0.550 110.363 o
-15 -10 -3 70.579 72.722 1.201 10.183 o
-15 -10 -2 2.778 2.541 0.530 118.358 o
-15 -10 -1 6.293 6.253 0.560 96.151 o
-15 -10 0 2.467 2.531 0.520 123.421 o
-15 -9 -4 12.113 11.085 0.870 40.425 o
-15 -9 -3 10.004 9.444 0.600 77.328 o
-15 -9 -2 16.480 15.897 0.950 32.443 o
-15 -9 -1 7.008 6.133 0.790 52.164 o
-15 -9 0 51.344 53.434 0.690 21.159 o
-15 -8 -5 9.584 7.493 0.830 46.032 o
-15 -8 -4 27.656 26.172 1.090 22.181 o
-15 -8 -3 16.443 16.677 0.670 54.541 o
-15 -8 -2 53.517 54.284 0.790 18.765 o
-15 -8 -1 1.843 1.861 0.380 225.225 o
-15 -8 0 2.008 1.881 0.320 302.867 o
-15 -7 -6 7.055 6.753 0.770 54.401 o
-15 -7 -5 28.852 30.543 1.161 19.599 o
-15 -7 -4 14.804 14.156 0.640 61.276 o
-15 -7 -3 9.031 8.324 0.550 91.296 o
-15 -7 -2 12.037 11.065 0.460 104.597 o
-15 -7 -1 86.540 87.959 0.940 9.338 o
-15 -7 0 23.251 23.670 0.440 66.530 o
-15 -6 -7 37.277 39.877 1.251 15.650 o
-15 -6 -6 2.336 2.331 0.710 68.696 o
-15 -6 -5 9.361 8.264 0.540 93.251 o
-15 -6 -4 11.896 11.265 0.580 76.822 o
-15 -6 -3 39.054 39.137 0.590 32.295 o
-15 -6 -2 35.271 35.826 1.131 18.617 o
-15 -6 -1 37.170 37.987 0.560 34.970 o
-15 -6 0 0.703 0.810 0.310 352.821 o
-15 -5 -7 5.103 6.433 0.760 57.127 o
-15 -5 -6 29.902 29.203 1.131 20.287 o
-15 -5 -5 16.364 16.327 0.620 60.757 o
-15 -5 -4 31.020 31.594 1.100 20.594 o
-15 -5 -3 3.980 3.942 0.380 199.987 o
-15 -5 -2 36.129 35.636 0.630 33.695 o
-15 -5 -1 21.016 21.139 0.440 73.237 o
-15 -5 0 98.289 99.804 0.830 8.153 o
-15 -4 -8 38.006 41.038 0.900 22.861 o
-15 -4 -7 7.309 7.253 0.750 56.657 o
-15 -4 -6 3.177 3.001 0.650 80.035 o
-15 -4 -5 17.810 16.977 0.610 59.849 o
-15 -4 -4 46.171 45.990 1.261 13.895 o
-15 -4 -3 51.452 50.792 0.910 17.805 o
-15 -4 -2 54.098 53.884 0.910 16.879 o
-15 -4 0 11.288 10.895 0.360 141.745 o
-15 -3 -6 37.475 36.696 1.211 16.563 o
-15 -3 -5 37.703 40.398 1.211 16.245 o
-15 -3 -4 1.715 1.601 0.430 181.054 o
-15 -3 -3 37.741 37.116 0.550 35.257 o
-15 -3 -2 11.805 10.975 0.370 134.973 o
-15 -3 -1 100.188 101.295 0.650 8.432 o
-15 -3 0 50.755 52.253 0.520 24.575 o
-15 -2 -8 2.734 2.471 0.550 110.678 o
-15 -2 -7 19.618 19.909 1.000 28.319 o
-15 -2 -6 2.780 2.741 0.510 126.764 o
-15 -2 -5 26.987 28.172 0.730 37.000 o
-15 -2 -4 57.794 57.225 0.650 19.190 o
-15 -2 -3 17.258 16.927 0.410 92.210 o
-15 -2 -2 20.126 20.119 0.380 85.019 o
-15 -2 -1 18.859 18.338 0.360 94.603 o
-15 -2 0 17.910 17.818 0.320 106.468 o
-15 -1 -8 2.726 3.071 0.510 126.453 o
-15 -1 -7 27.964 29.843 0.800 32.432 o
-15 -1 -6 14.019 14.156 0.620 65.020 o
-15 -1 -5 13.073 12.456 0.380 122.234 o
-15 -1 -4 18.262 17.598 0.420 86.711 o
-15 -1 -3 12.074 11.625 0.370 132.057 o
-15 -1 -2 48.564 48.761 0.520 26.372 o
-15 -1 -1 29.179 29.723 0.420 54.075 o
-15 -1 0 50.373 50.982 0.530 24.841 o
-15 0 1 88.415 89.279 0.630 10.370 o
-15 0 2 35.984 35.646 0.440 41.751 o
-15 0 3 8.603 7.493 0.320 192.627 o
-15 0 4 19.373 19.679 0.670 50.334 o
-15 0 6 26.418 27.642 0.780 34.781 o
-15 1 1 1.285 1.100 0.210 665.878 o
-15 1 2 7.550 6.983 0.270 245.756 o
-15 1 3 26.750 26.662 0.440 58.294 o
-15 1 4 11.297 11.465 0.410 121.889 o
-15 1 5 12.534 12.355 0.630 66.538 o
-15 2 1 26.885 26.552 0.380 63.201 o
-15 2 2 24.844 24.591 0.380 68.899 o
-15 2 3 62.544 64.408 0.570 17.776 o
-15 2 4 15.445 15.787 0.460 88.706 o
-15 2 5 1.333 0.970 0.380 233.305 o
-15 2 7 10.037 9.504 0.770 51.494 o
-15 3 1 6.370 5.923 0.280 260.038 o
-15 3 2 2.476 1.941 0.260 413.534 o
-15 3 3 18.251 18.508 0.440 82.202 o
-15 3 4 10.493 10.094 0.470 107.806 o
-15 3 5 25.342 25.731 0.760 37.028 o
-15 3 6 3.432 2.951 0.690 71.300 o
-15 4 1 37.632 38.147 0.550 34.973 o
-15 4 2 21.053 20.899 0.460 70.808 o
-15 4 3 21.744 21.509 0.670 47.396 o
-15 4 4 22.517 21.780 0.580 54.563 o
-15 4 5 8.195 7.563 0.470 119.098 o
-15 4 6 8.050 8.574 0.760 54.368 o
-15 5 1 65.275 65.949 0.830 14.409 o
-15 5 2 2.409 2.271 0.320 293.947 o
-15 5 3 31.011 32.124 0.780 31.282 o
-15 5 4 1.706 1.681 0.440 173.310 o
-15 5 5 33.827 35.155 1.181 17.866 o
-15 5 6 2.949 2.671 0.720 66.270 o
-15 6 1 35.095 35.025 0.650 33.713 o
-15 6 2 37.265 38.637 0.670 30.681 o
-15 6 3 27.229 28.943 0.610 43.776 o
-15 6 4 2.973 2.331 0.650 80.650 o
-15 6 6 8.480 8.004 0.560 90.159 o
-15 7 1 3.121 2.401 0.370 222.465 o
-15 7 2 18.121 17.878 0.520 70.701 o
-15 7 4 50.973 54.554 1.431 10.990 o
-15 7 5 10.125 10.465 0.560 84.715 o
-15 7 6 4.348 4.452 0.810 51.711 o
-15 8 1 12.399 11.515 0.380 127.288 o
-15 8 2 44.945 44.830 0.920 19.925 o
-15 8 3 8.115 7.753 0.520 102.295 o
-15 8 4 12.134 12.365 0.870 40.126 o
-15 9 1 20.182 20.519 0.460 72.863 o
-15 9 2 1.766 1.501 0.420 189.138 o
-15 9 3 10.758 10.995 0.830 44.507 o
-15 9 4 5.248 5.152 0.510 116.532 o
-15 9 5 6.477 6.223 0.810 50.116 o
-15 10 1 11.331 10.715 0.390 130.418 o
-15 10 2 14.316 14.056 0.510 83.330 o
-15 10 3 7.179 6.733 0.750 56.939 o
-15 10 4 2.921 2.801 0.540 113.714 o
-15 11 1 4.474 4.202 0.450 148.506 o
-15 11 2 6.659 5.993 0.570 92.895 o
-15 11 3 4.188 3.842 0.780 55.792 o
-15 12 1 7.523 7.233 0.470 121.894 o
-15 12 2 6.602 6.483 0.580 89.885 o
-14 -13 -3 1.994 1.831 0.740 63.831 o
-14 -13 -2 19.404 19.649 0.700 47.585 o
-14 -13 -1 1.305 1.411 0.540 118.949 o
-14 -13 0 4.142 3.862 0.860 46.376 o
-14 -12 -3 15.636 16.877 0.990 30.428 o
-14 -12 -1 4.245 3.922 0.770 57.105 o
-14 -11 -3 4.173 3.452 0.540 110.121 o
-14 -11 -2 9.059 8.984 0.600 79.122 o
-14 -11 -1 8.524 8.444 0.600 80.363 o
-14 -11 0 21.964 23.300 1.080 24.112 o
-14 -10 -3 14.356 13.486 0.650 60.829 o
-14 -10 -2 2.239 2.551 0.500 133.363 o
-14 -10 -1 8.668 8.804 0.590 82.029 o
-14 -9 -4 3.125 2.701 0.510 125.853 o
-14 -9 -3 1.609 1.301 0.460 160.674 o
-14 -9 -2 28.302 28.883 0.790 32.976 o
-14 -9 -1 71.350 74.032 1.131 10.524 o
-14 -9 0 3.998 3.432 0.340 240.636 o
-14 -8 -4 16.880 16.787 0.660 55.163 o
-14 -8 -3 52.490 53.924 0.980 16.197 o
-14 -8 -2 3.561 3.181 0.380 206.091 o
-14 -8 -1 8.826 7.683 0.360 166.042 o
-14 -8 0 38.190 38.757 0.580 33.301 o
-14 -7 -7 19.314 20.709 1.000 28.291 o
-14 -7 -6 30.660 32.234 1.161 19.118 o
-14 -7 -5 14.571 13.956 0.600 67.390 o
-14 -7 -4 17.164 16.347 0.520 73.753 o
-14 -7 -3 84.757 85.958 1.040 9.132 o
-14 -7 -2 53.773 53.624 0.750 19.408 o
-14 -7 -1 16.541 15.707 0.470 84.232 o
-14 -7 0 21.325 20.529 0.460 70.642 o
-14 -6 -8 42.299 44.840 1.261 14.472 o
-14 -6 -7 19.387 18.978 0.700 47.875 o
-14 -6 -6 1.360 1.431 0.620 90.942 o
-14 -6 -5 51.681 54.104 1.391 11.336 o
-14 -6 -4 31.880 31.744 0.760 31.796 o
-14 -6 -3 25.762 26.172 0.490 55.850 o
-14 -6 -2 22.686 22.610 0.450 67.396 o
-14 -6 -1 42.435 43.179 0.570 29.783 o
-14 -6 0 31.794 31.624 0.510 44.337 o
-14 -5 -8 37.404 38.927 0.880 23.924 o
-14 -5 -7 7.313 7.123 0.750 56.702 o
-14 -5 -6 20.711 21.359 1.000 27.787 o
-14 -5 -5 12.569 12.275 0.550 80.616 o
-14 -5 -4 9.539 8.954 0.700 61.103 o
-14 -5 -3 32.683 31.864 0.600 38.702 o
-14 -5 -2 62.922 63.398 0.580 17.710 o
-14 -5 -1 106.749 108.037 0.770 7.334 o
-14 -5 0 15.188 15.097 0.390 106.051 o
-14 -4 -9 9.906 11.045 1.030 30.686 o
-14 -4 -8 3.874 3.962 0.630 83.342 o
-14 -4 -7 19.465 19.428 0.970 29.827 o
-14 -4 -6 2.738 2.641 0.600 93.909 o
-14 -4 -5 19.383 18.878 0.620 55.760 o
-14 -4 -4 148.517 149.126 2.071 2.963 o
-14 -4 -3 7.352 6.653 0.380 167.390 o
-14 -4 -2 5.292 5.062 0.240 338.531 o
-14 -4 -1 13.050 12.656 0.290 153.195 o
-14 -4 0 104.387 104.796 0.660 7.895 o
-14 -3 -7 22.680 23.881 1.040 25.305 o
-14 -3 -6 73.131 77.234 1.621 7.367 o
-14 -3 -5 10.880 9.674 0.730 55.581 o
-14 -3 -4 15.181 14.746 0.570 70.550 o
-14 -3 -3 81.308 80.515 0.740 11.361 o
-14 -3 -2 65.593 65.279 0.660 16.039 o
-14 -3 -1 60.379 61.297 0.500 19.588 o
-14 -3 0 21.662 21.099 0.320 88.032 o
-14 -2 -8 25.238 26.542 0.800 34.637 o
-14 -2 -7 4.055 3.802 0.680 72.266 o
-14 -2 -6 2.863 2.461 0.470 147.290 o
-14 -2 -5 18.771 19.048 0.610 57.459 o
-14 -2 -4 14.837 14.777 0.380 110.424 o
-14 -2 -3 88.911 88.979 0.830 9.529 o
-14 -2 -2 34.973 35.236 0.440 42.932 o
-14 -2 -1 82.516 82.056 0.560 11.960 o
-14 -2 0 22.508 22.270 0.340 81.402 o
-14 -1 -9 3.108 2.181 0.860 47.122 o
-14 -1 -8 14.624 15.487 0.560 72.454 o
-14 -1 -7 8.386 8.334 0.550 92.594 o
-14 -1 -6 15.322 15.507 0.620 62.533 o
-14 -1 -5 23.634 23.740 0.530 56.730 o
-14 -1 -4 14.823 14.376 0.380 111.239 o
-14 -1 -3 61.571 60.416 0.640 17.823 o
-14 -1 -2 69.068 68.700 0.570 15.641 o
-14 -1 -1 87.345 88.129 0.640 10.535 o
-14 -1 0 43.205 42.539 0.390 34.417 o
-14 0 1 45.621 45.250 0.450 30.421 o
-14 0 2 20.416 20.539 0.380 83.696 o
-14 0 3 23.273 22.880 0.450 66.106 o
-14 0 4 2.466 2.111 0.370 229.530 o
-14 0 6 17.605 17.508 0.430 86.751 o
-14 1 1 13.891 13.176 0.290 145.980 o
-14 1 2 6.721 6.603 0.230 304.291 o
-14 1 3 26.118 26.181 0.420 61.379 o
-14 1 4 57.352 56.425 0.790 17.529 o
-14 1 5 6.360 5.152 0.420 154.202 o
-14 1 6 2.579 1.921 0.520 123.926 o
-14 2 1 121.322 122.334 0.740 6.020 o
-14 2 2 14.184 13.476 0.300 139.929 o
-14 2 3 12.189 11.715 0.370 131.284 o
-14 2 4 9.074 8.194 0.370 157.566 o
-14 2 5 9.600 9.124 0.470 112.052 o
-14 2 6 20.159 20.199 0.570 59.508 o
-14 3 1 13.046 12.646 0.310 145.804 o
-14 3 2 59.784 59.766 0.580 19.107 o
-14 3 3 40.084 40.938 0.570 31.788 o
-14 3 4 11.710 11.725 0.470 101.834 o
-14 3 5 28.105 28.532 0.630 41.946 o
-14 3 6 5.905 4.982 0.680 69.834 o
-14 3 7 5.143 5.572 0.700 66.706 o
-14 4 1 23.054 22.370 0.380 75.062 o
-14 4 2 63.441 64.038 0.670 16.581 o
-14 4 3 21.113 20.919 0.640 50.887 o
-14 4 4 50.707 53.073 0.960 16.935 o
-14 4 5 5.520 5.002 0.420 158.844 o
-14 4 6 10.799 11.325 0.820 45.321 o
-14 5 1 13.429 12.686 0.440 103.256 o
-14 5 2 16.340 16.297 0.410 95.824 o
-14 5 3 23.343 23.941 0.540 56.033 o
-14 5 4 78.677 81.816 1.171 9.194 o
-14 5 5 6.016 5.642 0.430 149.244 o
-14 5 6 4.177 3.762 0.510 121.423 o
-14 6 1 121.891 124.815 1.090 5.357 o
-14 6 2 5.838 5.883 0.370 186.762 o
-14 6 3 5.077 3.722 0.460 141.697 o
-14 6 4 9.293 8.844 0.550 90.243 o
-14 6 5 28.102 28.973 0.780 33.538 o
-14 6 6 7.145 7.453 0.540 98.934 o
-14 7 1 7.054 6.223 0.410 153.401 o
-14 7 2 36.817 37.276 0.660 31.658 o
-14 7 3 86.998 90.130 0.960 9.100 o
-14 7 4 7.928 7.493 0.540 97.171 o
-14 8 1 15.691 15.017 0.380 106.819 o
-14 8 2 60.024 63.498 1.000 13.791 o
-14 8 3 4.245 3.782 0.400 182.852 o
-14 8 4 8.599 8.974 0.550 91.512 o
-14 8 6 31.089 34.395 0.810 29.498 o
-14 9 1 23.185 22.740 0.580 53.236 o
-14 9 2 5.419 4.852 0.350 210.001 o
-14 9 3 15.707 17.038 0.870 37.437 o
-14 9 4 30.004 31.414 0.800 31.079 o
-14 9 5 3.040 2.701 0.530 117.525 o
-14 10 1 44.462 45.880 0.750 23.626 o
-14 10 2 4.675 4.322 0.530 111.570 o
-14 10 3 9.306 9.454 0.540 92.106 o
-14 10 4 4.660 4.812 0.510 118.622 o
-14 10 5 18.011 18.268 0.660 53.293 o
-14 11 2 8.180 7.053 0.460 123.833 o
-14 11 3 6.099 5.412 0.730 61.110 o
-14 11 4 2.730 2.841 0.560 106.664 o
-14 12 1 1.542 1.321 0.500 137.330 o
-14 12 2 14.108 14.546 0.890 37.320 o
-14 12 3 1.748 1.471 0.610 93.284 o
-14 13 1 6.363 5.803 0.410 158.129 o
-14 13 2 6.368 6.123 0.550 99.071 o
-13 -14 -1 23.346 25.081 0.610 49.215 o
-13 -14 0 6.831 7.053 0.510 109.675 o
-13 -13 -3 26.863 28.363 1.161 20.163 o
-13 -13 -2 9.637 10.155 0.600 77.347 o
-13 -13 -1 7.285 6.623 0.560 93.830 o
-13 -13 0 33.364 36.556 0.850 26.678 o
-13 -12 -1 12.864 12.906 0.630 65.780 o
-13 -12 0 26.659 28.523 0.780 34.416 o
-13 -11 -3 13.074 13.096 0.930 35.342 o
-13 -11 -2 48.213 48.831 0.990 17.415 o
-13 -11 -1 19.570 20.119 0.720 45.558 o
-13 -11 0 4.511 4.262 0.420 166.071 o
-13 -10 -4 14.997 15.087 0.810 42.784 o
-13 -10 -3 6.455 5.522 0.520 109.214 o
-13 -10 -2 1.538 1.000 0.420 191.931 o
-13 -10 -1 26.481 26.662 0.770 35.548 o
-13 -10 0 21.393 22.440 0.720 43.338 o
-13 -9 -4 2.652 2.691 0.500 131.904 o
-13 -9 -3 23.406 22.570 0.720 41.847 o
-13 -9 -2 22.973 23.000 0.700 43.441 o
-13 -9 -1 18.877 18.648 0.650 53.274 o
-13 -9 0 4.007 3.942 0.330 248.817 o
-13 -8 -4 12.593 11.645 0.590 73.588 o
-13 -8 -3 13.908 14.056 0.600 68.243 o
-13 -8 -2 18.587 18.568 0.500 72.146 o
-13 -8 -1 3.178 3.161 0.350 239.658 o
-13 -8 0 27.953 27.142 0.490 52.370 o
-13 -7 -6 1.673 1.891 0.690 73.358 o
-13 -7 -5 3.412 2.971 0.470 144.258 o
-13 -7 -4 22.822 21.419 0.540 58.372 o
-13 -7 -3 18.092 18.628 0.430 84.114 o
-13 -7 -2 11.857 11.245 0.430 113.716 o
-13 -7 -1 30.407 30.423 0.500 46.961 o
-13 -6 -8 7.067 6.553 0.830 47.551 o
-13 -6 -7 8.305 8.474 0.580 85.184 o
-13 -6 -6 6.471 6.803 0.750 57.424 o
-13 -6 -5 28.065 28.883 1.050 22.984 o
-13 -6 -4 14.365 13.416 0.460 94.598 o
-13 -6 -3 25.066 24.041 0.460 61.128 o
-13 -6 -2 36.407 35.746 0.510 38.374 o
-13 -6 -1 38.221 37.356 0.510 36.330 o
-13 -6 0 44.963 44.780 0.560 28.266 o
-13 -5 -9 3.828 4.282 1.020 33.443 o
-13 -5 -7 20.502 21.189 0.710 45.255 o
-13 -5 -6 29.026 29.323 1.080 21.817 o
-13 -5 -5 8.960 8.304 0.480 111.977 o
-13 -5 -4 8.292 8.044 0.680 65.848 o
-13 -5 -3 30.435 29.813 0.560 43.616 o
-13 -5 -2 32.277 32.174 0.470 45.775 o
-13 -5 -1 14.630 14.176 0.320 129.321 o
-13 -5 0 25.356 25.131 0.400 65.446 o
-13 -4 -8 9.124 8.224 0.610 77.532 o
-13 -4 -7 11.061 11.475 0.830 44.221 o
-13 -4 -6 4.806 5.372 0.680 70.741 o
-13 -4 -5 82.789 82.426 1.591 6.866 o
-13 -4 -4 38.518 38.967 1.110 18.126 o
-13 -4 -3 42.691 42.629 0.640 27.841 o
-13 -4 -2 6.798 6.493 0.210 328.234 o
-13 -4 -1 45.958 45.820 0.400 31.152 o
-13 -4 0 56.876 56.725 0.440 22.306 o
-13 -3 -9 8.466 8.414 0.980 34.352 o
-13 -3 -8 21.218 21.930 0.740 42.159 o
-13 -3 -7 32.186 33.775 1.161 18.706 o
-13 -3 -5 6.902 6.533 0.650 73.590 o
-13 -3 -4 0.974 1.060 0.340 290.960 o
-13 -3 -3 112.693 112.329 0.720 6.876 o
-13 -3 -2 112.036 113.550 0.720 6.880 o
-13 -3 -1 38.228 38.087 0.360 41.473 o
-13 -3 0 7.026 6.773 0.200 331.806 o
-13 -2 -9 2.063 1.861 0.700 71.023 o
-13 -2 -8 10.622 10.184 0.610 73.950 o
-13 -2 -7 21.298 21.199 0.690 46.246 o
-13 -2 -6 16.491 16.657 0.610 61.678 o
-13 -2 -5 119.822 123.784 1.261 5.158 o
-13 -2 -4 63.545 64.048 0.670 16.555 o
-13 -2 -3 2.740 2.571 0.260 397.199 o
-13 -2 -2 4.320 3.952 0.220 416.994 o
-13 -2 -1 3.424 3.041 0.190 553.907 o
-13 -2 0 191.191 193.255 0.750 2.724 o
-13 -1 -9 3.595 3.331 0.610 89.289 o
-13 -1 -8 26.725 26.412 0.810 33.400 o
-13 -1 -7 48.801 49.892 0.760 21.272 o
-13 -1 -6 49.884 51.333 0.740 21.078 o
-13 -1 -5 11.079 10.235 0.350 148.950 o
-13 -1 -4 36.099 35.266 0.440 41.822 o
-13 -1 -3 73.758 73.482 0.600 13.967 o
-13 -1 -2 104.517 104.766 0.680 7.839 o
-13 -1 -1 145.038 147.035 0.690 4.475 o
-13 -1 0 41.465 41.458 0.370 36.732 o
-13 0 1 51.539 50.312 0.450 25.859 o
-13 0 2 28.579 27.782 0.360 60.762 o
-13 0 3 5.047 4.502 0.290 278.926 o
-13 0 4 22.044 21.559 0.530 60.400 o
-13 0 5 68.172 69.991 0.760 14.139 o
-13 0 6 32.523 33.555 0.680 34.443 o
-13 0 8 4.201 4.172 0.560 102.398 o
-13 1 1 4.559 4.452 0.210 421.439 o
-13 1 2 169.194 169.444 0.790 3.387 o
-13 1 3 88.845 90.050 0.680 10.082 o
-13 1 4 33.810 33.545 0.540 40.078 o
-13 1 5 5.319 4.572 0.360 203.629 o
-13 1 6 0.852 0.830 0.330 311.123 o
-13 1 7 28.692 29.933 0.830 30.719 o
-13 1 8 7.088 7.173 0.580 88.429 o
-13 2 1 118.622 117.792 0.640 6.457 o
-13 2 2 24.534 24.281 0.380 69.839 o
-13 2 3 12.051 11.785 0.350 139.115 o
-13 2 4 15.236 14.296 0.370 112.398 o
-13 2 5 27.189 26.942 0.470 55.032 o
-13 2 6 8.416 7.813 0.410 142.643 o
-13 2 7 9.514 9.694 0.620 73.977 o
-13 2 8 4.746 4.282 0.580 95.100 o
-13 3 1 12.794 12.005 0.300 153.255 o
-13 3 2 42.023 42.429 0.470 33.115 o
-13 3 3 18.331 17.818 0.460 79.536 o
-13 3 4 112.176 113.350 1.291 5.642 o
-13 3 5 9.058 8.274 0.390 147.608 o
-13 3 6 18.505 18.818 0.700 48.673 o
-13 3 7 2.796 2.891 0.510 126.510 o
-13 4 1 40.900 41.578 0.460 34.491 o
-13 4 2 15.169 14.356 0.370 112.542 o
-13 4 3 5.294 4.862 0.340 219.976 o
-13 4 4 15.380 14.536 0.580 68.855 o
-13 4 5 20.886 20.719 0.490 67.488 o
-13 4 6 21.832 22.980 0.600 52.771 o
-13 4 7 6.380 6.223 0.570 93.200 o
-13 5 1 11.348 10.935 0.340 149.533 o
-13 5 2 67.754 66.769 0.670 15.312 o
-13 5 3 20.134 20.179 0.500 67.979 o
-13 5 4 1.535 1.861 0.420 189.437 o
-13 5 6 2.693 2.711 0.460 153.302 o
-13 5 7 6.138 6.123 0.750 57.905 o
-13 6 1 5.899 5.522 0.300 248.374 o
-13 6 2 26.205 26.392 0.470 56.777 o
-13 6 4 19.018 19.328 0.660 51.796 o
-13 6 5 14.388 14.937 0.620 64.057 o
-13 6 6 2.880 2.341 0.510 127.044 o
-13 6 7 3.701 3.041 0.690 71.011 o
-13 7 1 11.212 10.765 0.410 123.655 o
-13 7 2 10.991 10.064 0.360 145.661 o
-13 7 3 8.545 7.923 0.400 146.432 o
-13 7 4 19.314 19.259 0.680 49.640 o
-13 7 5 1.799 1.541 0.420 188.832 o
-13 7 6 3.082 2.571 0.520 121.758 o
-13 7 7 3.441 3.872 0.710 67.165 o
-13 8 1 63.371 64.008 0.820 15.049 o
-13 8 2 6.765 5.903 0.460 131.066 o
-13 8 3 1.133 1.020 0.300 364.010 o
-13 8 4 7.504 7.473 0.530 101.069 o
-13 8 5 13.360 13.826 0.620 66.077 o
-13 8 6 2.249 1.941 0.510 129.380 o
-13 9 1 2.844 2.291 0.380 215.258 o
-13 9 2 23.297 23.260 0.490 61.505 o
-13 9 3 31.351 34.415 0.790 30.167 o
-13 9 5 2.446 2.271 0.470 149.230 o
-13 10 1 13.310 13.616 0.440 102.185 o
-13 10 2 18.194 17.398 0.460 80.305 o
-13 10 3 2.764 2.371 0.480 142.282 o
-13 10 4 6.651 6.543 0.530 104.165 o
-13 10 5 2.894 3.031 0.690 71.755 o
-13 11 1 6.509 6.103 0.420 151.104 o
-13 11 2 12.590 11.865 0.490 94.177 o
-13 11 3 16.927 17.748 0.650 55.739 o
-13 11 4 19.980 20.179 0.680 48.648 o
-13 12 1 25.713 24.971 0.610 46.965 o
-13 12 3 1.636 1.491 0.580 102.972 o
-13 12 4 11.871 12.045 0.630 67.570 o
-13 13 1 7.774 6.323 0.470 122.586 o
-13 13 2 20.896 19.819 0.570 58.795 o
-13 13 3 8.345 7.293 0.940 37.292 o
-13 14 1 6.232 6.063 0.510 112.611 o
-12 -14 -3 14.588 14.937 0.670 57.257 o
-12 -14 -2 5.551 5.572 0.810 50.787 o
-12 -14 -1 20.854 22.320 0.590 55.216 o
-12 -14 0 2.578 2.321 0.470 148.634 o
-12 -13 -3 7.215 7.243 0.820 48.352 o
-12 -13 -2 1.858 1.331 0.530 122.068 o
-12 -13 -1 8.874 8.854 0.580 83.881 o
-12 -13 0 16.077 15.477 0.650 57.849 o
-12 -12 -2 22.564 23.840 1.090 23.572 o
-12 -12 -1 27.023 29.013 0.790 33.593 o
-12 -12 0 3.208 3.572 0.520 120.122 o
-12 -11 -4 2.968 2.991 0.770 58.168 o
-12 -11 -3 59.029 58.836 1.050 13.767 o
-12 -11 -2 5.252 5.252 0.520 112.632 o
-12 -11 -1 8.330 7.853 0.560 90.595 o
-12 -10 -4 15.924 14.836 0.660 57.146 o
-12 -10 -3 6.938 6.463 0.530 103.581 o
-12 -10 -1 43.603 44.239 0.900 20.779 o
-12 -10 0 29.330 29.503 0.610 41.753 o
-12 -9 -4 34.147 35.075 1.181 17.819 o
-12 -9 -3 31.222 30.894 0.770 31.911 o
-12 -9 -2 35.570 37.156 0.820 26.707 o
-12 -9 -1 9.006 9.154 0.530 95.708 o
-12 -9 0 13.766 13.506 0.390 114.263 o
-12 -8 -4 20.081 19.899 0.830 37.264 o
-12 -8 -3 6.716 6.793 0.490 117.536 o
-12 -8 -2 69.512 69.400 0.820 13.455 o
-12 -8 -1 8.116 7.703 0.330 189.316 o
-12 -8 0 119.888 124.935 1.131 5.371 o
-12 -7 -7 28.563 29.983 1.090 21.562 o
-12 -7 -6 10.138 10.064 0.800 48.017 o
-12 -7 -5 13.785 13.626 0.610 67.165 o
-12 -7 -4 17.363 17.278 0.490 77.279 o
-12 -7 -3 17.403 17.518 0.410 90.962 o
-12 -7 -2 52.941 53.704 0.840 18.211 o
-12 -7 -1 49.236 49.942 0.580 24.613 o
-12 -6 -7 7.259 7.103 0.550 96.182 o
-12 -6 -6 6.714 5.843 0.700 65.154 o
-12 -6 -5 27.297 25.881 0.980 25.952 o
-12 -6 -4 62.801 62.197 0.890 14.595 o
-12 -6 -3 10.184 9.914 0.360 150.701 o
-12 -6 -2 25.145 25.151 0.430 62.949 o
-12 -6 -1 105.995 107.327 0.770 7.415 o
-12 -6 0 90.953 89.279 0.650 9.994 o
-12 -5 -9 8.391 8.244 1.060 29.756 o
-12 -5 -8 9.729 9.374 0.610 75.816 o
-12 -5 -7 19.012 20.329 0.690 48.520 o
-12 -5 -5 53.070 51.413 1.271 12.598 o
-12 -5 -4 37.791 37.286 0.750 28.039 o
-12 -5 -3 96.086 94.812 0.870 8.422 o
-12 -5 -2 96.329 96.602 0.640 9.051 o
-12 -5 -1 3.334 3.281 0.230 439.052 o
-12 -5 0 3.366 3.101 0.240 417.054 o
-12 -4 -9 21.515 21.750 1.080 24.394 o
-12 -4 -8 12.559 12.626 0.630 66.337 o
-12 -4 -6 47.079 47.111 1.251 13.841 o
-12 -4 -5 101.941 102.675 1.701 5.255 o
-12 -4 -4 1.902 1.491 0.490 141.271 o
-12 -4 -3 63.903 64.298 0.620 16.941 o
-12 -4 -2 18.459 18.278 0.270 113.076 o
-12 -4 -1 35.886 35.636 0.340 46.024 o
-12 -4 0 205.011 205.570 0.780 2.405 o
-12 -3 -9 15.197 14.656 0.990 30.891 o
-12 -3 -8 9.417 9.604 0.590 80.171 o
-12 -3 -7 43.245 42.939 1.241 14.770 o
-12 -3 -6 1.704 1.511 0.520 126.745 o
-12 -3 -5 6.180 6.103 0.610 83.433 o
-12 -3 -4 121.452 121.673 1.181 5.283 o
-12 -3 -3 92.050 90.730 0.650 9.786 o
-12 -3 -2 30.203 29.933 0.340 57.661 o
-12 -3 -1 4.211 4.212 0.180 510.828 o
-12 -3 0 97.204 97.333 0.490 9.320 o
-12 -2 -9 3.648 4.052 0.880 44.533 o
-12 -2 -8 3.829 3.762 0.540 110.552 o
-12 -2 -7 60.736 63.058 0.830 15.558 o
-12 -2 -6 34.824 35.306 0.620 35.047 o
-12 -2 -5 46.284 46.260 0.640 25.382 o
-12 -2 -4 34.998 34.845 0.460 42.191 o
-12 -2 -3 2.520 2.541 0.210 548.265 o
-12 -2 -2 47.812 48.311 0.440 28.479 o
-12 -2 -1 208.794 209.282 0.860 2.307 o
-12 -2 0 52.271 52.063 0.390 26.018 o
-12 -1 -10 3.251 3.081 1.000 35.011 o
-12 -1 -9 19.242 19.919 0.590 58.609 o
-12 -1 -8 18.231 17.748 0.570 63.799 o
-12 -1 -7 19.089 19.078 0.530 66.718 o
-12 -1 -6 8.727 8.364 0.350 169.982 o
-12 -1 -5 58.367 58.566 0.540 20.217 o
-12 -1 -4 109.716 108.128 0.620 7.427 o
-12 -1 -3 40.747 40.468 0.430 35.940 o
-12 -1 -2 113.159 113.640 0.620 6.979 o
-12 -1 -1 47.954 48.291 0.390 29.368 o
-12 -1 0 63.575 62.828 0.410 19.192 o
-12 0 1 29.143 28.673 0.330 61.152 o
-12 0 2 9.580 9.374 0.240 226.600 o
-12 0 3 38.606 38.767 0.450 37.663 o
-12 0 4 52.927 53.113 0.630 21.690 o
-12 0 5 8.652 8.424 0.370 159.430 o
-12 0 7 1.521 1.441 0.340 281.434 o
-12 1 1 81.035 80.085 0.510 12.576 o
-12 1 2 80.893 80.805 0.580 12.216 o
-12 1 3 19.974 19.689 0.390 84.456 o
-12 1 4 44.280 43.429 0.520 30.026 o
-12 1 5 6.686 6.583 0.350 191.916 o
-12 1 6 19.875 19.929 0.490 69.961 o
-12 1 7 16.256 16.988 0.670 54.573 o
-12 1 8 6.311 5.923 0.450 137.334 o
-12 2 1 0.642 0.830 0.150 1279.780 o
-12 2 2 37.595 35.736 0.410 41.392 o
-12 2 3 45.619 45.720 0.550 27.930 o
-12 2 4 11.416 11.435 0.370 135.769 o
-12 2 5 71.629 72.362 0.670 13.989 o
-12 2 7 4.494 4.432 0.420 165.708 o
-12 2 8 9.064 9.164 0.630 73.060 o
-12 3 1 92.383 91.940 0.610 9.815 o
-12 3 2 67.603 66.869 0.540 16.435 o
-12 3 3 64.930 65.519 0.650 16.258 o
-12 3 4 0.999 1.050 0.270 443.770 o
-12 3 5 18.097 18.548 0.410 87.646 o
-12 3 6 3.244 2.821 0.330 264.821 o
-12 3 7 17.326 17.538 0.590 62.607 o
-12 3 8 8.985 9.044 0.480 110.784 o
-12 4 1 21.265 20.699 0.340 86.975 o
-12 4 2 6.919 6.283 0.290 240.286 o
-12 4 3 19.977 19.509 0.470 72.884 o
-12 4 4 37.105 37.256 0.640 32.236 o
-12 4 5 27.208 27.462 0.520 50.833 o
-12 4 6 26.183 26.782 0.530 51.663 o
-12 4 7 1.581 1.090 0.380 230.676 o
-12 4 8 2.535 2.271 0.470 148.890 o
-12 5 1 68.320 70.421 0.890 12.984 o
-12 5 2 39.904 38.637 0.460 36.334 o
-12 5 3 35.206 34.345 0.580 36.836 o
-12 5 4 50.127 49.532 0.900 18.426 o
-12 5 5 2.806 2.771 0.370 223.594 o
-12 5 6 20.800 20.869 0.720 44.353 o
-12 5 7 6.016 5.873 0.530 106.471 o
-12 5 8 4.104 3.902 0.560 102.862 o
-12 6 1 67.662 66.709 0.740 14.719 o
-12 6 2 24.381 24.551 0.510 57.057 o
-12 6 3 35.960 35.386 0.530 38.032 o
-12 6 4 6.114 5.753 0.470 129.316 o
-12 6 5 52.860 54.614 0.970 16.200 o
-12 6 6 7.663 7.443 0.450 129.059 o
-12 6 7 12.995 11.955 0.860 40.607 o
-12 7 1 47.735 47.291 0.650 24.346 o
-12 7 2 71.117 71.411 0.810 13.105 o
-12 7 3 35.970 35.936 0.620 34.100 o
-12 7 4 2.751 2.441 0.420 180.780 o
-12 7 5 5.689 5.532 0.500 118.627 o
-12 7 6 1.031 1.120 0.450 170.498 o
-12 8 1 10.331 10.315 0.350 153.188 o
-12 8 2 3.905 3.502 0.350 230.593 o
-12 8 3 13.488 13.506 0.770 47.805 o
-12 8 4 68.093 69.040 0.890 13.127 o
-12 8 5 12.065 12.476 0.590 73.761 o
-12 8 6 7.203 7.133 0.530 102.170 o
-12 8 7 3.118 3.001 0.740 62.656 o
-12 9 1 4.427 3.662 0.380 197.687 o
-12 9 2 36.098 36.226 0.560 36.353 o
-12 9 3 44.426 46.390 0.720 24.247 o
-12 9 4 13.747 13.226 0.500 87.528 o
-12 9 5 5.214 4.562 0.670 72.666 o
-12 9 6 9.118 9.284 0.570 85.363 o
-12 10 1 33.399 33.705 0.560 39.385 o
-12 10 2 4.325 3.772 0.330 246.115 o
-12 10 3 23.498 23.010 0.700 43.041 o
-12 10 5 15.460 15.057 0.640 60.009 o
-12 10 6 6.225 5.723 0.750 57.986 o
-12 11 1 22.039 21.369 0.580 55.372 o
-12 11 2 47.986 50.512 0.660 23.412 o
-12 11 3 10.226 9.914 0.550 87.328 o
-12 11 5 17.293 17.988 0.670 53.082 o
-12 12 1 2.864 2.721 0.410 187.088 o
-12 12 3 2.227 1.751 0.520 125.066 o
-12 12 4 28.186 31.414 0.790 32.401 o
-12 13 1 23.542 22.620 0.700 43.155 o
-12 13 2 10.795 9.864 0.480 104.291 o
-12 13 4 6.318 5.552 0.820 49.258 o
-12 14 1 3.739 3.051 0.480 137.691 o
-12 14 2 1.498 1.301 0.450 167.980 o
-11 -15 -2 8.620 8.914 0.820 47.160 o
-11 -15 -1 9.864 10.435 0.600 76.789 o
-11 -15 0 3.566 2.981 0.830 50.086 o
-11 -14 -3 7.913 7.543 0.850 44.909 o
-11 -14 -2 18.497 19.218 0.720 46.725 o
-11 -14 0 11.203 11.915 0.610 71.898 o
-11 -13 -2 6.431 6.803 0.830 47.805 o
-11 -13 0 9.559 9.754 0.590 79.823 o
-11 -12 -2 2.515 2.281 0.710 68.571 o
-11 -12 -1 21.668 22.810 0.720 43.004 o
-11 -12 0 1.720 1.371 0.510 131.666 o
-11 -11 -4 37.791 39.177 1.301 14.807 o
-11 -11 -2 6.538 5.362 0.520 109.207 o
-11 -11 -1 3.150 3.381 0.480 139.163 o
-11 -11 0 22.591 22.350 0.570 55.098 o
-11 -10 -4 18.008 16.197 0.650 55.420 o
-11 -10 -3 11.335 10.855 0.570 80.069 o
-11 -10 -2 64.696 66.509 1.040 12.492 o
-11 -10 -1 13.139 12.566 0.580 73.794 o
-11 -10 0 76.763 78.965 1.110 9.849 o
-11 -9 -4 25.227 24.621 0.710 40.522 o
-11 -9 -3 34.550 34.465 0.780 29.081 o
-11 -9 -2 23.029 24.121 0.680 44.441 o
-11 -9 -1 9.496 8.834 0.500 103.400 o
-11 -9 0 12.173 11.675 0.430 111.848 o
-11 -8 -4 1.986 1.841 0.420 186.879 o
-11 -8 -3 40.808 39.888 0.790 25.068 o
-11 -8 -2 87.754 89.049 1.100 8.464 o
-11 -8 -1 129.846 134.549 0.900 5.094 o
-11 -8 0 29.363 28.462 0.460 51.921 o
-11 -7 -7 2.722 1.981 0.720 66.709 o
-11 -7 -5 16.344 15.547 0.560 69.648 o
-11 -7 -4 69.706 69.781 0.900 12.739 o
-11 -7 -3 94.799 95.212 0.770 8.860 o
-11 -7 -2 116.964 117.252 0.950 6.033 o
-11 -7 -1 82.728 82.836 0.690 11.264 o
-11 -7 0 107.769 108.648 0.650 7.496 o
-11 -6 -8 15.027 16.287 0.950 32.875 o
-11 -6 -7 4.193 4.102 0.520 116.860 o
-11 -6 -6 104.567 107.577 1.781 4.886 o
-11 -6 -5 28.442 26.201 1.060 22.907 o
-11 -6 -4 18.955 18.008 0.470 76.434 o
-11 -6 -3 86.788 87.038 0.770 10.124 o
-11 -6 -2 82.824 82.686 0.670 11.358 o
-11 -6 -1 50.741 51.022 0.530 24.672 o
-11 -6 0 218.139 218.116 0.940 2.117 o
-11 -5 -8 33.351 34.905 1.221 17.146 o
-11 -5 -7 30.591 31.324 0.780 31.683 o
-11 -5 -6 17.999 18.358 0.870 36.096 o
-11 -5 -5 69.538 71.211 1.421 8.886 o
-11 -5 -4 98.124 96.182 0.870 8.191 o
-11 -5 -3 78.525 77.554 0.760 11.845 o
-11 -5 -2 12.786 12.856 0.280 158.175 o
-11 -5 0 45.835 45.690 0.470 29.701 o
-11 -4 -9 10.958 10.975 0.920 37.181 o
-11 -4 -8 13.009 13.366 0.620 66.829 o
-11 -4 -7 46.960 48.771 0.920 18.928 o
-11 -4 -6 16.893 16.517 0.850 38.373 o
-11 -4 -5 23.850 22.600 0.580 52.562 o
-11 -4 -4 4.024 3.852 0.540 110.005 o
-11 -4 -3 36.124 35.536 0.470 40.392 o
-11 -4 -2 139.939 140.982 0.670 4.796 o
-11 -4 -1 337.753 339.729 1.020 0.938 o
-11 -4 0 42.577 42.839 0.330 36.289 o
-11 -3 -10 10.638 11.175 0.980 33.328 o
-11 -3 -9 7.889 6.873 0.870 43.214 o
-11 -3 -7 20.322 19.519 0.900 33.092 o
-11 -3 -6 1.998 2.401 0.560 108.552 o
-11 -3 -5 52.282 52.393 0.790 19.350 o
-11 -3 -4 210.179 213.184 1.471 2.078 o
-11 -3 -3 47.338 47.471 0.450 28.774 o
-11 -3 -2 20.105 19.259 0.240 108.888 o
-11 -3 -1 16.656 15.887 0.230 137.534 o
-11 -3 0 39.635 39.617 0.320 40.621 o
-11 -2 -10 2.916 2.651 1.030 33.160 o
-11 -2 -9 6.003 5.422 0.870 44.308 o
-11 -2 -8 23.002 23.470 0.770 38.483 o
-11 -2 -7 6.652 6.573 0.410 154.577 o
-11 -2 -6 149.656 152.227 1.281 3.720 o
-11 -2 -5 1.833 1.811 0.280 384.599 o
-11 -2 -4 11.371 10.875 0.240 197.088 o
-11 -2 -3 39.716 39.247 0.400 38.230 o
-11 -2 -2 34.463 34.215 0.330 49.032 o
-11 -2 -1 74.370 75.593 0.420 14.679 o
-11 -2 0 206.632 205.930 0.700 2.398 o
-11 -1 -9 5.470 5.803 0.900 41.712 o
-11 -1 -8 11.019 10.935 0.470 104.985 o
-11 -1 -7 28.386 28.042 0.510 49.862 o
-11 -1 -6 9.080 8.684 0.400 141.857 o
-11 -1 -5 52.419 53.183 0.570 22.854 o
-11 -1 -4 83.889 83.787 0.520 11.789 o
-11 -1 -3 64.002 62.617 0.440 18.837 o
-11 -1 -2 61.579 61.977 0.420 19.886 o
-11 -1 -1 15.631 15.877 0.260 136.136 o
-11 -1 0 19.463 19.669 0.240 110.810 o
-11 0 1 68.951 67.800 0.500 16.305 o
-11 0 2 29.218 30.183 0.330 59.720 o
-11 0 3 6.879 6.263 0.220 316.590 o
-11 0 4 60.615 59.216 0.560 19.173 o
-11 0 5 33.779 33.054 0.530 40.800 o
-11 0 6 3.507 3.241 0.330 258.970 o
-11 0 7 11.890 11.505 0.440 110.126 o
-11 0 8 14.884 15.087 0.650 59.359 o
-11 1 1 96.869 96.392 0.520 9.333 o
-11 1 2 36.137 35.996 0.410 42.693 o
-11 1 3 40.673 40.378 0.440 35.721 o
-11 1 4 62.089 61.237 0.570 18.339 o
-11 1 5 25.004 24.521 0.420 64.700 o
-11 1 6 38.495 37.837 0.690 29.566 o
-11 1 7 12.977 12.836 0.510 87.540 o
-11 1 8 11.445 11.405 0.640 66.902 o
-11 2 1 20.117 19.989 0.270 102.589 o
-11 2 2 5.318 5.262 0.220 367.124 o
-11 2 3 97.884 96.782 0.740 8.595 o
-11 2 4 38.406 39.547 0.570 33.264 o
-11 2 5 3.517 3.271 0.270 348.958 o
-11 2 6 19.746 19.008 0.540 64.475 o
-11 2 7 7.262 7.813 0.460 125.753 o
-11 2 8 1.769 2.051 0.430 179.571 o
-11 3 1 126.627 125.455 0.660 5.762 o
-11 3 2 52.288 51.002 0.450 25.341 o
-11 3 3 42.570 41.448 0.450 33.645 o
-11 3 4 28.338 28.483 0.480 51.788 o
-11 3 5 69.467 70.321 0.730 14.118 o
-11 3 6 16.711 17.428 0.450 85.462 o
-11 3 7 13.187 13.316 0.520 84.457 o
-11 3 8 6.367 5.793 0.540 102.506 o
-11 4 1 50.590 50.302 0.500 25.439 o
-11 4 2 64.038 63.768 0.520 17.938 o
-11 4 3 41.237 41.158 0.520 32.569 o
-11 4 4 37.148 37.066 0.530 36.476 o
-11 4 5 70.002 70.801 0.740 13.897 o
-11 4 6 13.312 12.646 0.480 93.743 o
-11 4 7 2.896 2.661 0.410 187.075 o
-11 4 8 10.906 10.505 0.500 97.592 o
-11 5 1 257.163 253.381 1.381 1.516 o
-11 5 2 37.905 37.577 0.560 34.608 o
-11 5 3 14.612 12.956 0.410 106.755 o
-11 5 4 84.813 86.128 0.770 10.408 o
-11 5 5 32.651 32.674 0.550 40.931 o
-11 5 6 20.154 20.029 0.480 70.694 o
-11 5 7 12.218 12.826 0.520 87.026 o
-11 5 8 4.483 3.752 0.580 96.034 o
-11 6 1 5.132 4.812 0.310 252.109 o
-11 6 2 26.692 26.442 0.510 52.832 o
-11 6 3 82.292 84.737 0.930 9.987 o
-11 6 4 50.871 50.792 0.630 22.848 o
-11 6 5 1.555 1.341 0.360 253.827 o
-11 6 6 1.592 1.541 0.360 252.417 o
-11 6 7 8.022 7.643 0.480 115.879 o
-11 6 8 4.603 4.292 0.590 92.478 o
-11 7 1 38.846 38.727 0.580 32.896 o
-11 7 2 32.674 32.534 0.560 40.461 o
-11 7 3 22.213 21.740 0.500 63.294 o
-11 7 4 1.792 1.110 0.400 208.162 o
-11 7 5 35.788 36.926 0.840 26.026 o
-11 7 6 41.952 43.879 0.740 25.200 o
-11 7 7 2.126 2.301 0.570 104.828 o
-11 8 1 10.829 10.585 0.340 153.798 o
-11 8 2 40.490 40.118 0.800 24.868 o
-11 8 3 39.322 40.568 0.650 29.755 o
-11 8 4 24.251 24.051 0.690 42.790 o
-11 8 5 10.515 9.824 0.450 114.478 o
-11 8 7 6.423 6.223 0.780 53.715 o
-11 9 1 57.794 58.145 0.640 19.188 o
-11 9 2 134.236 138.791 0.960 4.759 o
-11 9 3 30.549 30.753 0.610 40.263 o
-11 9 4 12.679 12.966 0.600 70.760 o
-11 9 5 0.989 0.910 0.390 225.130 o
-11 9 6 8.570 8.294 0.550 92.261 o
-11 9 7 14.692 14.536 0.910 35.749 o
-11 10 1 26.785 26.221 0.500 53.649 o
-11 10 2 3.521 3.071 0.310 286.304 o
-11 10 3 6.922 6.453 0.510 110.232 o
-11 10 4 33.871 35.075 0.840 27.107 o
-11 10 5 7.336 7.463 0.430 139.135 o
-11 11 1 21.877 22.630 0.700 44.423 o
-11 11 2 9.806 10.064 0.440 119.954 o
-11 11 3 5.717 5.252 0.480 127.194 o
-11 11 4 7.527 7.333 0.520 104.257 o
-11 11 5 21.320 21.529 0.580 56.139 o
-11 11 6 3.524 3.121 0.740 62.328 o
-11 12 1 18.979 18.938 0.550 64.416 o
-11 12 2 10.346 9.604 0.450 115.432 o
-11 12 3 9.360 9.824 0.550 89.130 o
-11 12 5 6.655 6.563 0.440 139.326 o
-11 13 1 1.284 1.020 0.310 340.102 o
-11 13 2 13.771 13.926 0.630 64.028 o
-11 13 3 12.995 12.536 0.490 92.341 o
-11 14 2 7.928 6.593 0.470 121.608 o
-11 14 3 7.984 7.413 0.610 79.798 o
-11 15 1 4.836 3.572 0.630 82.339 o
-10 -15 -3 2.416 2.241 0.800 54.528 o
-10 -15 -2 6.025 5.943 0.580 91.376 o
-10 -15 -1 9.882 9.874 0.600 77.187 o
-10 -15 0 9.504 9.204 0.490 105.887 o
-10 -14 -3 4.058 3.421 0.750 60.298 o
-10 -14 -2 19.290 19.999 0.730 44.986 o
-10 -14 -1 11.721 11.255 0.510 92.185 o
-10 -14 0 24.324 25.821 0.630 46.359 o
-10 -13 -3 7.225 8.364 0.840 46.011 o
-10 -13 -1 8.815 9.044 0.570 86.125 o
-10 -13 0 13.773 13.846 0.640 62.657 o
-10 -12 -3 7.416 7.583 0.840 46.108 o
-10 -12 -2 79.498 81.966 1.711 6.540 o
-10 -12 -1 12.476 12.435 0.880 39.194 o
-10 -12 0 9.485 10.034 0.560 86.312 o
-10 -11 -4 17.503 18.978 1.010 28.610 o
-10 -11 -3 8.609 8.054 0.790 50.617 o
-10 -11 -2 6.658 5.953 0.490 118.990 o
-10 -11 -1 14.912 13.896 0.610 65.485 o
-10 -11 0 49.726 50.202 0.640 23.203 o
-10 -10 -4 13.114 12.315 0.840 42.075 o
-10 -10 -3 26.762 26.932 0.730 37.526 o
-10 -10 -2 32.563 33.265 0.770 30.669 o
-10 -10 -1 29.456 29.683 0.730 35.062 o
-10 -10 0 10.023 9.674 0.410 131.001 o
-10 -9 -4 38.394 38.247 1.181 16.851 o
-10 -9 -3 5.687 5.172 0.450 141.398 o
-10 -9 -2 1.485 1.201 0.440 175.572 o
-10 -9 -1 27.519 28.683 0.680 39.330 o
-10 -9 0 54.345 54.504 0.610 21.279 o
-10 -8 -4 2.682 2.251 0.420 181.711 o
-10 -8 -3 72.413 71.571 0.980 11.619 o
-10 -8 -2 27.636 26.812 0.650 41.762 o
-10 -8 -1 51.982 52.573 0.560 23.311 o
-10 -8 0 23.836 23.840 0.370 72.836 o
-10 -7 -6 31.462 33.094 1.070 21.122 o
-10 -7 -5 54.042 54.744 1.271 12.295 o
-10 -7 -4 7.356 6.963 0.360 178.615 o
-10 -7 -3 54.355 54.634 0.580 21.711 o
-10 -7 -2 21.421 21.189 0.440 72.367 o
-10 -7 -1 60.315 59.526 0.570 19.101 o
-10 -7 0 13.029 12.636 0.250 168.966 o
-10 -6 -8 6.198 6.423 0.880 43.098 o
-10 -6 -7 20.568 20.489 0.640 51.640 o
-10 -6 -6 20.240 19.789 0.860 35.358 o
-10 -6 -5 3.067 2.831 0.380 211.324 o
-10 -6 -4 31.107 30.173 0.530 44.577 o
-10 -6 -3 45.878 45.340 0.520 28.606 o
-10 -6 -2 82.616 82.416 0.640 11.550 o
-10 -6 -1 61.498 61.167 0.490 19.361 o
-10 -6 0 13.648 14.106 0.290 144.587 o
-10 -5 -9 13.927 14.106 0.980 31.897 o
-10 -5 -8 1.313 1.731 0.720 67.860 o
-10 -5 -7 45.656 46.000 0.870 20.599 o
-10 -5 -5 29.699 30.273 0.960 25.266 o
-10 -5 -4 128.410 127.976 0.950 5.227 o
-10 -5 -3 2.605 2.591 0.260 400.637 o
-10 -5 -2 11.927 12.456 0.250 179.222 o
-10 -5 -1 26.555 25.811 0.330 68.837 o
-10 -5 0 166.473 167.103 0.770 3.491 o
-10 -4 -9 16.855 18.118 1.030 27.997 o
-10 -4 -8 20.502 21.649 1.050 25.765 o
-10 -4 -7 21.808 21.559 0.980 28.291 o
-10 -4 -6 32.793 32.014 1.020 22.302 o
-10 -4 -5 1.023 1.431 0.550 115.380 o
-10 -4 -4 12.504 11.905 0.450 104.658 o
-10 -4 -3 107.608 108.118 0.710 7.402 o
-10 -4 -2 66.143 65.779 0.400 18.052 o
-10 -4 -1 51.395 51.703 0.360 26.995 o
-10 -4 0 129.165 129.737 0.530 5.661 o
-10 -3 -10 4.793 4.662 0.960 37.281 o
-10 -3 -9 5.493 6.133 0.860 45.338 o
-10 -3 -8 35.681 36.666 0.690 31.333 o
-10 -3 -7 1.012 1.010 0.410 204.171 o
-10 -3 -6 47.676 48.111 0.850 20.141 o
-10 -3 -5 118.405 118.782 1.070 5.691 o
-10 -3 -4 36.703 37.226 0.630 32.857 o
-10 -3 -3 54.337 55.144 0.450 23.520 o
-10 -3 -2 1.490 1.231 0.130 1267.800 o
-10 -3 -1 9.727 9.584 0.170 271.829 o
-10 -3 0 203.416 203.710 0.620 2.479 o
-10 -2 -10 3.039 3.231 0.790 55.271 o
-10 -2 -9 10.404 10.044 0.650 67.348 o
-10 -2 -8 7.819 7.653 0.450 128.066 o
-10 -2 -7 41.892 42.779 0.670 27.352 o
-10 -2 -6 29.382 29.123 0.540 46.194 o
-10 -2 -5 38.495 38.277 0.430 38.675 o
-10 -2 -4 5.752 5.753 0.200 380.194 o
-10 -2 -3 109.019 109.248 0.550 7.565 o
-10 -2 -2 355.594 357.357 0.830 0.859 o
-10 -2 -1 96.427 96.332 0.410 9.641 o
-10 -2 0 12.326 12.155 0.190 203.411 o
-10 -1 -10 14.099 14.266 0.690 55.652 o
-10 -1 -9 17.824 17.998 0.730 46.824 o
-10 -1 -8 7.690 7.363 0.390 157.605 o
-10 -1 -7 38.363 38.877 0.570 33.508 o
-10 -1 -6 7.084 6.563 0.310 219.189 o
-10 -1 -5 161.807 161.031 0.810 3.664 o
-10 -1 -4 120.599 119.773 0.610 6.320 o
-10 -1 -3 156.306 155.608 0.650 3.991 o
-10 -1 -2 74.709 76.694 0.390 14.635 o
-10 -1 -1 73.977 72.942 0.370 15.303 o
-10 -1 0 161.174 160.821 0.500 3.844 o
-10 0 1 91.412 91.330 0.480 10.368 o
-10 0 2 155.389 153.978 0.640 4.049 o
-10 0 3 68.697 68.390 0.400 16.987 o
-10 0 4 78.174 78.465 0.500 13.258 o
-10 0 6 10.861 10.545 0.450 112.106 o
-10 0 7 26.886 27.102 0.530 50.661 o
-10 0 8 34.702 38.027 0.870 25.282 o
-10 0 9 9.221 9.034 0.630 72.939 o
-10 1 1 125.483 123.744 0.600 5.940 o
-10 1 2 113.733 112.629 0.640 6.941 o
-10 1 3 13.109 12.595 0.310 145.570 o
-10 1 4 30.789 30.613 0.460 48.877 o
-10 1 5 103.532 103.325 0.730 7.856 o
-10 1 6 43.312 44.450 0.710 25.312 o
-10 1 7 18.893 18.558 0.560 63.555 o
-10 1 8 3.945 3.622 0.440 157.954 o
-10 1 9 7.129 7.043 0.600 83.619 o
-10 2 1 9.294 9.914 0.200 255.107 o
-10 2 2 141.551 143.503 0.720 4.642 o
-10 2 3 129.745 127.536 0.750 5.445 o
-10 2 4 128.121 128.456 0.860 5.356 o
-10 2 5 7.120 7.083 0.290 232.841 o
-10 2 6 3.169 3.171 0.370 218.721 o
-10 2 7 25.665 26.131 0.620 45.737 o
-10 2 8 5.128 4.832 0.450 144.417 o
-10 2 9 3.637 3.762 0.910 41.809 o
-10 3 1 210.010 208.502 0.770 2.318 o
-10 3 2 22.854 23.120 0.290 85.347 o
-10 3 3 12.113 11.855 0.280 166.948 o
-10 3 4 29.952 29.963 0.470 49.615 o
-10 3 5 32.366 31.894 0.510 43.650 o
-10 3 6 48.376 49.342 0.640 23.891 o
-10 3 7 18.748 18.608 0.560 63.727 o
-10 3 8 1.337 1.141 0.410 201.656 o
-10 3 9 6.254 5.743 0.650 74.831 o
-10 4 1 9.577 9.364 0.260 213.268 o
-10 4 2 137.193 135.930 0.920 4.749 o
-10 4 3 40.850 40.478 0.400 36.769 o
-10 4 4 35.125 34.345 0.500 40.481 o
-10 4 5 25.773 25.521 0.470 58.021 o
-10 4 6 4.186 3.742 0.320 259.519 o
-10 4 7 5.197 4.622 0.420 161.505 o
-10 4 8 2.153 2.051 0.470 150.762 o
-10 5 1 6.795 6.603 0.300 230.754 o
-10 5 2 19.709 18.848 0.420 81.525 o
-10 5 3 21.314 20.269 0.340 87.453 o
-10 5 4 43.088 41.898 0.510 31.463 o
-10 5 5 40.691 41.478 0.580 30.955 o
-10 5 6 3.122 3.101 0.330 264.595 o
-10 5 7 2.612 2.381 0.530 118.959 o
-10 6 1 15.659 14.987 0.340 117.009 o
-10 6 2 65.224 65.709 0.700 15.692 o
-10 6 3 30.363 30.023 0.460 49.729 o
-10 6 4 15.610 15.137 0.390 104.504 o
-10 6 5 2.349 1.941 0.310 313.610 o
-10 6 6 1.003 0.970 0.300 367.234 o
-10 6 7 7.311 7.253 0.470 122.577 o
-10 6 8 7.382 7.473 0.900 40.702 o
-10 7 1 55.950 54.944 0.550 21.529 o
-10 7 2 33.462 32.904 0.550 40.149 o
-10 7 3 16.213 15.277 0.440 91.429 o
-10 7 4 14.226 13.836 0.460 94.408 o
-10 7 5 1.696 1.831 0.330 291.802 o
-10 7 6 11.440 12.025 0.480 99.495 o
-10 7 7 4.975 4.642 0.530 110.454 o
-10 7 8 2.307 2.401 0.550 111.657 o
-10 8 1 19.360 18.648 0.390 87.496 o
-10 8 2 20.411 20.239 0.470 71.349 o
-10 8 3 28.156 28.623 0.560 46.362 o
-10 8 4 13.064 12.636 0.560 77.482 o
-10 8 5 1.263 1.481 0.330 300.393 o
-10 8 6 4.180 3.712 0.420 169.330 o
-10 8 7 8.739 9.324 0.600 79.353 o
-10 9 1 40.776 40.238 0.630 29.706 o
-10 9 2 5.098 4.772 0.300 264.122 o
-10 9 4 9.583 9.284 0.530 94.273 o
-10 9 5 28.205 30.373 1.120 20.772 o
-10 9 6 13.296 13.556 0.610 67.872 o
-10 9 7 5.221 5.412 0.730 61.795 o
-10 10 1 8.182 7.613 0.300 209.997 o
-10 10 2 29.517 30.193 0.510 47.413 o
-10 10 3 40.639 40.858 0.680 28.100 o
-10 10 4 22.095 22.330 0.720 42.869 o
-10 11 1 42.208 42.729 0.700 26.397 o
-10 11 2 10.260 10.315 0.370 144.726 o
-10 11 3 0.964 0.980 0.360 261.902 o
-10 11 4 20.733 20.409 0.690 47.038 o
-10 11 5 3.000 3.081 0.500 130.262 o
-10 11 6 10.397 10.274 0.590 78.070 o
-10 12 1 9.216 8.144 0.370 156.867 o
-10 12 2 16.860 16.467 0.510 75.806 o
-10 12 3 30.245 32.714 0.810 30.248 o
-10 12 4 5.681 5.062 0.410 163.830 o
-10 12 5 14.892 14.987 0.640 60.698 o
-10 13 1 24.921 25.441 0.600 48.268 o
-10 13 2 9.821 9.264 0.560 86.405 o
-10 13 3 2.959 1.981 0.470 147.834 o
-10 13 4 3.271 2.671 0.400 192.771 o
-10 13 5 19.469 20.409 0.980 29.198 o
-10 14 1 14.886 13.966 0.640 61.292 o
-10 14 2 16.776 16.777 0.670 54.167 o
-10 14 3 8.181 8.074 0.480 114.716 o
-10 14 4 3.529 3.121 0.830 50.071 o
-10 15 1 11.532 9.814 0.490 99.541 o
-10 15 2 3.341 2.631 0.600 92.989 o
-9 -16 -1 9.156 9.244 0.630 72.887 o
-9 -16 0 2.533 2.271 0.570 104.102 o
-9 -15 -2 2.930 2.111 0.750 61.490 o
-9 -15 -1 28.449 30.493 0.820 31.140 o
-9 -15 0 1.836 1.871 0.480 146.426 o
-9 -14 -3 11.892 12.245 0.900 38.005 o
-9 -14 -2 34.903 37.677 0.900 24.364 o
-9 -14 -1 3.284 3.041 0.520 120.615 o
-9 -14 0 17.946 18.308 0.560 65.110 o
-9 -13 -3 20.650 21.840 1.060 25.322 o
-9 -13 -2 16.951 18.118 1.010 28.887 o
-9 -13 -1 17.274 18.468 0.700 49.859 o
-9 -13 0 23.484 23.460 0.740 40.128 o
-9 -12 -3 68.863 72.072 1.611 7.794 o
-9 -12 -2 5.084 5.142 0.740 60.474 o
-9 -12 -1 18.834 18.518 0.970 30.177 o
-9 -12 0 18.303 17.618 0.520 70.611 o
-9 -11 -4 26.061 26.232 1.080 22.837 o
-9 -11 -3 15.735 16.727 0.910 34.906 o
-9 -11 -2 12.524 11.895 0.840 42.482 o
-9 -11 -1 59.350 59.556 0.980 14.443 o
-9 -11 0 70.184 70.401 0.730 13.979 o
-9 -10 -4 28.505 27.722 1.060 22.711 o
-9 -10 -3 23.125 22.100 0.660 46.754 o
-9 -10 -2 85.100 87.899 1.120 8.639 o
-9 -10 -1 21.849 21.870 0.640 49.708 o
-9 -10 0 12.156 11.545 0.420 115.184 o
-9 -9 -4 14.008 12.946 0.550 77.401 o
-9 -9 -3 20.651 20.729 0.620 53.360 o
-9 -9 -2 30.058 30.283 0.690 36.530 o
-9 -9 -1 72.908 73.312 0.980 11.445 o
-9 -9 0 59.660 58.656 0.610 18.948 o
-9 -8 -8 8.282 9.064 0.800 49.405 o
-9 -8 -7 24.781 25.201 0.730 39.351 o
-9 -8 -6 12.004 12.275 0.830 43.511 o
-9 -8 -5 7.453 5.943 0.430 141.984 o
-9 -8 -4 28.943 29.493 1.010 23.940 o
-9 -8 -3 82.578 82.336 1.010 9.665 o
-9 -8 -2 3.961 3.421 0.370 210.987 o
-9 -8 -1 145.069 148.725 1.271 3.897 o
-9 -8 0 17.880 17.818 0.320 106.586 o
-9 -7 -9 3.774 4.022 0.890 43.540 o
-9 -7 -7 5.457 5.312 0.510 115.741 o
-9 -7 -6 3.256 3.291 0.340 249.582 o
-9 -7 -5 26.207 26.932 0.500 53.933 o
-9 -7 -4 138.516 140.092 1.291 4.183 o
-9 -7 -3 9.309 8.884 0.290 199.164 o
-9 -7 -2 64.692 66.469 0.670 16.013 o
-9 -7 -1 35.532 35.466 0.440 42.272 o
-9 -7 0 89.775 90.410 0.530 10.480 o
-9 -6 -9 3.360 3.331 0.630 84.417 o
-9 -6 -8 31.395 31.484 0.650 37.267 o
-9 -6 -7 10.113 9.034 0.430 124.352 o
-9 -6 -6 8.791 8.474 0.350 169.157 o
-9 -6 -5 40.861 41.108 0.600 30.348 o
-9 -6 -4 37.149 35.866 0.470 39.349 o
-9 -6 -3 16.953 16.897 0.340 107.776 o
-9 -6 -2 223.480 226.059 0.990 2.002 o
-9 -6 -1 4.585 4.402 0.200 442.639 o
-9 -6 0 23.531 23.100 0.290 83.430 o
-9 -5 -10 5.486 5.272 0.700 66.532 o
-9 -5 -9 1.538 1.571 0.590 99.730 o
-9 -5 -8 2.321 2.141 0.430 176.416 o
-9 -5 -7 1.694 1.541 0.320 310.336 o
-9 -5 -6 51.884 51.303 0.680 21.506 o
-9 -5 -5 108.079 109.688 0.890 6.906 o
-9 -5 -4 68.633 68.530 0.590 15.600 o
-9 -5 -3 102.091 100.154 0.780 7.970 o
-9 -5 -2 1.181 1.331 0.150 1107.100 o
-9 -5 -1 105.764 106.827 0.580 7.869 o
-9 -5 0 141.798 141.642 0.670 4.711 o
-9 -4 -9 55.693 58.726 1.030 14.537 o
-9 -4 -8 19.872 19.128 0.550 62.971 o
-9 -4 -7 65.913 66.479 0.700 15.462 o
-9 -4 -6 6.823 6.463 0.350 191.300 o
-9 -4 -5 4.055 3.622 0.380 200.625 o
-9 -4 -4 23.661 22.580 0.530 57.464 o
-9 -4 -3 188.896 187.082 1.010 2.720 o
-9 -4 -2 92.040 93.471 0.480 10.158 o
-9 -4 -1 14.528 14.116 0.200 167.835 o
-9 -4 0 103.861 103.035 0.480 8.395 o
-9 -3 -9 26.986 27.022 0.790 34.127 o
-9 -3 -7 76.969 78.394 0.700 12.371 o
-9 -3 -6 15.950 16.257 0.380 103.696 o
-9 -3 -5 62.350 61.877 0.660 17.213 o
-9 -3 -4 179.118 178.068 1.010 2.975 o
-9 -3 -3 0.652 0.740 0.140 1437.780 o
-9 -3 -2 56.999 56.935 0.330 23.443 o
-9 -3 -1 141.658 141.762 0.470 4.859 o
-9 -3 0 316.099 317.259 0.880 1.071 o
-9 -2 -10 6.360 5.552 0.640 76.878 o
-9 -2 -8 77.279 79.685 0.800 11.631 o
-9 -2 -7 17.468 16.867 0.340 105.861 o
-9 -2 -6 3.535 3.421 0.220 454.146 o
-9 -2 -5 3.157 3.241 0.240 421.472 o
-9 -2 -4 290.740 289.817 1.000 1.248 o
-9 -2 -3 70.405 70.101 0.400 16.330 o
-9 -2 -2 120.772 119.833 0.490 6.457 o
-9 -2 -1 0.302 0.690 0.100 2684.660 o
-9 -2 0 58.485 57.915 0.320 22.707 o
-9 -1 -10 24.411 23.740 1.050 24.523 o
-9 -1 -8 2.369 2.251 0.300 327.993 o
-9 -1 -7 7.057 6.883 0.290 234.833 o
-9 -1 -6 126.957 126.316 0.770 5.583 o
-9 -1 -5 201.576 200.528 1.000 2.426 o
-9 -1 -4 46.340 46.210 0.360 31.608 o
-9 -1 -3 6.491 7.053 0.190 354.789 o
-9 -1 -2 237.077 238.615 0.630 1.860 o
-9 -1 -1 150.858 151.196 0.540 4.298 o
-9 -1 0 177.294 179.729 0.560 3.181 o
-9 0 1 18.459 17.528 0.240 120.665 o
-9 0 2 29.500 30.053 0.310 60.634 o
-9 0 3 268.927 270.389 0.810 1.454 o
-9 0 4 3.431 3.241 0.210 488.537 o
-9 0 5 0.500 0.310 0.130 1768.900 o
-9 0 6 45.602 45.400 0.590 27.060 o
-9 0 7 42.166 43.449 0.620 28.452 o
-9 1 1 87.401 87.629 0.470 11.178 o
-9 1 2 3.812 3.712 0.170 575.417 o
-9 1 3 148.523 148.145 0.810 4.242 o
-9 1 4 55.772 55.254 0.550 21.537 o
-9 1 5 74.093 73.922 0.600 13.862 o
-9 1 6 3.672 3.361 0.350 233.613 o
-9 1 7 54.120 54.794 0.800 18.390 o
-9 1 8 14.652 14.947 0.530 78.016 o
-9 1 9 5.904 5.512 0.590 89.298 o
-9 2 1 392.174 396.604 1.050 0.704 o
-9 2 2 215.258 214.284 0.760 2.215 o
-9 2 3 3.586 3.401 0.190 535.469 o
-9 2 4 69.158 67.800 0.610 15.405 o
-9 2 5 29.049 28.753 0.470 51.442 o
-9 2 6 5.372 4.832 0.310 248.955 o
-9 2 7 24.589 25.361 0.600 48.637 o
-9 2 8 8.767 9.104 0.470 114.724 o
-9 2 9 2.832 2.031 0.800 54.370 o
-9 3 1 22.155 20.959 0.310 88.122 o
-9 3 2 100.379 99.424 0.580 8.676 o
-9 3 3 6.607 6.453 0.210 333.272 o
-9 3 4 48.161 47.451 0.530 26.678 o
-9 3 5 140.304 140.332 0.980 4.489 o
-9 3 6 6.419 5.753 0.320 221.983 o
-9 3 7 3.281 2.991 0.390 200.061 o
-9 3 8 8.197 7.573 0.460 122.852 o
-9 3 9 1.370 1.261 0.410 201.064 o
-9 4 1 5.629 5.692 0.210 368.686 o
-9 4 2 146.249 146.995 0.770 4.370 o
-9 4 3 142.718 141.752 0.720 4.632 o
-9 4 4 3.498 3.321 0.230 432.704 o
-9 4 5 12.537 12.686 0.370 127.356 o
-9 4 6 31.189 31.794 0.530 43.719 o
-9 4 7 8.087 7.713 0.450 126.944 o
-9 4 8 9.110 9.274 0.480 110.065 o
-9 4 9 8.540 8.794 0.500 106.012 o
-9 5 1 52.805 51.203 0.460 24.898 o
-9 5 2 44.438 44.049 0.470 31.029 o
-9 5 3 59.020 59.356 0.500 20.346 o
-9 5 4 37.955 37.967 0.520 35.927 o
-9 5 5 7.442 7.163 0.300 220.265 o
-9 5 6 44.292 44.700 0.630 26.857 o
-9 5 7 27.109 26.652 0.770 35.202 o
-9 5 8 19.121 19.559 0.720 46.113 o
-9 5 9 2.434 2.361 0.870 46.294 o
-9 6 1 70.016 70.091 0.480 15.917 o
-9 6 2 93.866 93.131 0.790 8.980 o
-9 6 3 53.889 53.263 0.490 23.519 o
-9 6 4 68.698 67.950 0.660 15.077 o
-9 6 5 13.021 12.836 0.340 134.759 o
-9 6 6 2.737 2.411 0.320 288.162 o
-9 6 7 28.347 29.293 0.790 32.850 o
-9 6 8 2.967 3.021 0.820 51.538 o
-9 7 1 92.738 93.761 0.580 9.766 o
-9 7 2 12.021 11.685 0.370 132.166 o
-9 7 3 21.137 20.879 0.460 70.667 o
-9 7 4 24.224 24.011 0.530 55.784 o
-9 7 5 100.366 102.795 1.010 7.332 o
-9 7 6 4.576 4.592 0.400 178.240 o
-9 7 8 7.821 8.084 0.590 84.001 o
-9 8 1 69.489 69.080 0.550 15.656 o
-9 8 2 19.961 19.899 0.460 73.922 o
-9 8 3 83.895 84.467 0.880 10.080 o
-9 8 4 4.910 4.102 0.450 146.868 o
-9 8 5 2.988 2.681 0.370 222.397 o
-9 8 6 7.851 7.753 0.440 131.922 o
-9 8 7 13.089 13.756 0.630 64.973 o
-9 8 8 14.817 15.317 0.660 58.053 o
-9 9 1 39.090 38.687 0.450 37.302 o
-9 9 3 14.450 14.176 0.440 97.924 o
-9 9 4 27.704 28.102 0.730 36.581 o
-9 9 5 8.630 8.514 0.540 94.547 o
-9 9 6 19.607 19.969 0.700 47.288 o
-9 9 7 3.107 3.562 0.710 67.568 o
-9 10 1 3.356 2.991 0.400 191.153 o
-9 10 2 73.189 74.353 0.710 13.250 o
-9 10 3 29.980 30.173 0.590 42.099 o
-9 10 4 4.364 3.672 0.460 144.615 o
-9 10 5 12.033 11.815 0.590 74.315 o
-9 10 6 2.931 2.841 0.410 186.307 o
-9 10 7 11.383 11.895 0.850 42.208 o
-9 11 1 56.431 59.136 0.950 15.354 o
-9 11 2 1.227 1.161 0.360 258.180 o
-9 11 3 13.091 13.216 0.580 73.358 o
-9 11 4 10.790 11.015 0.580 78.837 o
-9 11 5 16.458 16.627 0.670 54.551 o
-9 11 6 7.016 6.523 0.460 128.994 o
-9 12 1 50.658 52.263 1.020 16.123 o
-9 12 2 29.532 29.393 0.580 43.426 o
-9 12 3 2.089 1.761 0.360 246.239 o
-9 12 5 7.496 7.113 0.570 90.301 o
-9 12 6 21.964 22.790 0.730 42.072 o
-9 13 1 13.266 12.255 0.500 89.748 o
-9 13 2 5.335 4.622 0.360 203.293 o
-9 13 3 1.885 1.401 0.360 250.136 o
-9 13 4 45.609 50.092 0.980 18.008 o
-9 13 5 3.628 3.742 0.560 103.974 o
-9 14 1 12.928 11.805 0.630 66.388 o
-9 14 2 7.408 6.743 0.390 161.010 o
-9 14 3 3.947 3.251 0.550 107.262 o
-9 14 4 5.022 4.432 0.550 103.711 o
-9 15 1 6.511 5.873 0.460 132.071 o
-9 15 2 7.280 6.143 0.500 113.176 o
-9 15 3 9.878 8.674 0.640 70.515 o
-9 16 1 2.178 1.561 0.470 151.602 o
-8 -16 -3 3.296 3.271 0.800 53.809 o
-8 -16 -2 2.930 2.851 0.630 85.280 o
-8 -16 0 11.346 10.925 0.640 67.316 o
-8 -15 -2 38.924 41.598 0.920 21.999 o
-8 -15 -1 6.726 6.203 0.570 92.573 o
-8 -15 0 12.308 12.175 0.630 66.935 o
-8 -14 -3 11.519 10.765 0.880 39.972 o
-8 -14 -1 6.414 6.373 0.540 101.753 o
-8 -14 0 12.451 12.896 0.510 88.645 o
-8 -13 -1 21.321 22.350 0.720 43.424 o
-8 -13 0 9.824 10.274 0.470 109.572 o
-8 -12 -3 46.603 49.152 1.341 12.643 o
-8 -12 -2 5.822 4.932 0.710 64.699 o
-8 -12 -1 8.331 7.963 0.760 54.385 o
-8 -12 0 5.233 4.902 0.380 187.335 o
-8 -11 -6 9.471 8.634 0.780 51.022 o
-8 -11 -4 4.824 4.132 0.680 71.341 o
-8 -11 -3 5.310 5.703 0.700 66.496 o
-8 -11 -2 24.083 23.971 0.980 27.217 o
-8 -11 -1 32.989 32.594 1.090 20.328 o
-8 -11 0 36.799 37.036 0.640 32.480 o
-8 -10 -4 54.125 52.713 1.321 11.872 o
-8 -10 -3 20.757 20.039 0.920 31.757 o
-8 -10 -2 4.540 4.532 0.440 153.111 o
-8 -10 -1 17.044 16.837 0.580 64.790 o
-8 -10 0 84.937 85.297 0.850 10.065 o
-8 -9 -8 5.410 5.042 0.850 46.616 o
-8 -9 -7 31.502 33.765 0.820 29.067 o
-8 -9 -6 7.241 6.713 0.770 54.292 o
-8 -9 -4 61.539 59.216 0.920 14.766 o
-8 -9 -3 42.636 40.288 0.770 24.842 o
-8 -9 -2 236.985 240.446 1.661 1.651 o
-8 -9 -1 31.566 30.123 0.530 44.157 o
-8 -9 0 26.297 26.232 0.430 60.176 o
-8 -8 -8 27.055 26.742 0.780 34.681 o
-8 -8 -7 7.410 6.673 0.430 140.551 o
-8 -8 -6 20.899 20.749 0.580 57.129 o
-8 -8 -4 68.069 68.350 1.080 11.595 o
-8 -8 -3 51.442 50.412 0.800 19.687 o
-8 -8 -2 72.725 73.182 0.900 12.054 o
-8 -8 -1 37.425 36.736 0.530 36.392 o
-8 -8 0 61.500 61.327 0.640 17.722 o
-8 -7 -9 2.295 2.411 0.750 61.806 o
-8 -7 -8 5.350 5.222 0.570 96.064 o
-8 -7 -7 25.410 23.530 0.690 42.111 o
-8 -7 -6 168.457 174.447 1.271 3.065 o
-8 -7 -5 64.412 65.129 0.620 16.715 o
-8 -7 -4 32.937 32.704 0.420 47.436 o
-8 -7 -3 16.538 16.237 0.330 113.049 o
-8 -7 -2 26.862 26.192 0.560 48.937 o
-8 -7 -1 216.772 218.936 0.840 2.151 o
-8 -7 0 178.883 179.179 0.730 3.094 o
-8 -6 -10 11.912 11.435 0.900 38.160 o
-8 -6 -9 25.233 26.221 0.780 35.815 o
-8 -6 -8 17.735 17.788 0.550 67.170 o
-8 -6 -7 20.206 20.129 0.450 74.584 o
-8 -6 -6 18.864 18.188 0.360 94.824 o
-8 -6 -5 7.850 7.433 0.250 256.423 o
-8 -6 -4 185.604 187.502 0.930 2.806 o
-8 -6 -3 191.416 193.835 0.710 2.727 o
-8 -6 -2 59.927 60.186 0.510 19.800 o
-8 -6 -1 9.237 8.884 0.210 256.951 o
-8 -6 0 182.697 182.320 0.700 2.996 o
-8 -5 -9 5.605 5.092 0.500 119.516 o
-8 -5 -8 7.447 7.293 0.450 130.171 o
-8 -5 -7 63.860 63.388 0.700 16.251 o
-8 -5 -6 30.416 30.243 0.420 52.057 o
-8 -5 -5 38.809 38.087 0.680 29.679 o
-8 -5 -4 222.173 222.708 0.980 2.036 o
-8 -5 -3 124.293 124.585 0.630 5.946 o
-8 -5 -2 247.828 249.850 0.850 1.684 o
-8 -5 -1 164.803 160.050 0.630 3.695 o
-8 -5 0 84.885 85.718 0.490 11.611 o
-8 -4 -10 4.676 4.282 0.650 77.555 o
-8 -4 -8 43.611 44.780 0.630 27.157 o
-8 -4 -7 26.085 25.721 0.350 68.120 o
-8 -4 -6 2.677 2.191 0.270 381.510 o
-8 -4 -5 112.430 111.399 0.770 6.827 o
-8 -4 -4 59.195 58.506 0.490 20.546 o
-8 -4 -3 178.134 174.086 0.790 3.138 o
-8 -4 -2 23.851 23.510 0.250 86.204 o
-8 -4 -1 17.737 17.128 0.190 135.636 o
-8 -4 0 16.043 15.947 0.220 143.764 o
-8 -3 -10 7.454 7.383 0.610 80.601 o
-8 -3 -9 19.049 18.458 0.500 71.405 o
-8 -3 -8 42.928 43.699 0.560 29.644 o
-8 -3 -7 7.555 7.743 0.300 215.891 o
-8 -3 -6 99.742 99.564 0.690 8.444 o
-8 -3 -5 77.522 77.574 0.540 13.251 o
-8 -3 -4 45.934 46.020 0.390 31.318 o
-8 -3 -3 31.738 31.724 0.320 55.038 o
-8 -3 -2 25.562 25.901 0.240 78.811 o
-8 -3 -1 510.064 518.598 0.900 0.426 o
-8 -3 0 92.408 92.471 0.390 10.404 o
-8 -2 -10 10.946 10.875 0.520 91.968 o
-8 -2 -9 34.832 35.166 0.710 31.420 o
-8 -2 -8 2.223 2.271 0.320 296.701 o
-8 -2 -7 10.862 10.585 0.290 177.442 o
-8 -2 -6 2.780 2.651 0.200 566.664 o
-8 -2 -5 10.259 9.734 0.230 222.199 o
-8 -2 -4 229.198 228.440 0.670 1.987 o
-8 -2 -3 41.887 41.408 0.270 38.928 o
-8 -2 -2 123.534 124.495 0.480 6.161 o
-8 -2 -1 18.861 20.169 0.210 117.340 o
-8 -2 0 327.710 330.605 0.950 0.994 o
-8 -1 -10 2.380 2.251 0.400 200.165 o
-8 -1 -8 2.775 2.721 0.270 372.568 o
-8 -1 -7 17.782 17.998 0.310 108.643 o
-8 -1 -6 80.540 81.026 0.610 12.107 o
-8 -1 -5 3.515 3.592 0.210 477.484 o
-8 -1 -4 53.730 53.574 0.360 25.352 o
-8 -1 -3 133.454 133.329 0.490 5.395 o
-8 -1 -2 107.275 108.568 0.450 7.901 o
-8 -1 -1 111.255 112.199 0.510 7.345 o
-8 -1 0 103.115 105.967 0.540 8.213 o
-8 0 1 563.325 568.670 1.731 0.345 o
-8 0 2 18.604 18.888 0.250 114.771 o
-8 0 3 27.908 27.822 0.270 68.572 o
-8 0 4 1.161 1.521 0.180 840.141 o
-8 0 6 37.426 36.876 0.470 38.683 o
-8 0 7 15.999 15.597 0.430 93.649 o
-8 0 9 12.691 11.535 0.650 63.821 o
-8 1 1 28.252 28.653 0.230 69.557 o
-8 1 2 66.870 68.510 0.370 17.660 o
-8 1 3 82.264 81.306 0.580 11.965 o
-8 1 4 44.342 44.289 0.480 30.762 o
-8 1 5 69.219 68.500 0.550 15.783 o
-8 1 7 5.069 4.302 0.390 183.174 o
-8 1 8 3.642 3.311 0.390 196.350 o
-8 1 9 3.585 3.552 0.540 111.346 o
-8 2 1 38.644 38.057 0.300 43.026 o
-8 2 2 100.240 99.754 0.470 8.922 o
-8 2 3 136.266 136.510 0.680 5.029 o
-8 2 4 13.966 13.466 0.310 137.948 o
-8 2 5 12.921 12.676 0.340 135.711 o
-8 2 6 45.705 45.290 0.680 24.899 o
-8 2 7 1.152 1.040 0.350 273.612 o
-8 2 8 23.085 23.170 0.600 51.318 o
-8 2 9 6.532 6.423 0.570 92.730 o
-8 3 1 1.476 1.581 0.160 946.695 o
-8 3 2 27.117 25.941 0.300 70.035 o
-8 3 3 117.412 116.661 0.610 6.612 o
-8 3 4 136.731 135.450 0.730 4.983 o
-8 3 5 24.332 23.550 0.420 66.791 o
-8 3 6 18.282 17.628 0.490 75.106 o
-8 3 8 39.237 40.528 0.730 27.312 o
-8 4 1 852.515 854.916 2.521 0.154 o
-8 4 2 40.794 40.008 0.370 37.906 o
-8 4 3 13.720 13.436 0.260 156.753 o
-8 4 4 1.482 1.541 0.250 480.903 o
-8 4 5 15.822 15.817 0.380 104.917 o
-8 4 6 37.201 37.256 0.650 31.813 o
-8 4 7 38.835 39.858 0.700 28.580 o
-8 4 8 4.631 4.252 0.550 104.735 o
-8 4 9 1.336 1.471 0.490 143.152 o
-8 5 1 27.539 27.132 0.290 68.633 o
-8 5 2 31.429 31.404 0.350 54.072 o
-8 5 3 98.201 97.583 0.600 8.927 o
-8 5 4 59.320 58.976 0.580 19.365 o
-8 5 5 145.616 146.544 0.840 4.339 o
-8 5 6 31.433 31.314 0.540 43.154 o
-8 5 7 22.174 22.810 0.580 54.362 o
-8 5 8 2.279 2.081 0.410 192.700 o
-8 5 9 5.421 5.492 0.510 115.592 o
-8 6 1 79.386 78.415 0.490 13.094 o
-8 6 2 155.222 155.949 0.840 3.895 o
-8 6 3 39.674 39.587 0.420 37.469 o
-8 6 4 34.444 34.185 0.480 42.101 o
-8 6 5 60.514 62.127 0.660 17.648 o
-8 6 6 85.293 87.038 0.930 9.554 o
-8 6 7 8.118 8.164 0.450 125.982 o
-8 6 8 12.460 12.626 0.630 66.462 o
-8 6 9 3.050 3.001 0.580 99.213 o
-8 7 1 2.187 2.011 0.230 508.405 o
-8 7 2 53.321 52.073 0.740 19.921 o
-8 7 3 103.908 102.775 0.740 7.823 o
-8 7 4 71.698 70.891 0.790 13.207 o
-8 7 5 16.180 15.927 0.480 82.957 o
-8 7 6 10.972 10.094 0.380 137.449 o
-8 7 7 3.064 3.071 0.500 130.086 o
-8 7 8 49.174 53.664 1.000 16.573 o
-8 8 1 118.332 122.544 0.740 6.180 o
-8 8 2 53.258 53.644 0.620 21.645 o
-8 8 3 112.083 111.409 0.960 6.446 o
-8 8 4 16.020 14.947 0.460 88.317 o
-8 8 5 25.993 26.001 0.570 49.201 o
-8 8 6 6.224 6.063 0.350 197.829 o
-8 8 7 58.329 61.057 1.050 13.705 o
-8 8 8 2.381 2.291 0.560 107.902 o
-8 9 1 8.044 7.833 0.260 241.959 o
-8 9 2 9.188 8.874 0.360 159.890 o
-8 9 3 24.452 25.101 0.630 46.571 o
-8 9 4 82.172 82.096 1.131 9.088 o
-8 9 5 55.923 57.245 0.990 15.118 o
-8 9 6 5.397 4.542 0.500 120.931 o
-8 9 7 8.113 7.863 0.770 53.334 o
-8 10 1 80.108 78.945 0.990 10.209 o
-8 10 2 107.784 109.748 1.171 6.232 o
-8 10 3 20.534 20.729 0.620 53.485 o
-8 10 4 2.785 2.461 0.400 196.716 o
-8 10 5 6.464 5.793 0.500 116.006 o
-8 10 6 25.439 25.771 0.760 36.959 o
-8 10 7 3.085 2.821 0.720 66.107 o
-8 11 2 12.178 11.885 0.800 46.258 o
-8 11 3 13.935 15.827 0.860 39.248 o
-8 11 4 28.984 30.944 0.800 31.673 o
-8 11 5 6.933 6.593 0.530 103.439 o
-8 11 6 2.660 2.421 0.520 123.059 o
-8 12 1 10.433 9.534 0.420 125.767 o
-8 12 2 2.613 2.241 0.330 276.638 o
-8 12 3 26.142 27.512 1.120 21.482 o
-8 12 4 4.780 4.472 0.400 177.350 o
-8 12 5 24.184 23.630 0.740 39.616 o
-8 12 6 2.192 2.011 0.560 108.554 o
-8 13 3 16.556 16.087 0.530 73.495 o
-8 13 4 4.504 3.602 0.400 181.786 o
-8 13 5 5.338 4.782 0.760 57.522 o
-8 14 1 2.862 2.291 0.470 147.613 o
-8 14 2 24.795 24.151 1.080 23.364 o
-8 14 3 2.904 2.701 0.440 165.044 o
-8 14 4 3.912 3.442 0.500 126.979 o
-8 15 1 3.396 2.831 0.510 124.909 o
-8 15 2 13.779 11.935 0.630 65.245 o
-8 15 3 0.796 0.820 0.340 294.892 o
-8 15 4 8.481 6.723 0.880 42.112 o
-8 16 1 6.376 5.052 0.510 113.589 o
-8 16 2 4.795 3.842 0.590 92.532 o
-7 -16 -2 5.934 5.472 0.600 86.721 o
-7 -16 -1 10.748 11.085 0.630 69.619 o
-7 -16 0 13.101 13.166 0.650 62.422 o
-7 -15 -2 10.090 9.774 0.600 76.948 o
-7 -15 -1 7.244 7.013 0.560 93.529 o
-7 -15 0 19.391 19.899 0.710 46.625 o
-7 -14 -6 3.993 3.251 0.860 46.560 o
-7 -14 -3 9.429 9.814 0.830 45.511 o
-7 -14 -2 1.904 1.901 0.660 79.712 o
-7 -14 -1 5.694 4.962 0.510 115.572 o
-7 -14 0 18.315 18.978 0.550 65.376 o
-7 -13 -6 17.388 14.886 0.900 35.230 o
-7 -13 -3 9.418 9.064 0.800 48.738 o
-7 -13 -2 56.583 61.207 1.461 9.978 o
-7 -13 -1 40.419 41.508 0.880 22.563 o
-7 -13 0 6.965 6.453 0.360 183.321 o
-7 -12 -7 9.091 7.953 0.900 39.959 o
-7 -12 -6 18.632 17.608 0.940 31.934 o
-7 -12 -3 39.572 40.708 1.211 15.938 o
-7 -12 -1 5.733 5.983 0.710 64.323 o
-7 -12 0 7.155 6.713 0.400 156.979 o
-7 -11 -8 5.082 3.412 0.940 38.908 o
-7 -11 -6 16.435 15.577 0.880 36.769 o
-7 -11 -3 38.405 38.427 1.161 17.211 o
-7 -11 -2 61.260 62.237 1.361 10.350 o
-7 -11 -1 23.908 22.230 0.920 30.170 o
-7 -11 0 10.599 9.814 0.510 96.560 o
-7 -10 -8 3.821 2.961 0.830 49.974 o
-7 -10 -7 3.055 3.201 0.740 62.629 o
-7 -10 -4 59.146 59.516 1.351 10.751 o
-7 -10 -3 13.454 12.956 0.770 48.014 o
-7 -10 -2 8.564 8.204 0.470 116.833 o
-7 -10 -1 27.259 26.572 0.530 50.538 o
-7 -10 0 129.897 127.246 1.030 5.063 o
-7 -9 -9 5.991 5.142 0.890 42.524 o
-7 -9 -8 8.680 8.754 0.580 84.299 o
-7 -9 -7 10.364 10.245 0.480 104.977 o
-7 -9 -6 19.761 19.038 0.540 64.430 o
-7 -9 -5 12.901 12.045 0.730 52.998 o
-7 -9 -4 35.709 36.666 1.070 19.796 o
-7 -9 -3 42.052 41.038 0.750 25.457 o
-7 -9 -2 33.497 33.655 0.670 34.261 o
-7 -9 -1 89.740 89.589 0.810 9.494 o
-7 -9 0 30.099 29.163 0.500 47.979 o
-7 -8 -9 9.815 9.264 0.820 46.420 o
-7 -8 -8 11.422 11.095 0.490 98.147 o
-7 -8 -6 23.587 23.070 0.540 56.278 o
-7 -8 -5 87.226 88.869 1.030 8.826 o
-7 -8 -4 14.844 14.526 0.380 110.874 o
-7 -8 -3 21.096 20.649 0.540 61.294 o
-7 -8 -2 3.294 3.381 0.340 248.647 o
-7 -8 -1 107.741 108.558 0.830 7.107 o
-7 -8 0 47.821 48.361 0.490 27.450 o
-7 -7 -9 5.726 5.062 0.590 89.969 o
-7 -7 -8 8.416 8.024 0.390 151.727 o
-7 -7 -7 69.603 70.811 0.740 13.968 o
-7 -7 -6 4.987 4.602 0.300 266.876 o
-7 -7 -5 29.601 30.634 0.520 46.462 o
-7 -7 -4 24.845 24.851 0.350 71.628 o
-7 -7 -3 111.637 110.809 0.690 7.057 o
-7 -7 -2 203.718 206.041 1.331 2.245 o
-7 -7 -1 9.071 8.994 0.250 228.529 o
-7 -6 -10 12.477 12.726 0.890 38.392 o
-7 -6 -9 4.003 3.702 0.440 157.498 o
-7 -6 -8 8.136 7.723 0.340 182.631 o
-7 -6 -7 12.624 12.305 0.350 134.726 o
-7 -6 -6 24.591 24.291 0.360 71.769 o
-7 -6 -5 67.350 67.249 0.560 16.287 o
-7 -6 -4 109.273 108.838 0.620 7.434 o
-7 -6 -3 13.979 13.726 0.250 157.270 o
-7 -6 -2 36.700 35.976 0.350 44.522 o
-7 -6 -1 56.410 55.374 0.400 23.250 o
-7 -6 0 82.173 81.756 0.400 12.687 o
-7 -5 -10 1.295 1.371 0.490 143.448 o
-7 -5 -9 4.371 4.132 0.360 213.604 o
-7 -5 -8 44.056 44.840 0.630 26.935 o
-7 -5 -7 10.987 10.815 0.330 156.533 o
-7 -5 -6 39.515 38.817 0.410 38.258 o
-7 -5 -5 9.182 8.824 0.250 228.190 o
-7 -5 -4 153.750 153.077 0.700 4.077 o
-7 -5 -3 78.067 77.724 0.460 13.537 o
-7 -5 -2 54.492 56.175 0.430 23.509 o
-7 -5 -1 294.724 300.182 0.850 1.212 o
-7 -5 0 8.039 8.064 0.210 285.256 o
-7 -4 -10 13.288 13.506 0.530 82.037 o
-7 -4 -9 14.449 13.896 0.410 105.705 o
-7 -4 -8 15.875 15.917 0.370 106.882 o
-7 -4 -7 19.665 19.769 0.350 91.577 o
-7 -4 -6 22.890 22.610 0.310 83.595 o
-7 -4 -5 83.490 82.786 0.510 11.967 o
-7 -4 -4 82.934 83.106 0.460 12.226 o
-7 -4 -3 76.620 78.364 0.450 13.797 o
-7 -4 -2 12.495 11.415 0.190 205.781 o
-7 -4 -1 56.367 54.754 0.300 24.514 o
-7 -4 0 336.458 346.422 0.810 0.940 o
-7 -3 -9 12.743 13.166 0.370 125.317 o
-7 -3 -8 18.597 18.728 0.380 91.256 o
-7 -3 -7 17.877 17.458 0.310 109.357 o
-7 -3 -6 57.984 57.655 0.520 20.745 o
-7 -3 -5 13.023 12.405 0.240 173.987 o
-7 -3 -4 1.605 1.731 0.140 1084.030 o
-7 -3 -3 210.012 208.512 0.660 2.342 o
-7 -3 -2 354.254 356.547 0.820 0.864 o
-7 -3 -1 72.106 72.222 0.390 15.717 o
-7 -3 0 91.471 93.231 0.470 10.270 o
-7 -2 -10 18.789 19.238 0.510 69.775 o
-7 -2 -9 3.537 3.211 0.330 258.786 o
-7 -2 -8 81.544 80.946 0.710 11.457 o
-7 -2 -7 3.087 2.991 0.270 361.933 o
-7 -2 -6 65.189 64.829 0.450 18.076 o
-7 -2 -5 104.437 105.036 0.500 8.215 o
-7 -2 -4 24.565 23.530 0.260 83.048 o
-7 -2 -3 201.297 202.749 0.570 2.528 o
-7 -2 -2 157.499 154.328 0.600 4.002 o
-7 -2 -1 23.041 23.670 0.350 77.099 o
-7 -2 0 157.053 158.370 0.830 3.816 o
-7 -1 -10 2.833 2.551 0.370 224.327 o
-7 -1 -8 9.048 8.584 0.330 178.271 o
-7 -1 -7 67.523 67.159 0.470 16.967 o
-7 -1 -6 74.012 73.582 0.510 14.468 o
-7 -1 -5 34.158 33.465 0.330 49.911 o
-7 -1 -4 64.925 65.389 0.380 18.615 o
-7 -1 -3 191.404 193.245 0.600 2.762 o
-7 -1 -2 154.506 153.958 0.750 4.008 o
-7 -1 -1 552.294 546.710 1.931 0.360 o
-7 -1 0 112.993 109.608 0.930 6.512 o
-7 0 1 38.931 38.017 0.540 34.485 o
-7 0 2 212.999 216.325 0.750 2.232 o
-7 0 3 161.936 159.550 0.600 3.795 o
-7 0 4 129.341 128.306 0.600 5.618 o
-7 0 5 141.554 145.054 0.800 4.543 o
-7 0 6 21.193 20.319 0.400 79.165 o
-7 0 7 7.967 6.993 0.340 186.852 o
-7 0 8 23.221 22.830 0.450 66.242 o
-7 0 9 6.029 5.112 0.540 104.030 o
-7 0 10 4.159 3.922 0.620 85.460 o
-7 1 1 40.520 40.548 0.390 37.312 o
-7 1 2 173.121 177.528 0.590 3.289 o
-7 1 3 52.476 52.323 0.420 25.410 o
-7 1 4 270.329 268.348 0.910 1.441 o
-7 1 5 9.189 8.854 0.250 227.919 o
-7 1 6 9.053 8.304 0.360 162.551 o
-7 1 7 24.662 23.921 0.550 53.503 o
-7 1 8 32.787 32.524 0.560 40.371 o
-7 1 9 12.258 12.195 0.650 63.939 o
-7 1 10 1.523 1.301 0.560 110.566 o
-7 2 1 502.259 510.965 1.681 0.428 o
-7 2 2 147.683 147.875 0.510 4.485 o
-7 2 3 43.782 43.599 0.340 34.795 o
-7 2 4 14.137 14.586 0.310 133.876 o
-7 2 5 10.371 10.114 0.300 178.274 o
-7 2 6 166.875 163.642 1.421 3.093 o
-7 2 7 23.051 23.220 0.550 55.913 o
-7 2 8 1.810 1.441 0.400 206.884 o
-7 2 10 4.124 3.892 0.620 85.529 o
-7 3 1 86.727 86.758 0.530 11.126 o
-7 3 2 162.931 165.643 0.700 3.636 o
-7 3 3 222.457 222.858 0.790 2.072 o
-7 3 4 55.096 53.013 0.450 23.649 o
-7 3 5 7.090 6.913 0.290 234.241 o
-7 3 6 2.342 1.941 0.320 297.387 o
-7 3 7 42.464 43.259 0.870 21.919 o
-7 3 8 13.185 13.136 0.500 88.917 o
-7 3 9 14.915 15.537 0.680 55.447 o
-7 4 1 92.554 91.840 0.420 10.353 o
-7 4 2 50.485 50.512 0.370 27.649 o
-7 4 3 58.334 57.725 0.430 21.675 o
-7 4 4 23.382 22.880 0.380 73.764 o
-7 4 5 108.199 109.358 0.690 7.355 o
-7 4 6 15.678 15.157 0.470 86.915 o
-7 4 7 3.129 3.452 0.370 217.864 o
-7 4 8 3.214 2.791 0.400 192.747 o
-7 4 9 13.565 13.846 0.660 60.167 o
-7 5 1 74.084 74.683 0.510 14.342 o
-7 5 2 88.609 86.588 0.540 10.846 o
-7 5 3 46.537 47.371 0.410 30.098 o
-7 5 4 58.516 58.696 0.560 19.902 o
-7 5 5 40.455 39.697 0.530 33.237 o
-7 5 7 9.179 9.354 0.440 123.612 o
-7 5 8 22.843 23.030 0.600 51.650 o
-7 5 9 2.669 2.851 0.480 141.770 o
-7 6 1 148.619 151.537 0.790 4.200 o
-7 6 2 41.025 39.718 0.490 34.130 o
-7 6 3 3.654 3.592 0.230 422.937 o
-7 6 4 50.082 49.142 0.540 25.191 o
-7 6 5 22.548 21.850 0.420 71.905 o
-7 6 6 10.800 11.775 0.380 134.169 o
-7 6 7 9.696 9.754 0.460 114.033 o
-7 6 8 0.617 0.960 0.380 239.533 o
-7 6 9 2.657 2.141 0.680 74.422 o
-7 7 1 11.650 11.005 0.260 183.659 o
-7 7 2 98.144 98.924 0.970 7.756 o
-7 7 3 43.012 41.948 0.520 31.213 o
-7 7 4 18.904 18.898 0.460 77.133 o
-7 7 5 15.645 15.677 0.470 86.371 o
-7 7 6 9.616 10.074 0.440 120.634 o
-7 7 7 31.646 31.954 0.810 29.791 o
-7 8 1 72.512 72.272 0.510 14.917 o
-7 8 2 55.064 55.354 0.840 17.504 o
-7 8 3 16.173 15.997 0.360 107.961 o
-7 8 4 15.385 15.117 0.440 93.916 o
-7 8 5 4.333 4.182 0.370 204.840 o
-7 8 6 34.506 35.145 0.650 34.038 o
-7 8 7 1.764 1.731 0.480 146.928 o
-7 8 8 3.066 3.271 0.570 102.179 o
-7 9 1 24.070 23.430 0.320 78.231 o
-7 9 2 37.080 36.166 0.550 36.067 o
-7 9 3 34.010 33.925 0.620 36.056 o
-7 9 4 52.548 52.633 0.900 17.505 o
-7 9 5 1.806 1.981 0.430 179.559 o
-7 9 6 2.021 1.781 0.430 178.951 o
-7 9 7 3.236 3.812 0.680 73.061 o
-7 9 8 22.726 23.500 1.040 25.342 o
-7 10 1 32.726 32.724 0.460 45.546 o
-7 10 2 3.233 2.701 0.320 279.113 o
-7 10 3 42.385 42.199 0.640 28.094 o
-7 10 4 5.802 5.743 0.670 71.418 o
-7 10 5 40.853 41.838 0.880 22.380 o
-7 10 6 7.618 7.643 0.550 94.878 o
-7 10 7 3.993 3.201 0.650 78.980 o
-7 10 8 3.748 3.752 0.790 54.737 o
-7 11 1 23.359 23.820 0.430 67.277 o
-7 11 2 13.703 14.276 0.570 73.262 o
-7 11 3 75.564 76.314 1.080 10.291 o
-7 11 4 11.489 11.505 0.810 45.824 o
-7 11 5 11.299 11.645 0.590 75.579 o
-7 11 6 5.166 4.762 0.510 117.295 o
-7 11 7 6.905 6.713 0.780 53.262 o
-7 12 1 111.216 113.850 1.030 6.270 o
-7 12 2 18.940 18.208 0.510 70.411 o
-7 12 3 4.971 4.092 0.450 146.631 o
-7 12 4 2.914 2.461 0.440 165.571 o
-7 12 5 7.735 7.853 0.540 97.200 o
-7 12 6 18.368 18.858 0.690 49.708 o
-7 12 7 9.783 10.755 0.850 43.260 o
-7 13 2 11.474 10.305 0.570 80.303 o
-7 13 3 26.829 27.122 1.120 21.381 o
-7 13 4 7.144 6.383 0.440 137.645 o
-7 13 5 16.746 16.677 0.670 54.245 o
-7 13 6 1.686 1.331 0.460 160.296 o
-7 14 1 15.139 13.596 0.630 62.565 o
-7 14 2 15.539 14.646 0.930 34.157 o
-7 14 3 10.239 9.424 0.600 76.986 o
-7 14 4 12.833 11.925 0.610 69.620 o
-7 14 5 17.293 18.008 0.680 52.036 o
-7 15 3 20.687 22.100 0.980 28.555 o
-7 15 4 5.574 5.402 0.560 98.426 o
-7 16 1 12.959 8.924 0.620 69.826 o
-7 16 2 1.497 1.281 0.430 183.075 o
-7 16 3 3.153 2.651 0.800 54.045 o
-6 -16 -4 4.014 3.331 0.820 50.964 o
-6 -16 -1 65.805 73.622 1.631 7.812 o
-6 -15 -2 14.305 14.806 0.650 60.153 o
-6 -15 -1 5.733 4.932 0.550 101.668 o
-6 -15 0 7.165 6.863 0.750 56.903 o
-6 -14 -6 42.451 41.238 1.271 14.540 o
-6 -14 -2 18.842 18.748 0.940 31.656 o
-6 -14 -1 11.043 11.275 0.600 74.391 o
-6 -14 0 41.498 42.549 0.710 26.468 o
-6 -13 -7 4.760 4.722 0.890 43.059 o
-6 -13 -2 35.926 37.977 1.171 17.476 o
-6 -13 -1 4.374 3.982 0.640 80.332 o
-6 -13 0 12.104 11.655 0.390 124.883 o
-6 -12 -7 26.395 25.081 1.080 22.892 o
-6 -12 -6 1.991 1.941 0.740 63.795 o
-6 -12 -3 23.999 24.971 1.000 26.305 o
-6 -12 -2 14.877 14.857 0.830 41.303 o
-6 -12 -1 57.639 58.986 1.341 11.008 o
-6 -12 0 41.136 41.928 0.680 27.615 o
-6 -11 -8 12.598 11.945 0.890 38.505 o
-6 -11 -7 6.181 6.533 0.780 53.769 o
-6 -11 -6 20.771 19.098 0.650 51.178 o
-6 -11 -5 15.915 16.197 0.830 40.399 o
-6 -11 -3 12.845 12.575 0.780 47.559 o
-6 -11 -2 42.505 42.479 1.141 16.532 o
-6 -11 -1 40.908 41.138 0.790 24.797 o
-6 -11 0 9.706 8.764 0.480 109.051 o
-6 -10 -8 13.942 12.636 0.630 64.611 o
-6 -10 -7 8.310 7.203 0.590 83.920 o
-6 -10 -6 64.560 67.280 1.421 9.412 o
-6 -10 -5 14.452 13.536 0.740 50.120 o
-6 -10 -4 2.968 3.321 0.400 192.623 o
-6 -10 -3 23.185 22.840 0.890 31.779 o
-6 -10 -2 34.367 33.695 1.000 22.238 o
-6 -10 -1 71.370 71.942 0.940 12.031 o
-6 -10 0 100.561 100.644 1.531 5.815 o
-6 -9 -9 18.831 18.558 0.570 62.397 o
-6 -9 -7 16.186 15.977 0.460 86.639 o
-6 -9 -6 7.561 7.213 0.360 176.267 o
-6 -9 -5 22.169 22.780 0.500 62.554 o
-6 -9 -4 3.928 3.732 0.380 201.171 o
-6 -9 -3 134.013 135.580 1.161 4.569 o
-6 -9 -2 45.571 45.730 0.740 23.482 o
-6 -9 -1 6.165 6.193 0.320 222.342 o
-6 -9 0 13.418 13.446 0.370 121.691 o
-6 -8 -8 17.317 16.887 0.690 51.502 o
-6 -8 -7 21.071 21.189 0.500 65.566 o
-6 -8 -6 3.191 2.611 0.300 310.287 o
-6 -8 -5 73.914 76.273 0.780 12.497 o
-6 -8 -4 33.086 33.865 0.450 45.081 o
-6 -8 -3 6.915 6.013 0.250 283.198 o
-6 -8 -2 10.569 10.745 0.410 126.367 o
-6 -8 -1 140.071 141.422 1.000 4.456 o
-6 -8 0 33.807 33.905 0.360 48.680 o
-6 -7 -10 2.136 2.111 0.770 58.920 o
-6 -7 -9 1.868 1.821 0.400 205.159 o
-6 -7 -8 25.332 26.622 0.760 36.772 o
-6 -7 -7 22.243 22.820 0.560 56.209 o
-6 -7 -6 47.923 48.501 0.680 23.406 o
-6 -7 -5 54.694 55.454 0.560 21.743 o
-6 -7 -4 59.369 59.786 0.460 20.602 o
-6 -7 -3 48.307 48.521 0.370 29.456 o
-6 -7 -2 35.660 35.996 0.430 42.321 o
-6 -7 -1 118.181 118.862 0.700 6.359 o
-6 -7 0 5.158 4.822 0.160 496.620 o
-6 -6 -10 4.774 4.042 0.620 84.523 o
-6 -6 -9 6.048 4.912 0.430 150.808 o
-6 -6 -8 17.209 16.757 0.410 92.594 o
-6 -6 -7 14.701 14.226 0.360 117.402 o
-6 -6 -6 39.267 38.487 0.460 36.892 o
-6 -6 -5 74.751 75.983 0.540 13.909 o
-6 -6 -4 40.011 40.668 0.390 37.690 o
-6 -6 -3 43.450 43.169 0.330 35.452 o
-6 -6 -2 39.912 40.018 0.330 39.873 o
-6 -6 -1 0.552 0.500 0.150 1346.080 o
-6 -6 0 330.156 335.968 0.830 0.981 o
-6 -5 -9 24.260 24.821 0.480 59.855 o
-6 -5 -8 23.823 23.670 0.450 64.466 o
-6 -5 -7 13.695 13.336 0.350 126.855 o
-6 -5 -6 20.695 20.289 0.320 92.266 o
-6 -5 -5 3.330 2.981 0.200 528.724 o
-6 -5 -4 35.728 35.726 0.320 46.949 o
-6 -5 -3 86.600 88.029 0.480 11.230 o
-6 -5 -2 346.692 352.805 1.080 0.883 o
-6 -5 -1 10.410 10.765 0.210 225.800 o
-6 -5 0 105.566 104.556 0.630 7.874 o
-6 -4 -10 4.046 4.302 0.480 134.468 o
-6 -4 -9 1.822 1.411 0.360 250.727 o
-6 -4 -8 56.919 57.015 0.570 20.565 o
-6 -4 -7 72.945 73.412 0.600 14.129 o
-6 -4 -6 63.939 63.808 0.490 18.236 o
-6 -4 -5 42.339 42.349 0.370 35.670 o
-6 -4 -4 57.269 56.325 0.370 23.038 o
-6 -4 -3 27.241 28.743 0.330 64.561 o
-6 -4 -2 6.713 6.353 0.200 344.957 o
-6 -4 -1 273.225 276.872 1.201 1.363 o
-6 -4 0 125.988 128.336 0.860 5.457 o
-6 -3 -10 2.581 2.261 0.590 97.485 o
-6 -3 -9 7.270 6.993 0.320 207.182 o
-6 -3 -8 15.263 14.997 0.360 113.479 o
-6 -3 -7 59.379 57.925 0.570 19.630 o
-6 -3 -6 15.964 15.707 0.280 129.446 o
-6 -3 -5 24.096 23.791 0.340 75.561 o
-6 -3 -4 296.671 293.929 0.730 1.226 o
-6 -3 -3 383.827 382.778 0.920 0.744 o
-6 -3 -2 88.800 87.588 0.480 10.955 o
-6 -3 -1 218.357 220.657 2.831 1.483 o
-6 -3 0 20.260 20.059 0.300 97.193 o
-6 -2 -10 17.813 16.977 0.520 72.027 o
-6 -2 -9 51.596 52.963 0.590 22.874 o
-6 -2 -8 49.535 48.741 0.580 24.741 o
-6 -2 -7 10.224 10.175 0.280 190.233 o
-6 -2 -6 43.355 42.929 0.350 35.150 o
-6 -2 -5 109.665 108.087 0.500 7.644 o
-6 -2 -4 157.664 161.381 0.570 3.906 o
-6 -2 -3 21.303 20.709 0.220 103.662 o
-6 -2 -2 495.139 483.352 1.371 0.456 o
-6 -2 -1 312.759 306.905 1.080 1.095 o
-6 -2 0 920.102 903.117 4.292 0.129 o
-6 -1 -11 1.905 2.411 0.840 49.775 o
-6 -1 -10 3.162 2.581 0.350 242.833 o
-6 -1 -9 32.717 32.444 0.520 42.528 o
-6 -1 -8 34.450 34.195 0.490 41.618 o
-6 -1 -7 80.880 81.166 0.530 12.423 o
-6 -1 -6 4.055 4.092 0.200 469.989 o
-6 -1 -5 1.730 1.401 0.170 851.513 o
-6 -1 -4 365.578 359.838 0.760 0.827 o
-6 -1 -3 426.309 424.597 1.191 0.603 o
-6 -1 -2 529.791 533.895 3.572 0.351 o
-6 -1 -1 263.275 253.942 1.231 1.496 o
-6 -1 0 72.990 73.262 0.690 13.518 o
-6 0 1 529.667 521.809 2.341 0.384 o
-6 0 2 6.387 6.563 0.250 287.665 o
-6 0 3 792.560 780.073 2.311 0.180 o
-6 0 5 53.572 53.103 0.450 24.285 o
-6 0 6 34.513 34.415 0.540 39.138 o
-6 0 7 23.387 22.980 0.400 71.364 o
-6 0 8 62.657 64.298 0.720 16.212 o
-6 0 9 6.164 5.492 0.540 103.297 o
-6 0 10 2.401 2.441 0.590 97.631 o
-6 1 1 260.569 262.285 1.201 1.491 o
-6 1 2 214.567 212.763 1.591 1.992 o
-6 1 3 236.921 234.723 0.900 1.840 o
-6 1 4 35.897 34.325 0.380 45.089 o
-6 1 5 43.843 44.570 0.430 32.244 o
-6 1 6 44.195 43.929 0.520 29.931 o
-6 1 7 52.607 53.303 0.710 20.442 o
-6 1 8 42.185 42.399 0.700 26.478 o
-6 1 9 21.653 21.209 0.700 45.152 o
-6 2 1 37.837 36.846 0.500 37.199 o
-6 2 2 25.970 26.372 0.310 71.236 o
-6 2 3 0.234 0.400 0.170 1154.430 o
-6 2 4 219.705 218.956 0.940 2.094 o
-6 2 5 163.426 163.262 0.990 3.481 o
-6 2 6 4.604 4.312 0.400 178.934 o
-6 2 7 29.477 29.643 0.710 36.073 o
-6 2 8 1.029 1.080 0.430 186.124 o
-6 2 9 7.788 7.873 0.590 84.227 o
-6 2 10 12.700 12.906 0.950 34.241 o
-6 3 1 331.889 335.828 1.881 0.905 o
-6 3 2 396.149 401.316 1.060 0.689 o
-6 3 3 60.548 59.186 0.500 19.872 o
-6 3 4 35.447 34.345 0.570 37.097 o
-6 3 5 3.660 3.472 0.270 343.624 o
-6 3 6 14.777 13.616 0.510 82.821 o
-6 3 7 25.006 25.211 0.680 42.462 o
-6 3 8 32.554 33.084 0.800 29.529 o
-6 3 9 7.606 7.793 0.580 86.985 o
-6 3 10 11.298 11.575 0.650 65.408 o
-6 4 1 244.508 247.489 1.461 1.613 o
-6 4 2 104.474 102.185 0.530 8.280 o
-6 4 3 83.013 84.007 0.510 11.946 o
-6 4 4 10.911 10.134 0.310 168.846 o
-6 4 5 136.062 134.769 1.271 4.366 o
-6 4 6 6.132 5.292 0.440 144.304 o
-6 4 7 30.118 29.483 0.740 34.249 o
-6 4 8 19.767 19.689 0.560 61.529 o
-6 4 9 4.510 4.192 0.570 98.610 o
-6 5 1 18.585 18.018 0.280 111.172 o
-6 5 2 148.884 150.376 0.850 4.162 o
-6 5 3 239.460 240.956 0.820 1.800 o
-6 5 4 13.845 13.306 0.280 149.309 o
-6 5 5 5.123 5.012 0.280 286.300 o
-6 5 6 21.996 21.079 0.430 72.585 o
-6 5 7 46.001 46.861 0.720 23.567 o
-6 5 8 3.300 3.391 0.420 175.034 o
-6 5 9 14.525 14.826 0.660 58.619 o
-6 6 1 38.145 37.577 0.350 42.156 o
-6 6 2 40.113 38.437 0.470 35.914 o
-6 6 3 40.712 40.688 0.380 37.392 o
-6 6 4 134.428 135.019 0.990 4.786 o
-6 6 5 11.387 11.105 0.350 144.661 o
-6 6 6 53.303 56.095 0.670 20.432 o
-6 6 7 4.395 4.212 0.400 180.553 o
-6 6 9 3.439 3.171 0.910 41.968 o
-6 7 1 142.449 143.623 0.630 4.680 o
-6 7 2 32.667 31.864 0.450 46.611 o
-6 7 3 29.394 29.203 0.400 55.508 o
-6 7 4 147.202 148.415 1.030 4.084 o
-6 7 5 19.206 19.048 0.420 82.502 o
-6 7 6 6.586 6.533 0.380 172.655 o
-6 7 7 6.846 6.633 0.530 103.598 o
-6 7 8 26.304 27.832 0.780 34.791 o
-6 7 9 3.006 2.791 0.980 36.506 o
-6 8 1 171.789 175.457 0.720 3.291 o
-6 8 2 16.239 15.807 0.470 84.816 o
-6 8 3 29.836 29.773 0.500 47.933 o
-6 8 4 7.115 6.823 0.360 180.868 o
-6 8 5 95.469 97.523 0.810 8.558 o
-6 8 6 9.456 9.174 0.430 126.669 o
-6 8 7 3.648 3.722 0.520 118.776 o
-6 9 1 34.724 34.475 0.350 47.664 o
-6 9 2 65.048 64.838 0.670 16.116 o
-6 9 3 101.029 101.064 1.110 7.041 o
-6 9 4 17.340 17.308 0.600 61.467 o
-6 9 6 2.824 2.451 0.470 147.454 o
-6 9 7 36.493 38.187 1.251 15.879 o
-6 9 8 12.851 13.346 0.890 38.104 o
-6 10 1 4.853 4.562 0.240 355.073 o
-6 10 2 7.138 6.823 0.440 136.753 o
-6 10 3 22.225 22.700 0.630 49.814 o
-6 10 4 56.769 58.476 0.960 15.229 o
-6 10 5 1.968 1.701 0.320 304.855 o
-6 10 6 53.076 53.033 1.371 11.453 o
-6 10 7 3.562 3.922 0.660 76.851 o
-6 10 8 14.640 14.636 0.910 35.750 o
-6 11 1 29.941 30.393 0.460 50.013 o
-6 11 2 134.194 137.841 1.090 4.615 o
-6 11 3 31.828 31.894 0.760 31.785 o
-6 11 4 2.206 2.031 0.340 269.242 o
-6 11 5 5.013 4.832 0.400 174.817 o
-6 11 6 7.318 7.453 0.780 52.770 o
-6 11 7 6.942 6.523 0.750 57.186 o
-6 12 1 59.924 62.057 0.750 16.758 o
-6 12 2 9.248 7.984 0.410 138.310 o
-6 12 3 1.975 1.461 0.320 306.594 o
-6 12 4 27.843 27.612 0.610 43.821 o
-6 12 5 49.087 50.182 1.401 11.665 o
-6 12 6 3.928 3.251 0.520 118.660 o
-6 12 7 4.590 4.002 0.790 54.194 o
-6 13 1 39.574 38.137 0.840 24.444 o
-6 13 2 34.346 33.125 0.640 35.210 o
-6 13 3 16.393 15.067 0.520 76.361 o
-6 13 4 2.181 1.641 0.510 129.993 o
-6 13 5 1.600 1.221 0.440 174.955 o
-6 13 6 32.781 34.375 0.850 27.318 o
-6 14 1 21.770 21.780 1.010 27.002 o
-6 14 2 6.130 5.312 0.440 144.270 o
-6 14 3 16.070 15.487 0.960 32.098 o
-6 14 5 3.286 3.081 0.530 116.463 o
-6 15 1 17.274 13.956 0.660 56.205 o
-6 15 2 15.250 12.856 0.650 60.186 o
-6 15 3 8.341 7.423 0.490 111.760 o
-6 15 4 5.771 5.442 0.460 135.678 o
-6 16 1 3.668 3.061 0.490 132.974 o
-6 17 1 11.606 9.444 0.640 67.904 o
-5 -17 -2 9.623 9.564 0.820 46.443 o
-5 -17 -1 4.795 3.922 0.770 56.762 o
-5 -16 -2 23.586 25.071 1.070 23.872 o
-5 -16 -1 7.760 7.023 0.760 55.109 o
-5 -16 0 2.421 2.081 0.780 57.311 o
-5 -15 -2 4.215 4.512 0.700 68.014 o
-5 -15 -1 9.673 9.434 0.580 82.026 o
-5 -15 0 9.338 9.064 0.580 82.909 o
-5 -14 -2 13.286 13.706 0.830 42.453 o
-5 -14 -1 8.658 8.524 0.550 91.849 o
-5 -14 0 6.955 7.173 0.430 141.461 o
-5 -13 -7 4.776 3.882 0.810 51.637 o
-5 -13 -5 3.497 3.371 0.740 62.258 o
-5 -13 -4 24.078 24.931 0.960 27.886 o
-5 -13 -3 6.371 7.073 0.500 114.439 o
-5 -13 -2 7.658 7.153 0.480 117.792 o
-5 -13 -1 21.090 21.930 0.630 51.327 o
-5 -13 0 20.971 21.299 0.470 69.319 o
-5 -12 -7 8.782 8.724 0.600 79.748 o
-5 -12 -6 15.618 15.487 0.900 35.831 o
-5 -12 -3 11.423 11.445 0.520 90.264 o
-5 -12 -2 2.219 1.911 0.330 284.093 o
-5 -12 -1 25.352 24.051 0.590 49.321 o
-5 -12 0 79.779 79.615 0.800 11.298 o
-5 -11 -8 1.950 1.521 0.660 79.863 o
-5 -11 -7 8.209 7.083 0.790 51.156 o
-5 -11 -5 35.191 37.647 1.110 18.895 o
-5 -11 -4 0.938 1.281 0.530 124.352 o
-5 -11 -3 84.937 89.279 1.050 8.919 o
-5 -11 -2 13.089 12.145 0.490 92.589 o
-5 -11 -1 26.962 26.932 0.440 57.774 o
-5 -11 0 15.325 15.037 0.410 100.933 o
-5 -10 -8 12.143 12.856 0.640 65.180 o
-5 -10 -7 17.982 18.108 0.490 75.222 o
-5 -10 -6 8.084 7.873 0.530 99.264 o
-5 -10 -5 45.709 47.331 1.181 14.997 o
-5 -10 -3 30.005 30.243 0.640 39.229 o
-5 -10 -2 149.122 149.966 1.251 3.793 o
-5 -10 -1 48.754 48.611 0.540 25.916 o
-5 -9 -8 40.224 40.958 0.670 28.576 o
-5 -9 -7 9.410 9.224 0.400 138.942 o
-5 -9 -6 1.581 1.711 0.310 328.648 o
-5 -9 -5 13.315 12.896 0.430 105.928 o
-5 -9 -4 101.848 104.946 0.940 7.359 o
-5 -9 -3 22.188 21.159 0.800 37.717 o
-5 -9 -2 31.838 31.834 0.480 45.864 o
-5 -9 -1 210.973 214.124 0.850 2.250 o
-5 -9 0 156.844 159.230 0.840 3.803 o
-5 -8 -9 2.108 1.911 0.440 170.791 o
-5 -8 -8 14.600 14.216 0.460 92.901 o
-5 -8 -7 1.997 2.171 0.320 300.831 o
-5 -8 -6 122.964 125.785 1.090 5.290 o
-5 -8 -5 72.587 73.322 0.770 13.011 o
-5 -8 -4 24.401 25.011 0.400 67.342 o
-5 -8 -3 22.065 22.170 0.370 78.848 o
-5 -8 -2 72.476 72.512 0.560 14.576 o
-5 -8 -1 157.058 155.929 0.740 3.909 o
-5 -8 0 202.534 207.151 0.910 2.393 o
-5 -7 -10 6.623 6.263 0.510 111.288 o
-5 -7 -9 23.870 24.691 0.630 47.294 o
-5 -7 -8 12.764 12.646 0.510 88.226 o
-5 -7 -7 4.877 4.302 0.330 236.906 o
-5 -7 -6 6.752 5.683 0.320 218.882 o
-5 -7 -5 16.325 16.037 0.410 96.263 o
-5 -7 -4 143.740 144.463 0.710 4.552 o
-5 -7 -3 279.599 285.125 0.920 1.331 o
-5 -7 -2 72.928 73.002 0.440 15.165 o
-5 -7 -1 32.407 32.895 0.340 52.168 o
-5 -7 0 81.904 82.546 0.410 12.630 o
-5 -6 -10 3.262 3.021 0.610 90.000 o
-5 -6 -9 9.789 9.414 0.400 136.684 o
-5 -6 -8 39.316 39.998 0.610 31.215 o
-5 -6 -7 82.144 82.106 0.730 11.194 o
-5 -6 -6 97.167 97.403 0.750 8.602 o
-5 -6 -5 78.614 79.885 0.560 12.759 o
-5 -6 -4 19.680 19.158 0.280 104.291 o
-5 -6 -3 22.922 23.220 0.250 89.573 o
-5 -6 -2 155.297 158.320 0.610 4.003 o
-5 -6 -1 377.962 379.037 0.780 0.767 o
-5 -6 0 128.839 129.227 0.550 5.671 o
-5 -5 -10 1.643 1.631 0.390 217.272 o
-5 -5 -9 17.219 16.968 0.440 86.603 o
-5 -5 -8 59.197 61.747 0.650 18.162 o
-5 -5 -7 39.526 39.427 0.550 33.269 o
-5 -5 -6 1.169 1.050 0.220 625.354 o
-5 -5 -5 55.745 55.775 0.440 22.944 o
-5 -5 -4 163.484 163.672 0.720 3.637 o
-5 -5 -3 193.151 193.995 0.640 2.715 o
-5 -5 -2 196.778 196.596 0.820 2.583 o
-5 -5 -1 13.341 13.096 0.160 197.996 o
-5 -5 0 20.738 20.759 0.230 104.524 o
-5 -4 -10 8.092 6.843 0.470 120.636 o
-5 -4 -9 3.496 3.101 0.340 247.962 o
-5 -4 -8 41.084 41.458 0.500 33.183 o
-5 -4 -7 9.787 9.914 0.290 189.758 o
-5 -4 -6 82.679 81.646 0.550 12.011 o
-5 -4 -5 53.006 51.533 0.400 25.642 o
-5 -4 -4 238.828 239.805 0.740 1.823 o
-5 -4 -3 320.540 320.931 0.940 1.042 o
-5 -4 -2 174.658 175.307 1.120 3.029 o
-5 -4 -1 208.557 203.559 0.800 2.364 o
-5 -4 0 346.360 342.220 1.421 0.883 o
-5 -3 -10 3.709 3.632 0.390 194.747 o
-5 -3 -9 29.108 29.363 0.470 50.992 o
-5 -3 -8 25.041 24.801 0.410 65.358 o
-5 -3 -7 53.953 53.444 0.550 22.539 o
-5 -3 -6 0.328 0.460 0.200 838.270 o
-5 -3 -5 75.589 75.223 0.540 13.822 o
-5 -3 -4 122.244 121.423 0.560 6.237 o
-5 -3 -3 325.179 321.351 1.040 1.017 o
-5 -3 -2 250.061 253.041 0.970 1.636 o
-5 -3 -1 173.223 175.107 0.610 3.307 o
-5 -3 0 102.106 102.595 0.570 8.391 o
-5 -2 -11 10.467 10.245 0.660 65.553 o
-5 -2 -10 1.247 1.010 0.420 193.609 o
-5 -2 -9 17.135 16.297 0.390 97.528 o
-5 -2 -8 4.686 4.432 0.310 260.367 o
-5 -2 -7 36.925 36.646 0.450 40.009 o
-5 -2 -6 83.101 82.496 0.450 12.287 o
-5 -2 -5 63.611 62.678 0.450 18.859 o
-5 -2 -4 35.527 35.986 0.300 47.809 o
-5 -2 -3 38.873 38.347 0.410 39.020 o
-5 -2 -2 99.060 99.994 0.600 8.725 o
-5 -2 -1 706.260 704.880 4.042 0.208 o
-5 -2 0 186.799 183.681 0.960 2.806 o
-5 -1 -10 12.313 12.155 0.410 116.544 o
-5 -1 -9 7.138 6.673 0.400 157.178 o
-5 -1 -8 30.549 30.143 0.480 48.192 o
-5 -1 -7 21.704 21.149 0.340 85.092 o
-5 -1 -6 41.607 41.178 0.360 37.006 o
-5 -1 -5 9.028 8.924 0.200 267.989 o
-5 -1 -4 299.312 298.331 0.840 1.195 o
-5 -1 -3 196.417 199.528 0.840 2.560 o
-5 -1 -2 103.508 101.164 0.560 8.350 o
-5 -1 -1 66.245 65.249 0.590 16.534 o
-5 -1 0 48.043 48.431 0.480 27.521 o
-5 0 1 16.707 15.547 0.220 140.709 o
-5 0 3 76.326 79.015 0.610 12.950 o
-5 0 4 5.503 5.522 0.160 464.099 o
-5 0 5 168.639 168.224 0.830 3.394 o
-5 0 7 28.072 27.832 0.470 53.268 o
-5 0 8 11.108 10.245 0.460 108.711 o
-5 0 9 12.332 11.945 0.610 70.299 o
-5 0 10 5.710 5.082 0.410 163.618 o
-5 1 1 620.364 606.587 2.141 0.290 o
-5 1 2 38.212 40.008 0.550 33.943 o
-5 1 3 129.763 129.187 0.740 5.418 o
-5 1 4 44.487 44.209 0.360 33.586 o
-5 1 5 53.083 52.663 0.440 24.750 o
-5 1 6 37.600 37.216 0.430 39.929 o
-5 1 7 7.758 7.443 0.320 200.456 o
-5 1 8 26.309 26.282 1.050 23.735 o
-5 1 9 4.921 4.272 0.510 118.649 o
-5 1 10 0.992 1.010 0.420 195.106 o
-5 2 1 199.616 201.839 1.241 2.358 o
-5 2 2 112.239 111.409 1.070 6.190 o
-5 2 3 86.421 88.459 0.540 11.015 o
-5 2 4 112.850 111.759 0.510 7.243 o
-5 2 5 18.665 17.578 0.290 109.837 o
-5 2 6 5.117 5.142 0.330 229.764 o
-5 2 7 18.480 18.578 0.480 75.301 o
-5 2 8 85.415 86.638 1.691 6.253 o
-5 2 10 2.645 2.661 0.470 147.734 o
-5 3 1 218.269 220.547 0.960 2.097 o
-5 3 2 201.347 203.149 1.601 2.182 o
-5 3 3 154.011 153.638 0.700 4.060 o
-5 3 4 50.189 49.682 0.480 26.136 o
-5 3 5 20.070 19.629 0.350 90.561 o
-5 3 6 130.321 131.578 1.000 5.001 o
-5 3 7 25.769 26.732 0.940 27.846 o
-5 3 8 8.566 7.943 0.520 100.967 o
-5 3 9 6.664 5.412 0.820 49.116 o
-5 3 10 1.820 1.721 0.590 99.156 o
-5 4 1 101.942 100.524 0.730 8.103 o
-5 4 2 41.604 40.718 0.340 37.748 o
-5 4 3 190.561 187.933 0.840 2.750 o
-5 4 4 240.640 238.695 0.900 1.788 o
-5 4 5 57.742 57.195 0.550 20.524 o
-5 4 6 5.605 5.352 0.290 264.276 o
-5 4 7 7.955 7.703 0.490 112.480 o
-5 4 8 6.714 6.153 0.500 114.773 o
-5 4 9 16.521 16.477 0.680 53.468 o
-5 4 10 12.679 12.435 0.670 60.508 o
-5 5 1 828.538 844.881 3.421 0.157 o
-5 5 2 227.567 230.121 0.930 1.950 o
-5 5 3 6.598 6.303 0.190 362.296 o
-5 5 4 15.533 15.717 0.360 110.969 o
-5 5 5 8.458 8.594 0.300 202.304 o
-5 5 6 113.677 114.300 1.080 6.016 o
-5 5 7 25.230 26.382 0.700 40.545 o
-5 5 8 18.761 19.108 0.680 50.200 o
-5 5 9 10.707 9.474 0.610 74.337 o
-5 6 1 112.989 113.410 0.550 7.112 o
-5 6 2 127.624 130.387 0.670 5.575 o
-5 6 3 77.841 76.744 0.650 12.657 o
-5 6 4 99.189 100.624 0.670 8.501 o
-5 6 5 89.085 88.589 0.710 10.022 o
-5 6 6 44.279 44.489 0.660 26.155 o
-5 6 8 57.144 59.946 0.830 16.645 o
-5 6 9 3.741 3.832 0.670 74.589 o
-5 7 1 43.842 43.649 0.290 35.818 o
-5 7 2 183.075 187.032 0.850 2.888 o
-5 7 3 328.112 329.945 1.341 0.970 o
-5 7 4 64.566 65.589 0.690 15.946 o
-5 7 5 67.964 68.980 0.760 14.271 o
-5 7 6 24.064 23.840 0.540 55.181 o
-5 7 7 25.727 26.221 0.730 38.407 o
-5 7 8 4.248 4.112 0.550 105.703 o
-5 8 1 3.554 3.181 0.140 723.018 o
-5 8 2 27.636 28.272 0.360 61.969 o
-5 8 3 116.852 118.442 1.100 5.714 o
-5 8 4 107.545 107.657 1.090 6.506 o
-5 8 5 40.169 39.978 0.630 30.099 o
-5 8 6 18.454 18.398 0.440 81.854 o
-5 8 7 8.518 8.804 0.560 89.318 o
-5 8 8 12.552 12.986 0.630 66.120 o
-5 8 9 26.303 27.832 1.050 23.545 o
-5 9 1 211.650 214.634 0.800 2.250 o
-5 9 2 39.591 39.327 0.520 34.276 o
-5 9 3 10.409 10.094 0.460 111.165 o
-5 9 4 6.014 5.462 0.420 155.159 o
-5 9 5 13.727 13.506 0.570 73.845 o
-5 9 6 13.415 13.056 0.590 71.286 o
-5 9 7 37.201 37.596 1.241 15.996 o
-5 9 8 5.445 5.242 0.750 58.708 o
-5 10 1 83.002 83.056 0.530 11.938 o
-5 10 2 20.138 20.229 0.570 59.515 o
-5 10 3 24.075 24.451 0.630 47.216 o
-5 10 4 56.361 57.285 0.940 15.668 o
-5 10 5 26.820 26.552 0.720 38.187 o
-5 10 6 12.510 12.035 0.490 94.163 o
-5 11 1 20.329 19.799 0.300 97.409 o
-5 11 2 97.117 98.443 0.920 8.017 o
-5 11 4 3.945 3.822 0.480 135.643 o
-5 11 5 18.229 17.378 0.660 53.517 o
-5 11 6 15.850 15.637 0.530 75.162 o
-5 11 7 8.158 6.673 0.750 56.252 o
-5 12 1 19.795 19.409 0.380 86.881 o
-5 12 2 3.212 3.291 0.360 227.904 o
-5 12 3 19.186 19.268 0.520 67.726 o
-5 12 4 7.353 7.033 0.410 149.802 o
-5 12 5 2.492 2.181 0.420 182.995 o
-5 12 6 15.792 15.757 0.650 58.005 o
-5 12 7 4.802 4.722 0.770 56.507 o
-5 13 1 1.825 1.311 0.370 239.030 o
-5 13 2 19.919 19.058 0.530 65.427 o
-5 13 3 1.458 1.151 0.380 231.466 o
-5 13 4 2.929 2.401 0.530 118.163 o
-5 13 5 19.544 20.379 0.720 45.478 o
-5 14 1 3.143 3.161 0.450 156.506 o
-5 14 2 12.714 11.895 0.620 68.179 o
-5 14 3 1.087 0.990 0.410 203.755 o
-5 14 4 15.947 15.497 0.540 73.473 o
-5 14 5 10.997 10.895 0.870 40.970 o
-5 15 1 8.636 6.973 0.570 88.334 o
-5 15 2 11.633 10.004 0.840 43.414 o
-5 15 3 6.326 5.452 0.410 159.263 o
-5 16 1 3.777 2.621 0.550 108.295 o
-5 16 3 20.348 19.008 0.720 45.389 o
-5 17 1 4.021 3.001 0.640 81.370 o
-5 17 2 9.710 7.603 0.870 42.269 o
-4 -17 -1 8.058 7.183 0.780 52.388 o
-4 -17 0 13.034 13.466 0.910 36.610 o
-4 -16 -3 16.728 18.108 0.950 31.977 o
-4 -16 -2 11.658 12.075 0.860 41.207 o
-4 -16 0 22.745 23.921 1.070 24.206 o
-4 -15 -4 34.501 38.117 1.181 17.504 o
-4 -15 -3 1.977 1.781 0.500 135.320 o
-4 -15 -2 7.089 7.853 0.550 95.755 o
-4 -15 0 18.073 18.348 0.980 29.956 o
-4 -14 -6 6.543 5.542 0.600 85.711 o
-4 -14 -4 3.606 2.981 0.790 55.029 o
-4 -14 -3 3.530 3.552 0.710 67.223 o
-4 -14 -2 37.049 37.146 0.700 30.127 o
-4 -14 -1 28.207 29.093 0.520 48.777 o
-4 -14 0 13.181 13.896 0.610 67.798 o
-4 -13 -7 26.769 27.092 0.770 35.268 o
-4 -13 -6 2.479 2.471 0.790 55.779 o
-4 -13 -5 21.191 23.820 1.010 26.878 o
-4 -13 -4 6.869 7.463 0.720 61.164 o
-4 -13 -3 26.397 27.802 0.700 39.235 o
-4 -13 -2 4.476 4.412 0.360 211.471 o
-4 -13 -1 17.409 16.567 0.420 90.369 o
-4 -13 0 2.843 2.631 0.330 271.114 o
-4 -12 -8 2.957 2.531 0.620 88.064 o
-4 -12 -7 12.464 11.485 0.610 70.434 o
-4 -12 -5 20.681 21.529 0.960 29.559 o
-4 -12 -3 17.175 17.968 0.580 63.819 o
-4 -12 -2 39.035 39.387 0.610 31.553 o
-4 -12 -1 46.147 47.101 0.770 22.382 o
-4 -12 0 14.426 14.366 0.300 135.965 o
-4 -11 -7 4.918 3.892 0.550 104.508 o
-4 -11 -6 10.766 10.134 0.780 49.701 o
-4 -11 -4 71.513 73.202 1.411 8.730 o
-4 -11 -3 46.267 47.131 0.800 21.702 o
-4 -11 -2 9.445 9.164 0.440 122.969 o
-4 -11 -1 7.197 6.493 0.290 235.501 o
-4 -11 0 47.031 47.301 0.530 27.272 o
-4 -10 -9 2.326 1.861 0.600 95.136 o
-4 -10 -8 7.382 6.893 0.460 126.983 o
-4 -10 -7 14.626 14.947 0.540 76.293 o
-4 -10 -6 21.024 21.509 0.550 59.688 o
-4 -10 -5 17.333 17.298 0.580 64.066 o
-4 -10 -4 18.492 18.368 0.800 40.602 o
-4 -10 -3 34.768 34.925 0.670 33.120 o
-4 -10 -2 69.980 70.141 0.710 14.200 o
-4 -10 -1 76.015 75.623 0.640 13.115 o
-4 -10 0 72.016 71.041 0.590 14.615 o
-4 -9 -9 14.169 13.956 0.660 59.460 o
-4 -9 -8 9.316 9.214 0.500 103.373 o
-4 -9 -6 23.160 23.480 0.480 62.586 o
-4 -9 -5 35.893 37.006 0.600 34.603 o
-4 -9 -4 46.331 46.851 0.650 25.010 o
-4 -9 -3 51.205 52.343 1.040 15.726 o
-4 -9 -2 3.809 3.492 0.270 340.182 o
-4 -9 -1 120.168 122.074 0.720 6.121 o
-4 -9 0 111.365 109.488 0.670 7.161 o
-4 -8 -9 24.910 26.452 0.800 34.831 o
-4 -8 -8 10.503 10.765 0.430 119.536 o
-4 -8 -7 27.288 26.692 0.630 43.383 o
-4 -8 -6 55.679 55.705 0.650 20.053 o
-4 -8 -5 8.255 8.594 0.370 161.343 o
-4 -8 -4 51.201 51.603 0.600 23.111 o
-4 -8 -3 69.207 68.980 0.650 14.947 o
-4 -8 -2 201.691 201.008 0.870 2.461 o
-4 -8 -1 55.396 55.114 0.420 23.482 o
-4 -8 0 1.706 1.521 0.140 1084.740 o
-4 -7 -10 4.067 3.842 0.570 99.769 o
-4 -7 -9 6.565 6.903 0.560 94.972 o
-4 -7 -8 11.525 11.165 0.500 95.226 o
-4 -7 -7 3.300 3.131 0.380 208.310 o
-4 -7 -6 25.914 25.701 0.500 55.115 o
-4 -7 -5 119.588 120.853 1.120 5.493 o
-4 -7 -4 125.385 125.775 0.900 5.486 o
-4 -7 -3 1.333 1.301 0.160 989.007 o
-4 -7 -2 0.932 1.010 0.140 1317.740 o
-4 -7 -1 21.448 21.119 0.260 96.957 o
-4 -7 0 226.825 227.370 0.790 1.998 o
-4 -6 -9 8.215 8.204 0.380 157.465 o
-4 -6 -8 70.728 73.612 0.800 13.066 o
-4 -6 -7 44.692 45.290 0.560 28.275 o
-4 -6 -6 63.723 64.088 0.520 17.981 o
-4 -6 -5 63.356 63.238 0.500 18.393 o
-4 -6 -4 19.344 19.349 0.280 105.247 o
-4 -6 -3 163.290 162.641 0.590 3.720 o
-4 -6 -2 212.725 216.045 0.660 2.255 o
-4 -6 -1 113.667 114.020 0.480 7.143 o
-4 -6 0 55.394 55.945 0.340 24.264 o
-4 -5 -10 27.701 28.052 0.570 46.417 o
-4 -5 -9 7.423 6.863 0.360 178.493 o
-4 -5 -8 4.405 4.632 0.300 275.036 o
-4 -5 -7 22.937 22.120 0.370 76.821 o
-4 -5 -6 20.492 20.249 0.330 91.445 o
-4 -5 -5 103.550 103.275 0.560 8.252 o
-4 -5 -4 101.870 101.034 0.440 8.755 o
-4 -5 -3 170.164 170.435 0.620 3.430 o
-4 -5 -2 54.551 52.043 0.410 24.657 o
-4 -5 -1 306.161 299.932 1.221 1.129 o
-4 -5 0 87.037 86.468 0.710 10.388 o
-4 -4 -10 1.736 1.661 0.390 216.445 o
-4 -4 -9 3.330 3.291 0.330 260.839 o
-4 -4 -8 18.902 19.068 0.380 89.875 o
-4 -4 -7 55.785 55.334 0.470 22.622 o
-4 -4 -6 83.813 82.236 0.540 11.835 o
-4 -4 -5 12.749 12.145 0.200 194.453 o
-4 -4 -4 34.634 35.596 0.310 48.785 o
-4 -4 -3 433.139 422.075 1.321 0.590 o
-4 -4 -2 53.566 52.973 0.610 21.816 o
-4 -4 -1 552.389 567.459 4.372 0.306 o
-4 -4 0 5.554 4.752 0.230 351.479 o
-4 -3 -10 5.381 5.602 0.400 170.281 o
-4 -3 -9 10.864 10.565 0.350 149.240 o
-4 -3 -8 30.256 29.563 0.440 51.424 o
-4 -3 -7 5.732 5.222 0.250 312.854 o
-4 -3 -6 53.035 51.753 0.440 24.979 o
-4 -3 -5 130.157 128.747 0.530 5.636 o
-4 -3 -4 22.826 22.490 0.240 92.223 o
-4 -3 -3 160.539 161.331 0.850 3.669 o
-4 -3 -2 226.736 222.108 1.171 1.946 o
-4 -3 -1 278.364 275.651 1.241 1.331 o
-4 -3 0 487.089 498.029 4.072 0.385 o
-4 -2 -11 3.466 3.171 0.490 133.451 o
-4 -2 -10 2.131 1.641 0.340 272.554 o
-4 -2 -8 38.292 38.217 0.530 35.223 o
-4 -2 -7 8.175 8.144 0.270 230.024 o
-4 -2 -6 53.291 52.133 0.390 25.504 o
-4 -2 -5 109.286 108.588 0.530 7.605 o
-4 -2 -4 19.812 19.369 0.240 109.927 o
-4 -2 -3 312.953 310.787 0.850 1.101 o
-4 -2 -2 289.816 293.509 0.930 1.249 o
-4 -2 -1 460.498 457.441 3.552 0.449 o
-4 -2 0 341.990 336.448 2.141 0.851 o
-4 -1 -10 31.318 32.144 0.610 39.126 o
-4 -1 -9 4.120 3.652 0.300 286.710 o
-4 -1 -8 61.563 60.497 0.620 18.039 o
-4 -1 -7 12.408 11.805 0.260 173.458 o
-4 -1 -6 7.593 6.923 0.190 327.931 o
-4 -1 -5 157.392 154.908 0.620 3.985 o
-4 -1 -4 229.334 230.241 0.830 1.950 o
-4 -1 -3 187.237 189.393 0.760 2.824 o
-4 -1 -2 3.617 3.622 0.140 696.849 o
-4 -1 -1 873.672 819.370 3.732 0.148 o
-4 -1 0 752.924 748.509 3.512 0.190 o
-4 0 1 0.096 0.910 0.150 1417.340 o
-4 0 2 262.603 271.709 1.801 1.348 o
-4 0 3 63.084 61.517 1.191 11.654 o
-4 0 4 189.376 185.572 0.650 2.854 o
-4 0 5 98.309 97.583 0.600 8.916 o
-4 0 6 4.084 3.892 0.220 425.962 o
-4 0 7 26.515 25.881 0.400 62.716 o
-4 0 8 38.249 38.637 0.510 35.831 o
-4 0 9 17.324 16.927 0.540 69.936 o
-4 1 1 452.698 457.401 1.921 0.516 o
-4 1 2 569.991 563.718 2.551 0.331 o
-4 1 3 81.133 77.124 1.331 8.334 o
-4 1 4 141.048 141.422 0.600 4.800 o
-4 1 5 46.410 45.390 0.410 30.787 o
-4 1 6 72.793 72.012 0.610 14.226 o
-4 1 7 36.764 37.517 0.510 37.385 o
-4 1 8 14.364 14.666 0.600 67.185 o
-4 1 9 3.764 2.891 0.500 128.249 o
-4 1 10 2.947 2.251 0.550 110.458 o
-4 2 1 229.294 226.590 1.251 1.879 o
-4 2 2 271.789 267.708 2.101 1.255 o
-4 2 3 111.538 116.731 0.570 7.066 o
-4 2 4 343.909 339.749 1.020 0.917 o
-4 2 5 18.646 18.098 0.260 114.546 o
-4 2 6 8.400 8.054 0.300 205.548 o
-4 2 7 43.067 43.629 0.640 27.422 o
-4 2 8 2.972 3.131 0.460 151.304 o
-4 2 9 40.129 40.278 1.291 14.598 o
-4 2 10 9.779 9.274 0.600 77.800 o
-4 3 1 575.798 577.024 2.041 0.329 o
-4 3 2 207.733 207.051 1.401 2.165 o
-4 3 3 66.473 66.429 0.390 17.934 o
-4 3 4 10.991 10.985 0.220 211.365 o
-4 3 5 53.414 52.493 0.490 23.879 o
-4 3 6 152.904 151.997 1.040 3.859 o
-4 3 7 26.402 25.731 0.540 51.231 o
-4 3 8 6.478 6.593 0.530 104.515 o
-4 3 9 13.333 13.096 0.910 36.566 o
-4 3 10 1.445 1.601 0.420 190.718 o
-4 4 1 11.643 11.425 0.280 172.402 o
-4 4 2 162.977 167.694 2.241 2.481 o
-4 4 3 282.419 285.215 0.900 1.316 o
-4 4 4 60.326 61.277 0.490 19.714 o
-4 4 5 27.513 26.292 0.350 64.782 o
-4 4 6 36.702 36.476 0.580 35.033 o
-4 4 7 23.321 22.540 0.530 57.949 o
-4 4 8 44.621 45.830 0.730 24.044 o
-4 4 9 8.444 9.554 0.840 45.123 o
-4 4 10 2.321 2.041 0.620 89.257 o
-4 5 1 248.169 254.772 0.900 1.654 o
-4 5 2 78.501 82.886 0.630 12.176 o
-4 5 3 10.631 9.944 0.240 210.330 o
-4 5 4 65.557 64.819 0.530 17.296 o
-4 5 5 104.370 104.306 0.640 7.962 o
-4 5 6 21.934 21.689 0.420 73.340 o
-4 5 7 1.374 1.291 0.340 284.278 o
-4 5 8 11.848 11.885 0.580 76.397 o
-4 5 9 4.227 4.252 0.830 49.487 o
-4 5 10 6.459 5.933 0.670 70.616 o
-4 6 1 106.641 108.868 0.520 7.825 o
-4 6 2 181.577 182.640 0.830 2.966 o
-4 6 3 20.493 20.959 0.370 84.411 o
-4 6 4 146.609 145.114 0.790 4.373 o
-4 6 5 7.430 6.753 0.290 231.091 o
-4 6 6 36.354 36.716 0.460 40.080 o
-4 6 7 25.631 25.741 0.580 48.945 o
-4 6 8 5.061 5.572 0.510 116.468 o
-4 6 9 2.664 2.341 0.850 48.349 o
-4 7 1 207.419 209.052 0.710 2.363 o
-4 7 2 40.223 39.727 0.340 39.424 o
-4 7 3 23.305 23.190 0.340 78.198 o
-4 7 4 50.787 50.322 0.590 23.706 o
-4 7 5 25.122 24.241 0.490 58.083 o
-4 7 6 25.370 25.751 0.470 58.442 o
-4 7 7 9.670 9.794 0.540 90.984 o
-4 7 9 7.280 6.783 0.960 36.272 o
-4 8 1 2.360 2.371 0.140 908.020 o
-4 8 2 77.506 78.475 0.500 13.378 o
-4 8 3 146.988 148.155 1.000 4.123 o
-4 8 5 10.402 10.775 0.500 98.526 o
-4 8 6 11.252 11.055 0.430 116.233 o
-4 8 7 11.265 11.095 0.790 48.038 o
-4 8 8 13.204 12.666 0.850 41.129 o
-4 9 1 61.410 62.728 0.430 19.726 o
-4 9 2 37.014 36.236 0.440 40.514 o
-4 9 3 24.797 23.870 0.450 62.667 o
-4 9 4 54.807 56.135 1.241 12.445 o
-4 9 5 25.122 24.721 0.670 43.252 o
-4 9 6 16.535 16.847 0.620 60.238 o
-4 9 7 7.411 6.153 0.700 64.371 o
-4 9 8 15.971 16.007 0.910 34.954 o
-4 10 1 17.215 17.398 0.260 123.201 o
-4 10 2 61.860 61.067 0.540 18.747 o
-4 10 3 38.956 39.027 0.500 35.525 o
-4 10 4 25.907 25.681 0.530 52.645 o
-4 10 5 4.496 4.392 0.640 79.928 o
-4 10 6 22.127 21.649 0.700 44.609 o
-4 11 1 116.337 116.571 0.640 6.638 o
-4 11 2 21.706 21.059 0.370 81.120 o
-4 11 3 5.410 4.992 0.360 201.149 o
-4 11 4 6.717 6.383 0.460 130.352 o
-4 11 5 34.587 35.166 0.820 27.494 o
-4 11 6 26.530 27.322 1.120 21.422 o
-4 11 7 2.721 3.021 0.690 71.916 o
-4 12 1 10.679 10.155 0.350 151.566 o
-4 12 2 3.080 2.801 0.270 364.325 o
-4 12 3 69.623 69.611 0.830 13.337 o
-4 12 4 24.775 24.931 0.730 39.444 o
-4 12 5 13.563 13.556 0.890 37.760 o
-4 12 6 2.226 2.181 0.510 129.109 o
-4 13 1 47.933 48.321 0.750 22.002 o
-4 13 2 58.352 55.995 0.780 17.473 o
-4 13 3 1.537 1.421 0.360 253.605 o
-4 13 4 7.186 6.763 0.550 96.688 o
-4 13 5 2.378 2.771 0.650 81.074 o
-4 13 6 7.511 7.593 0.470 121.329 o
-4 13 7 15.476 16.147 0.920 34.506 o
-4 14 1 1.281 1.110 0.280 407.329 o
-4 14 2 7.528 6.563 0.440 135.673 o
-4 14 3 24.286 24.171 0.610 48.734 o
-4 14 4 5.996 5.963 0.570 94.160 o
-4 14 5 11.875 11.115 0.620 69.809 o
-4 14 6 8.502 8.794 0.620 75.997 o
-4 15 1 17.521 16.277 0.680 52.626 o
-4 15 2 7.432 6.893 0.580 88.072 o
-4 15 3 1.912 1.541 0.370 237.160 o
-4 15 4 15.553 13.736 0.540 75.716 o
-4 15 5 17.276 16.607 0.700 50.654 o
-4 16 1 5.024 4.112 0.470 136.173 o
-4 16 2 5.054 4.132 0.490 126.825 o
-4 16 3 9.202 7.563 0.460 119.373 o
-4 16 4 4.345 3.462 0.620 85.521 o
-4 17 1 3.933 2.491 0.530 115.604 o
-4 17 2 2.038 1.331 0.540 117.387 o
-3 -17 0 4.722 4.112 0.770 56.749 o
-3 -16 -4 5.780 5.993 0.850 46.240 o
-3 -16 -2 15.888 16.927 0.650 57.273 o
-3 -16 -1 3.839 3.552 0.760 58.909 o
-3 -16 0 2.549 2.301 0.690 72.397 o
-3 -15 -2 1.686 1.521 0.400 207.470 o
-3 -15 -1 47.362 48.931 0.930 18.631 o
-3 -15 0 18.709 19.328 0.950 31.084 o
-3 -14 -5 4.917 4.242 0.770 56.586 o
-3 -14 -4 7.079 6.983 0.760 55.594 o
-3 -14 -3 86.417 92.771 1.701 6.045 o
-3 -14 -2 7.306 6.883 0.410 150.418 o
-3 -14 -1 17.390 18.028 0.510 73.355 o
-3 -14 0 15.480 15.277 0.490 83.366 o
-3 -13 -7 2.508 2.301 0.920 41.501 o
-3 -13 -6 49.325 54.224 1.411 11.350 o
-3 -13 -5 4.172 5.552 0.700 67.588 o
-3 -13 -4 37.908 38.527 1.191 16.721 o
-3 -13 -3 5.748 5.592 0.650 75.520 o
-3 -13 -2 16.214 15.967 0.470 84.689 o
-3 -13 -1 29.604 29.163 0.490 49.185 o
-3 -13 0 40.843 41.638 0.570 31.128 o
-3 -12 -8 33.285 34.755 0.850 27.051 o
-3 -12 -7 15.255 16.217 0.950 32.809 o
-3 -12 -6 24.839 24.771 1.050 24.287 o
-3 -12 -5 15.344 15.667 0.870 37.915 o
-3 -12 -4 17.178 16.137 0.850 38.327 o
-3 -12 -3 27.039 27.112 0.550 48.996 o
-3 -12 -2 101.036 105.106 1.131 6.855 o
-3 -12 -1 8.701 8.304 0.330 182.091 o
-3 -12 0 0.950 0.950 0.220 642.081 o
-3 -11 -8 3.741 3.221 0.600 91.912 o
-3 -11 -7 2.264 2.121 0.450 162.703 o
-3 -11 -6 17.287 17.668 0.930 32.957 o
-3 -11 -5 47.261 48.931 1.281 13.316 o
-3 -11 -4 23.423 24.331 0.930 29.507 o
-3 -11 -3 60.315 61.337 0.880 15.247 o
-3 -11 -2 98.673 99.124 1.050 7.451 o
-3 -11 -1 113.124 113.720 0.790 6.669 o
-3 -11 0 39.703 40.148 0.400 37.857 o
-3 -10 -9 6.214 6.013 0.620 81.136 o
-3 -10 -8 8.906 8.764 0.480 111.445 o
-3 -10 -7 22.038 22.330 0.520 60.928 o
-3 -10 -6 1.632 1.941 0.370 237.895 o
-3 -10 -5 15.049 15.287 0.560 71.924 o
-3 -10 -4 72.572 75.073 1.401 8.645 o
-3 -10 -3 78.561 78.945 0.770 11.682 o
-3 -10 -2 9.037 8.664 0.340 172.335 o
-3 -10 -1 121.723 123.384 0.890 5.737 o
-3 -10 0 23.228 23.250 0.370 74.846 o
-3 -9 -9 9.374 8.994 0.490 106.545 o
-3 -9 -8 1.658 1.781 0.380 227.113 o
-3 -9 -7 19.875 20.189 0.490 69.728 o
-3 -9 -6 14.557 14.436 0.480 88.441 o
-3 -9 -5 17.999 17.938 0.470 78.512 o
-3 -9 -4 68.349 69.350 0.780 13.996 o
-3 -9 -3 13.974 13.686 0.310 137.275 o
-3 -9 -2 2.084 2.171 0.240 477.638 o
-3 -9 -1 68.072 68.220 0.580 15.842 o
-3 -9 0 155.518 154.638 0.790 3.940 o
-3 -8 -9 10.024 9.994 0.500 100.497 o
-3 -8 -8 11.440 11.915 0.440 110.948 o
-3 -8 -7 13.050 13.286 0.430 106.157 o
-3 -8 -6 14.172 13.356 0.360 121.574 o
-3 -8 -5 21.906 21.970 0.420 73.106 o
-3 -8 -4 9.107 9.104 0.290 200.063 o
-3 -8 -3 96.680 96.142 0.600 9.153 o
-3 -8 -2 184.853 180.659 1.161 2.774 o
-3 -8 -1 26.017 25.561 0.390 64.775 o
-3 -8 0 143.946 145.454 0.650 4.574 o
-3 -7 -10 7.576 7.413 0.490 114.027 o
-3 -7 -9 1.646 1.931 0.460 159.218 o
-3 -7 -6 15.999 16.017 0.360 108.586 o
-3 -7 -5 117.350 118.602 0.830 6.197 o
-3 -7 -4 59.666 60.527 0.530 19.605 o
-3 -7 -3 52.678 53.523 0.380 25.604 o
-3 -7 -2 38.001 38.807 0.350 41.682 o
-3 -7 -1 96.416 100.854 0.500 9.193 o
-3 -7 0 71.500 72.222 0.410 15.750 o
-3 -6 -10 2.267 2.301 0.560 108.117 o
-3 -6 -9 19.871 20.079 0.460 73.922 o
-3 -6 -8 4.302 3.952 0.290 295.266 o
-3 -6 -7 39.211 40.128 0.470 35.957 o
-3 -6 -6 21.644 20.849 0.340 85.680 o
-3 -6 -5 21.111 20.699 0.330 88.865 o
-3 -6 -4 56.065 55.654 0.420 23.091 o
-3 -6 -3 129.839 127.866 0.600 5.604 o
-3 -6 -2 53.518 54.414 0.320 25.744 o
-3 -6 -1 341.898 350.634 1.351 0.888 o
-3 -6 0 300.255 312.137 1.010 1.145 o
-3 -5 -9 5.993 5.232 0.350 203.304 o
-3 -5 -8 5.229 4.442 0.290 276.591 o
-3 -5 -7 20.390 20.379 0.370 85.471 o
-3 -5 -6 51.463 51.353 0.440 25.810 o
-3 -5 -5 83.172 82.676 0.580 11.726 o
-3 -5 -4 61.613 61.327 0.380 20.344 o
-3 -5 -3 23.771 24.221 0.260 84.350 o
-3 -5 -2 26.574 25.551 0.340 68.192 o
-3 -5 -1 18.706 18.438 0.320 102.267 o
-3 -5 0 556.743 574.743 1.941 0.346 o
-3 -4 -10 2.737 2.341 0.380 215.919 o
-3 -4 -8 74.622 75.233 0.600 13.643 o
-3 -4 -6 41.321 40.278 0.370 37.343 o
-3 -4 -5 7.019 6.703 0.190 345.295 o
-3 -4 -4 151.646 146.464 0.560 4.341 o
-3 -4 -3 344.888 351.384 1.131 0.889 o
-3 -4 -2 279.768 281.314 0.980 1.335 o
-3 -4 -1 157.886 167.834 3.031 1.966 o
-3 -4 0 159.814 162.491 0.710 3.756 o
-3 -3 -11 4.504 3.952 0.830 49.428 o
-3 -3 -10 30.572 30.713 0.720 34.598 o
-3 -3 -9 1.724 1.861 0.360 249.426 o
-3 -3 -8 18.915 17.978 0.340 98.644 o
-3 -3 -7 25.620 24.831 0.370 68.090 o
-3 -3 -6 68.582 66.649 0.480 16.686 o
-3 -3 -5 99.308 98.503 0.510 8.992 o
-3 -3 -4 254.107 252.541 0.940 1.611 o
-3 -3 -3 302.894 299.402 1.110 1.154 o
-3 -3 -2 547.936 543.989 3.802 0.329 o
-3 -3 -1 401.211 404.968 4.232 0.513 o
-3 -3 0 265.847 270.729 1.151 1.435 o
-3 -2 -11 3.064 2.491 0.480 141.020 o
-3 -2 -9 24.413 25.021 0.490 58.539 o
-3 -2 -7 303.074 298.501 1.060 1.160 o
-3 -2 -6 19.375 19.248 0.280 105.322 o
-3 -2 -5 61.067 60.667 0.360 20.827 o
-3 -2 -4 165.081 168.784 0.650 3.564 o
-3 -2 -3 81.273 81.046 0.570 12.185 o
-3 -2 -2 329.559 345.102 1.020 0.957 o
-3 -2 -1 1629.170 1699.780 30.894 0.020 o
-3 -2 0 544.970 547.741 4.332 0.318 o
-3 -1 -11 7.606 6.843 0.490 114.784 o
-3 -1 -10 6.861 6.593 0.470 125.243 o
-3 -1 -9 40.967 40.468 0.570 31.400 o
-3 -1 -8 64.178 61.897 0.610 17.274 o
-3 -1 -7 27.734 27.052 0.360 62.876 o
-3 -1 -6 114.934 113.410 0.550 6.975 o
-3 -1 -5 427.213 420.205 0.930 0.611 o
-3 -1 -4 88.004 85.948 0.550 10.934 o
-3 -1 -3 48.018 47.151 0.420 29.086 o
-3 -1 -2 108.973 107.957 0.510 7.689 o
-3 0 1 894.822 872.243 3.031 0.141 o
-3 0 2 308.635 309.726 2.081 1.009 o
-3 0 3 296.431 307.665 2.501 1.003 o
-3 0 4 403.065 401.666 0.880 0.679 o
-3 0 5 196.637 199.037 0.780 2.578 o
-3 0 6 45.668 45.690 0.390 31.599 o
-3 0 7 53.084 53.243 0.520 23.390 o
-3 0 9 27.156 26.452 0.780 34.704 o
-3 1 1 322.802 337.328 1.090 0.992 o
-3 1 2 190.798 201.499 1.941 2.152 o
-3 1 3 448.291 440.093 2.171 0.527 o
-3 1 4 555.598 547.320 1.471 0.363 o
-3 1 5 148.180 147.795 0.690 4.352 o
-3 1 6 66.029 65.879 0.510 17.205 o
-3 1 7 16.486 15.837 0.340 111.738 o
-3 1 8 41.776 40.878 0.680 27.562 o
-3 1 9 22.812 22.960 0.590 52.621 o
-3 1 10 8.972 7.893 0.540 94.478 o
-3 2 1 396.799 394.553 1.721 0.672 o
-3 2 2 960.465 960.572 4.032 0.119 o
-3 2 3 137.364 141.372 1.080 4.457 o
-3 2 4 3.434 3.101 0.160 657.562 o
-3 2 5 21.132 20.649 0.330 88.877 o
-3 2 6 43.413 43.219 0.430 32.991 o
-3 2 7 53.233 51.923 0.650 21.458 o
-3 2 8 68.421 68.750 1.030 11.931 o
-3 2 9 12.387 12.225 0.630 66.804 o
-3 2 10 11.817 10.705 0.610 71.886 o
-3 3 1 103.203 107.597 0.910 7.254 o
-3 3 2 179.399 178.528 1.741 2.545 o
-3 3 3 207.872 206.271 1.201 2.238 o
-3 3 4 181.312 183.120 0.670 3.026 o
-3 3 5 245.394 242.026 0.860 1.737 o
-3 3 6 22.499 21.399 0.410 73.699 o
-3 3 7 30.742 31.124 0.560 42.743 o
-3 3 8 2.434 2.461 0.440 167.879 o
-3 3 9 10.289 10.665 0.620 72.253 o
-3 3 10 13.759 14.126 0.650 61.139 o
-3 4 1 252.702 252.891 0.820 1.636 o
-3 4 2 148.364 155.668 2.061 2.924 o
-3 4 3 145.504 148.155 0.630 4.482 o
-3 4 4 87.497 86.098 0.490 11.206 o
-3 4 5 15.476 15.147 0.250 142.081 o
-3 4 6 60.130 57.956 0.520 19.981 o
-3 4 7 101.570 102.755 0.940 7.456 o
-3 4 8 6.751 6.473 0.530 104.011 o
-3 4 9 19.961 19.739 1.020 27.375 o
-3 5 1 228.346 232.322 0.910 1.935 o
-3 5 2 116.485 117.222 0.960 6.040 o
-3 5 3 61.538 62.057 0.440 19.700 o
-3 5 4 60.915 61.927 0.510 19.217 o
-3 5 5 103.910 104.386 0.690 7.880 o
-3 5 6 22.677 22.040 0.420 71.452 o
-3 5 7 18.561 17.848 0.490 74.350 o
-3 5 8 8.650 8.374 0.440 127.525 o
-3 5 9 9.527 9.714 0.840 44.545 o
-3 6 1 17.706 17.278 0.250 123.134 o
-3 6 2 92.571 93.371 0.630 9.648 o
-3 6 3 226.186 227.750 0.900 1.983 o
-3 6 4 37.133 36.736 0.420 40.965 o
-3 6 5 5.625 5.222 0.270 288.741 o
-3 6 6 25.782 25.691 0.450 59.650 o
-3 6 7 2.705 2.561 0.300 319.174 o
-3 6 8 29.710 31.904 0.810 30.675 o
-3 6 9 21.839 21.099 1.030 26.273 o
-3 7 1 41.848 42.309 0.320 37.368 o
-3 7 2 74.642 76.944 0.620 13.362 o
-3 7 3 5.283 5.002 0.170 465.408 o
-3 7 4 60.639 60.286 0.540 19.229 o
-3 7 5 11.183 11.035 0.330 154.553 o
-3 7 6 29.517 29.363 0.480 49.830 o
-3 7 7 10.735 10.415 0.450 112.744 o
-3 7 8 14.635 15.227 0.860 39.059 o
-3 7 9 5.884 6.293 0.950 37.479 o
-3 8 1 109.680 111.469 0.560 7.411 o
-3 8 2 83.488 84.727 0.660 11.174 o
-3 8 3 17.129 17.238 0.310 112.958 o
-3 8 4 88.851 90.450 0.900 9.168 o
-3 8 5 12.711 12.836 0.420 110.854 o
-3 8 6 3.313 3.412 0.380 207.123 o
-3 8 7 23.391 24.981 0.710 41.693 o
-3 8 8 4.626 4.772 0.740 60.944 o
-3 9 1 77.366 79.835 0.460 13.471 o
-3 9 2 40.728 40.348 0.470 34.750 o
-3 9 3 70.853 71.822 0.600 14.701 o
-3 9 4 11.146 10.765 0.370 138.846 o
-3 9 5 48.425 48.521 0.670 23.419 o
-3 9 6 31.149 30.553 0.740 33.380 o
-3 10 1 21.726 21.209 0.280 93.124 o
-3 10 2 84.026 83.497 0.590 11.498 o
-3 10 3 74.469 74.333 0.580 13.879 o
-3 10 4 1.603 1.321 0.340 281.155 o
-3 10 5 8.703 8.814 0.500 105.547 o
-3 10 6 18.085 18.068 0.650 54.374 o
-3 10 7 12.941 12.866 0.640 64.221 o
-3 10 8 32.949 36.956 1.211 17.248 o
-3 11 1 56.445 56.065 0.520 21.564 o
-3 11 2 33.949 33.325 0.440 44.957 o
-3 11 3 0.864 0.650 0.230 607.464 o
-3 11 4 101.843 102.355 0.970 7.364 o
-3 11 5 31.860 32.144 0.620 38.209 o
-3 11 6 7.567 7.503 0.550 95.128 o
-3 11 7 1.714 1.491 0.510 131.515 o
-3 11 8 3.855 4.042 0.780 55.929 o
-3 12 1 51.785 50.692 0.540 24.119 o
-3 12 2 53.974 53.604 0.690 20.298 o
-3 12 3 48.883 48.691 0.640 23.819 o
-3 12 4 8.485 7.663 0.510 104.541 o
-3 12 5 3.932 3.161 0.420 172.180 o
-3 12 7 33.751 35.856 0.860 26.331 o
-3 13 1 134.489 132.648 1.861 3.624 o
-3 13 2 51.390 49.612 0.590 23.607 o
-3 13 3 26.086 24.991 0.500 55.356 o
-3 13 4 2.539 2.151 0.390 208.555 o
-3 13 5 28.466 28.392 0.640 41.106 o
-3 13 6 11.422 10.985 0.620 70.503 o
-3 14 1 2.259 1.961 0.480 144.779 o
-3 14 2 36.735 34.545 0.570 36.088 o
-3 14 3 29.555 29.043 0.650 39.451 o
-3 14 4 5.979 5.352 0.440 144.843 o
-3 14 5 4.655 3.982 0.550 104.972 o
-3 14 6 37.327 39.487 1.291 15.006 o
-3 15 1 9.637 8.384 0.580 82.979 o
-3 15 2 8.621 7.533 0.410 142.330 o
-3 15 3 1.728 1.431 0.450 166.650 o
-3 15 4 42.590 40.608 0.910 21.340 o
-3 15 5 4.822 4.172 0.610 86.871 o
-3 16 1 28.009 27.552 1.161 20.027 o
-3 16 2 6.526 5.933 0.560 96.008 o
-3 16 3 4.838 3.902 0.630 82.121 o
-3 16 4 1.973 1.711 0.570 105.655 o
-3 17 1 3.841 3.181 0.610 89.040 o
-3 17 2 7.837 6.393 0.590 85.365 o
-2 -17 -2 7.468 7.243 0.830 47.176 o
-2 -17 -1 10.560 10.545 0.600 75.657 o
-2 -17 0 19.871 20.049 0.970 29.596 o
-2 -16 -4 2.431 2.621 0.610 91.491 o
-2 -16 -3 20.606 20.249 0.950 30.275 o
-2 -16 -2 1.527 1.371 0.470 154.451 o
-2 -16 -1 1.994 1.641 0.500 135.481 o
-2 -16 0 7.083 6.903 0.540 99.677 o
-2 -15 -6 3.662 3.702 0.780 56.141 o
-2 -15 -5 7.750 7.673 0.820 47.956 o
-2 -15 -3 2.466 2.781 0.740 63.184 o
-2 -15 -2 17.892 18.298 0.540 67.904 o
-2 -15 -1 43.609 45.120 0.730 24.564 o
-2 -15 0 2.587 2.591 0.480 142.516 o
-2 -14 -5 29.229 30.203 1.151 19.811 o
-2 -14 -4 3.175 3.271 0.740 62.521 o
-2 -14 -3 13.892 15.737 0.890 37.159 o
-2 -14 -1 1.889 1.821 0.350 260.707 o
-2 -14 0 19.972 19.279 0.530 65.172 o
-2 -13 -7 14.343 14.716 0.670 57.617 o
-2 -13 -6 7.933 8.444 0.820 47.654 o
-2 -13 -5 7.770 7.853 0.790 51.188 o
-2 -13 -3 4.423 3.792 0.440 155.343 o
-2 -13 -2 20.161 19.849 0.630 53.358 o
-2 -13 -1 16.820 16.157 0.470 83.072 o
-2 -13 0 41.500 41.558 0.580 30.470 o
-2 -12 -8 8.812 8.814 0.610 77.557 o
-2 -12 -7 4.589 4.062 0.710 66.123 o
-2 -12 -6 2.581 2.831 0.710 68.297 o
-2 -12 -5 1.574 1.771 0.700 71.468 o
-2 -12 -4 58.237 59.876 1.391 10.475 o
-2 -12 -3 23.582 23.290 0.660 45.844 o
-2 -12 -1 4.927 4.502 0.340 225.394 o
-2 -12 0 29.567 29.233 0.420 53.878 o
-2 -11 -8 3.121 2.531 0.550 109.790 o
-2 -11 -7 22.709 23.590 0.620 49.757 o
-2 -11 -6 21.773 21.830 0.700 44.815 o
-2 -11 -5 1.798 2.081 0.580 102.187 o
-2 -11 -4 13.858 12.395 0.780 46.961 o
-2 -11 -3 61.758 62.127 0.760 16.221 o
-2 -11 -2 55.425 55.444 0.670 19.878 o
-2 -11 -1 24.116 23.600 0.420 67.145 o
-2 -11 0 47.105 47.331 0.450 28.944 o
-2 -10 -9 6.422 7.093 0.600 84.686 o
-2 -10 -8 9.146 9.294 0.490 106.764 o
-2 -10 -7 10.505 10.184 0.430 120.621 o
-2 -10 -6 0.954 1.090 0.350 275.642 o
-2 -10 -5 87.304 92.381 1.211 7.900 o
-2 -10 -4 1.137 1.080 0.380 234.516 o
-2 -10 -3 124.233 122.284 0.940 5.560 o
-2 -10 -2 72.215 71.451 0.850 12.624 o
-2 -10 -1 3.184 3.041 0.230 448.621 o
-2 -10 0 71.511 71.401 0.520 15.162 o
-2 -9 -8 12.423 12.255 0.450 104.368 o
-2 -9 -7 2.134 1.951 0.300 335.127 o
-2 -9 -6 37.131 38.077 0.580 34.209 o
-2 -9 -5 177.803 181.010 1.050 2.952 o
-2 -9 -4 4.806 4.892 0.270 306.286 o
-2 -9 -3 11.156 10.995 0.260 188.318 o
-2 -9 -2 79.465 78.354 0.680 12.107 o
-2 -9 -1 158.267 158.220 0.700 3.866 o
-2 -9 0 22.921 22.690 0.340 79.791 o
-2 -8 -9 1.611 1.871 0.400 206.767 o
-2 -8 -8 24.640 24.741 0.490 58.415 o
-2 -8 -7 20.757 19.969 0.430 76.370 o
-2 -8 -6 2.358 2.191 0.250 439.025 o
-2 -8 -5 12.874 12.225 0.310 148.179 o
-2 -8 -4 158.436 160.771 0.820 3.752 o
-2 -8 -3 152.679 151.697 0.700 4.132 o
-2 -8 -2 40.792 41.138 0.370 37.426 o
-2 -8 -1 147.566 146.084 0.630 4.446 o
-2 -8 0 134.836 138.801 0.680 5.041 o
-2 -7 -10 1.554 1.561 0.400 208.248 o
-2 -7 -9 32.882 35.135 0.720 32.067 o
-2 -7 -8 2.050 1.791 0.280 379.611 o
-2 -7 -7 67.306 67.840 0.660 15.381 o
-2 -7 -6 59.166 58.496 0.580 19.485 o
-2 -7 -5 23.439 24.171 0.410 68.961 o
-2 -7 -4 38.815 38.427 0.440 37.985 o
-2 -7 -3 17.247 16.867 0.240 128.860 o
-2 -7 -2 65.765 66.089 0.390 18.188 o
-2 -7 -1 298.541 299.982 0.810 1.196 o
-2 -7 0 452.602 452.839 1.231 0.536 o
-2 -6 -10 3.428 3.381 0.460 148.949 o
-2 -6 -9 12.406 12.365 0.410 115.790 o
-2 -6 -8 13.643 13.666 0.360 123.248 o
-2 -6 -7 24.998 25.601 0.400 65.671 o
-2 -6 -6 32.204 31.874 0.390 50.449 o
-2 -6 -5 27.486 27.232 0.360 63.158 o
-2 -6 -4 106.730 105.726 0.760 7.444 o
-2 -6 -3 401.100 401.126 1.171 0.676 o
-2 -6 -2 80.767 81.626 0.390 12.980 o
-2 -6 -1 83.975 88.669 0.650 10.891 o
-2 -6 0 19.920 20.179 0.350 90.185 o
-2 -5 -10 17.819 18.418 0.590 61.379 o
-2 -5 -9 2.103 1.551 0.320 303.936 o
-2 -5 -8 19.853 19.959 0.390 84.419 o
-2 -5 -7 65.666 66.189 0.590 16.561 o
-2 -5 -6 129.438 129.487 0.780 5.377 o
-2 -5 -5 112.735 112.179 0.660 6.989 o
-2 -5 -4 36.292 36.186 0.380 43.664 o
-2 -5 -3 0.422 0.730 0.130 1709.120 o
-2 -5 -2 274.715 274.150 1.481 1.325 o
-2 -5 -1 442.285 445.066 1.591 0.549 o
-2 -5 0 118.517 118.432 0.590 6.515 o
-2 -4 -9 18.005 17.898 0.410 88.772 o
-2 -4 -8 26.672 26.612 0.390 62.673 o
-2 -4 -7 44.115 43.939 0.430 32.273 o
-2 -4 -6 0.711 0.660 0.160 1155.900 o
-2 -4 -5 61.159 62.317 0.400 20.153 o
-2 -4 -4 199.997 201.729 0.710 2.524 o
-2 -4 -3 47.410 46.901 0.670 24.122 o
-2 -4 -2 1041.230 1034.800 7.803 0.091 o
-2 -4 -1 201.400 208.682 1.040 2.359 o
-2 -4 0 734.622 753.891 4.802 0.184 o
-2 -3 -11 9.778 9.274 0.870 41.872 o
-2 -3 -9 6.655 5.973 0.300 236.153 o
-2 -3 -8 37.520 36.816 0.430 40.182 o
-2 -3 -7 62.973 62.007 0.530 18.390 o
-2 -3 -6 80.959 80.796 0.520 12.486 o
-2 -3 -5 51.349 50.182 0.380 27.119 o
-2 -3 -4 153.441 149.286 0.600 4.210 o
-2 -3 -3 213.518 210.212 1.271 2.124 o
-2 -3 -2 173.243 182.140 1.020 3.045 o
-2 -3 -1 141.882 145.104 2.431 2.724 o
-2 -3 0 1102.450 1103.570 6.153 0.087 o
-2 -2 -11 7.845 7.633 0.490 112.906 o
-2 -2 -10 5.149 4.402 0.380 189.716 o
-2 -2 -9 13.531 13.096 0.370 121.965 o
-2 -2 -8 39.849 39.537 0.470 35.698 o
-2 -2 -6 36.224 35.656 0.390 43.605 o
-2 -2 -5 5.755 5.532 0.160 452.914 o
-2 -2 -4 204.496 202.549 0.600 2.475 o
-2 -2 -3 704.733 701.428 4.042 0.209 o
-2 -2 -2 89.838 86.948 0.490 10.826 o
-2 -2 -1 429.360 433.520 3.712 0.491 o
-2 -2 0 96.052 99.884 1.681 5.580 o
-2 -1 -11 3.875 3.211 0.470 142.078 o
-2 -1 -10 1.417 1.351 0.350 268.741 o
-2 -1 -9 6.381 5.723 0.340 205.744 o
-2 -1 -8 44.174 43.909 0.480 30.981 o
-2 -1 -7 24.814 24.431 0.380 69.119 o
-2 -1 -6 114.517 112.800 0.570 6.995 o
-2 -1 -5 43.542 43.009 0.310 35.895 o
-2 -1 -4 6.938 7.093 0.150 393.146 o
-2 -1 -3 21.031 20.379 0.220 105.472 o
-2 -1 -2 271.241 272.270 1.141 1.397 o
-2 -1 -1 1286.440 1377.550 23.300 0.033 o
-2 -1 0 634.168 614.420 3.412 0.265 o
-2 0 1 501.106 538.797 1.971 0.410 o
-2 0 2 202.692 206.281 1.371 2.241 o
-2 0 3 17.030 17.458 0.640 56.922 o
-2 0 4 23.991 24.171 0.250 84.786 o
-2 0 5 9.080 8.504 0.200 270.780 o
-2 0 6 16.766 15.857 0.230 136.950 o
-2 0 7 12.627 11.945 0.310 150.630 o
-2 0 8 56.194 56.665 0.640 19.889 o
-2 0 9 23.114 22.500 0.740 40.689 o
-2 1 1 501.322 489.505 1.781 0.439 o
-2 1 2 159.107 157.089 1.060 3.612 o
-2 1 3 297.601 305.574 1.981 1.072 o
-2 1 4 311.925 316.619 1.020 1.082 o
-2 1 5 61.732 61.547 0.450 19.624 o
-2 1 6 13.981 13.526 0.250 158.001 o
-2 1 7 10.292 9.654 0.260 203.789 o
-2 1 8 17.178 16.557 0.510 75.118 o
-2 1 10 8.201 7.753 0.570 88.416 o
-2 2 1 1364.450 1364.420 13.806 0.047 o
-2 2 2 50.960 47.211 0.840 19.554 o
-2 2 3 267.123 271.019 1.721 1.339 o
-2 2 4 10.919 9.834 0.190 237.088 o
-2 2 5 29.076 29.003 0.260 65.569 o
-2 2 6 83.367 83.147 0.510 11.958 o
-2 2 7 11.856 11.315 0.420 116.726 o
-2 2 8 9.221 8.684 0.360 160.275 o
-2 2 9 13.769 13.766 0.640 62.708 o
-2 2 10 4.740 4.912 0.540 107.169 o
-2 3 1 500.745 493.027 2.661 0.418 o
-2 3 2 319.259 327.684 2.261 0.922 o
-2 3 3 98.344 97.313 1.471 6.170 o
-2 3 4 150.152 149.446 0.580 4.329 o
-2 3 5 205.944 205.210 0.870 2.371 o
-2 3 6 1.380 1.391 0.240 522.185 o
-2 3 7 6.483 6.133 0.370 181.228 o
-2 3 8 24.012 23.600 0.570 52.696 o
-2 3 9 20.880 20.839 0.720 44.304 o
-2 4 1 144.248 149.776 0.670 4.469 o
-2 4 2 366.384 375.215 3.862 0.609 o
-2 4 3 87.423 88.569 0.530 10.908 o
-2 4 5 9.869 9.514 0.270 202.898 o
-2 4 6 139.547 138.171 0.740 4.804 o
-2 4 7 52.667 53.744 0.610 21.999 o
-2 4 8 26.042 26.642 0.740 37.489 o
-2 4 9 12.324 12.495 0.640 65.180 o
-2 5 1 43.251 44.359 0.440 32.455 o
-2 5 2 109.314 109.838 1.110 6.296 o
-2 5 3 129.488 130.417 0.650 5.505 o
-2 5 4 357.725 356.747 0.990 0.847 o
-2 5 5 76.559 76.263 0.550 13.489 o
-2 5 6 5.160 4.672 0.250 330.653 o
-2 5 7 1.936 1.641 0.280 384.141 o
-2 5 8 20.857 21.389 0.990 28.172 o
-2 5 9 6.880 7.493 0.600 83.657 o
-2 5 10 23.322 25.221 1.100 22.925 o
-2 6 1 520.062 545.860 2.521 0.378 o
-2 6 2 340.372 344.952 0.940 0.923 o
-2 6 3 248.402 252.661 1.010 1.645 o
-2 6 4 10.729 10.435 0.270 189.775 o
-2 6 5 12.152 11.485 0.270 172.523 o
-2 6 6 49.098 49.202 0.650 23.437 o
-2 6 7 57.549 58.596 0.670 18.799 o
-2 6 8 22.099 23.460 0.570 55.022 o
-2 6 9 35.335 37.386 0.880 24.868 o
-2 6 10 5.397 5.212 0.980 35.616 o
-2 7 1 31.947 32.674 0.300 55.040 o
-2 7 2 64.589 66.109 0.380 18.608 o
-2 7 3 55.679 55.664 0.480 22.464 o
-2 7 4 42.283 42.449 0.450 33.496 o
-2 7 5 189.792 193.485 1.040 2.641 o
-2 7 6 50.360 50.172 0.680 22.221 o
-2 7 7 10.835 10.675 0.380 136.689 o
-2 7 8 18.355 18.488 0.550 65.686 o
-2 7 9 10.510 10.465 0.950 35.375 o
-2 8 1 154.355 155.268 0.640 4.061 o
-2 8 2 153.020 155.688 0.760 4.020 o
-2 8 3 47.185 46.961 0.410 29.831 o
-2 8 4 56.993 56.575 0.640 19.659 o
-2 8 5 66.725 65.859 0.740 14.988 o
-2 8 6 29.753 30.173 0.740 34.260 o
-2 8 7 14.662 14.656 0.530 78.270 o
-2 9 1 39.784 40.368 0.330 39.828 o
-2 9 2 25.591 25.541 0.340 70.249 o
-2 9 3 94.093 94.251 0.600 9.527 o
-2 9 4 156.593 158.560 1.331 3.432 o
-2 9 5 8.107 7.703 0.370 165.067 o
-2 9 6 5.748 5.863 0.400 167.350 o
-2 9 7 3.827 3.752 0.460 146.599 o
-2 9 8 5.700 5.182 0.760 57.145 o
-2 10 1 102.570 104.136 0.610 8.191 o
-2 10 2 36.391 35.906 0.410 42.485 o
-2 10 3 19.485 18.448 0.340 95.932 o
-2 10 4 22.440 22.140 0.490 63.727 o
-2 10 5 10.724 9.964 0.410 127.359 o
-2 10 6 15.204 15.857 0.910 35.287 o
-2 10 7 54.068 57.645 1.030 14.899 o
-2 10 8 2.748 1.991 0.840 49.511 o
-2 11 1 16.430 16.157 0.330 113.674 o
-2 11 2 19.035 18.508 0.400 86.899 o
-2 11 3 33.264 32.044 0.450 45.862 o
-2 11 4 7.728 7.453 0.380 162.600 o
-2 11 5 16.017 15.357 0.420 96.069 o
-2 11 6 46.525 49.742 1.371 12.270 o
-2 11 7 22.834 23.370 0.740 40.587 o
-2 12 1 13.694 13.276 0.340 130.176 o
-2 12 2 106.112 106.187 0.950 7.000 o
-2 12 4 1.615 1.491 0.430 181.881 o
-2 12 5 11.355 10.395 0.460 107.708 o
-2 12 6 8.674 9.314 0.590 81.605 o
-2 13 1 5.682 5.362 0.300 252.230 o
-2 13 2 14.213 12.746 0.410 108.504 o
-2 13 3 4.280 4.092 0.300 280.915 o
-2 13 4 36.336 36.796 0.590 34.776 o
-2 13 5 3.376 2.701 0.520 120.820 o
-2 13 6 6.848 6.373 0.490 117.773 o
-2 13 7 3.043 2.981 0.560 105.901 o
-2 14 1 11.489 10.145 0.440 113.808 o
-2 14 2 12.831 11.995 0.420 111.920 o
-2 14 3 7.486 7.073 0.400 154.199 o
-2 14 4 2.964 2.571 0.440 165.070 o
-2 14 5 3.518 3.211 0.500 128.508 o
-2 15 1 4.030 3.071 0.370 211.860 o
-2 15 2 4.314 3.291 0.370 208.613 o
-2 15 3 24.489 23.720 0.520 56.547 o
-2 15 4 1.444 1.341 0.420 191.483 o
-2 15 5 5.267 5.172 0.620 83.048 o
-2 16 1 9.589 8.264 0.480 110.144 o
-2 16 2 22.010 20.539 0.740 42.093 o
-2 16 3 3.384 2.791 0.440 162.543 o
-2 16 4 11.114 9.654 0.650 66.743 o
-2 17 1 4.274 3.722 0.590 93.496 o
-2 17 2 1.657 1.151 0.410 199.578 o
-1 -17 -2 7.593 7.363 0.870 43.236 o
-1 -17 -1 4.835 4.402 0.570 97.802 o
-1 -17 0 2.389 2.291 0.580 100.984 o
-1 -16 -4 15.610 16.577 0.930 33.776 o
-1 -16 -3 1.587 1.531 0.470 153.915 o
-1 -16 -2 3.297 3.071 0.430 168.923 o
-1 -16 -1 1.522 2.151 0.740 64.040 o
-1 -16 0 24.545 25.071 0.720 40.190 o
-1 -15 -6 3.004 3.482 0.780 56.585 o
-1 -15 -5 5.288 5.432 0.840 47.625 o
-1 -15 -4 1.870 1.791 0.510 130.656 o
-1 -15 -2 30.196 31.614 0.650 38.059 o
-1 -15 -1 2.981 2.631 0.390 203.536 o
-1 -15 0 29.991 30.263 0.770 32.698 o
-1 -14 -6 2.770 2.451 0.580 100.182 o
-1 -14 -5 2.076 2.271 0.720 67.090 o
-1 -14 -4 11.181 11.275 0.850 42.458 o
-1 -14 -3 20.234 20.079 0.680 48.471 o
-1 -14 -2 11.067 10.715 0.460 108.104 o
-1 -14 -1 1.644 1.351 0.330 295.892 o
-1 -14 0 2.924 3.121 0.350 242.493 o
-1 -13 -7 13.206 13.346 0.660 60.824 o
-1 -13 -5 4.108 4.222 0.680 72.007 o
-1 -13 -4 4.425 4.322 0.680 71.643 o
-1 -13 -3 3.357 2.941 0.430 168.948 o
-1 -13 -2 34.814 34.445 0.780 28.967 o
-1 -13 -1 25.537 25.011 0.630 45.632 o
-1 -13 0 16.465 16.327 0.410 95.407 o
-1 -12 -7 4.045 3.642 0.740 61.773 o
-1 -12 -6 5.365 6.063 0.770 55.722 o
-1 -12 -5 29.878 30.343 1.120 20.438 o
-1 -12 -4 22.408 23.210 0.990 27.431 o
-1 -12 -3 1.081 1.181 0.360 259.610 o
-1 -12 -2 80.180 80.706 1.060 9.715 o
-1 -12 -1 6.601 6.183 0.440 140.364 o
-1 -12 0 52.835 52.583 0.600 22.314 o
-1 -11 -8 7.735 6.923 0.580 87.517 o
-1 -11 -7 6.656 6.733 0.480 121.673 o
-1 -11 -6 7.722 7.373 0.570 89.644 o
-1 -11 -5 28.178 28.683 1.060 22.675 o
-1 -11 -4 3.802 3.862 0.630 83.501 o
-1 -11 -3 19.689 19.609 0.600 57.147 o
-1 -11 -2 75.262 76.564 0.840 11.877 o
-1 -11 -1 40.522 40.988 0.440 35.604 o
-1 -11 0 56.726 55.885 0.510 21.629 o
-1 -10 -9 12.677 12.676 0.650 63.185 o
-1 -10 -8 2.950 3.081 0.430 170.681 o
-1 -10 -6 27.594 28.162 0.540 48.556 o
-1 -10 -5 1.355 1.651 0.290 374.808 o
-1 -10 -4 52.287 55.724 0.740 19.690 o
-1 -10 -3 164.553 171.625 2.211 2.461 o
-1 -10 -2 11.564 10.945 0.300 165.672 o
-1 -10 -1 28.625 28.843 0.410 56.196 o
-1 -10 0 88.864 89.729 0.620 10.325 o
-1 -9 -9 1.322 1.050 0.420 193.047 o
-1 -9 -8 1.562 1.631 0.330 295.073 o
-1 -9 -7 48.336 50.532 0.560 25.269 o
-1 -9 -6 41.899 42.139 0.540 31.253 o
-1 -9 -5 2.954 3.001 0.250 407.964 o
-1 -9 -4 98.081 99.174 0.740 8.469 o
-1 -9 -3 39.265 38.787 0.370 39.815 o
-1 -9 -2 114.277 113.650 0.680 6.801 o
-1 -9 -1 73.379 72.612 0.490 14.820 o
-1 -9 0 50.587 49.932 0.360 27.909 o
-1 -8 -9 6.008 5.893 0.400 165.754 o
-1 -8 -8 20.100 20.139 0.450 74.792 o
-1 -8 -7 2.731 2.491 0.280 355.972 o
-1 -8 -6 19.374 19.659 0.400 84.488 o
-1 -8 -5 69.755 70.281 0.610 15.013 o
-1 -8 -4 148.172 151.367 0.850 4.169 o
-1 -8 -3 15.966 15.647 0.220 145.295 o
-1 -8 -2 15.781 15.977 0.230 142.829 o
-1 -8 -1 145.760 148.805 0.620 4.468 o
-1 -8 0 231.073 231.602 1.231 1.844 o
-1 -7 -10 14.970 15.587 0.560 71.809 o
-1 -7 -9 13.744 15.277 0.500 85.239 o
-1 -7 -8 60.970 61.977 0.690 17.210 o
-1 -7 -7 6.642 6.243 0.320 217.132 o
-1 -7 -6 44.662 44.730 0.520 29.441 o
-1 -7 -5 52.136 51.483 0.650 21.911 o
-1 -7 -4 52.341 52.503 0.590 22.679 o
-1 -7 -3 87.362 89.239 0.470 11.071 o
-1 -7 -2 275.699 272.490 0.860 1.398 o
-1 -7 -1 305.242 305.584 0.780 1.152 o
-1 -7 0 132.145 133.969 0.920 4.985 o
-1 -6 -10 12.577 12.155 0.650 63.596 o
-1 -6 -9 18.860 19.178 0.460 76.931 o
-1 -6 -8 5.800 5.642 0.300 248.864 o
-1 -6 -7 9.325 9.054 0.300 191.935 o
-1 -6 -6 30.725 30.623 0.400 52.640 o
-1 -6 -5 187.408 190.064 0.920 2.757 o
-1 -6 -4 85.014 85.638 0.700 10.733 o
-1 -6 -3 89.454 89.459 0.550 10.515 o
-1 -6 -2 64.007 63.468 0.430 18.792 o
-1 -6 -1 39.108 38.477 0.510 35.263 o
-1 -6 0 379.838 392.142 2.831 0.646 o
-1 -5 -10 3.434 3.201 0.430 167.887 o
-1 -5 -9 1.255 1.020 0.280 409.188 o
-1 -5 -8 4.851 4.832 0.290 279.406 o
-1 -5 -7 185.299 190.654 1.030 2.742 o
-1 -5 -6 65.802 65.489 0.510 17.316 o
-1 -5 -5 55.903 55.384 0.460 22.698 o
-1 -5 -4 18.108 17.988 0.270 115.332 o
-1 -5 -3 258.967 257.823 0.900 1.559 o
-1 -5 -2 234.817 235.884 1.040 1.829 o
-1 -5 -1 164.503 164.942 0.960 3.455 o
-1 -5 0 163.915 166.663 0.850 3.515 o
-1 -4 -10 21.031 21.239 0.610 53.650 o
-1 -4 -9 5.398 5.482 0.350 207.395 o
-1 -4 -8 33.687 32.774 0.420 46.543 o
-1 -4 -7 19.683 19.829 0.320 96.352 o
-1 -4 -6 17.006 16.857 0.270 123.410 o
-1 -4 -5 70.548 69.941 0.410 16.255 o
-1 -4 -4 167.922 163.752 0.640 3.560 o
-1 -4 -3 227.325 228.791 1.030 1.939 o
-1 -4 -2 2.157 2.361 0.170 755.033 o
-1 -4 -1 890.630 885.069 5.062 0.132 o
-1 -4 0 250.236 248.009 1.801 1.497 o
-1 -3 -10 1.997 1.751 0.450 164.723 o
-1 -3 -9 7.489 7.183 0.330 196.920 o
-1 -3 -8 18.867 18.928 0.350 95.414 o
-1 -3 -7 6.216 6.003 0.260 284.001 o
-1 -3 -6 115.123 114.840 0.560 6.898 o
-1 -3 -5 86.184 84.907 0.470 11.550 o
-1 -3 -4 35.972 34.425 0.270 49.360 o
-1 -3 -3 453.810 442.675 1.311 0.540 o
-1 -3 -2 32.733 31.044 0.320 54.059 o
-1 -3 -1 966.913 1007.100 6.063 0.107 o
-1 -3 0 497.801 485.293 2.121 0.438 o
-1 -2 -11 3.855 3.492 0.480 136.524 o
-1 -2 -10 2.856 2.811 0.420 179.139 o
-1 -2 -9 38.211 38.737 0.510 35.823 o
-1 -2 -8 7.190 6.363 0.290 236.401 o
-1 -2 -7 0.800 0.820 0.230 606.280 o
-1 -2 -6 4.255 4.192 0.190 483.828 o
-1 -2 -5 297.746 292.559 0.810 1.219 o
-1 -2 -4 24.807 27.202 0.290 74.741 o
-1 -2 -3 71.789 70.891 0.510 15.223 o
-1 -2 -2 339.729 340.169 0.910 0.935 o
-1 -2 -1 332.206 335.657 3.071 0.787 o
-1 -1 -11 2.144 1.511 0.550 112.944 o
-1 -1 -10 2.857 2.531 0.370 224.203 o
-1 -1 -9 2.180 1.911 0.280 375.089 o
-1 -1 -8 14.944 14.236 0.330 124.703 o
-1 -1 -7 37.206 36.936 0.450 39.630 o
-1 -1 -6 63.370 61.677 0.430 19.266 o
-1 -1 -5 84.788 84.377 0.400 12.040 o
-1 -1 -4 47.407 48.771 0.340 30.463 o
-1 -1 -3 50.271 50.992 0.460 26.136 o
-1 -1 -1 1240.080 1237.280 19.428 0.042 o
-1 -1 0 19.279 19.128 0.380 88.713 o
-1 0 1 1936.330 1889.520 23.650 0.021 o
-1 0 2 1140.090 1101.150 6.013 0.084 o
-1 0 3 1.015 1.090 0.160 1058.540 o
-1 0 4 0.583 0.510 0.130 1687.350 o
-1 0 5 79.451 78.645 0.450 13.243 o
-1 0 6 82.574 81.786 0.490 12.272 o
-1 0 7 16.843 16.547 0.310 115.717 o
-1 0 8 31.362 31.384 0.420 50.117 o
-1 0 10 2.561 2.481 0.440 167.217 o
-1 0 11 21.094 22.350 1.080 24.421 o
-1 1 1 1003.360 947.516 4.092 0.113 o
-1 1 2 255.854 266.057 1.581 1.446 o
-1 1 3 104.393 106.137 1.070 6.790 o
-1 1 4 199.929 201.348 0.810 2.502 o
-1 1 5 102.307 101.194 0.400 8.776 o
-1 1 6 17.676 17.558 0.290 114.169 o
-1 1 7 70.163 69.421 0.530 15.612 o
-1 1 8 3.611 3.351 0.290 312.370 o
-1 1 9 31.676 32.214 0.820 29.326 o
-1 1 10 8.582 8.264 0.490 109.839 o
-1 2 1 364.781 387.330 1.701 0.753 o
-1 2 2 213.875 203.069 3.001 1.497 o
-1 2 3 437.607 435.461 2.901 0.517 o
-1 2 4 103.599 101.645 0.500 8.445 o
-1 2 5 30.614 30.553 0.270 60.586 o
-1 2 6 90.423 91.950 0.480 10.454 o
-1 2 7 55.753 55.745 0.710 19.154 o
-1 2 8 12.680 12.766 0.460 100.201 o
-1 2 9 16.853 16.927 0.550 69.233 o
-1 3 1 69.278 66.299 0.890 13.156 o
-1 3 2 139.846 141.152 2.731 2.481 o
-1 3 3 243.591 249.430 4.172 0.958 o
-1 3 4 403.617 403.587 0.970 0.673 o
-1 3 5 44.647 43.699 0.420 32.244 o
-1 3 6 57.675 58.026 0.540 20.535 o
-1 3 7 7.902 6.863 0.470 121.242 o
-1 3 8 59.160 59.956 0.980 14.441 o
-1 3 9 10.704 10.214 0.850 42.946 o
-1 3 10 1.576 1.591 0.590 99.653 o
-1 4 1 184.124 195.116 0.850 2.796 o
-1 4 2 690.025 697.096 7.653 0.172 o
-1 4 3 10.260 10.565 0.380 139.847 o
-1 4 4 8.019 7.723 0.180 318.864 o
-1 4 5 108.509 108.778 0.750 7.226 o
-1 4 6 148.362 146.554 0.980 4.124 o
-1 4 7 16.481 16.207 0.390 99.775 o
-1 4 9 8.899 8.074 0.460 119.541 o
-1 4 10 4.064 4.522 0.820 50.650 o
-1 5 1 39.515 39.858 0.380 38.783 o
-1 5 2 682.379 692.284 3.662 0.223 o
-1 5 3 30.232 30.694 0.330 57.623 o
-1 5 4 95.217 97.633 0.540 9.392 o
-1 5 5 51.801 51.163 0.480 25.036 o
-1 5 6 16.053 15.247 0.410 98.303 o
-1 5 7 74.910 75.273 0.700 12.951 o
-1 5 8 13.570 13.166 0.500 87.999 o
-1 5 9 8.015 7.793 0.470 119.311 o
-1 5 10 2.775 2.791 0.610 90.873 o
-1 6 1 443.198 448.317 2.611 0.512 o
-1 6 2 26.181 28.222 0.310 68.780 o
-1 6 3 14.960 14.246 0.260 145.397 o
-1 6 4 108.961 109.818 0.600 7.458 o
-1 6 5 33.260 32.955 0.370 49.471 o
-1 6 6 55.233 55.164 0.660 20.127 o
-1 6 7 10.401 10.485 0.330 161.541 o
-1 6 8 2.795 2.431 0.410 188.405 o
-1 6 9 13.081 13.216 0.660 61.031 o
-1 7 1 67.063 67.900 0.410 17.425 o
-1 7 2 9.570 9.354 0.190 262.420 o
-1 7 3 205.636 210.272 1.040 2.292 o
-1 7 4 206.868 205.380 1.060 2.302 o
-1 7 5 2.617 2.461 0.240 452.687 o
-1 7 6 19.788 20.049 0.480 71.355 o
-1 7 7 7.399 7.393 0.340 189.837 o
-1 7 8 9.471 9.014 0.390 143.536 o
-1 7 9 2.705 2.891 0.560 106.664 o
-1 8 1 127.525 128.957 0.570 5.726 o
-1 8 2 48.903 48.671 0.330 29.732 o
-1 8 3 1.272 1.141 0.150 1107.890 o
-1 8 4 29.588 29.303 0.430 53.126 o
-1 8 5 76.497 77.054 0.770 12.115 o
-1 8 6 8.676 8.704 0.510 102.718 o
-1 8 7 30.427 31.264 0.770 32.219 o
-1 8 8 11.839 12.456 0.500 92.890 o
-1 9 1 3.751 3.792 0.180 546.096 o
-1 9 2 153.174 153.838 0.770 4.036 o
-1 9 3 119.587 119.543 0.600 6.401 o
-1 9 4 35.632 36.046 0.560 36.760 o
-1 9 5 48.100 47.311 0.660 23.985 o
-1 9 7 29.623 29.863 0.800 31.626 o
-1 9 8 11.080 11.255 0.590 76.224 o
-1 10 1 81.048 82.906 0.550 12.166 o
-1 10 2 47.706 47.521 0.460 28.351 o
-1 10 3 16.200 15.887 0.320 117.681 o
-1 10 4 5.791 5.202 0.340 213.585 o
-1 10 5 43.069 44.209 0.590 28.619 o
-1 10 6 40.031 40.848 0.590 31.206 o
-1 10 7 2.159 1.861 0.680 75.025 o
-1 10 8 1.432 1.591 0.520 127.348 o
-1 11 1 14.585 14.256 0.320 129.350 o
-1 11 2 16.531 16.257 0.350 108.405 o
-1 11 3 30.694 30.724 0.550 43.543 o
-1 11 4 65.389 65.139 0.700 15.718 o
-1 11 5 3.514 3.612 0.320 269.116 o
-1 11 6 16.439 16.187 0.440 89.618 o
-1 11 7 2.283 1.661 0.650 81.806 o
-1 11 8 19.810 18.898 1.010 27.967 o
-1 12 1 37.956 37.236 0.520 36.196 o
-1 12 2 52.882 50.662 0.610 22.480 o
-1 12 3 14.404 14.316 0.350 121.311 o
-1 12 4 2.311 1.731 0.310 315.983 o
-1 12 5 4.713 4.542 0.360 208.873 o
-1 12 6 9.610 9.054 0.470 112.130 o
-1 12 7 24.028 24.951 1.110 22.486 o
-1 13 1 3.910 3.351 0.260 357.389 o
-1 13 2 5.700 5.252 0.280 275.132 o
-1 13 3 43.855 44.670 0.650 26.556 o
-1 13 4 18.981 19.048 0.500 70.994 o
-1 13 5 13.876 13.116 0.630 64.397 o
-1 14 1 54.038 48.171 0.820 18.953 o
-1 14 2 32.286 29.703 0.660 36.768 o
-1 14 3 4.128 3.532 0.360 218.421 o
-1 14 4 1.063 0.940 0.340 290.581 o
-1 14 5 3.511 3.051 0.590 95.312 o
-1 14 6 7.763 7.213 0.510 107.004 o
-1 15 2 18.026 18.038 0.700 49.404 o
-1 15 3 6.351 5.542 0.420 153.274 o
-1 15 4 6.971 5.933 0.470 126.005 o
-1 15 5 15.962 17.658 0.980 30.721 o
-1 16 1 8.565 7.663 0.600 80.901 o
-1 16 3 2.258 1.871 0.410 193.488 o
-1 16 4 9.641 8.864 0.430 126.551 o
-1 17 1 9.427 7.483 0.500 105.387 o
-1 17 3 28.908 29.053 0.700 37.145 o
0 -17 -3 8.710 9.274 0.840 45.061 o
0 -17 -1 3.421 3.371 0.560 104.759 o
0 -16 -2 8.628 8.374 0.450 123.709 o
0 -16 -1 2.355 2.101 0.500 133.692 o
0 -16 0 18.346 19.248 0.950 31.224 o
0 -15 -4 2.101 2.301 0.750 61.967 o
0 -15 -3 30.774 32.764 0.660 36.755 o
0 -15 -2 20.058 20.089 0.560 60.852 o
0 -15 -1 16.102 16.717 0.520 75.361 o
0 -14 -6 4.411 4.682 0.570 98.334 o
0 -14 -3 5.561 5.833 0.400 168.535 o
0 -14 -2 13.741 13.956 0.490 88.837 o
0 -14 -1 85.023 86.658 0.950 9.505 o
0 -14 0 58.423 59.066 0.990 14.526 o
0 -13 -7 5.841 6.313 0.570 94.123 o
0 -13 -6 9.269 9.174 0.600 78.656 o
0 -13 -5 3.507 3.241 0.670 75.135 o
0 -13 -4 17.489 17.578 0.940 32.346 o
0 -13 -3 80.016 81.616 1.151 9.194 o
0 -13 -2 62.088 64.749 1.010 13.275 o
0 -13 -1 10.196 10.385 0.420 125.003 o
0 -12 -8 1.426 1.581 0.520 127.376 o
0 -12 -6 71.694 75.923 1.691 7.136 o
0 -12 -5 9.065 9.864 0.810 47.672 o
0 -12 -4 28.808 29.383 1.080 21.859 o
0 -12 -3 38.511 38.247 0.810 25.673 o
0 -12 -2 39.221 39.017 0.620 31.215 o
0 -12 -1 59.301 57.815 0.610 19.176 o
0 -12 0 55.323 55.864 0.870 16.964 o
0 -11 -8 18.705 19.719 0.730 45.520 o
0 -11 -7 34.142 36.016 0.720 31.170 o
0 -11 -6 4.157 3.862 0.450 150.587 o
0 -11 -5 4.429 4.082 0.410 173.680 o
0 -11 -4 6.327 6.203 0.650 74.470 o
0 -11 -3 89.960 91.280 0.890 9.063 o
0 -11 -2 46.373 44.940 0.620 26.097 o
0 -11 -1 79.265 78.985 0.660 12.199 o
0 -10 -9 15.007 15.357 0.670 56.622 o
0 -10 -8 1.636 1.631 0.370 239.290 o
0 -10 -7 22.799 23.390 0.410 71.008 o
0 -10 -6 0.519 0.890 0.270 461.300 o
0 -10 -5 88.852 93.391 0.700 9.815 o
0 -10 -4 53.268 54.604 0.600 21.793 o
0 -10 -3 12.573 12.566 0.320 145.216 o
0 -10 -2 1.396 1.351 0.260 456.158 o
0 -10 -1 114.864 114.090 0.730 6.660 o
0 -10 0 104.637 103.796 0.770 7.650 o
0 -9 -9 7.838 7.613 0.390 156.060 o
0 -9 -8 18.549 19.629 0.420 83.404 o
0 -9 -7 1.841 2.141 0.270 403.908 o
0 -9 -6 18.778 19.358 0.370 91.528 o
0 -9 -5 50.852 53.483 0.620 22.535 o
0 -9 -4 118.696 121.203 0.640 6.349 o
0 -9 -3 35.647 36.076 0.360 45.234 o
0 -9 -2 79.495 80.655 0.510 12.787 o
0 -9 -1 36.049 35.526 0.360 45.094 o
0 -8 -9 1.961 2.021 0.380 223.580 o
0 -8 -8 9.674 9.654 0.350 159.357 o
0 -8 -7 1.280 1.090 0.250 497.133 o
0 -8 -6 67.874 68.300 0.590 15.796 o
0 -8 -5 7.687 7.693 0.320 199.958 o
0 -8 -4 59.639 60.337 0.510 19.869 o
0 -8 -3 21.830 21.429 0.270 93.736 o
0 -8 -2 63.867 63.468 0.360 19.395 o
0 -8 -1 4.514 4.312 0.150 571.325 o
0 -8 0 240.795 239.225 0.940 1.777 o
0 -7 -10 7.962 8.014 0.490 112.004 o
0 -7 -9 25.664 26.772 0.810 33.838 o
0 -7 -8 15.815 15.077 0.420 97.090 o
0 -7 -7 42.465 44.049 0.560 29.804 o
0 -7 -6 5.523 5.092 0.310 245.465 o
0 -7 -5 51.139 50.152 0.640 22.685 o
0 -7 -4 34.501 33.835 0.380 46.947 o
0 -7 -3 83.157 82.336 0.440 12.328 o
0 -7 -2 222.100 224.219 0.630 2.095 o
0 -7 -1 5.964 5.773 0.160 439.258 o
0 -6 -8 12.130 11.685 0.340 142.763 o
0 -6 -7 35.927 36.506 0.450 40.977 o
0 -6 -6 4.527 4.132 0.250 351.245 o
0 -6 -5 104.551 106.427 0.640 7.859 o
0 -6 -4 6.803 7.033 0.220 309.906 o
0 -6 -3 11.643 12.886 0.220 193.469 o
0 -6 -2 1.504 1.641 0.120 1325.610 o
0 -6 -1 266.224 271.469 1.251 1.416 o
0 -6 0 188.747 197.507 2.911 1.706 o
0 -5 -9 9.449 9.644 0.380 146.499 o
0 -5 -8 29.371 29.533 0.450 51.911 o
0 -5 -7 2.575 2.531 0.230 481.430 o
0 -5 -6 3.174 2.911 0.210 507.344 o
0 -5 -5 88.088 88.729 0.520 10.842 o
0 -5 -4 254.206 254.222 0.850 1.615 o
0 -5 -3 376.019 384.239 1.231 0.751 o
0 -5 -2 16.316 17.438 0.320 113.768 o
0 -5 -1 159.136 156.949 0.760 3.823 o
0 -4 -10 8.021 7.853 0.410 144.455 o
0 -4 -9 26.970 27.162 0.460 55.979 o
0 -4 -8 18.339 17.708 0.370 95.415 o
0 -4 -7 4.359 4.252 0.230 390.711 o
0 -4 -6 103.021 102.895 0.580 8.273 o
0 -4 -5 78.163 78.384 0.430 13.593 o
0 -4 -4 64.814 67.200 0.360 18.517 o
0 -4 -3 23.692 24.221 0.370 72.735 o
0 -4 -2 180.176 177.528 0.780 3.064 o
0 -4 -1 71.094 69.721 0.500 15.575 o
0 -4 0 1670.290 1639.990 26.802 0.023 o
0 -3 -10 1.603 1.891 0.500 136.284 o
0 -3 -9 0.714 0.640 0.250 529.281 o
0 -3 -8 18.025 17.388 0.390 93.117 o
0 -3 -7 186.778 187.512 0.830 2.824 o
0 -3 -6 28.355 28.392 0.330 62.813 o
0 -3 -5 50.609 50.182 0.380 27.513 o
0 -3 -4 103.290 103.055 0.530 8.348 o
0 -3 -3 80.055 81.436 0.580 12.298 o
0 -3 -2 1003.030 995.317 5.012 0.107 o
0 -3 -1 648.757 667.653 4.682 0.229 o
0 -2 -11 22.532 22.900 0.750 40.261 o
0 -2 -10 27.308 27.302 0.660 41.200 o
0 -2 -9 1.611 1.291 0.270 422.108 o
0 -2 -8 23.048 21.860 0.380 75.654 o
0 -2 -7 25.064 24.371 0.300 76.635 o
0 -2 -6 23.140 22.910 0.300 83.656 o
0 -2 -5 264.574 268.158 0.850 1.487 o
0 -2 -4 251.160 250.280 0.920 1.645 o
0 -2 -3 344.024 344.491 1.110 0.904 o
0 -2 -2 743.493 754.892 3.181 0.194 o
0 -2 0 169.399 149.556 1.431 3.173 o
0 -1 -11 7.859 6.853 0.480 117.632 o
0 -1 -10 11.557 11.215 0.620 70.168 o
0 -1 -9 31.260 32.124 0.570 41.300 o
0 -1 -8 23.067 22.490 0.350 78.476 o
0 -1 -7 87.740 87.549 0.570 10.789 o
0 -1 -6 45.916 46.140 0.380 31.502 o
0 -1 -5 138.739 137.010 0.600 4.985 o
0 -1 -4 274.215 275.441 0.960 1.389 o
0 -1 -3 533.130 525.361 1.771 0.389 o
0 -1 -2 938.730 901.386 4.092 0.127 o
0 -1 -1 916.190 932.780 17.508 0.063 o
0 0 1 223.533 203.499 0.960 2.134 o
0 0 2 14.085 15.507 0.520 80.400 o
0 0 3 1.933 3.331 0.200 596.240 o
0 0 4 181.554 182.830 0.660 3.028 o
0 0 5 182.716 183.621 0.680 2.990 o
0 0 6 116.381 116.761 0.640 6.629 o
0 0 7 19.174 18.058 0.310 103.079 o
0 0 8 9.329 8.624 0.300 193.877 o
0 0 9 78.363 79.865 0.730 11.876 o
0 1 1 896.888 904.217 17.258 0.065 o
0 1 2 939.457 913.341 3.502 0.128 o
0 1 3 529.995 522.229 2.481 0.381 o
0 1 4 280.584 279.333 0.700 1.360 o
0 1 5 138.129 138.081 0.580 5.005 o
0 1 6 45.285 45.100 0.410 31.598 o
0 1 7 84.093 83.217 0.550 11.678 o
0 1 8 23.439 22.770 0.420 69.220 o
0 1 9 31.267 31.964 0.650 37.190 o
0 1 10 11.645 11.005 0.620 70.192 o
0 1 11 8.268 7.723 0.480 114.990 o
0 2 0 168.267 150.846 1.411 3.199 o
0 2 1 1958.670 2087.350 28.693 0.018 o
0 2 2 740.744 749.930 5.652 0.175 o
0 2 3 345.622 359.078 1.191 0.872 o
0 2 4 241.701 239.535 0.630 1.811 o
0 2 5 263.731 266.667 0.750 1.508 o
0 2 6 25.195 24.431 0.370 69.347 o
0 2 7 24.624 23.811 0.430 65.004 o
0 2 8 22.983 22.410 0.540 57.497 o
0 2 9 1.342 1.060 0.400 211.497 o
0 2 10 26.889 27.762 1.141 20.749 o
0 2 11 22.083 22.390 0.760 40.033 o
0 3 1 655.509 666.653 4.752 0.226 o
0 3 2 982.729 1025.110 7.163 0.100 o
0 3 3 82.005 81.436 2.411 4.248 o
0 3 4 97.978 97.713 0.430 9.349 o
0 3 5 50.685 49.652 0.380 27.615 o
0 3 6 26.273 26.792 0.390 63.215 o
0 3 7 187.933 188.883 1.471 2.505 o
0 3 8 16.259 15.637 0.500 79.505 o
0 3 10 1.552 1.541 0.530 122.556 o
0 4 0 1652.330 1643.960 8.534 0.040 o
0 4 1 63.545 61.957 0.550 18.037 o
0 4 3 23.577 22.280 1.020 26.033 o
0 4 4 65.482 67.440 0.400 18.003 o
0 4 5 77.511 76.604 0.550 13.286 o
0 4 6 98.950 96.602 0.830 8.231 o
0 4 7 4.758 4.502 0.350 217.618 o
0 4 8 18.127 17.878 0.660 53.371 o
0 4 9 26.273 27.332 0.550 49.708 o
0 4 10 8.001 8.194 0.500 108.299 o
0 5 1 155.790 156.859 0.780 3.907 o
0 5 2 20.230 20.869 0.660 49.920 o
0 5 3 363.231 371.393 1.231 0.801 o
0 5 4 258.149 257.983 0.830 1.573 o
0 5 5 87.733 87.648 0.610 10.633 o
0 5 6 2.565 2.491 0.300 322.279 o
0 5 7 1.773 1.661 0.300 344.774 o
0 5 8 29.444 29.743 0.620 40.979 o
0 5 9 9.114 8.874 0.470 113.982 o
0 6 0 202.384 207.541 1.431 2.214 o
0 6 1 259.570 267.848 1.401 1.448 o
0 6 2 1.112 1.231 0.210 673.451 o
0 6 3 11.571 12.556 0.220 195.970 o
0 6 4 5.226 5.202 0.220 370.480 o
0 6 5 104.569 106.387 0.610 7.924 o
0 6 6 4.050 3.502 0.280 318.656 o
0 6 7 36.285 37.266 0.480 39.083 o
0 6 8 12.149 11.945 0.410 117.580 o
0 7 1 4.620 4.932 0.220 391.974 o
0 7 2 223.328 229.921 1.050 1.970 o
0 7 3 87.517 87.288 0.490 11.120 o
0 7 4 31.614 31.014 0.400 51.200 o
0 7 5 51.470 51.002 0.530 24.361 o
0 7 6 5.870 5.723 0.350 202.258 o
0 7 7 43.910 44.279 0.850 21.785 o
0 7 8 13.925 13.696 0.510 84.542 o
0 7 9 26.842 29.403 1.181 19.560 o
0 8 1 5.023 4.922 0.180 457.559 o
0 8 2 64.791 66.499 0.450 17.952 o
0 8 3 22.728 22.370 0.250 91.605 o
0 8 4 59.047 59.126 0.560 19.668 o
0 8 5 9.634 9.964 0.320 174.035 o
0 8 6 67.914 69.120 0.990 12.303 o
0 8 8 9.996 10.415 0.600 76.604 o
0 9 1 36.724 36.436 0.360 43.861 o
0 9 2 82.545 83.307 0.490 12.155 o
0 9 3 34.269 34.605 0.320 49.469 o
0 9 4 122.511 122.614 0.700 6.005 o
0 9 5 50.795 51.863 0.600 23.218 o
0 9 6 18.218 18.488 0.650 54.023 o
0 9 7 2.307 2.451 0.480 143.747 o
0 9 8 19.760 20.009 0.580 59.025 o
0 10 0 111.015 113.950 1.060 6.210 o
0 10 1 114.169 117.412 0.690 6.668 o
0 10 2 1.564 1.351 0.190 744.168 o
0 10 3 13.221 12.626 0.280 155.898 o
0 10 4 52.630 54.014 0.550 22.938 o
0 10 5 91.041 91.970 0.800 9.279 o
0 10 6 0.709 1.010 0.330 311.906 o
0 10 7 22.722 22.160 0.590 53.167 o
0 10 8 1.552 1.531 0.450 167.217 o
0 11 1 80.894 81.626 0.610 12.007 o
0 11 2 45.125 45.750 0.510 29.144 o
0 11 3 92.868 94.541 0.650 9.487 o
0 11 4 5.640 5.042 0.370 191.338 o
0 11 5 4.524 4.012 0.320 253.578 o
0 11 6 4.253 3.782 0.430 162.278 o
0 11 7 35.564 35.436 0.860 25.748 o
0 11 8 18.047 17.758 0.690 50.470 o
0 12 0 52.354 50.792 0.780 19.719 o
0 12 1 60.421 58.996 0.540 19.494 o
0 12 2 40.166 38.437 0.490 35.200 o
0 12 3 39.092 38.537 0.520 34.901 o
0 12 4 28.849 29.803 0.610 42.028 o
0 12 5 9.858 9.984 0.390 139.152 o
0 12 6 71.425 74.143 0.920 12.021 o
0 12 7 10.173 9.624 0.860 42.470 o
0 13 1 9.616 9.194 0.340 166.353 o
0 13 2 64.540 61.897 0.730 15.957 o
0 13 3 77.313 75.963 0.960 10.876 o
0 13 4 18.084 17.017 0.460 80.975 o
0 13 5 3.489 3.351 0.420 174.095 o
0 13 6 9.019 9.054 0.600 79.131 o
0 13 7 6.209 6.073 0.830 48.096 o
0 14 0 61.894 59.426 1.421 9.939 o
0 14 1 82.984 76.474 1.241 8.683 o
0 14 2 13.489 11.895 0.370 124.816 o
0 14 3 5.223 5.152 0.440 148.626 o
0 14 4 8.028 7.423 0.400 150.395 o
0 14 5 30.262 30.724 0.670 37.281 o
0 14 6 4.061 3.321 0.580 97.156 o
0 15 1 15.702 13.296 0.600 66.287 o
0 15 2 18.443 15.467 0.730 47.314 o
0 15 3 31.781 30.153 0.680 35.967 o
0 15 4 1.834 1.561 0.530 121.849 o
0 16 0 17.161 14.687 0.950 32.417 o
0 16 1 2.497 1.741 0.360 242.262 o
0 16 2 8.467 6.113 0.520 103.445 o
0 16 4 35.692 30.393 0.820 28.016 o
0 17 1 3.038 1.651 0.460 154.060 o
0 17 2 16.610 18.018 1.080 25.940 o
0 17 3 7.604 6.183 0.910 40.038 o
1 -17 -3 28.521 32.554 1.161 19.477 o
1 -17 -2 1.428 1.561 0.680 75.845 o
1 -16 -4 9.133 9.254 0.830 45.809 o
1 -16 -3 2.281 2.321 0.710 68.743 o
1 -16 -2 1.136 1.361 0.480 149.797 o
1 -16 -1 9.102 9.654 0.820 46.701 o
1 -15 -5 15.572 16.647 0.970 31.528 o
1 -15 -4 7.620 7.163 0.800 50.343 o
1 -15 -3 6.532 6.153 0.530 104.909 o
1 -15 -2 17.109 16.637 0.630 58.465 o
1 -15 -1 0.899 0.980 0.350 276.942 o
1 -14 -6 7.895 8.484 0.580 85.884 o
1 -14 -5 3.095 3.462 0.710 67.620 o
1 -14 -3 4.310 4.372 0.690 69.826 o
1 -14 -2 33.307 34.385 0.650 35.032 o
1 -14 -1 51.401 53.203 0.770 19.816 o
1 -13 -5 14.204 13.936 0.920 35.410 o
1 -13 -4 18.206 19.008 0.970 30.300 o
1 -13 -3 43.533 44.810 0.900 20.720 o
1 -13 -2 5.995 5.733 0.330 217.694 o
1 -13 -1 3.964 3.231 0.310 278.646 o
1 -12 -8 2.146 2.071 0.860 47.513 o
1 -12 -7 24.154 23.680 1.100 22.911 o
1 -12 -6 9.108 9.444 0.510 100.691 o
1 -12 -5 5.105 4.612 0.720 63.792 o
1 -12 -4 1.985 2.081 0.430 178.346 o
1 -12 -3 13.852 13.666 0.460 95.652 o
1 -12 -2 52.893 53.113 0.720 20.220 o
1 -12 -1 40.788 40.618 0.540 32.405 o
1 -11 -8 18.808 19.629 0.720 46.327 o
1 -11 -7 2.358 1.931 0.350 254.903 o
1 -11 -6 16.632 17.198 0.420 91.649 o
1 -11 -5 3.615 3.281 0.390 196.643 o
1 -11 -4 65.321 67.600 0.730 15.189 o
1 -11 -3 32.273 31.884 0.580 40.031 o
1 -11 -2 15.313 14.606 0.420 99.332 o
1 -11 -1 14.927 15.247 0.350 116.978 o
1 -10 -9 10.104 9.994 0.870 41.569 o
1 -10 -8 1.314 1.601 0.380 230.777 o
1 -10 -7 2.759 2.351 0.300 320.076 o
1 -10 -6 38.585 40.508 0.500 35.255 o
1 -10 -5 44.101 46.110 0.590 27.617 o
1 -10 -4 6.321 6.213 0.250 292.036 o
1 -10 -3 16.096 16.447 0.320 116.894 o
1 -10 -2 45.166 44.450 0.590 27.502 o
1 -10 -1 81.130 80.746 0.640 11.889 o
1 -9 -9 8.204 8.934 0.450 124.238 o
1 -9 -8 12.178 11.825 0.370 131.073 o
1 -9 -7 29.810 30.263 0.470 49.606 o
1 -9 -6 1.243 1.361 0.260 461.118 o
1 -9 -5 48.019 48.021 0.530 26.609 o
1 -9 -4 31.758 32.614 0.360 52.196 o
1 -9 -3 123.281 125.025 0.670 5.938 o
1 -9 -2 154.494 155.909 0.880 3.888 o
1 -9 -1 3.958 4.072 0.200 474.496 o
1 -8 -9 20.565 21.520 0.610 54.009 o
1 -8 -8 11.438 11.685 0.360 138.835 o
1 -8 -7 29.990 30.713 0.500 47.253 o
1 -8 -6 8.049 8.164 0.360 169.620 o
1 -8 -5 79.062 79.645 0.630 12.341 o
1 -8 -4 29.893 29.483 0.330 59.174 o
1 -8 -3 1.161 1.161 0.140 1240.360 o
1 -8 -2 51.089 50.372 0.310 28.238 o
1 -8 -1 124.746 126.796 0.630 5.862 o
1 -7 -10 1.978 2.081 0.390 213.020 o
1 -7 -9 2.974 2.951 0.330 267.401 o
1 -7 -8 9.641 9.314 0.370 150.957 o
1 -7 -7 7.334 7.113 0.320 205.993 o
1 -7 -6 19.950 19.088 0.380 86.895 o
1 -7 -5 2.848 2.751 0.250 414.846 o
1 -7 -4 205.242 205.390 0.750 2.410 o
1 -7 -3 207.074 209.582 0.650 2.377 o
1 -7 -2 8.935 8.604 0.140 322.263 o
1 -7 -1 68.085 68.210 0.360 17.426 o
1 -6 -10 13.771 13.436 0.540 79.244 o
1 -6 -9 13.112 13.056 0.420 109.070 o
1 -6 -8 2.912 2.531 0.300 315.800 o
1 -6 -7 10.842 10.545 0.310 167.831 o
1 -6 -6 56.070 56.095 0.490 22.099 o
1 -6 -5 32.360 32.414 0.390 49.906 o
1 -6 -4 107.290 109.258 0.600 7.608 o
1 -6 -3 14.159 13.026 0.220 169.047 o
1 -6 -2 25.180 26.962 0.230 79.226 o
1 -6 -1 446.066 441.924 1.381 0.551 o
1 -5 -10 3.127 2.961 0.570 102.354 o
1 -5 -9 7.650 6.963 0.360 176.521 o
1 -5 -8 14.199 14.416 0.390 110.881 o
1 -5 -7 73.067 73.112 0.550 14.461 o
1 -5 -6 16.200 15.717 0.300 123.072 o
1 -5 -5 52.568 51.943 0.410 25.607 o
1 -5 -4 99.847 102.625 0.490 8.776 o
1 -5 -3 29.213 29.123 0.250 65.780 o
1 -5 -2 674.281 679.599 3.211 0.234 o
1 -5 -1 39.560 39.377 0.360 39.590 o
1 -4 -10 4.036 3.622 0.390 192.503 o
1 -4 -9 8.453 7.973 0.370 162.043 o
1 -4 -7 18.520 17.748 0.310 106.195 o
1 -4 -6 146.594 145.304 0.710 4.435 o
1 -4 -5 106.714 107.427 0.500 7.914 o
1 -4 -4 8.120 7.793 0.170 325.658 o
1 -4 -3 10.665 10.014 0.220 221.400 o
1 -4 -2 699.393 702.959 3.251 0.218 o
1 -4 -1 180.436 189.733 0.880 2.900 o
1 -3 -10 1.806 1.731 0.370 237.263 o
1 -3 -9 10.881 10.405 0.380 137.128 o
1 -3 -8 58.811 59.086 0.570 19.626 o
1 -3 -7 8.974 8.704 0.250 231.653 o
1 -3 -6 57.062 56.875 0.440 22.204 o
1 -3 -5 47.476 46.590 0.360 30.747 o
1 -3 -4 395.799 396.624 0.990 0.697 o
1 -3 -3 245.770 252.061 0.930 1.681 o
1 -3 -2 137.272 138.661 0.630 4.987 o
1 -3 -1 68.337 65.089 0.760 14.566 o
1 -2 -9 16.714 16.617 0.430 90.267 o
1 -2 -8 12.883 12.486 0.360 129.543 o
1 -2 -7 56.113 54.944 0.480 22.436 o
1 -2 -6 89.451 90.260 0.510 10.595 o
1 -2 -5 33.389 33.365 0.300 52.402 o
1 -2 -4 101.221 100.024 0.540 8.660 o
1 -2 -3 439.916 437.412 1.161 0.569 o
1 -2 -2 202.126 206.331 1.000 2.377 o
1 -2 -1 366.630 381.808 2.681 0.693 o
1 -1 -10 8.608 8.804 0.470 115.717 o
1 -1 -9 32.860 34.035 0.530 41.173 o
1 -1 -8 3.482 3.482 0.260 366.139 o
1 -1 -7 67.923 66.729 0.570 16.130 o
1 -1 -6 17.882 17.718 0.270 117.015 o
1 -1 -5 102.940 102.245 0.510 8.458 o
1 -1 -4 202.618 202.479 0.850 2.442 o
1 -1 -3 106.776 107.137 0.770 7.365 o
1 -1 -2 252.373 262.395 2.431 1.299 o
1 -1 -1 1000.190 944.755 4.082 0.114 o
1 0 1 85.682 75.913 0.660 11.480 o
1 0 2 62.191 66.389 1.030 12.945 o
1 0 3 411.111 413.942 1.291 0.639 o
1 0 4 352.595 356.016 0.930 0.866 o
1 0 5 3.062 2.981 0.150 736.856 o
1 0 6 7.593 6.983 0.240 273.697 o
1 0 8 84.323 84.007 0.620 11.289 o
1 0 9 26.931 26.732 0.440 57.969 o
1 0 10 25.524 25.991 0.810 34.103 o
1 0 11 5.038 4.742 0.490 125.911 o
1 1 0 21.830 20.779 0.390 78.471 o
1 1 2 451.289 469.436 2.811 0.481 o
1 1 3 49.748 50.252 0.350 28.447 o
1 1 4 46.518 46.961 0.300 32.357 o
1 1 5 81.375 80.505 0.430 12.820 o
1 1 6 63.878 62.627 0.530 18.047 o
1 1 7 39.547 40.198 0.410 37.647 o
1 1 8 15.584 15.067 0.370 109.561 o
1 1 9 2.031 1.621 0.430 179.323 o
1 1 10 2.973 2.331 0.440 165.601 o
1 1 11 1.796 1.571 0.450 166.031 o
1 2 1 340.525 335.337 3.101 0.765 o
1 2 2 338.946 341.300 3.732 0.698 o
1 2 3 70.095 71.451 0.550 15.258 o
1 2 4 24.840 26.162 0.220 82.114 o
1 2 5 304.661 298.411 0.670 1.178 o
1 2 6 3.503 3.151 0.250 390.136 o
1 2 7 0.821 0.970 0.250 517.906 o
1 2 8 6.482 5.612 0.400 163.827 o
1 2 9 38.507 40.098 0.720 28.044 o
1 2 10 3.445 3.061 0.420 175.144 o
1 2 11 3.974 3.341 0.600 91.456 o
1 3 0 486.530 474.058 2.511 0.447 o
1 3 1 975.229 1054.130 6.273 0.102 o
1 3 3 463.903 469.997 2.871 0.463 o
1 3 4 36.398 35.255 0.270 48.268 o
1 3 5 87.647 85.978 0.480 11.227 o
1 3 6 113.089 114.210 0.670 6.878 o
1 3 7 7.101 6.433 0.470 124.694 o
1 3 8 19.820 19.849 0.540 63.735 o
1 3 9 7.647 7.603 0.470 120.856 o
1 3 10 1.851 1.751 0.370 236.755 o
1 4 0 265.273 266.917 0.860 1.486 o
1 4 1 891.558 892.412 5.152 0.131 o
1 4 2 1.962 2.641 0.990 36.040 o
1 4 3 226.830 240.126 2.981 1.338 o
1 4 4 166.428 162.922 0.570 3.640 o
1 4 5 72.013 71.261 0.530 15.002 o
1 4 6 18.259 18.538 0.360 96.205 o
1 4 7 19.487 18.108 0.590 59.437 o
1 4 8 34.728 34.345 1.141 18.637 o
1 4 9 5.762 5.042 0.440 146.479 o
1 4 10 21.296 21.770 0.610 53.073 o
1 5 0 164.808 169.534 0.740 3.518 o
1 5 1 162.277 163.492 1.020 3.485 o
1 5 2 234.793 243.747 2.271 1.491 o
1 5 3 261.279 259.824 1.131 1.505 o
1 5 4 18.076 17.618 0.250 120.387 o
1 5 5 53.671 53.444 0.400 24.878 o
1 5 6 69.899 70.761 0.620 14.857 o
1 5 7 185.071 189.843 1.040 2.749 o
1 5 8 4.943 3.972 0.540 107.776 o
1 5 9 1.222 0.960 0.410 202.981 o
1 5 10 3.395 2.651 0.630 84.811 o
1 6 0 374.842 383.499 1.321 0.751 o
1 6 1 41.529 41.688 0.450 34.297 o
1 6 2 62.743 61.427 0.540 18.439 o
1 6 3 92.853 92.341 0.610 9.739 o
1 6 4 86.729 86.658 0.470 11.343 o
1 6 5 186.427 189.873 1.050 2.721 o
1 6 6 30.170 29.733 0.450 50.779 o
1 6 7 9.130 8.594 0.350 166.426 o
1 6 8 6.273 5.923 0.430 147.400 o
1 6 9 18.285 17.748 0.570 63.723 o
1 6 10 13.381 13.296 0.970 32.759 o
1 7 0 127.321 130.067 0.780 5.462 o
1 7 1 312.923 317.419 1.361 1.050 o
1 7 2 272.986 276.261 1.141 1.374 o
1 7 3 85.469 87.498 0.510 11.323 o
1 7 4 52.741 53.394 0.400 25.324 o
1 7 5 52.629 52.513 0.530 23.562 o
1 7 6 45.081 44.810 0.650 25.980 o
1 7 7 5.329 5.452 0.670 72.074 o
1 7 8 61.525 62.978 1.391 10.056 o
1 7 9 13.752 14.246 0.950 33.658 o
1 7 10 15.070 14.787 0.690 54.504 o
1 8 0 234.580 237.594 1.000 1.831 o
1 8 1 141.634 146.344 0.760 4.552 o
1 8 2 16.013 16.257 0.300 122.665 o
1 8 3 13.915 13.736 0.280 147.435 o
1 8 4 146.233 149.065 0.740 4.359 o
1 8 5 71.424 71.812 0.640 14.299 o
1 8 6 18.821 18.628 0.420 83.972 o
1 8 7 2.845 2.861 0.460 152.374 o
1 8 8 20.491 19.609 0.700 46.715 o
1 8 9 5.368 5.492 0.850 46.535 o
1 9 0 51.638 52.773 0.430 25.547 o
1 9 1 71.630 72.862 0.490 15.170 o
1 9 2 112.863 115.191 0.690 6.825 o
1 9 3 41.444 41.558 0.340 37.524 o
1 9 4 96.963 97.313 0.830 8.371 o
1 9 5 2.508 2.401 0.270 383.115 o
1 9 6 41.200 41.978 0.660 28.152 o
1 9 7 47.666 48.241 0.930 18.641 o
1 9 8 1.500 1.631 0.540 118.262 o
1 10 0 83.433 85.888 0.520 11.700 o
1 10 1 29.497 29.613 0.420 53.713 o
1 10 2 11.616 11.425 0.280 172.615 o
1 10 3 166.445 166.743 0.890 3.430 o
1 10 4 50.137 50.582 0.540 24.848 o
1 10 5 1.041 1.221 0.230 582.231 o
1 10 6 26.745 26.902 0.600 45.810 o
1 10 8 3.157 2.741 0.470 145.648 o
1 11 0 56.820 57.775 0.500 21.383 o
1 11 1 43.442 43.919 0.530 30.103 o
1 11 2 70.816 70.761 0.560 15.106 o
1 11 3 19.180 17.928 0.320 101.464 o
1 11 4 3.873 3.131 0.320 267.534 o
1 11 5 28.214 27.842 0.460 53.815 o
1 11 6 7.871 7.833 0.390 155.260 o
1 11 7 6.865 6.703 0.610 81.974 o
1 11 8 6.965 5.783 0.620 80.245 o
1 12 0 54.990 53.954 0.560 21.907 o
1 12 1 6.388 5.692 0.250 295.582 o
1 12 2 80.352 79.425 0.880 10.782 o
1 12 3 1.083 0.890 0.240 546.756 o
1 12 4 21.486 21.549 0.550 59.037 o
1 12 5 30.004 29.873 0.480 48.966 o
1 12 6 4.817 4.722 0.460 140.758 o
1 12 7 3.957 2.931 0.840 48.789 o
1 13 0 16.320 15.747 0.440 90.513 o
1 13 1 25.229 23.630 0.410 66.082 o
1 13 2 34.670 32.784 0.650 34.674 o
1 13 3 3.862 3.472 0.310 278.386 o
1 13 4 4.368 3.752 0.350 224.855 o
1 13 5 3.994 3.802 0.330 249.787 o
1 13 6 2.932 3.001 0.520 121.588 o
1 13 7 12.255 11.805 0.910 37.237 o
1 14 0 2.217 1.851 0.350 256.897 o
1 14 1 1.337 1.161 0.320 318.997 o
1 14 2 10.800 9.034 0.410 129.017 o
1 14 3 20.390 19.839 0.580 58.333 o
1 14 4 11.633 11.555 0.430 113.960 o
1 14 5 1.940 1.921 0.370 235.158 o
1 14 6 3.035 2.861 0.570 102.619 o
1 15 0 29.073 25.771 1.131 20.788 o
1 15 1 3.483 2.771 0.460 149.961 o
1 15 2 31.382 32.574 0.850 28.221 o
1 15 4 1.888 1.731 0.370 236.504 o
1 15 5 5.069 4.722 0.490 125.844 o
1 15 6 2.648 2.561 0.850 48.311 o
1 16 0 25.518 23.640 0.780 36.374 o
1 16 1 1.622 0.980 0.320 315.885 o
1 16 2 3.213 1.911 0.370 223.799 o
1 16 3 1.344 1.261 0.340 284.851 o
1 16 4 15.850 15.217 0.560 70.693 o
1 17 0 2.492 1.851 0.400 200.767 o
1 17 1 4.843 4.242 0.610 86.789 o
1 17 2 7.497 6.823 0.480 118.827 o
1 17 3 2.863 2.681 0.500 131.281 o
2 -17 -3 2.685 2.781 0.780 56.967 o
2 -17 -1 4.153 4.272 0.760 58.472 o
2 -16 -4 11.001 10.925 0.860 41.784 o
2 -16 -3 3.009 3.151 0.830 50.300 o
2 -16 -2 22.127 23.600 0.750 40.297 o
2 -16 -1 8.535 8.424 0.770 52.866 o
2 -15 -5 4.522 4.962 0.780 55.260 o
2 -15 -3 24.096 23.930 1.060 24.228 o
2 -15 -2 4.584 4.282 0.490 128.081 o
2 -15 -1 3.962 3.452 0.490 131.399 o
2 -14 -5 3.575 3.672 0.770 57.595 o
2 -14 -4 3.040 2.971 0.670 75.751 o
2 -14 -3 7.007 6.893 0.530 102.911 o
2 -14 -2 11.742 12.005 0.470 101.344 o
2 -14 -1 11.777 11.195 0.450 108.060 o
2 -13 -7 2.927 2.471 0.720 66.364 o
2 -13 -6 6.390 6.143 0.540 102.064 o
2 -13 -5 3.619 3.311 0.690 70.962 o
2 -13 -4 37.178 38.997 1.251 15.726 o
2 -13 -3 3.782 3.642 0.370 211.552 o
2 -13 -2 14.246 13.766 0.400 109.242 o
2 -13 -1 5.669 5.552 0.330 221.890 o
2 -12 -8 3.005 3.011 0.570 102.536 o
2 -12 -7 1.204 1.060 0.420 193.715 o
2 -12 -6 8.168 7.923 0.450 126.245 o
2 -12 -5 11.540 11.645 0.860 41.363 o
2 -12 -4 1.536 1.401 0.330 297.064 o
2 -12 -3 0.665 0.740 0.310 354.199 o
2 -12 -2 109.106 109.638 0.840 6.956 o
2 -12 -1 11.374 10.975 0.310 162.389 o
2 -11 -7 23.291 23.330 0.450 65.678 o
2 -11 -6 47.990 49.732 0.560 25.603 o
2 -11 -5 16.091 16.067 0.510 77.679 o
2 -11 -4 7.262 7.073 0.280 239.981 o
2 -11 -3 33.448 33.375 0.530 40.947 o
2 -11 -2 19.215 18.698 0.460 76.688 o
2 -11 -1 16.587 16.187 0.320 115.303 o
2 -10 -9 2.488 2.111 0.840 49.595 o
2 -10 -8 2.902 2.381 0.420 180.094 o
2 -10 -7 54.510 56.915 0.570 21.402 o
2 -10 -6 15.306 15.787 0.370 109.251 o
2 -10 -5 11.768 11.595 0.390 126.484 o
2 -10 -4 22.721 23.070 0.360 77.412 o
2 -10 -3 19.491 19.469 0.340 94.250 o
2 -10 -2 38.929 38.997 0.480 36.258 o
2 -10 -1 104.235 105.296 0.680 7.840 o
2 -9 -9 18.875 19.889 0.590 59.087 o
2 -9 -8 5.316 5.562 0.310 245.128 o
2 -9 -7 3.661 3.371 0.290 311.302 o
2 -9 -6 5.388 5.442 0.280 278.542 o
2 -9 -5 9.018 8.854 0.260 222.841 o
2 -9 -4 159.038 162.191 0.670 3.804 o
2 -9 -3 95.376 95.862 0.560 9.416 o
2 -9 -2 24.938 25.341 0.300 75.751 o
2 -9 -1 40.960 40.548 0.390 36.948 o
2 -8 -9 6.120 6.573 0.460 132.223 o
2 -8 -8 51.973 55.214 0.600 22.148 o
2 -8 -7 16.450 15.607 0.400 98.680 o
2 -8 -6 29.575 29.513 0.420 53.675 o
2 -8 -5 67.097 66.929 0.540 16.552 o
2 -8 -4 57.290 57.685 0.430 22.079 o
2 -8 -3 46.202 45.800 0.310 32.809 o
2 -8 -2 152.796 152.847 0.560 4.195 o
2 -8 -1 154.654 154.808 0.700 4.023 o
2 -7 -10 4.706 3.582 0.830 49.420 o
2 -7 -9 10.707 11.055 0.440 114.947 o
2 -7 -8 18.159 18.438 0.450 80.855 o
2 -7 -7 11.028 10.345 0.390 132.673 o
2 -7 -6 51.303 50.912 0.560 23.921 o
2 -7 -5 186.984 189.043 1.010 2.736 o
2 -7 -4 46.114 46.641 0.380 31.210 o
2 -7 -3 54.248 53.373 0.330 25.522 o
2 -7 -2 64.773 66.389 0.340 18.788 o
2 -7 -1 32.197 31.754 0.230 58.714 o
2 -6 -10 5.407 5.072 0.420 159.246 o
2 -6 -9 35.532 36.976 0.570 36.079 o
2 -6 -8 20.614 21.219 0.460 71.341 o
2 -6 -7 57.599 58.426 0.640 19.204 o
2 -6 -6 49.265 48.992 0.520 25.985 o
2 -6 -5 11.773 11.565 0.290 166.282 o
2 -6 -4 10.586 10.465 0.210 225.451 o
2 -6 -3 246.722 249.860 0.650 1.717 o
2 -6 -2 350.444 351.294 0.750 0.887 o
2 -6 -1 507.538 509.024 2.111 0.415 o
2 -5 -10 22.302 22.630 0.520 60.328 o
2 -5 -9 6.953 6.933 0.420 146.937 o
2 -5 -8 20.669 20.679 0.440 74.427 o
2 -5 -7 2.008 1.581 0.260 432.899 o
2 -5 -6 4.797 4.442 0.230 375.512 o
2 -5 -5 79.139 78.174 0.460 13.298 o
2 -5 -4 350.813 349.694 0.830 0.886 o
2 -5 -3 126.885 128.226 0.520 5.829 o
2 -5 -2 111.320 111.379 0.830 6.776 o
2 -5 -1 42.637 42.909 0.570 29.746 o
2 -4 -9 12.186 11.665 0.360 135.018 o
2 -4 -8 26.709 26.602 0.420 60.079 o
2 -4 -7 51.970 52.003 0.500 24.441 o
2 -4 -6 135.800 135.550 0.700 5.050 o
2 -4 -5 11.234 11.345 0.220 206.407 o
2 -4 -4 0.236 0.360 0.110 2520.620 o
2 -4 -3 84.368 84.577 0.380 12.154 o
2 -4 -2 359.297 361.569 1.141 0.829 o
2 -4 -1 143.484 149.025 0.910 4.305 o
2 -3 -10 3.270 3.021 0.380 208.979 o
2 -3 -9 20.550 20.849 0.420 77.247 o
2 -3 -8 22.921 23.140 0.400 72.168 o
2 -3 -7 6.491 6.103 0.260 278.487 o
2 -3 -6 1.019 1.110 0.210 684.475 o
2 -3 -5 198.611 198.587 0.830 2.537 o
2 -3 -4 157.263 157.219 0.530 4.000 o
2 -3 -3 95.791 95.312 0.590 9.317 o
2 -3 -2 316.478 312.617 0.970 1.074 o
2 -3 -1 492.882 486.604 2.011 0.445 o
2 -2 -10 4.494 4.202 0.370 203.467 o
2 -2 -9 13.703 13.346 0.370 120.675 o
2 -2 -8 8.123 7.933 0.330 188.294 o
2 -2 -7 11.060 10.385 0.310 166.806 o
2 -2 -6 83.400 82.646 0.640 11.422 o
2 -2 -5 29.406 29.123 0.270 64.177 o
2 -2 -4 11.207 10.074 0.200 225.535 o
2 -2 -3 262.694 260.444 0.930 1.519 o
2 -2 -2 43.471 41.118 0.420 33.952 o
2 -2 -1 1366.190 1358.100 4.632 0.060 o
2 -1 -10 8.266 7.903 0.460 122.031 o
2 -1 -9 0.483 0.750 0.300 380.654 o
2 -1 -8 16.812 16.087 0.390 98.896 o
2 -1 -7 10.588 10.214 0.300 176.092 o
2 -1 -6 14.822 14.806 0.250 147.491 o
2 -1 -5 62.766 62.287 0.370 19.873 o
2 -1 -4 296.584 298.391 0.980 1.198 o
2 -1 -3 306.100 306.225 1.201 1.117 o
2 -1 -2 162.469 163.852 1.811 2.859 o
2 -1 -1 511.129 498.849 2.031 0.418 o
2 0 0 192.396 206.531 0.860 2.562 o
2 0 1 139.501 134.999 0.790 4.819 o
2 0 2 441.909 459.402 2.811 0.499 o
2 0 3 46.153 46.440 0.360 31.656 o
2 0 4 260.678 267.147 0.870 1.516 o
2 0 5 95.313 94.071 0.390 9.945 o
2 0 6 20.996 20.339 0.260 100.062 o
2 0 7 61.907 60.667 0.540 18.792 o
2 0 8 0.092 0.380 0.140 1708.040 o
2 0 9 16.491 16.737 0.390 98.884 o
2 0 10 27.478 28.503 0.570 46.415 o
2 0 11 4.214 3.311 0.480 135.595 o
2 1 0 660.156 632.058 2.371 0.259 o
2 1 1 1279.830 1340.780 23.380 0.034 o
2 1 2 277.395 279.703 1.681 1.266 o
2 1 3 21.146 20.589 0.240 101.832 o
2 1 4 7.806 7.953 0.170 331.557 o
2 1 5 45.587 44.870 0.300 33.784 o
2 1 6 114.738 113.180 0.510 7.055 o
2 1 7 23.064 22.690 0.370 75.862 o
2 1 8 44.678 44.029 0.530 29.375 o
2 1 9 6.674 6.183 0.430 144.962 o
2 1 10 1.603 1.501 0.400 208.115 o
2 1 11 4.002 4.022 0.470 140.099 o
2 2 0 96.625 100.444 1.161 7.182 o
2 2 1 429.984 455.040 3.822 0.472 o
2 2 2 96.060 92.931 1.141 7.539 o
2 2 3 699.878 709.672 3.982 0.210 o
2 2 4 210.426 209.192 0.580 2.346 o
2 2 5 5.240 4.782 0.150 515.457 o
2 2 6 36.141 35.105 0.350 45.633 o
2 2 8 39.916 39.677 0.570 32.275 o
2 2 9 14.115 14.716 0.660 59.113 o
2 2 10 4.697 4.352 0.500 123.281 o
2 2 11 7.863 7.473 0.620 77.806 o
2 3 0 1112.820 1114.520 5.382 0.087 o
2 3 1 154.867 156.089 2.551 2.397 o
2 3 2 171.034 183.421 2.971 1.847 o
2 3 3 212.788 213.924 1.010 2.188 o
2 3 4 155.513 150.796 0.590 4.124 o
2 3 5 48.282 46.871 0.380 29.783 o
2 3 6 83.304 83.977 0.490 11.983 o
2 3 7 65.316 64.778 1.281 10.492 o
2 3 8 36.471 35.145 0.650 32.849 o
2 3 9 6.795 5.863 0.450 135.519 o
2 3 11 9.878 9.944 0.880 40.852 o
2 4 0 727.746 740.866 4.072 0.195 o
2 4 1 200.564 210.823 2.211 1.886 o
2 4 2 1048.430 1031.380 7.713 0.091 o
2 4 3 54.329 54.664 0.680 20.181 o
2 4 4 198.998 203.900 0.670 2.533 o
2 4 5 59.939 60.817 0.390 20.933 o
2 4 7 45.224 44.700 0.630 26.430 o
2 4 8 26.895 26.802 0.730 37.483 o
2 4 9 17.813 17.508 0.570 64.562 o
2 5 0 119.174 120.543 0.560 6.449 o
2 5 1 442.406 439.363 4.592 0.431 o
2 5 2 277.070 284.515 3.201 0.997 o
2 5 4 36.561 37.867 0.370 42.901 o
2 5 5 116.310 117.091 0.610 6.669 o
2 5 6 131.262 133.008 0.740 5.261 o
2 5 7 61.574 61.877 0.640 17.631 o
2 5 8 20.703 20.939 0.990 28.286 o
2 5 9 2.273 2.031 0.380 220.966 o
2 5 10 17.877 17.108 0.570 64.757 o
2 6 0 22.347 23.780 0.330 81.070 o
2 6 1 84.481 88.529 0.540 11.279 o
2 6 2 82.826 83.867 0.420 12.330 o
2 6 3 395.780 405.278 1.391 0.675 o
2 6 4 108.249 109.498 0.740 7.240 o
2 6 5 26.730 26.812 0.320 68.284 o
2 6 6 32.107 32.664 0.540 41.931 o
2 6 7 26.006 25.481 0.420 62.146 o
2 6 8 14.121 14.586 0.890 37.306 o
2 6 9 12.191 12.335 0.440 107.759 o
2 6 10 3.120 2.641 0.530 117.404 o
2 7 0 448.856 457.861 1.161 0.539 o
2 7 1 303.728 306.054 1.000 1.143 o
2 7 2 61.165 61.937 0.500 19.242 o
2 7 3 18.314 18.298 0.260 115.618 o
2 7 4 39.123 39.137 0.380 39.457 o
2 7 5 23.003 22.850 0.350 78.191 o
2 7 6 57.903 58.666 0.610 19.467 o
2 7 7 68.000 70.171 0.820 13.645 o
2 7 8 2.154 1.491 0.490 140.448 o
2 7 9 33.029 34.395 1.261 16.453 o
2 8 0 129.824 134.589 0.550 5.488 o
2 8 1 147.279 148.315 0.790 4.296 o
2 8 2 38.743 39.968 0.360 40.075 o
2 8 3 154.489 157.279 0.720 3.978 o
2 8 4 160.238 161.611 0.690 3.768 o
2 8 5 11.485 11.135 0.300 165.554 o
2 8 6 2.365 2.221 0.300 328.350 o
2 8 7 20.217 19.839 0.660 50.414 o
2 8 8 23.712 23.430 0.590 51.379 o
2 9 0 23.220 23.510 0.300 82.597 o
2 9 1 155.623 159.340 0.780 3.876 o
2 9 2 81.176 82.356 0.570 12.098 o
2 9 3 10.470 10.175 0.300 177.218 o
2 9 4 4.285 4.162 0.280 308.142 o
2 9 5 173.593 177.218 1.020 3.087 o
2 9 6 39.879 41.558 0.580 31.406 o
2 9 7 1.679 1.261 0.460 160.468 o
2 9 8 12.679 12.536 0.510 88.539 o
2 10 0 73.204 74.353 0.490 14.673 o
2 10 1 3.102 2.931 0.240 428.230 o
2 10 2 73.865 74.133 0.550 14.200 o
2 10 3 118.170 119.212 0.930 5.956 o
2 10 4 1.983 1.771 0.250 458.777 o
2 10 5 88.150 91.060 0.640 10.256 o
2 10 6 0.954 0.970 0.320 326.788 o
2 10 7 10.366 9.844 0.590 78.461 o
2 10 8 8.447 8.304 0.610 78.463 o
2 10 9 6.926 7.263 1.000 33.644 o
2 11 0 45.218 45.590 0.430 31.026 o
2 11 1 22.660 22.880 0.420 70.643 o
2 11 2 54.339 54.924 0.680 20.138 o
2 11 3 63.280 63.928 0.850 14.765 o
2 11 4 14.414 14.376 0.470 90.991 o
2 11 5 2.033 1.981 0.290 356.413 o
2 11 6 20.448 19.369 0.480 70.762 o
2 11 7 22.635 22.780 0.610 51.114 o
2 11 8 3.306 2.641 0.620 87.514 o
2 12 0 28.873 27.452 0.480 51.763 o
2 12 1 4.907 4.282 0.320 247.262 o
2 12 3 23.071 22.300 0.480 63.675 o
2 12 4 58.412 60.867 0.700 17.877 o
2 12 5 1.219 1.080 0.340 287.633 o
2 12 6 2.604 2.441 0.440 167.109 o
2 12 7 4.263 3.862 0.790 54.418 o
2 12 8 9.528 9.034 0.900 39.580 o
2 13 0 42.066 40.138 0.720 26.463 o
2 13 1 16.125 15.717 0.400 99.537 o
2 13 2 20.767 18.508 0.420 79.426 o
2 13 3 4.134 3.522 0.320 261.592 o
2 13 4 1.661 1.261 0.340 280.800 o
2 13 5 7.107 6.823 0.460 128.110 o
2 13 6 9.038 8.954 0.590 81.307 o
2 13 7 14.123 14.246 0.950 33.532 o
2 14 0 19.480 17.838 0.560 63.230 o
2 14 1 1.860 1.541 0.320 307.743 o
2 14 3 14.647 13.996 0.530 78.924 o
2 14 4 3.313 2.431 0.320 279.878 o
2 14 5 29.078 31.274 1.151 19.739 o
2 14 6 1.450 1.441 0.630 88.039 o
2 15 0 1.944 1.411 0.340 276.292 o
2 15 1 46.322 47.591 1.040 17.082 o
2 15 2 16.970 13.976 0.550 71.440 o
2 15 3 2.276 1.891 0.360 243.719 o
2 15 5 8.387 8.264 0.590 82.926 o
2 15 6 3.683 3.892 0.800 53.442 o
2 16 0 6.770 5.753 0.460 131.327 o
2 16 1 2.003 1.841 0.350 259.324 o
2 16 2 1.637 1.151 0.390 219.160 o
2 16 3 20.985 19.308 1.020 27.153 o
2 16 4 2.742 2.691 0.400 196.227 o
2 17 0 21.144 19.869 1.040 26.221 o
2 17 1 9.540 9.704 0.610 75.852 o
2 17 2 7.867 7.113 0.600 82.413 o
3 -17 -2 7.604 6.533 0.750 56.705 o
3 -17 -1 4.197 3.852 0.760 58.580 o
3 -16 -4 1.864 2.241 0.760 60.560 o
3 -16 -3 5.363 5.202 0.520 112.411 o
3 -16 -2 6.510 6.463 0.530 104.592 o
3 -16 -1 28.835 29.823 1.141 20.175 o
3 -15 -5 5.760 6.183 0.810 50.512 o
3 -15 -3 1.915 1.471 0.460 159.057 o
3 -15 -2 9.008 9.294 0.570 85.552 o
3 -15 -1 9.009 8.984 0.560 88.206 o
3 -14 -6 37.741 40.238 0.900 23.064 o
3 -14 -5 4.614 4.142 0.740 61.182 o
3 -14 -4 5.392 5.723 0.770 55.814 o
3 -14 -3 29.654 30.273 0.650 38.928 o
3 -14 -2 38.141 38.677 0.690 29.534 o
3 -14 -1 2.032 1.961 0.370 234.137 o
3 -13 -6 11.755 11.195 0.620 69.916 o
3 -13 -4 2.359 2.541 0.370 228.567 o
3 -13 -3 25.616 26.472 0.600 47.084 o
3 -13 -2 50.394 51.723 0.750 20.678 o
3 -13 -1 137.336 140.342 0.940 4.639 o
3 -12 -7 33.465 34.805 0.870 26.294 o
3 -12 -5 4.011 5.222 0.720 64.428 o
3 -12 -4 9.065 8.904 0.380 150.620 o
3 -12 -3 49.833 50.782 0.740 21.180 o
3 -12 -2 51.519 51.853 0.730 20.664 o
3 -12 -1 51.690 52.233 0.530 24.008 o
3 -11 -8 3.732 3.482 0.450 153.238 o
3 -11 -7 1.853 1.661 0.380 225.979 o
3 -11 -6 7.976 6.993 0.410 146.784 o
3 -11 -5 29.852 31.104 0.490 47.812 o
3 -11 -4 101.938 105.806 0.770 7.783 o
3 -11 -3 0.967 1.201 0.250 507.296 o
3 -11 -2 35.060 35.446 0.500 40.059 o
3 -11 -1 53.778 54.754 0.510 22.963 o
3 -10 -8 33.983 35.306 0.620 35.606 o
3 -10 -7 11.495 11.565 0.370 135.050 o
3 -10 -6 17.945 18.598 0.430 84.515 o
3 -10 -5 8.610 8.104 0.330 183.623 o
3 -10 -4 1.451 1.401 0.210 644.329 o
3 -10 -3 73.061 74.553 0.530 14.442 o
3 -10 -2 83.241 82.926 0.680 11.237 o
3 -10 -1 20.390 20.069 0.330 92.046 o
3 -9 -9 13.429 14.106 0.420 106.201 o
3 -9 -6 32.167 32.244 0.420 48.611 o
3 -9 -5 46.322 46.450 0.450 29.646 o
3 -9 -4 11.748 11.895 0.240 188.108 o
3 -9 -3 68.731 69.961 0.450 16.447 o
3 -9 -2 39.649 39.677 0.380 38.743 o
3 -9 -1 80.948 82.776 0.700 11.464 o
3 -8 -9 10.220 10.064 0.390 137.183 o
3 -8 -8 3.915 4.322 0.320 259.276 o
3 -8 -7 22.602 22.970 0.460 66.099 o
3 -8 -6 3.794 3.562 0.250 376.753 o
3 -8 -5 12.676 12.185 0.300 153.442 o
3 -8 -4 88.563 89.289 0.460 10.934 o
3 -8 -3 14.527 14.676 0.210 162.395 o
3 -8 -2 83.908 84.907 0.430 12.037 o
3 -8 -1 109.778 111.169 0.570 7.398 o
3 -7 -9 6.662 6.363 0.400 160.680 o
3 -7 -8 14.129 13.476 0.370 118.579 o
3 -7 -7 10.443 10.084 0.360 148.707 o
3 -7 -6 28.986 28.733 0.450 52.927 o
3 -7 -5 11.815 11.465 0.300 161.933 o
3 -7 -4 60.063 60.397 0.390 20.964 o
3 -7 -3 5.290 5.022 0.150 506.542 o
3 -7 -2 75.115 76.444 0.390 14.576 o
3 -7 -1 40.577 40.748 0.270 40.496 o
3 -6 -9 20.825 21.950 0.530 61.876 o
3 -6 -8 31.120 31.914 0.520 44.293 o
3 -6 -7 3.580 3.111 0.280 331.642 o
3 -6 -6 24.767 24.161 0.400 67.455 o
3 -6 -5 5.565 5.342 0.220 359.386 o
3 -6 -4 34.803 34.475 0.310 49.289 o
3 -6 -3 232.383 231.782 0.640 1.940 o
3 -6 -2 88.685 89.199 0.420 11.041 o
3 -6 -1 17.177 17.008 0.220 133.249 o
3 -5 -9 9.612 9.284 0.350 160.946 o
3 -5 -8 9.101 8.544 0.290 202.906 o
3 -5 -7 18.727 18.188 0.390 89.908 o
3 -5 -6 23.157 22.990 0.380 74.139 o
3 -5 -5 101.657 101.375 0.580 8.465 o
3 -5 -4 66.527 66.709 0.420 17.666 o
3 -5 -3 59.672 60.096 0.350 21.535 o
3 -5 -2 114.070 114.450 0.550 6.999 o
3 -5 -1 237.113 237.714 1.381 1.729 o
3 -4 -10 0.993 1.030 0.400 214.068 o
3 -4 -9 20.599 20.559 0.460 72.007 o
3 -4 -8 5.524 5.202 0.270 290.642 o
3 -4 -7 100.642 100.454 0.740 8.189 o
3 -4 -6 63.733 62.337 0.500 18.415 o
3 -4 -5 15.520 15.797 0.230 145.163 o
3 -4 -4 89.102 89.069 0.410 11.021 o
3 -4 -3 146.521 148.515 0.500 4.521 o
3 -4 -2 153.651 153.828 0.730 4.049 o
3 -4 -1 254.139 251.601 0.930 1.615 o
3 -3 -10 13.786 13.256 0.520 83.279 o
3 -3 -9 11.344 10.905 0.350 145.474 o
3 -3 -8 2.183 1.881 0.240 479.408 o
3 -3 -7 29.623 30.053 0.440 51.920 o
3 -3 -6 25.183 24.341 0.330 73.432 o
3 -3 -5 247.898 244.147 0.760 1.719 o
3 -3 -4 176.728 180.940 0.550 3.184 o
3 -3 -3 212.740 210.833 0.910 2.234 o
3 -3 -2 179.052 178.258 0.970 2.994 o
3 -3 -1 105.941 109.698 0.750 7.378 o
3 -2 -10 11.820 11.325 0.440 110.663 o
3 -2 -9 11.536 11.515 0.360 138.768 o
3 -2 -8 70.933 71.311 0.740 13.685 o
3 -2 -7 54.043 52.443 0.530 23.009 o
3 -2 -6 43.329 43.439 0.450 32.450 o
3 -2 -5 21.106 20.559 0.280 96.368 o
3 -2 -4 2.542 2.371 0.150 824.491 o
3 -2 -3 134.617 134.679 0.920 4.872 o
3 -2 -2 968.298 949.467 4.722 0.116 o
3 -2 -1 406.169 409.530 1.511 0.646 o
3 -1 -10 9.491 9.314 0.600 78.208 o
3 -1 -9 21.619 21.630 0.420 74.066 o
3 -1 -8 42.441 42.158 0.530 31.211 o
3 -1 -7 16.959 16.477 0.390 97.800 o
3 -1 -6 64.155 63.008 0.460 18.557 o
3 -1 -5 144.214 143.103 0.690 4.576 o
3 -1 -4 572.689 563.878 1.471 0.343 o
3 -1 -3 443.514 440.794 3.502 0.479 o
3 -1 -2 193.677 197.207 0.970 2.577 o
3 -1 -1 311.158 320.511 1.751 1.015 o
3 0 0 328.057 322.232 1.741 0.952 o
3 0 1 771.450 737.454 3.191 0.188 o
3 0 2 1103.950 1073.920 3.482 0.094 o
3 0 3 1195.150 1184.770 4.922 0.078 o
3 0 4 106.126 104.366 0.650 7.793 o
3 0 5 23.440 22.800 0.210 92.791 o
3 0 6 24.820 23.530 0.260 82.321 o
3 0 7 4.084 3.992 0.230 402.885 o
3 0 8 101.488 101.885 0.850 7.754 o
3 0 9 33.470 33.775 0.530 40.755 o
3 0 10 1.693 1.791 0.370 238.024 o
3 1 1 1206.810 1162.370 5.482 0.077 o
3 1 2 106.150 106.557 0.650 7.703 o
3 1 3 46.596 46.220 0.360 31.436 o
3 1 4 91.358 89.189 0.500 10.451 o
3 1 5 417.833 409.840 1.010 0.637 o
3 1 6 120.056 118.992 0.470 6.551 o
3 1 7 28.146 27.282 0.360 61.942 o
3 1 8 64.907 64.138 0.700 15.933 o
3 1 9 39.387 39.567 0.610 31.297 o
3 1 10 6.367 5.923 0.410 157.789 o
3 1 11 7.380 7.053 0.430 139.844 o
3 2 0 544.805 552.953 4.352 0.316 o
3 2 1 1620.170 1577.740 29.953 0.021 o
3 2 2 329.630 342.380 3.662 0.723 o
3 2 3 82.934 82.846 0.640 11.474 o
3 2 4 163.383 167.764 0.500 3.685 o
3 2 5 60.101 60.337 0.320 21.586 o
3 2 6 17.650 17.428 0.270 118.811 o
3 2 7 300.610 298.321 1.010 1.176 o
3 2 9 24.360 24.591 0.620 47.664 o
3 2 11 2.970 2.161 0.580 100.087 o
3 3 0 252.553 254.712 2.281 1.352 o
3 3 1 390.142 416.223 4.332 0.514 o
3 3 2 550.399 548.421 3.702 0.328 o
3 3 3 305.445 314.218 2.661 0.940 o
3 3 4 245.959 246.418 1.060 1.682 o
3 3 5 103.543 102.675 0.470 8.460 o
3 3 6 65.480 64.578 0.500 17.610 o
3 3 7 24.453 24.421 0.350 72.962 o
3 3 8 18.588 17.558 0.530 68.763 o
3 3 9 1.579 1.491 0.430 182.076 o
3 3 10 30.160 31.484 0.690 36.081 o
3 3 11 4.607 4.302 0.830 49.297 o
3 4 0 160.269 162.461 0.650 3.776 o
3 4 1 164.960 168.354 2.881 2.005 o
3 4 3 328.787 334.897 1.191 0.968 o
3 4 4 154.031 152.377 0.670 4.098 o
3 4 5 7.255 6.873 0.210 313.482 o
3 4 6 41.658 41.648 0.430 34.802 o
3 4 7 0.565 0.830 0.340 297.906 o
3 4 8 72.524 74.223 1.511 8.057 o
3 4 10 2.613 2.551 0.390 206.524 o
3 5 0 560.501 581.215 2.271 0.336 o
3 5 1 16.105 15.397 0.780 44.547 o
3 5 2 24.568 24.731 0.480 59.463 o
3 5 3 22.858 23.070 0.400 72.373 o
3 5 4 65.251 65.489 0.450 17.965 o
3 5 5 78.676 78.765 0.520 13.044 o
3 5 6 49.247 49.402 0.500 26.283 o
3 5 7 21.387 21.540 0.440 72.085 o
3 5 8 5.286 4.872 0.520 113.035 o
3 5 9 5.724 5.052 0.450 141.493 o
3 6 0 299.150 307.665 1.171 1.148 o
3 6 1 336.091 348.733 1.271 0.914 o
3 6 2 52.217 54.134 0.400 25.397 o
3 6 3 136.377 136.770 0.660 5.038 o
3 6 4 53.618 53.343 0.410 24.786 o
3 6 5 20.619 20.349 0.320 92.414 o
3 6 6 20.164 19.849 0.320 94.705 o
3 6 7 40.774 41.808 0.510 32.966 o
3 6 8 3.294 3.281 0.430 168.395 o
3 6 9 19.791 21.009 0.520 65.341 o
3 6 10 2.341 2.641 0.590 97.566 o
3 7 0 74.093 74.753 0.420 14.828 o
3 7 1 94.378 99.103 0.450 9.627 o
3 7 2 40.248 40.848 0.330 39.174 o
3 7 3 53.943 54.884 0.460 23.599 o
3 7 4 55.138 55.785 0.490 22.515 o
3 7 5 122.036 121.824 0.700 6.053 o
3 7 6 15.189 15.107 0.400 103.617 o
3 7 10 6.772 6.493 0.620 80.017 o
3 8 0 144.686 146.514 0.620 4.549 o
3 8 1 28.104 28.212 0.280 67.045 o
3 8 2 189.047 191.634 0.880 2.730 o
3 8 3 94.042 93.611 0.540 9.745 o
3 8 4 10.868 10.735 0.280 181.864 o
3 8 5 21.817 21.960 0.370 79.715 o
3 8 6 14.015 13.896 0.390 112.557 o
3 8 7 14.243 14.446 0.430 100.520 o
3 8 8 10.944 10.345 0.490 100.396 o
3 8 9 10.965 11.635 0.930 36.364 o
3 9 0 161.932 164.182 0.610 3.726 o
3 9 1 68.689 68.490 0.420 16.845 o
3 9 2 1.758 1.601 0.190 716.716 o
3 9 3 13.383 13.086 0.330 135.573 o
3 9 4 69.722 70.571 0.610 14.989 o
3 9 5 19.267 19.198 0.410 83.757 o
3 9 6 15.694 15.377 0.420 97.000 o
3 9 7 19.904 20.079 0.570 59.921 o
3 9 8 1.723 1.581 0.450 166.335 o
3 9 9 9.145 9.034 0.910 38.951 o
3 10 0 23.242 23.040 0.310 82.031 o
3 10 1 121.407 125.065 0.690 6.012 o
3 10 2 10.338 9.874 0.270 196.293 o
3 10 3 80.066 81.576 0.820 11.021 o
3 10 4 74.826 76.183 0.700 12.890 o
3 10 5 14.762 14.796 0.330 124.235 o
3 10 6 1.612 1.311 0.390 218.741 o
3 10 7 21.896 21.700 0.720 43.242 o
3 10 8 9.984 9.244 0.600 77.510 o
3 10 9 6.310 6.073 1.050 30.953 o
3 11 0 40.334 40.678 0.460 35.234 o
3 11 1 111.443 111.909 0.820 6.773 o
3 11 2 101.416 102.055 0.780 7.948 o
3 11 3 61.421 63.218 0.750 16.286 o
3 11 4 22.630 22.970 0.460 66.049 o
3 11 5 47.691 49.582 0.570 25.566 o
3 11 6 17.806 18.768 0.430 84.649 o
3 11 7 2.575 2.321 0.400 198.606 o
3 11 8 3.857 3.391 0.490 131.835 o
3 12 0 0.990 0.930 0.260 477.200 o
3 12 1 9.453 8.974 0.350 163.003 o
3 12 2 101.293 103.876 0.960 7.378 o
3 12 3 26.137 26.162 0.570 48.965 o
3 12 4 17.706 16.787 0.440 85.609 o
3 12 5 15.447 14.957 0.450 91.834 o
3 12 6 24.625 24.351 0.770 37.266 o
3 12 7 16.787 17.328 0.700 50.765 o
3 12 8 32.640 35.516 1.211 17.410 o
3 13 0 41.516 39.767 0.890 22.247 o
3 13 1 30.694 29.693 0.810 30.730 o
3 13 2 15.551 13.816 0.410 102.175 o
3 13 3 5.459 4.472 0.330 229.688 o
3 13 4 38.630 39.948 0.550 33.686 o
3 13 5 4.402 4.092 0.340 232.854 o
3 13 6 48.923 55.454 1.421 11.230 o
3 13 7 2.355 2.501 0.550 111.448 o
3 14 0 15.408 13.696 0.630 62.182 o
3 14 1 16.819 15.167 0.540 72.258 o
3 14 2 7.544 6.063 0.320 209.028 o
3 14 3 86.251 92.091 1.030 8.770 o
3 14 4 6.780 6.883 0.380 170.276 o
3 14 5 4.840 4.482 0.550 104.045 o
3 15 0 19.084 18.288 0.500 71.496 o
3 15 1 45.981 42.188 1.100 16.637 o
3 15 2 1.432 1.311 0.330 299.180 o
3 15 4 12.757 12.075 0.520 86.675 o
3 15 5 23.945 18.308 0.960 29.012 o
3 16 0 2.557 2.001 0.340 265.188 o
3 16 1 3.593 2.931 0.330 259.812 o
3 16 2 15.417 14.306 0.690 54.405 o
3 16 4 5.225 4.822 0.610 85.796 o
3 17 0 3.832 3.031 0.580 97.814 o
3 17 1 14.720 10.875 0.640 63.290 o
4 -17 -2 2.410 2.101 0.740 63.456 o
4 -17 -1 3.740 3.832 0.760 58.883 o
4 -16 -4 4.692 4.012 0.790 54.133 o
4 -16 -3 9.261 9.044 0.580 83.058 o
4 -16 -2 4.950 5.232 0.750 59.058 o
4 -16 -1 4.877 4.702 0.740 60.786 o
4 -15 -4 14.745 14.787 0.920 35.043 o
4 -15 -3 1.898 1.461 0.520 126.303 o
4 -15 -2 7.072 7.223 0.450 131.757 o
4 -15 -1 18.529 18.308 0.690 49.807 o
4 -14 -6 8.367 8.574 0.580 84.992 o
4 -14 -5 11.637 11.975 0.880 39.659 o
4 -14 -4 5.713 5.692 0.730 61.303 o
4 -14 -3 25.569 27.102 0.620 45.386 o
4 -14 -2 6.663 6.153 0.380 173.389 o
4 -14 -1 1.274 1.100 0.320 320.495 o
4 -13 -7 15.394 14.857 0.930 34.172 o
4 -13 -6 7.342 7.133 0.790 51.664 o
4 -13 -5 2.235 2.421 0.670 76.842 o
4 -13 -4 7.438 6.973 0.440 135.199 o
4 -13 -3 1.509 1.261 0.340 282.736 o
4 -13 -2 59.469 61.567 0.700 17.518 o
4 -13 -1 46.628 47.661 0.680 24.061 o
4 -12 -7 3.667 3.962 0.740 61.928 o
4 -12 -6 2.357 2.501 0.440 168.155 o
4 -12 -5 13.844 13.616 0.900 36.937 o
4 -12 -4 24.110 24.551 0.510 57.428 o
4 -12 -3 69.232 71.802 0.740 13.946 o
4 -12 -2 2.589 2.801 0.300 319.098 o
4 -12 -1 11.089 11.155 0.370 138.132 o
4 -11 -8 5.374 5.252 0.670 72.132 o
4 -11 -7 2.946 2.741 0.400 194.699 o
4 -11 -6 25.170 26.632 0.550 51.329 o
4 -11 -5 35.000 36.996 0.590 35.617 o
4 -11 -4 6.516 6.313 0.340 201.917 o
4 -11 -3 5.198 5.492 0.320 236.769 o
4 -11 -2 20.079 20.519 0.420 78.692 o
4 -11 -1 118.680 119.613 0.840 6.078 o
4 -10 -8 21.519 23.480 0.540 58.740 o
4 -10 -6 22.452 22.320 0.510 61.396 o
4 -10 -5 4.701 4.732 0.280 295.751 o
4 -10 -4 25.525 25.401 0.360 68.655 o
4 -10 -3 38.209 38.547 0.390 40.227 o
4 -10 -2 62.121 62.697 0.540 18.435 o
4 -10 -1 17.824 17.458 0.420 88.049 o
4 -9 -9 1.966 2.111 0.490 140.051 o
4 -9 -8 15.777 16.607 0.430 92.854 o
4 -9 -7 7.415 7.633 0.370 169.763 o
4 -9 -6 16.294 16.677 0.340 110.814 o
4 -9 -5 24.630 24.631 0.380 69.289 o
4 -9 -4 55.903 55.384 0.420 23.213 o
4 -9 -3 24.562 24.121 0.290 79.230 o
4 -9 -2 37.425 37.086 0.340 43.509 o
4 -9 -1 55.962 56.585 0.520 21.645 o
4 -8 -9 5.702 5.632 0.430 150.743 o
4 -8 -8 14.542 14.156 0.390 110.088 o
4 -8 -7 11.063 10.925 0.340 151.296 o
4 -8 -6 11.179 10.565 0.320 160.625 o
4 -8 -5 10.041 10.255 0.270 197.351 o
4 -8 -4 74.689 75.093 0.440 14.562 o
4 -8 -3 152.740 153.037 0.590 4.177 o
4 -8 -2 77.766 78.895 0.460 13.484 o
4 -8 -1 2.496 2.111 0.140 907.192 o
4 -7 -9 7.239 7.143 0.410 150.097 o
4 -7 -7 9.529 9.434 0.320 176.905 o
4 -7 -6 24.538 24.491 0.360 71.669 o
4 -7 -5 27.718 26.882 0.340 64.641 o
4 -7 -4 49.598 49.632 0.370 28.384 o
4 -7 -3 23.299 23.350 0.240 89.234 o
4 -7 -2 37.958 37.356 0.310 43.823 o
4 -7 -1 210.802 211.693 0.660 2.309 o
4 -6 -10 1.999 1.971 0.850 48.688 o
4 -6 -9 3.017 3.111 0.460 151.162 o
4 -6 -8 4.381 4.482 0.330 241.433 o
4 -6 -7 25.086 24.471 0.460 60.759 o
4 -6 -6 36.821 37.547 0.440 40.095 o
4 -6 -5 8.001 7.953 0.220 277.513 o
4 -6 -4 149.937 149.566 0.610 4.316 o
4 -6 -3 19.959 20.419 0.240 107.025 o
4 -6 -2 176.560 176.798 0.520 3.242 o
4 -6 -1 108.310 111.449 0.500 7.618 o
4 -5 -10 7.076 7.053 0.430 141.192 o
4 -5 -9 4.278 4.022 0.360 214.908 o
4 -5 -8 12.055 11.415 0.430 112.715 o
4 -5 -7 1.905 1.941 0.230 522.397 o
4 -5 -6 21.818 21.619 0.340 84.126 o
4 -5 -5 104.305 104.436 0.520 8.215 o
4 -5 -4 64.347 64.548 0.420 18.608 o
4 -5 -3 10.240 9.244 0.170 265.543 o
4 -5 -2 80.755 83.067 0.390 12.855 o
4 -5 -1 256.108 257.473 1.110 1.553 o
4 -4 -10 2.581 2.401 0.570 103.892 o
4 -4 -9 7.628 7.343 0.340 188.174 o
4 -4 -8 46.072 46.991 0.530 27.838 o
4 -4 -7 24.030 24.251 0.380 70.908 o
4 -4 -6 36.155 35.636 0.440 41.593 o
4 -4 -5 29.424 28.363 0.290 63.602 o
4 -4 -4 57.213 57.775 0.370 22.762 o
4 -4 -3 286.858 285.055 0.720 1.305 o
4 -4 -2 159.236 162.551 0.830 3.700 o
4 -4 -1 11.237 10.094 0.300 171.411 o
4 -3 -10 1.216 1.211 0.350 271.876 o
4 -3 -9 12.791 12.235 0.410 114.585 o
4 -3 -8 6.217 5.582 0.290 254.103 o
4 -3 -7 28.531 27.732 0.400 57.908 o
4 -3 -6 152.808 151.887 0.780 4.070 o
4 -3 -5 52.642 51.803 0.410 25.605 o
4 -3 -4 12.401 11.975 0.180 207.942 o
4 -3 -3 67.439 66.639 0.460 17.132 o
4 -3 -2 217.221 215.275 1.090 2.106 o
4 -3 -1 564.716 570.321 3.301 0.320 o
4 -2 -10 9.709 9.114 0.480 108.526 o
4 -2 -9 41.807 43.109 0.530 31.306 o
4 -2 -8 2.839 2.891 0.270 368.977 o
4 -2 -7 41.198 40.268 0.450 35.057 o
4 -2 -6 8.840 8.044 0.250 237.844 o
4 -2 -5 19.880 19.619 0.250 107.484 o
4 -2 -4 346.351 346.932 0.980 0.898 o
4 -2 -3 110.032 114.360 0.810 6.805 o
4 -2 -2 274.853 269.889 1.120 1.384 o
4 -2 -1 227.211 226.660 0.790 1.998 o
4 -1 -10 3.113 2.821 0.460 151.363 o
4 -1 -9 3.915 3.582 0.330 252.014 o
4 -1 -8 14.496 13.956 0.380 113.313 o
4 -1 -7 36.591 35.996 0.470 39.777 o
4 -1 -6 74.610 74.713 0.600 13.693 o
4 -1 -5 47.732 46.310 0.390 30.096 o
4 -1 -4 137.793 137.881 0.560 5.039 o
4 -1 -3 81.429 78.825 0.750 11.406 o
4 -1 -2 560.278 563.798 2.841 0.333 o
4 -1 -1 464.688 474.579 4.462 0.400 o
4 0 0 232.591 235.584 1.731 1.686 o
4 0 1 1476.490 1439.980 6.933 0.051 o
4 0 2 282.530 285.075 1.100 1.297 o
4 0 3 6.747 6.423 0.250 282.551 o
4 0 4 24.154 23.210 0.210 89.671 o
4 0 5 25.607 24.911 0.230 80.881 o
4 0 6 118.150 117.802 0.520 6.652 o
4 0 7 113.386 112.800 0.650 6.941 o
4 0 10 6.173 5.362 0.480 125.496 o
4 1 0 731.443 723.508 2.291 0.209 o
4 1 1 891.845 832.396 2.911 0.146 o
4 1 2 3.434 3.562 0.190 539.262 o
4 1 3 190.377 196.066 1.040 2.611 o
4 1 4 224.492 225.759 0.830 2.025 o
4 1 5 163.296 160.310 0.650 3.723 o
4 1 6 6.596 6.043 0.180 380.416 o
4 1 7 12.534 12.255 0.290 158.155 o
4 1 8 59.580 58.466 0.680 18.134 o
4 1 9 3.618 3.261 0.380 205.336 o
4 1 10 33.219 34.005 0.620 36.573 o
4 2 0 333.759 337.578 2.481 0.841 o
4 2 1 475.113 467.085 2.631 0.460 o
4 2 2 288.131 291.028 2.121 1.122 o
4 2 3 309.451 314.058 1.281 1.078 o
4 2 4 20.848 20.099 0.230 105.437 o
4 2 5 107.694 106.247 0.460 7.948 o
4 2 6 53.049 51.803 0.410 25.410 o
4 2 7 9.767 9.964 0.250 214.095 o
4 2 8 39.355 39.758 0.660 29.627 o
4 2 10 2.111 1.961 0.430 177.997 o
4 2 11 3.340 2.791 0.610 90.054 o
4 3 0 494.353 507.113 3.041 0.407 o
4 3 1 271.814 273.540 3.662 0.947 o
4 3 2 225.495 222.048 2.391 1.585 o
4 3 3 157.459 163.952 1.671 3.062 o
4 3 4 23.553 23.100 0.280 84.482 o
4 3 5 130.612 129.187 0.600 5.533 o
4 3 6 54.720 53.654 0.480 23.246 o
4 3 7 5.683 5.692 0.240 322.713 o
4 3 8 30.820 30.243 0.600 40.802 o
4 3 9 10.671 10.264 0.500 98.493 o
4 3 10 5.443 5.232 0.480 128.144 o
4 4 0 5.315 4.962 0.220 371.351 o
4 4 1 543.554 567.629 5.813 0.276 o
4 4 2 48.905 49.572 1.731 8.765 o
4 4 3 445.150 438.193 0.930 0.565 o
4 4 4 34.279 35.196 0.420 44.578 o
4 4 5 13.601 12.776 0.260 160.077 o
4 4 6 81.540 80.125 0.600 12.071 o
4 4 7 55.235 54.994 0.640 20.451 o
4 4 8 20.547 20.419 0.460 72.246 o
4 4 9 3.376 3.031 0.420 175.610 o
4 4 10 1.581 1.611 0.520 126.934 o
4 5 0 89.660 89.769 0.530 10.536 o
4 5 2 54.688 51.563 0.500 23.389 o
4 5 3 171.271 171.155 0.840 3.295 o
4 5 4 98.597 97.773 0.580 8.930 o
4 5 5 105.499 105.857 0.690 7.694 o
4 5 6 20.170 19.739 0.310 96.472 o
4 5 7 22.819 22.300 0.450 67.436 o
4 5 8 5.006 5.242 0.340 220.936 o
4 5 9 7.424 7.073 0.470 122.498 o
4 5 10 28.006 28.863 0.570 45.726 o
4 6 0 52.334 53.864 0.320 26.483 o
4 6 1 117.950 119.733 0.560 6.551 o
4 6 2 212.569 217.486 0.760 2.228 o
4 6 3 159.502 159.790 0.600 3.861 o
4 6 4 19.818 19.839 0.250 107.282 o
4 6 5 61.019 60.777 0.550 18.931 o
4 6 6 68.157 68.590 0.560 15.940 o
4 6 7 44.720 45.830 0.560 28.120 o
4 6 8 69.194 72.642 1.080 11.203 o
4 6 9 8.613 8.534 0.500 106.168 o
4 7 0 229.076 231.712 0.680 1.969 o
4 7 1 19.653 18.698 0.220 115.447 o
4 7 2 0.909 0.820 0.140 1349.930 o
4 7 3 1.317 1.201 0.160 999.266 o
4 7 4 125.959 129.077 0.760 5.577 o
4 7 5 120.622 123.354 0.930 5.726 o
4 7 6 24.880 25.011 0.400 66.438 o
4 7 7 3.324 3.452 0.320 272.724 o
4 7 8 11.703 10.835 0.610 71.955 o
4 7 9 6.258 5.452 0.560 97.014 o
4 7 10 4.418 4.492 0.610 87.231 o
4 8 0 2.244 2.211 0.140 936.323 o
4 8 1 55.864 57.075 0.440 22.635 o
4 8 2 200.606 203.169 0.770 2.489 o
4 8 3 71.758 71.942 0.490 15.243 o
4 8 4 49.890 50.442 0.420 27.160 o
4 8 5 8.919 8.524 0.290 204.843 o
4 8 6 54.282 53.954 0.560 22.166 o
4 8 7 26.662 27.152 0.520 51.658 o
4 8 8 11.515 11.785 0.500 94.490 o
4 8 9 24.682 25.981 1.131 21.640 o
4 9 0 108.539 108.428 0.490 7.738 o
4 9 1 117.579 120.613 0.590 6.506 o
4 9 2 3.685 3.672 0.190 523.395 o
4 9 3 52.404 52.453 0.540 23.501 o
4 9 4 46.099 45.770 0.430 30.424 o
4 9 5 36.493 36.396 0.470 39.688 o
4 9 6 21.977 21.780 0.550 58.230 o
4 9 8 10.055 9.664 0.480 106.705 o
4 9 9 13.421 13.786 0.960 33.252 o
4 10 0 71.508 72.412 0.450 15.493 o
4 10 1 81.274 82.166 0.490 12.452 o
4 10 2 66.283 67.730 0.540 16.654 o
4 10 3 33.919 33.155 0.560 39.188 o
4 10 4 18.288 17.858 0.410 88.059 o
4 10 5 17.532 17.738 0.350 101.960 o
4 10 6 21.356 21.930 0.480 66.852 o
4 10 7 14.763 14.536 0.540 76.415 o
4 10 8 6.752 6.473 0.510 110.660 o
4 11 0 46.555 46.360 0.560 27.069 o
4 11 1 8.059 7.313 0.320 198.292 o
4 11 2 9.598 9.414 0.300 187.869 o
4 11 3 48.710 49.532 0.600 24.524 o
4 11 4 68.723 70.621 0.640 14.958 o
4 11 5 2.071 1.851 0.250 454.344 o
4 11 6 10.684 10.274 0.500 98.445 o
4 11 7 4.933 4.712 0.370 197.996 o
4 11 8 10.248 8.824 0.530 93.308 o
4 12 0 14.648 14.356 0.400 106.767 o
4 12 1 45.796 45.310 0.690 24.625 o
4 12 2 38.036 39.207 0.650 30.805 o
4 12 3 17.886 17.688 0.430 85.804 o
4 12 4 0.807 0.770 0.240 562.648 o
4 12 5 20.834 20.689 0.500 66.368 o
4 12 6 4.631 4.832 0.380 191.894 o
4 12 7 11.420 9.874 0.500 97.093 o
4 12 8 2.892 2.681 0.620 88.051 o
4 13 0 3.754 3.291 0.290 310.344 o
4 13 1 16.654 14.947 0.440 90.691 o
4 13 2 4.468 3.842 0.300 279.966 o
4 13 3 25.819 24.941 0.570 49.950 o
4 13 4 7.173 6.783 0.380 168.107 o
4 13 5 21.248 21.619 0.520 62.623 o
4 13 6 2.168 2.421 0.490 138.886 o
4 13 7 26.667 27.622 0.650 42.208 o
4 14 0 12.843 12.646 0.420 110.723 o
4 14 1 28.262 28.102 0.680 39.012 o
4 14 2 37.306 35.095 0.680 31.252 o
4 14 3 3.862 3.802 0.350 229.539 o
4 14 4 3.445 3.021 0.360 226.990 o
4 14 5 4.565 4.342 0.540 108.215 o
4 14 6 6.111 5.472 0.600 86.444 o
4 15 0 18.318 17.828 0.560 64.918 o
4 15 1 0.546 0.650 0.210 738.838 o
4 15 2 6.997 6.403 0.390 164.431 o
4 15 3 1.591 1.681 0.320 310.839 o
4 15 4 35.023 38.977 1.291 15.337 o
4 16 0 22.525 12.946 0.990 28.943 o
4 16 2 12.278 8.684 0.660 64.403 o
4 16 3 16.486 17.248 0.990 30.117 o
4 16 4 1.605 1.281 0.480 148.283 o
4 17 0 12.935 13.046 0.670 59.924 o
4 17 1 8.462 8.704 0.890 40.871 o
5 -17 -1 3.880 3.301 0.820 51.036 o
5 -16 -3 20.272 21.599 0.720 44.474 o
5 -16 -1 3.690 3.011 0.770 57.726 o
5 -15 -4 2.060 1.961 0.720 67.219 o
5 -15 -3 5.645 5.192 0.430 152.052 o
5 -15 -2 11.785 11.985 0.440 109.674 o
5 -15 -1 7.990 8.294 0.470 118.568 o
5 -14 -5 10.031 10.645 0.600 76.378 o
5 -14 -4 17.067 17.488 0.680 52.486 o
5 -14 -3 0.736 1.151 0.310 349.003 o
5 -14 -2 12.472 12.696 0.430 109.067 o
5 -14 -1 2.919 2.641 0.340 257.141 o
5 -13 -5 19.380 20.389 0.710 46.441 o
5 -13 -4 2.866 2.631 0.350 245.674 o
5 -13 -3 1.312 1.301 0.320 318.279 o
5 -13 -2 19.639 20.239 0.470 72.829 o
5 -13 -1 1.871 1.511 0.330 291.595 o
5 -12 -7 5.036 4.612 0.620 83.762 o
5 -12 -6 15.889 15.757 0.540 73.349 o
5 -12 -5 3.198 2.881 0.420 177.025 o
5 -12 -4 7.200 7.273 0.430 140.154 o
5 -12 -3 18.877 19.519 0.460 76.537 o
5 -12 -2 3.536 3.442 0.330 257.403 o
5 -12 -1 19.795 19.979 0.470 72.779 o
5 -11 -7 8.690 8.154 0.490 109.688 o
5 -11 -6 15.303 15.667 0.480 85.241 o
5 -11 -5 19.586 19.559 0.450 76.477 o
5 -11 -4 3.960 3.762 0.290 302.657 o
5 -11 -3 1.199 0.970 0.260 469.218 o
5 -11 -2 100.875 103.145 0.800 7.892 o
5 -11 -1 18.383 18.368 0.410 87.124 o
5 -10 -8 2.172 2.121 0.400 202.031 o
5 -10 -7 1.551 1.281 0.350 267.595 o
5 -10 -6 13.107 12.025 0.360 129.575 o
5 -10 -5 27.376 27.242 0.430 57.729 o
5 -10 -4 55.776 57.435 0.590 20.600 o
5 -10 -3 25.708 25.951 0.370 66.819 o
5 -10 -2 20.738 20.899 0.360 85.287 o
5 -10 -1 83.879 83.557 0.800 10.531 o
5 -9 -8 5.578 5.442 0.390 176.146 o
5 -9 -7 38.705 40.068 0.480 36.021 o
5 -9 -6 13.440 13.256 0.300 145.082 o
5 -9 -5 13.797 13.586 0.340 128.891 o
5 -9 -4 5.931 5.472 0.210 363.333 o
5 -9 -3 11.543 11.055 0.230 199.428 o
5 -9 -2 39.144 38.987 0.390 39.175 o
5 -9 -1 213.543 216.365 1.090 2.142 o
5 -8 -9 27.176 27.902 0.560 47.716 o
5 -8 -8 11.629 11.395 0.390 127.541 o
5 -8 -7 8.630 8.414 0.300 201.501 o
5 -8 -6 17.907 17.668 0.320 106.774 o
5 -8 -5 40.124 40.308 0.370 38.358 o
5 -8 -4 113.207 111.949 0.530 7.180 o
5 -8 -3 116.370 118.342 0.580 6.669 o
5 -8 -2 26.240 26.302 0.260 74.913 o
5 -8 -1 3.069 2.841 0.160 698.258 o
5 -7 -8 4.121 4.182 0.330 246.103 o
5 -7 -7 26.309 26.442 0.430 59.990 o
5 -7 -6 23.775 24.421 0.360 73.415 o
5 -7 -5 69.188 69.851 0.500 16.002 o
5 -7 -4 64.668 64.368 0.400 18.697 o
5 -7 -3 323.422 321.121 0.910 1.031 o
5 -7 -2 188.934 191.054 0.620 2.821 o
5 -7 -1 44.002 43.349 0.340 34.722 o
5 -6 -9 3.249 3.442 0.490 133.716 o
5 -6 -8 57.840 61.017 0.640 18.761 o
5 -6 -7 0.943 0.840 0.250 515.558 o
5 -6 -6 45.543 45.770 0.420 30.992 o
5 -6 -5 87.616 87.989 0.470 11.123 o
5 -6 -4 95.391 95.462 0.470 9.671 o
5 -6 -3 78.821 78.234 0.400 13.611 o
5 -6 -2 128.786 130.127 0.510 5.689 o
5 -6 -1 113.360 113.290 0.450 7.232 o
5 -5 -10 11.668 11.245 0.640 66.729 o
5 -5 -9 10.757 10.325 0.420 122.875 o
5 -5 -8 18.150 18.098 0.390 91.699 o
5 -5 -7 23.744 24.291 0.390 70.390 o
5 -5 -6 113.874 114.931 0.750 6.659 o
5 -5 -5 7.694 7.663 0.210 295.936 o
5 -5 -4 15.418 14.957 0.230 148.735 o
5 -5 -3 7.640 7.623 0.170 340.149 o
5 -5 -2 230.804 232.172 0.640 1.954 o
5 -5 -1 814.612 825.093 3.952 0.160 o
5 -4 -10 12.125 11.715 0.450 106.132 o
5 -4 -9 16.644 17.688 0.480 80.016 o
5 -4 -8 5.797 5.723 0.330 219.725 o
5 -4 -7 7.792 7.283 0.310 208.199 o
5 -4 -6 5.113 5.012 0.200 412.569 o
5 -4 -5 56.377 56.415 0.380 23.280 o
5 -4 -4 242.326 239.625 0.670 1.800 o
5 -4 -3 185.346 182.520 0.560 2.986 o
5 -4 -2 40.462 40.388 0.400 37.123 o
5 -4 -1 99.087 97.383 0.860 8.094 o
5 -3 -10 1.598 1.371 0.470 154.177 o
5 -3 -9 6.576 6.353 0.340 201.210 o
5 -3 -8 8.891 8.304 0.320 186.676 o
5 -3 -7 26.593 26.312 0.390 63.074 o
5 -3 -6 125.052 124.685 0.630 5.902 o
5 -3 -5 22.045 21.800 0.260 93.662 o
5 -3 -4 50.301 50.222 0.310 28.735 o
5 -3 -3 150.344 148.195 0.720 4.251 o
5 -3 -2 191.802 194.465 1.311 2.488 o
5 -3 -1 224.420 228.670 1.231 1.922 o
5 -2 -10 2.705 2.641 0.540 114.389 o
5 -2 -8 83.943 85.177 0.670 11.037 o
5 -2 -7 18.636 18.038 0.340 99.503 o
5 -2 -6 5.067 4.542 0.210 402.955 o
5 -2 -5 18.391 17.498 0.260 117.144 o
5 -2 -4 107.424 106.877 0.480 7.911 o
5 -2 -3 87.647 89.609 0.520 10.842 o
5 -2 -2 113.060 112.660 1.010 6.245 o
5 -2 -1 202.121 205.150 0.820 2.439 o
5 -1 -9 4.982 4.612 0.350 215.045 o
5 -1 -8 24.976 25.091 0.410 65.213 o
5 -1 -7 7.846 7.623 0.270 237.538 o
5 -1 -6 39.407 38.497 0.480 36.085 o
5 -1 -5 50.011 48.922 0.400 27.845 o
5 -1 -4 44.291 43.709 0.400 32.968 o
5 -1 -3 131.483 131.758 0.640 5.389 o
5 -1 -2 41.027 42.659 0.410 35.473 o
5 -1 -1 603.983 603.445 3.401 0.284 o
5 0 0 189.371 193.585 0.830 2.726 o
5 0 1 48.723 52.113 0.530 25.324 o
5 0 2 215.292 219.667 0.810 2.171 o
5 0 3 148.970 149.756 0.700 4.285 o
5 0 4 76.870 77.594 0.380 14.139 o
5 0 5 0.425 0.520 0.130 1754.700 o
5 0 6 150.869 149.326 0.650 4.263 o
5 0 7 0.560 0.580 0.220 680.375 o
5 0 8 36.464 36.886 0.500 38.277 o
5 0 10 3.646 3.081 0.390 197.139 o
5 1 0 46.479 45.210 0.360 31.849 o
5 1 1 66.324 64.799 0.600 16.480 o
5 1 2 109.288 106.547 1.030 6.588 o
5 1 3 186.072 191.704 1.040 2.716 o
5 1 4 307.636 306.765 1.030 1.122 o
5 1 5 8.923 8.684 0.180 288.555 o
5 1 6 41.252 40.048 0.330 38.626 o
5 1 7 20.125 19.479 0.310 97.073 o
5 1 8 32.558 33.075 0.480 44.479 o
5 1 9 7.513 7.263 0.470 121.876 o
5 1 10 11.822 11.445 0.450 107.517 o
5 2 0 198.487 202.019 1.811 2.128 o
5 2 1 714.496 709.652 2.921 0.214 o
5 2 2 92.802 94.782 1.070 7.965 o
5 2 3 41.061 39.027 0.830 24.047 o
5 2 4 36.408 35.836 0.320 46.077 o
5 2 5 66.120 64.658 0.410 18.147 o
5 2 6 82.686 81.246 0.480 12.338 o
5 2 7 37.799 38.107 0.390 40.820 o
5 2 8 4.825 4.302 0.300 271.317 o
5 2 9 17.493 16.767 0.570 65.556 o
5 2 10 1.120 0.990 0.370 247.155 o
5 2 11 10.513 10.655 0.650 66.861 o
5 3 0 101.555 101.685 0.700 8.165 o
5 3 1 173.691 178.819 1.801 2.584 o
5 3 2 251.933 253.611 3.311 1.116 o
5 3 3 339.086 337.858 0.900 0.942 o
5 3 4 118.872 118.512 0.530 6.570 o
5 3 5 75.923 75.443 0.550 13.681 o
5 3 7 56.035 56.435 0.500 21.915 o
5 3 8 23.041 22.830 0.390 73.405 o
5 3 9 30.534 29.633 0.670 37.465 o
5 3 10 4.016 4.142 0.480 134.846 o
5 4 0 345.406 352.385 1.391 0.872 o
5 4 1 215.098 215.985 2.651 1.581 o
5 4 2 177.686 186.842 1.191 2.829 o
5 4 3 319.332 319.981 0.820 1.055 o
5 4 4 239.914 240.065 0.880 1.791 o
5 4 5 51.240 50.302 0.520 24.789 o
5 4 6 86.958 86.918 0.630 10.701 o
5 4 7 9.911 10.084 0.360 151.807 o
5 4 8 40.448 41.328 0.530 32.711 o
5 4 9 3.497 3.271 0.430 167.386 o
5 4 10 8.074 7.553 0.490 112.348 o
5 5 0 19.336 19.128 0.300 102.235 o
5 5 1 13.307 13.696 0.250 162.489 o
5 5 2 201.270 201.178 0.650 2.524 o
5 5 3 185.409 186.522 0.690 2.907 o
5 5 4 168.757 168.644 0.920 3.337 o
5 5 5 55.455 55.705 0.470 22.679 o
5 5 6 1.177 1.191 0.210 670.264 o
5 5 7 39.630 39.467 0.560 32.852 o
5 5 8 61.925 64.388 0.680 16.795 o
5 5 9 15.903 16.707 0.580 66.504 o
5 6 0 126.963 127.896 0.480 5.872 o
5 6 1 377.406 379.567 1.040 0.760 o
5 6 2 156.603 159.620 0.590 3.954 o
5 6 3 24.478 24.531 0.270 80.901 o
5 6 4 20.646 19.899 0.340 89.977 o
5 6 5 80.429 81.386 0.630 11.996 o
5 6 6 96.377 97.513 0.620 9.058 o
5 6 7 79.364 81.196 0.690 11.856 o
5 6 8 40.661 41.828 0.720 26.702 o
5 6 9 9.942 8.774 0.500 102.303 o
5 6 10 3.729 3.331 0.580 97.731 o
5 7 0 83.352 83.577 0.400 12.336 o
5 7 1 32.159 33.014 0.270 55.906 o
5 7 2 70.748 71.271 0.360 16.323 o
5 7 3 279.512 282.754 0.980 1.333 o
5 7 4 145.430 148.655 0.830 4.319 o
5 7 5 14.601 14.526 0.410 104.134 o
5 7 6 6.831 6.483 0.290 240.133 o
5 7 7 4.908 4.592 0.300 268.064 o
5 7 8 12.080 11.915 0.510 90.595 o
5 7 9 24.342 25.471 0.800 35.386 o
5 7 10 6.383 6.253 0.620 80.731 o
5 8 0 201.123 206.061 0.830 2.444 o
5 8 1 158.620 159.660 0.660 3.857 o
5 8 2 69.456 70.381 0.410 16.472 o
5 8 3 21.160 21.219 0.290 93.619 o
5 8 4 23.689 24.161 0.370 72.808 o
5 8 5 68.985 70.421 0.770 13.870 o
5 8 6 125.907 128.426 0.830 5.501 o
5 8 7 2.260 2.291 0.310 312.177 o
5 8 8 14.094 13.996 0.540 78.127 o
5 8 9 2.077 1.821 0.470 151.490 o
5 9 0 152.009 154.438 0.730 4.090 o
5 9 1 211.084 217.325 0.850 2.228 o
5 9 2 33.511 33.094 0.330 51.016 o
5 9 3 20.729 20.899 0.310 92.672 o
5 9 4 100.994 101.174 0.820 7.906 o
5 9 5 12.800 11.815 0.440 106.628 o
5 9 6 1.624 1.461 0.300 349.654 o
5 9 7 8.917 8.704 0.360 162.141 o
5 9 8 39.522 40.468 0.730 27.200 o
5 10 0 0.692 0.580 0.190 871.120 o
5 10 1 46.039 46.651 0.430 30.193 o
5 10 2 147.513 149.666 0.740 4.305 o
5 10 3 31.488 30.473 0.450 48.743 o
5 10 4 12.957 12.415 0.330 139.752 o
5 10 5 44.759 45.860 0.540 28.584 o
5 10 6 6.600 6.073 0.370 180.615 o
5 10 7 17.335 17.117 0.440 86.124 o
5 10 8 12.765 12.355 0.530 84.236 o
5 11 0 15.966 15.447 0.330 117.210 o
5 11 1 26.788 26.452 0.410 60.915 o
5 11 2 12.455 12.706 0.300 153.182 o
5 11 3 82.028 84.777 0.870 10.323 o
5 11 4 0.434 0.670 0.260 502.198 o
5 11 5 35.899 37.306 0.590 34.898 o
5 11 6 2.514 2.551 0.490 137.545 o
5 11 7 8.332 8.444 0.420 137.060 o
5 11 8 1.478 1.251 0.420 191.547 o
5 12 0 78.042 78.525 0.830 11.426 o
5 12 1 25.995 24.911 0.460 59.029 o
5 12 2 1.599 1.841 0.240 503.414 o
5 12 3 11.748 11.935 0.390 125.825 o
5 12 4 0.219 0.370 0.160 1298.730 o
5 12 6 15.068 15.267 0.550 73.541 o
5 12 7 8.749 8.484 0.480 112.346 o
5 13 0 19.952 20.059 0.460 73.779 o
5 13 1 21.135 20.619 0.480 68.384 o
5 13 2 8.589 7.873 0.330 184.718 o
5 13 3 6.087 5.973 0.330 215.600 o
5 13 4 24.479 24.841 0.530 54.926 o
5 13 5 3.229 3.071 0.370 218.629 o
5 13 6 0.981 0.970 0.400 214.367 o
5 13 7 4.715 4.232 0.510 119.275 o
5 14 0 7.519 7.083 0.420 143.900 o
5 14 1 8.622 8.264 0.350 171.062 o
5 14 2 14.060 14.086 0.520 81.874 o
5 14 3 3.726 3.101 0.350 234.383 o
5 14 4 2.795 2.291 0.310 303.500 o
5 14 5 17.593 17.938 0.570 64.570 o
5 14 6 13.138 13.486 0.540 80.386 o
5 15 0 9.762 8.324 0.460 116.187 o
5 15 1 9.601 7.773 0.380 150.782 o
5 15 2 3.653 2.701 0.350 237.140 o
5 15 3 26.494 25.451 1.020 24.810 o
5 15 4 4.144 4.072 0.560 102.613 o
5 15 5 9.756 9.534 0.620 73.754 o
5 16 0 2.763 2.001 0.470 148.538 o
5 16 1 8.745 6.183 0.490 112.392 o
5 16 2 23.364 17.888 1.471 14.578 o
5 17 0 12.639 9.464 0.630 68.235 o
5 17 1 4.864 3.271 0.440 154.510 o
5 17 2 10.253 11.125 0.880 40.440 o
6 -16 -1 3.563 3.612 0.790 54.879 o
6 -15 -4 5.301 5.172 0.630 80.675 o
6 -15 -3 8.687 9.224 0.410 138.034 o
6 -15 -2 15.351 15.257 0.460 89.611 o
6 -15 -1 18.570 18.898 0.480 74.803 o
6 -14 -5 3.849 3.802 0.740 61.855 o
6 -14 -4 27.749 29.333 0.650 40.697 o
6 -14 -3 15.525 15.657 0.460 88.667 o
6 -14 -2 5.975 6.263 0.380 177.568 o
6 -14 -1 21.231 21.660 0.500 64.922 o
6 -13 -6 33.400 35.446 0.850 26.875 o
6 -13 -5 1.530 1.521 0.400 208.557 o
6 -13 -4 2.389 2.591 0.440 167.781 o
6 -13 -3 15.632 15.627 0.520 77.272 o
6 -13 -2 36.245 37.016 0.590 34.764 o
6 -13 -1 37.882 38.627 0.590 33.178 o
6 -12 -7 4.730 4.772 0.520 114.598 o
6 -12 -6 4.426 3.902 0.450 149.351 o
6 -12 -5 47.787 51.623 0.690 22.682 o
6 -12 -4 27.737 28.232 0.540 48.365 o
6 -12 -3 2.288 2.201 0.320 296.252 o
6 -12 -2 9.364 9.004 0.370 153.454 o
6 -12 -1 61.819 63.088 0.690 16.869 o
6 -11 -7 7.316 6.843 0.420 145.421 o
6 -11 -6 6.737 7.003 0.420 147.806 o
6 -11 -5 4.987 4.612 0.340 224.238 o
6 -11 -4 2.148 2.071 0.280 373.958 o
6 -11 -3 34.009 35.376 0.490 41.481 o
6 -11 -2 129.447 136.130 0.930 5.038 o
6 -11 -1 31.176 31.424 0.580 41.123 o
6 -10 -8 14.205 14.436 0.470 91.445 o
6 -10 -7 3.477 3.271 0.380 206.392 o
6 -10 -6 53.739 55.864 0.550 22.165 o
6 -10 -5 1.540 1.631 0.240 510.262 o
6 -10 -4 56.974 58.446 0.470 21.578 o
6 -10 -3 20.969 21.389 0.350 85.411 o
6 -10 -2 7.255 7.123 0.270 248.870 o
6 -10 -1 4.891 4.662 0.270 306.847 o
6 -9 -8 13.965 14.116 0.470 92.470 o
6 -9 -7 34.550 36.826 0.510 39.462 o
6 -9 -6 2.835 2.821 0.260 391.231 o
6 -9 -4 18.635 18.148 0.290 108.770 o
6 -9 -3 98.086 98.293 0.570 8.981 o
6 -9 -2 67.383 68.670 0.520 16.429 o
6 -9 -1 32.560 32.814 0.360 50.979 o
6 -8 -9 4.756 4.862 0.530 110.719 o
6 -8 -8 1.279 1.221 0.380 232.695 o
6 -8 -7 3.575 3.121 0.280 331.624 o
6 -8 -6 10.613 10.294 0.280 186.102 o
6 -8 -5 94.918 95.922 0.550 9.490 o
6 -8 -4 5.655 5.642 0.210 368.641 o
6 -8 -3 28.821 28.172 0.320 62.874 o
6 -8 -2 15.678 15.677 0.240 141.832 o
6 -8 -1 174.495 176.117 0.700 3.232 o
6 -7 -9 3.125 3.181 0.430 169.521 o
6 -7 -8 25.601 26.612 0.430 60.988 o
6 -7 -7 7.879 7.183 0.320 200.539 o
6 -7 -6 6.181 5.923 0.240 309.853 o
6 -7 -5 18.957 18.748 0.280 108.048 o
6 -7 -4 144.814 143.973 0.640 4.576 o
6 -7 -3 32.618 32.955 0.350 51.324 o
6 -7 -2 30.872 30.353 0.270 60.304 o
6 -7 -1 142.160 143.943 0.610 4.700 o
6 -6 -9 3.760 3.452 0.390 195.025 o
6 -6 -8 1.085 1.211 0.270 438.715 o
6 -6 -7 4.376 4.002 0.350 223.574 o
6 -6 -6 52.684 54.194 0.440 24.585 o
6 -6 -5 9.594 9.164 0.230 234.768 o
6 -6 -4 140.013 139.021 0.580 4.906 o
6 -6 -3 38.703 38.477 0.280 43.337 o
6 -6 -2 39.988 39.457 0.290 41.203 o
6 -6 -1 35.755 35.516 0.270 48.929 o
6 -5 -9 14.005 13.796 0.460 95.058 o
6 -5 -8 4.115 3.772 0.290 299.923 o
6 -5 -7 44.642 46.670 0.470 30.113 o
6 -5 -6 23.787 23.210 0.310 80.345 o
6 -5 -5 5.184 5.162 0.190 426.461 o
6 -5 -4 15.128 14.816 0.210 157.092 o
6 -5 -3 235.411 234.763 0.610 1.897 o
6 -5 -2 153.256 154.548 0.500 4.183 o
6 -5 -1 17.079 16.757 0.240 130.115 o
6 -4 -9 5.201 4.882 0.410 167.001 o
6 -4 -8 19.950 20.059 0.370 87.126 o
6 -4 -7 29.891 30.143 0.420 52.819 o
6 -4 -6 7.015 6.133 0.210 327.358 o
6 -4 -5 134.982 135.730 0.590 5.185 o
6 -4 -4 9.843 9.544 0.170 270.043 o
6 -4 -3 85.360 85.878 0.380 11.894 o
6 -4 -2 102.755 100.284 0.500 8.588 o
6 -4 -1 252.402 254.862 0.950 1.613 o
6 -3 -10 11.396 10.935 0.460 106.746 o
6 -3 -9 7.740 7.193 0.560 92.382 o
6 -3 -8 31.250 31.624 0.420 50.106 o
6 -3 -7 25.895 25.831 0.360 67.484 o
6 -3 -6 15.822 15.437 0.300 125.647 o
6 -3 -5 3.816 3.562 0.180 548.859 o
6 -3 -4 33.743 33.285 0.280 52.842 o
6 -3 -3 66.085 64.829 0.430 17.980 o
6 -3 -2 391.856 392.713 1.161 0.706 o
6 -3 -1 337.099 339.929 1.621 0.902 o
6 -2 -10 12.858 12.706 0.630 65.912 o
6 -2 -9 7.552 7.163 0.370 170.409 o
6 -2 -8 1.006 0.740 0.300 369.570 o
6 -2 -7 28.882 28.823 0.410 55.834 o
6 -2 -6 4.901 4.662 0.220 387.585 o
6 -2 -5 164.398 162.181 0.680 3.653 o
6 -2 -4 222.938 222.498 0.660 2.091 o
6 -2 -2 26.261 27.702 0.310 69.162 o
6 -2 -1 33.538 33.585 0.390 47.748 o
6 -1 -9 20.628 20.089 0.510 65.971 o
6 -1 -8 45.139 46.070 0.520 28.808 o
6 -1 -7 52.216 51.733 0.460 25.045 o
6 -1 -6 42.458 41.828 0.450 33.591 o
6 -1 -5 44.172 43.929 0.480 30.976 o
6 -1 -4 35.812 34.905 0.380 44.865 o
6 -1 -3 231.260 230.051 0.850 1.928 o
6 -1 -2 221.473 219.496 1.120 2.028 o
6 -1 -1 264.708 272.630 1.291 1.416 o
6 0 0 147.236 151.246 0.830 4.217 o
6 0 1 977.845 966.435 4.362 0.115 o
6 0 2 0.130 0.810 0.190 924.929 o
6 0 4 8.062 8.274 0.160 330.952 o
6 0 5 388.028 385.139 0.900 0.731 o
6 0 6 149.292 147.765 0.690 4.314 o
6 0 7 15.486 15.307 0.290 130.429 o
6 0 8 19.835 18.848 0.370 89.171 o
6 0 10 12.929 12.686 0.470 97.102 o
6 0 11 14.219 14.826 0.700 54.121 o
6 1 0 72.175 68.860 0.660 14.291 o
6 1 1 255.442 251.030 1.381 1.536 o
6 1 2 535.733 545.820 3.391 0.347 o
6 1 3 437.395 437.222 1.741 0.559 o
6 1 4 355.003 349.934 0.720 0.876 o
6 1 5 1.985 1.841 0.140 1006.210 o
6 1 6 3.474 3.421 0.190 540.868 o
6 1 7 80.239 80.285 0.540 12.553 o
6 1 8 33.883 34.285 0.490 42.100 o
6 1 9 33.373 34.635 0.870 26.359 o
6 1 10 2.965 2.311 0.370 224.220 o
6 2 0 923.382 917.753 2.851 0.132 o
6 2 1 295.716 287.696 2.081 1.103 o
6 2 2 495.256 500.340 2.841 0.415 o
6 2 3 21.138 20.599 0.280 96.183 o
6 2 4 158.251 161.361 0.580 3.885 o
6 2 5 107.386 105.907 0.640 7.652 o
6 2 6 43.308 42.249 0.370 34.956 o
6 2 7 10.110 9.814 0.260 204.878 o
6 2 8 49.666 49.182 0.570 24.787 o
6 2 9 50.589 53.724 1.030 15.855 o
6 2 10 16.701 16.107 0.500 78.133 o
6 3 0 20.590 19.879 0.320 93.261 o
6 3 1 222.703 227.780 2.651 1.498 o
6 3 2 91.876 92.621 1.411 6.821 o
6 3 3 366.355 368.312 0.880 0.810 o
6 3 4 301.846 300.392 0.790 1.180 o
6 3 5 23.231 22.730 0.350 77.779 o
6 3 6 15.945 15.447 0.360 109.890 o
6 3 7 58.494 58.186 0.570 19.866 o
6 3 8 14.635 14.396 0.350 120.099 o
6 3 9 6.867 6.923 0.580 89.034 o
6 3 10 2.434 2.241 0.470 149.332 o
6 4 0 125.416 129.237 0.810 5.533 o
6 4 1 272.750 283.284 2.551 1.132 o
6 4 2 5.649 5.042 0.190 412.006 o
6 4 3 27.793 28.913 0.290 66.262 o
6 4 4 56.505 55.184 0.420 23.006 o
6 4 5 42.323 42.048 0.460 33.325 o
6 4 6 59.936 59.156 0.520 19.850 o
6 4 7 72.348 73.202 0.740 13.278 o
6 4 8 56.734 56.695 0.560 20.814 o
6 4 9 2.247 2.151 0.350 254.920 o
6 4 10 4.365 4.112 0.510 120.413 o
6 5 0 104.059 103.125 0.550 8.234 o
6 5 1 9.064 9.104 0.200 265.782 o
6 5 2 342.281 351.444 1.010 0.903 o
6 5 3 90.417 91.640 0.490 10.445 o
6 5 4 32.867 32.784 0.400 48.520 o
6 5 5 3.462 3.281 0.240 411.280 o
6 5 6 20.938 20.469 0.330 89.734 o
6 5 7 14.501 13.896 0.400 108.095 o
6 5 8 21.254 21.019 0.400 78.196 o
6 5 9 24.584 25.171 0.540 53.713 o
6 6 0 329.155 336.308 0.930 0.979 o
6 6 1 0.222 0.410 0.160 1293.010 o
6 6 2 40.773 40.598 0.390 37.082 o
6 6 3 44.115 44.229 0.360 33.851 o
6 6 4 37.527 37.917 0.450 38.925 o
6 6 5 73.507 72.652 0.660 13.689 o
6 6 6 40.111 39.807 0.430 36.700 o
6 6 7 15.075 14.146 0.420 100.793 o
6 6 8 17.416 17.638 0.430 87.069 o
6 6 9 5.919 5.252 0.410 162.007 o
6 6 10 4.140 3.762 0.620 85.597 o
6 7 0 5.354 5.122 0.160 479.990 o
6 7 1 117.770 120.773 0.530 6.569 o
6 7 2 36.992 36.796 0.280 46.242 o
6 7 3 46.814 46.791 0.420 29.898 o
6 7 4 62.609 63.128 0.560 18.034 o
6 7 5 53.571 53.213 0.660 20.966 o
6 7 6 45.968 46.000 0.520 28.382 o
6 7 7 23.650 23.951 0.590 51.165 o
6 7 8 25.919 26.952 0.640 43.756 o
6 7 9 1.477 1.311 0.370 242.274 o
6 7 10 2.219 2.201 0.660 79.222 o
6 8 0 38.488 38.317 0.320 42.424 o
6 8 1 138.029 138.341 0.580 5.004 o
6 8 2 11.927 11.905 0.190 209.664 o
6 8 3 6.636 6.103 0.230 311.194 o
6 8 4 32.793 32.614 0.450 46.063 o
6 8 5 77.617 79.555 0.830 11.414 o
6 8 6 2.415 2.311 0.280 365.043 o
6 8 7 20.641 20.399 0.430 76.155 o
6 8 8 17.216 17.117 0.570 65.704 o
6 8 9 1.104 1.411 0.410 202.286 o
6 9 0 13.914 13.486 0.230 165.670 o
6 9 1 5.900 5.753 0.190 391.739 o
6 9 2 48.364 47.451 0.390 29.374 o
6 9 3 133.978 135.830 0.690 5.132 o
6 9 4 3.927 3.892 0.280 317.291 o
6 9 5 22.773 23.470 0.450 66.468 o
6 9 6 8.042 7.473 0.320 197.720 o
6 9 7 16.347 15.977 0.460 86.248 o
6 9 8 1.377 1.261 0.450 168.616 o
6 9 9 20.100 20.179 0.600 56.324 o
6 10 0 102.633 103.245 0.600 8.247 o
6 10 1 71.457 70.691 0.480 15.514 o
6 10 2 35.524 35.365 0.370 45.352 o
6 10 3 23.214 22.760 0.410 70.805 o
6 10 4 2.708 2.561 0.300 319.117 o
6 10 5 14.590 14.816 0.420 101.264 o
6 10 6 65.786 69.070 0.640 15.753 o
6 10 7 9.040 8.554 0.370 156.694 o
6 10 8 14.141 13.756 0.560 74.688 o
6 10 9 7.645 7.343 0.820 48.099 o
6 11 0 9.659 9.054 0.310 183.060 o
6 11 1 39.671 39.377 0.400 38.214 o
6 11 2 44.086 44.049 0.490 30.735 o
6 11 3 12.294 12.205 0.440 107.634 o
6 11 4 91.943 95.562 0.980 8.343 o
6 11 5 15.597 15.557 0.450 90.644 o
6 11 6 20.361 21.209 0.460 71.840 o
6 11 7 6.977 6.743 0.410 152.453 o
6 11 8 12.608 12.435 0.910 36.977 o
6 12 0 43.676 44.560 0.670 26.151 o
6 12 1 56.792 56.605 0.700 18.884 o
6 12 2 15.892 15.357 0.380 105.486 o
6 12 3 23.996 23.800 0.700 42.374 o
6 12 4 63.319 68.250 0.870 14.167 o
6 12 5 23.433 24.971 0.630 47.571 o
6 12 6 1.794 1.891 0.370 236.636 o
6 12 7 26.694 27.092 0.710 38.680 o
6 13 0 11.898 11.385 0.410 119.652 o
6 13 1 4.927 4.352 0.320 246.601 o
6 13 2 34.666 36.236 0.830 26.910 o
6 13 3 78.751 85.528 0.960 10.167 o
6 13 5 9.693 9.624 0.430 124.840 o
6 13 6 2.268 2.181 0.380 220.391 o
6 13 7 4.904 4.422 0.640 79.402 o
6 14 0 39.883 41.898 1.201 15.972 o
6 14 1 11.761 11.025 0.440 111.366 o
6 14 2 18.265 18.988 0.690 49.741 o
6 14 4 9.474 9.564 0.500 102.494 o
6 14 5 12.053 12.876 0.530 85.156 o
6 14 6 42.157 38.207 1.301 14.323 o
6 15 0 7.238 5.692 0.550 97.696 o
6 15 1 5.559 5.162 0.410 164.227 o
6 15 2 15.112 10.835 0.540 79.168 o
6 15 3 9.696 6.443 0.650 70.316 o
6 15 4 12.833 12.065 0.650 63.355 o
6 15 5 8.951 9.424 0.600 78.951 o
6 16 1 64.479 49.532 2.531 4.535 o
6 16 2 2.001 1.441 0.370 236.797 o
6 16 4 4.043 4.102 0.480 134.823 o
6 17 0 6.928 4.592 0.540 102.594 o
6 17 1 8.050 4.632 0.670 69.609 o
7 -16 -2 1.546 1.481 0.470 154.166 o
7 -16 -1 13.106 12.936 0.650 62.548 o
7 -15 -3 21.811 23.110 0.520 60.690 o
7 -15 -2 0.860 0.950 0.400 215.301 o
7 -15 -1 21.685 21.940 0.510 62.842 o
7 -14 -5 17.643 18.698 0.680 51.398 o
7 -14 -4 12.321 11.745 0.500 92.585 o
7 -14 -3 10.121 9.744 0.420 126.611 o
7 -14 -2 15.424 15.807 0.460 88.734 o
7 -14 -1 16.363 16.777 0.460 85.246 o
7 -13 -6 1.589 1.831 0.470 153.332 o
7 -13 -5 16.762 17.358 0.480 80.118 o
7 -13 -4 6.438 6.583 0.450 135.506 o
7 -13 -3 27.284 29.103 0.550 47.685 o
7 -13 -2 11.332 11.095 0.420 119.130 o
7 -13 -1 0.968 0.870 0.300 369.002 o
7 -12 -6 17.408 18.538 0.700 49.716 o
7 -12 -5 8.125 8.714 0.470 117.432 o
7 -12 -4 3.359 2.851 0.340 250.901 o
7 -12 -3 5.049 4.812 0.400 174.659 o
7 -12 -2 18.861 19.469 0.460 76.623 o
7 -12 -1 109.589 112.109 0.960 6.573 o
7 -11 -7 6.556 7.043 0.610 82.180 o
7 -11 -6 5.401 5.783 0.550 101.471 o
7 -11 -5 11.230 10.975 0.380 134.020 o
7 -11 -4 11.510 10.875 0.360 140.604 o
7 -11 -3 74.509 79.225 0.690 12.757 o
7 -11 -2 12.236 12.135 0.340 140.905 o
7 -11 -1 24.241 24.711 0.550 53.535 o
7 -10 -8 3.646 3.171 0.580 98.019 o
7 -10 -7 3.993 3.662 0.590 94.012 o
7 -10 -6 7.466 7.713 0.340 187.989 o
7 -10 -5 39.604 41.748 0.460 35.379 o
7 -10 -4 5.586 5.382 0.240 328.231 o
7 -10 -3 42.078 42.019 0.510 32.056 o
7 -10 -2 3.370 2.951 0.250 396.674 o
7 -10 -1 33.130 32.234 0.490 43.803 o
7 -9 -8 22.613 23.690 0.620 49.803 o
7 -9 -7 2.790 2.831 0.370 223.477 o
7 -9 -6 2.183 1.731 0.270 400.226 o
7 -9 -5 1.873 1.891 0.220 561.906 o
7 -9 -4 50.284 51.643 0.410 26.814 o
7 -9 -3 34.625 35.035 0.360 47.005 o
7 -9 -2 37.261 36.646 0.370 42.809 o
7 -9 -1 24.451 23.570 0.300 79.211 o
7 -8 -8 3.047 2.921 0.450 157.458 o
7 -8 -7 1.401 1.451 0.290 376.010 o
7 -8 -6 34.197 34.895 0.460 42.941 o
7 -8 -5 5.049 4.812 0.230 363.702 o
7 -8 -4 15.386 14.796 0.270 138.054 o
7 -8 -3 16.478 16.207 0.280 125.413 o
7 -8 -2 53.453 53.423 0.420 24.702 o
7 -8 -1 68.770 68.350 0.430 16.776 o
7 -7 -8 1.288 1.201 0.350 271.097 o
7 -7 -7 30.945 31.954 0.480 46.754 o
7 -7 -6 9.844 9.784 0.270 201.752 o
7 -7 -5 15.455 15.357 0.260 138.762 o
7 -7 -4 17.574 17.378 0.270 119.296 o
7 -7 -3 46.219 46.460 0.420 30.358 o
7 -7 -2 95.627 95.412 0.460 9.672 o
7 -7 -1 12.174 11.945 0.230 188.300 o
7 -6 -9 2.843 2.841 0.610 90.739 o
7 -6 -8 0.620 0.860 0.300 376.515 o
7 -6 -7 10.648 10.455 0.340 155.343 o
7 -6 -6 9.419 9.544 0.260 214.046 o
7 -6 -5 23.523 23.020 0.290 83.564 o
7 -6 -4 49.665 49.582 0.340 28.845 o
7 -6 -3 3.599 3.552 0.150 664.083 o
7 -6 -2 39.441 38.087 0.280 42.755 o
7 -6 -1 155.501 158.570 0.590 4.003 o
7 -5 -9 2.454 2.591 0.490 137.677 o
7 -5 -8 22.757 22.850 0.470 64.829 o
7 -5 -7 10.134 9.924 0.360 150.967 o
7 -5 -6 0.661 0.680 0.180 954.252 o
7 -5 -5 42.173 41.938 0.350 36.490 o
7 -5 -4 57.182 56.615 0.390 22.792 o
7 -5 -3 48.279 48.511 0.340 29.999 o
7 -5 -2 87.075 85.207 0.440 11.497 o
7 -5 -1 74.568 74.853 0.420 14.715 o
7 -4 -9 13.288 13.296 0.410 110.813 o
7 -4 -8 3.245 3.081 0.290 321.493 o
7 -4 -7 3.210 3.051 0.240 422.811 o
7 -4 -6 16.049 15.747 0.320 118.680 o
7 -4 -5 109.521 110.679 0.570 7.436 o
7 -4 -4 24.151 23.420 0.240 86.437 o
7 -4 -3 58.318 57.455 0.350 22.583 o
7 -4 -2 54.892 54.924 0.360 24.492 o
7 -4 -1 90.670 89.820 0.460 10.617 o
7 -3 -9 15.201 16.037 0.560 71.073 o
7 -3 -8 14.938 14.406 0.370 113.359 o
7 -3 -7 41.698 41.708 0.480 33.287 o
7 -3 -6 2.145 1.971 0.220 545.980 o
7 -3 -5 7.513 6.883 0.200 318.974 o
7 -3 -4 56.026 54.694 0.430 23.178 o
7 -3 -3 224.901 225.379 0.710 2.044 o
7 -3 -2 162.987 164.462 0.570 3.712 o
7 -3 -1 87.313 87.588 0.420 11.351 o
7 -2 -9 0.971 1.161 0.370 247.760 o
7 -2 -8 1.751 1.701 0.320 308.193 o
7 -2 -7 24.008 23.460 0.360 73.970 o
7 -2 -6 169.469 168.524 0.800 3.387 o
7 -2 -5 9.285 9.374 0.220 244.872 o
7 -2 -4 12.790 12.255 0.210 189.250 o
7 -2 -3 43.742 43.809 0.320 35.194 o
7 -2 -2 148.466 147.115 0.480 4.487 o
7 -2 -1 505.673 506.423 1.531 0.429 o
7 -1 -10 1.699 1.871 0.470 152.837 o
7 -1 -9 12.684 12.656 0.520 86.212 o
7 -1 -8 32.638 33.695 0.570 39.513 o
7 -1 -7 23.643 23.800 0.390 71.101 o
7 -1 -6 9.493 9.144 0.290 196.123 o
7 -1 -5 8.875 8.344 0.250 235.353 o
7 -1 -4 274.424 274.120 0.830 1.404 o
7 -1 -3 54.150 53.413 0.350 25.316 o
7 -1 -2 171.202 174.187 0.580 3.376 o
7 -1 -1 39.239 40.418 0.570 32.465 o
7 0 0 380.648 381.067 1.371 0.738 o
7 0 1 59.220 57.956 0.640 18.804 o
7 0 2 11.752 11.215 0.320 154.592 o
7 0 3 80.351 77.864 0.410 13.318 o
7 0 4 297.158 299.962 0.830 1.202 o
7 0 5 210.600 205.870 0.770 2.328 o
7 0 6 76.239 74.803 0.530 13.796 o
7 0 7 8.727 8.464 0.250 236.533 o
7 0 9 57.759 56.225 1.040 14.285 o
7 0 10 10.240 9.774 0.440 118.900 o
7 1 0 112.367 109.528 1.311 5.673 o
7 1 1 560.811 567.119 3.271 0.324 o
7 1 2 147.659 150.436 1.481 3.586 o
7 1 3 184.199 185.972 0.680 2.938 o
7 1 4 67.498 68.170 0.460 16.917 o
7 1 5 32.844 32.274 0.300 53.989 o
7 1 6 76.094 75.163 0.520 13.845 o
7 1 7 68.016 67.650 0.550 16.162 o
7 1 8 8.871 9.044 0.380 151.312 o
7 1 10 2.841 2.321 0.400 196.811 o
7 2 0 153.031 154.068 1.010 3.852 o
7 2 1 24.795 23.570 0.450 62.918 o
7 2 2 157.344 157.679 0.760 3.863 o
7 2 3 202.620 205.830 0.760 2.442 o
7 2 4 25.458 23.901 0.260 80.039 o
7 2 5 103.634 104.946 0.600 8.086 o
7 2 6 65.368 65.359 0.600 16.643 o
7 2 7 3.108 2.751 0.250 407.113 o
7 2 8 80.682 80.435 0.790 11.181 o
7 2 9 2.833 2.621 0.390 204.655 o
7 2 10 20.145 21.379 0.620 53.554 o
7 3 0 88.159 89.119 0.530 10.773 o
7 3 1 68.012 67.760 0.550 16.150 o
7 3 2 356.154 364.630 0.980 0.841 o
7 3 3 212.315 214.964 0.640 2.272 o
7 3 4 1.455 1.621 0.140 1124.420 o
7 3 5 12.559 11.845 0.290 159.442 o
7 3 6 56.378 55.875 0.520 21.623 o
7 3 7 17.133 16.807 0.340 107.254 o
7 3 8 20.062 21.029 0.390 82.501 o
7 3 9 12.887 13.136 0.520 85.274 o
7 3 10 0.965 1.100 0.430 186.415 o
7 4 0 339.913 349.404 1.020 0.914 o
7 4 1 54.308 52.953 0.670 20.611 o
7 4 2 12.415 11.705 0.240 182.638 o
7 4 3 74.534 76.153 0.410 14.634 o
7 4 4 79.272 78.965 0.430 13.333 o
7 4 5 85.025 83.247 0.640 11.156 o
7 4 6 23.888 23.220 0.370 73.402 o
7 4 7 19.853 19.759 0.360 89.413 o
7 4 8 16.815 16.777 0.410 93.709 o
7 4 9 13.686 12.866 0.520 83.889 o
7 4 10 12.790 12.145 0.670 60.544 o
7 5 0 7.247 6.633 0.210 316.322 o
7 5 1 294.322 301.172 0.920 1.207 o
7 5 2 48.468 50.312 0.430 27.768 o
7 5 3 82.370 82.326 0.510 12.178 o
7 5 4 153.996 154.118 0.680 4.066 o
7 5 5 9.169 8.594 0.270 215.519 o
7 5 6 39.330 38.867 0.460 36.692 o
7 5 7 10.419 11.005 0.390 133.981 o
7 5 8 44.005 45.810 0.530 29.254 o
7 5 9 4.719 4.492 0.360 209.036 o
7 6 0 84.118 83.177 0.590 11.507 o
7 6 1 58.603 56.905 0.450 21.500 o
7 6 2 36.636 35.836 0.340 45.055 o
7 6 3 14.949 14.666 0.260 144.103 o
7 6 4 106.358 106.577 0.650 7.686 o
7 6 5 70.029 69.651 0.640 14.790 o
7 6 6 23.330 22.930 0.400 71.535 o
7 6 7 12.639 12.766 0.410 114.163 o
7 6 8 7.563 7.063 0.320 204.048 o
7 6 9 4.554 3.962 0.400 180.340 o
7 6 10 13.058 13.416 0.680 58.301 o
7 7 0 0.146 0.150 0.060 7575.180 o
7 7 1 9.542 9.164 0.200 257.197 o
7 7 2 204.167 206.871 0.760 2.412 o
7 7 3 112.505 113.940 0.610 7.031 o
7 7 4 23.861 23.530 0.400 69.843 o
7 7 5 28.915 29.123 0.470 51.379 o
7 7 6 5.660 5.572 0.340 213.073 o
7 7 7 70.734 71.992 0.750 13.584 o
7 7 8 7.671 7.753 0.410 146.415 o
7 7 9 5.735 4.962 0.470 132.070 o
7 7 10 1.402 1.861 0.810 53.800 o
7 8 0 45.684 44.910 0.370 32.280 o
7 8 1 106.094 107.537 0.560 7.851 o
7 8 2 3.277 3.021 0.170 634.147 o
7 8 3 22.192 21.740 0.310 86.848 o
7 8 4 15.092 14.156 0.350 118.618 o
7 8 5 88.402 91.950 0.790 9.591 o
7 8 6 22.511 22.590 0.440 68.885 o
7 8 8 12.351 12.996 0.640 64.847 o
7 8 9 9.134 8.604 0.430 129.119 o
7 9 0 29.789 29.683 0.370 56.575 o
7 9 1 94.666 95.732 0.560 9.500 o
7 9 2 31.899 31.764 0.370 52.034 o
7 9 3 41.882 41.878 0.460 33.688 o
7 9 4 35.419 35.676 0.510 39.215 o
7 9 5 13.353 13.306 0.350 128.574 o
7 9 6 19.773 19.889 0.380 86.284 o
7 9 7 10.236 9.854 0.420 125.918 o
7 9 8 9.090 8.924 0.510 101.391 o
7 9 9 5.729 5.532 0.480 126.688 o
7 10 0 132.440 134.559 0.760 5.152 o
7 10 1 25.580 25.071 0.380 66.981 o
7 10 2 8.549 8.324 0.260 232.014 o
7 10 3 14.868 13.866 0.340 123.078 o
7 10 4 59.893 61.237 0.670 17.808 o
7 10 5 15.629 15.727 0.390 103.422 o
7 10 6 9.911 9.444 0.330 168.612 o
7 10 7 3.055 3.111 0.400 192.741 o
7 10 8 3.947 3.602 0.490 131.205 o
7 11 0 10.423 10.375 0.280 187.470 o
7 11 1 25.031 24.621 0.400 66.521 o
7 11 2 61.217 61.237 0.530 19.019 o
7 11 3 37.892 39.057 0.660 30.580 o
7 11 5 13.670 13.566 0.440 101.160 o
7 11 6 17.694 18.058 0.440 84.078 o
7 11 7 10.508 9.694 0.430 121.546 o
7 11 8 4.809 3.562 0.600 89.982 o
7 12 0 6.609 6.093 0.290 245.478 o
7 12 1 5.926 5.372 0.390 174.155 o
7 12 2 1.242 1.080 0.310 340.311 o
7 12 3 40.586 42.719 0.710 26.826 o
7 12 4 30.866 32.194 0.660 36.885 o
7 12 5 4.639 4.452 0.330 238.715 o
7 12 6 18.908 18.938 0.480 74.099 o
7 12 7 9.050 9.364 0.480 110.110 o
7 13 0 6.832 6.733 0.360 183.275 o
7 13 1 40.005 41.378 0.690 27.977 o
7 13 2 56.431 59.346 1.441 10.230 o
7 13 3 10.718 10.505 0.470 106.514 o
7 13 4 11.963 11.235 0.440 110.335 o
7 13 5 1.921 1.831 0.310 321.731 o
7 13 6 16.895 16.977 0.580 64.900 o
7 13 7 6.287 5.883 0.630 78.901 o
7 14 0 19.160 17.428 0.930 32.312 o
7 14 1 5.456 4.832 0.380 186.017 o
7 14 2 1.906 1.881 0.490 140.623 o
7 14 3 8.711 9.434 0.580 83.663 o
7 14 4 40.148 43.929 0.920 21.326 o
7 14 5 4.425 4.562 0.400 179.272 o
7 14 6 3.533 3.161 0.860 46.762 o
7 15 0 19.494 19.178 0.690 48.600 o
7 15 1 7.627 5.843 0.580 88.649 o
7 15 2 9.180 8.984 0.850 43.972 o
7 15 3 12.535 9.644 0.880 39.775 o
7 15 4 2.604 2.551 0.440 166.845 o
7 15 5 6.715 6.963 0.610 82.004 o
7 16 0 12.138 9.524 0.630 68.837 o
7 16 1 11.345 9.114 0.830 44.692 o
7 16 2 5.969 4.962 0.560 98.077 o
8 -16 -2 4.340 4.612 0.800 52.897 o
8 -16 -1 6.578 6.793 0.600 84.677 o
8 -15 -3 1.095 1.171 0.410 203.119 o
8 -15 -2 13.291 12.896 0.440 103.356 o
8 -15 -1 3.256 3.011 0.450 156.342 o
8 -14 -4 3.835 3.522 0.460 147.030 o
8 -14 -3 2.760 2.491 0.380 215.131 o
8 -14 -2 24.823 26.642 0.550 51.720 o
8 -14 -1 2.116 1.861 0.360 245.464 o
8 -13 -5 4.657 4.132 0.870 45.110 o
8 -13 -4 5.551 5.112 0.750 58.679 o
8 -13 -3 16.130 16.387 0.470 84.395 o
8 -12 -6 2.500 2.171 0.820 51.953 o
8 -12 -5 24.771 25.221 0.760 37.517 o
8 -12 -4 4.679 4.592 0.400 177.600 o
8 -12 -3 25.601 26.102 0.470 57.849 o
8 -12 -2 3.299 2.831 0.310 291.445 o
8 -12 -1 11.137 10.615 0.450 111.077 o
8 -11 -6 2.544 2.451 0.550 111.101 o
8 -11 -5 7.907 7.523 0.410 145.816 o
8 -11 -4 27.471 28.142 0.440 56.145 o
8 -11 -3 14.975 15.427 0.390 106.220 o
8 -11 -2 13.058 12.726 0.350 131.456 o
8 -11 -1 0.813 0.760 0.320 330.878 o
8 -10 -7 3.594 3.261 0.470 143.032 o
8 -10 -6 25.466 26.512 0.420 62.188 o
8 -10 -5 7.324 7.033 0.270 248.534 o
8 -10 -4 2.774 2.541 0.250 420.286 o
8 -10 -3 21.626 21.339 0.370 80.968 o
8 -10 -2 110.005 110.849 0.760 7.028 o
8 -10 -1 76.581 76.504 0.630 13.004 o
8 -9 -7 8.395 9.004 0.520 100.099 o
8 -9 -6 5.534 4.752 0.310 247.434 o
8 -9 -5 54.830 57.385 0.470 22.594 o
8 -9 -4 86.454 88.569 0.550 10.966 o
8 -9 -3 23.745 23.600 0.350 75.513 o
8 -9 -2 9.138 8.964 0.240 235.153 o
8 -9 -1 7.851 7.553 0.220 283.919 o
8 -8 -8 2.283 2.551 0.610 91.754 o
8 -8 -7 59.938 63.338 0.680 17.412 o
8 -8 -6 5.715 5.672 0.280 271.650 o
8 -8 -5 25.844 25.941 0.350 68.387 o
8 -8 -4 16.124 16.157 0.290 124.873 o
8 -8 -3 109.966 110.419 0.680 7.208 o
8 -8 -2 56.369 56.675 0.430 22.637 o
8 -8 -1 122.447 124.035 0.610 6.088 o
8 -7 -8 48.521 52.393 0.820 19.871 o
8 -7 -7 3.279 3.151 0.320 275.375 o
8 -7 -6 10.751 10.024 0.310 170.472 o
8 -7 -5 17.995 17.978 0.320 105.825 o
8 -7 -4 69.524 70.121 0.510 15.821 o
8 -7 -3 106.438 107.177 0.590 7.779 o
8 -7 -2 52.660 52.153 0.350 26.364 o
8 -7 -1 2.094 1.851 0.150 914.733 o
8 -6 -9 3.060 3.231 0.630 84.869 o
8 -6 -8 12.576 12.736 0.450 103.165 o
8 -6 -7 6.825 6.993 0.300 228.148 o
8 -6 -6 85.164 87.849 0.580 11.076 o
8 -6 -5 62.798 64.478 0.470 18.652 o
8 -6 -4 34.191 34.185 0.320 49.845 o
8 -6 -3 39.587 39.207 0.330 40.569 o
8 -6 -2 154.965 157.029 0.620 4.027 o
8 -6 -1 75.036 73.993 0.500 14.278 o
8 -5 -9 5.104 5.242 0.640 78.644 o
8 -5 -8 2.743 2.371 0.310 303.695 o
8 -5 -7 22.058 22.580 0.370 78.367 o
8 -5 -6 32.306 32.384 0.390 49.994 o
8 -5 -5 141.947 143.323 0.670 4.673 o
8 -5 -4 59.941 59.876 0.410 20.906 o
8 -5 -3 96.631 95.602 0.520 9.401 o
8 -5 -2 31.841 31.634 0.290 56.530 o
8 -5 -1 27.170 27.092 0.310 67.896 o
8 -4 -8 4.298 3.912 0.300 282.006 o
8 -4 -7 39.600 40.928 0.420 36.981 o
8 -4 -6 35.253 36.176 0.400 43.928 o
8 -4 -5 15.021 15.087 0.240 148.160 o
8 -4 -4 1.441 1.461 0.180 813.027 o
8 -4 -3 12.568 12.616 0.230 181.269 o
8 -4 -2 40.931 40.728 0.310 39.146 o
8 -4 -1 848.404 846.822 2.161 0.157 o
8 -3 -8 37.864 38.907 0.470 37.487 o
8 -3 -6 17.706 17.448 0.330 105.935 o
8 -3 -5 26.787 26.001 0.320 69.012 o
8 -3 -4 133.222 133.088 0.670 5.247 o
8 -3 -3 116.752 116.851 0.470 6.840 o
8 -3 -2 25.198 24.021 0.240 82.433 o
8 -3 -1 1.750 2.011 0.120 1212.680 o
8 -2 -9 6.549 5.692 0.490 119.725 o
8 -2 -8 22.910 22.710 0.610 50.865 o
8 -2 -7 1.288 1.010 0.280 408.430 o
8 -2 -6 44.540 44.760 0.460 30.995 o
8 -2 -5 11.713 11.625 0.260 180.278 o
8 -2 -4 13.987 14.096 0.320 132.890 o
8 -2 -3 135.237 134.619 0.580 5.207 o
8 -2 -2 100.377 100.194 0.410 9.003 o
8 -2 -1 32.875 32.364 0.270 55.291 o
8 -1 -9 3.647 3.381 0.570 100.989 o
8 -1 -8 3.662 3.311 0.370 213.938 o
8 -1 -7 4.642 4.202 0.340 229.799 o
8 -1 -5 67.377 65.889 0.540 16.611 o
8 -1 -4 47.438 46.581 0.490 28.117 o
8 -1 -3 76.638 75.503 0.420 14.219 o
8 -1 -2 68.471 70.421 0.340 17.135 o
8 -1 -1 28.151 28.302 0.270 67.546 o
8 0 0 28.713 28.062 0.320 63.176 o
8 0 1 37.358 37.737 0.360 42.521 o
8 0 2 16.711 16.867 0.200 141.000 o
8 0 3 110.960 111.409 0.410 7.540 o
8 0 4 39.668 39.507 0.290 41.500 o
8 0 5 23.838 23.710 0.380 71.881 o
8 0 6 5.118 5.112 0.250 326.792 o
8 0 7 3.852 3.562 0.270 338.531 o
8 0 8 67.761 68.990 0.660 15.164 o
8 1 0 99.324 101.184 0.690 8.409 o
8 1 1 118.706 119.763 0.690 6.317 o
8 1 2 103.174 104.056 0.580 8.208 o
8 1 3 137.014 136.930 0.490 5.147 o
8 1 4 54.323 54.184 0.380 24.674 o
8 1 5 4.742 5.042 0.190 445.553 o
8 1 6 79.622 80.625 0.600 12.331 o
8 1 7 18.743 18.708 0.380 90.858 o
8 1 8 2.659 2.551 0.300 320.063 o
8 1 10 2.789 2.841 0.570 103.097 o
8 2 0 326.664 331.266 1.131 0.987 o
8 2 1 19.393 19.919 0.290 102.238 o
8 2 2 125.461 127.496 0.570 5.874 o
8 2 3 46.957 45.860 0.330 31.892 o
8 2 4 229.668 228.210 0.670 1.983 o
8 2 5 10.159 9.684 0.250 211.184 o
8 2 6 2.911 2.661 0.240 439.079 o
8 2 7 11.268 10.635 0.300 169.084 o
8 2 8 2.891 2.701 0.300 314.672 o
8 2 9 35.501 36.826 0.620 34.115 o
8 2 10 11.127 12.005 0.450 108.846 o
8 3 0 98.291 97.693 0.530 9.090 o
8 3 1 513.490 523.030 1.641 0.411 o
8 3 2 25.725 25.291 0.290 74.831 o
8 3 3 30.532 30.523 0.330 57.278 o
8 3 4 45.014 44.860 0.360 32.977 o
8 3 5 79.762 78.995 0.500 12.931 o
8 3 6 103.971 104.616 0.780 7.645 o
8 3 7 6.328 6.143 0.280 259.051 o
8 3 8 43.552 45.930 0.630 26.915 o
8 3 9 19.261 18.528 0.440 79.837 o
8 3 10 7.024 6.563 0.420 147.481 o
8 4 0 16.962 16.097 0.230 135.022 o
8 4 1 17.872 17.137 0.230 126.787 o
8 4 2 24.668 23.580 0.290 79.663 o
8 4 3 180.795 181.290 0.670 3.055 o
8 4 4 62.279 61.587 0.400 19.899 o
8 4 5 112.226 113.380 0.690 6.929 o
8 4 6 2.748 2.341 0.240 450.205 o
8 4 7 26.758 26.462 0.410 60.957 o
8 4 8 43.898 44.920 0.530 29.561 o
8 4 9 1.482 1.841 0.370 239.745 o
8 4 10 5.049 5.592 0.620 83.060 o
8 5 0 81.658 81.906 0.450 12.573 o
8 5 1 168.934 165.813 0.720 3.472 o
8 5 2 249.453 254.112 0.990 1.634 o
8 5 3 126.838 127.646 0.640 5.718 o
8 5 4 224.158 225.259 0.770 2.043 o
8 5 5 36.736 36.466 0.430 41.067 o
8 5 6 30.201 29.913 0.480 48.717 o
8 5 7 65.213 66.609 0.680 15.786 o
8 5 8 7.354 7.183 0.320 205.464 o
8 5 9 5.541 5.072 0.380 184.585 o
8 5 10 5.524 5.022 0.520 112.229 o
8 6 0 182.011 182.580 0.780 2.978 o
8 6 1 9.050 8.784 0.200 268.826 o
8 6 2 61.551 62.938 0.470 19.267 o
8 6 3 185.977 187.172 0.760 2.867 o
8 6 4 188.095 188.163 0.750 2.823 o
8 6 5 9.334 8.954 0.330 174.674 o
8 6 6 18.628 19.138 0.390 88.845 o
8 6 7 20.186 20.509 0.420 78.457 o
8 6 8 18.756 18.228 0.490 73.609 o
8 6 9 24.633 25.131 0.490 58.145 o
8 6 10 11.539 10.765 0.890 39.193 o
8 7 0 179.659 181.810 0.790 3.028 o
8 7 1 214.466 217.596 0.770 2.202 o
8 7 2 27.741 26.872 0.340 64.609 o
8 7 3 15.439 15.137 0.250 142.349 o
8 7 4 32.645 32.304 0.420 48.008 o
8 7 5 63.727 64.879 0.670 16.416 o
8 7 6 170.779 175.667 1.100 3.113 o
8 7 7 23.200 23.420 0.500 60.508 o
8 7 8 5.885 5.492 0.350 203.116 o
8 7 9 2.366 2.041 0.460 156.019 o
8 8 0 61.259 61.587 0.450 19.770 o
8 8 1 37.816 37.987 0.370 41.578 o
8 8 2 73.406 73.782 0.570 14.199 o
8 8 3 51.513 51.763 0.410 26.165 o
8 8 4 67.929 67.950 0.530 16.305 o
8 8 5 81.569 83.617 0.670 11.468 o
8 8 6 20.803 20.779 0.480 68.832 o
8 8 7 6.851 6.513 0.310 221.949 o
8 8 8 26.125 27.232 0.660 42.143 o
8 8 9 26.315 26.952 0.560 49.114 o
8 9 0 25.720 25.351 0.410 63.660 o
8 9 1 32.301 31.644 0.360 52.117 o
8 9 2 230.868 232.562 0.980 1.895 o
8 9 3 44.218 43.929 0.450 31.709 o
8 9 4 61.886 62.898 0.540 18.474 o
8 9 5 13.567 13.356 0.410 109.707 o
8 9 6 7.250 6.853 0.340 193.299 o
8 9 7 31.535 33.835 0.590 39.330 o
8 9 8 4.976 4.622 0.400 175.684 o
8 10 0 81.133 82.366 0.650 11.719 o
8 10 1 17.182 17.358 0.340 106.015 o
8 10 2 3.819 3.732 0.290 305.356 o
8 10 3 20.241 20.509 0.430 76.908 o
8 10 4 52.385 54.264 0.580 22.498 o
8 10 5 4.447 4.152 0.300 277.962 o
8 10 6 23.451 23.860 0.430 67.072 o
8 10 7 25.635 26.271 0.640 44.284 o
8 10 8 6.834 6.203 0.500 114.359 o
8 11 0 34.660 34.525 0.470 42.206 o
8 11 1 32.508 32.224 0.430 47.675 o
8 11 2 25.160 24.851 0.430 63.178 o
8 11 3 4.680 4.492 0.380 192.771 o
8 11 4 4.843 4.032 0.310 260.947 o
8 11 5 17.940 18.298 0.480 76.670 o
8 11 6 8.394 8.154 0.340 178.998 o
8 11 7 11.715 12.365 0.650 64.467 o
8 11 8 18.956 19.859 0.740 44.461 o
8 12 0 5.741 5.292 0.290 262.761 o
8 12 1 8.192 7.283 0.280 227.095 o
8 12 2 6.199 6.353 0.360 189.477 o
8 12 3 44.508 46.300 0.920 19.849 o
8 12 4 0.942 0.950 0.340 292.099 o
8 12 5 16.618 17.338 0.450 85.800 o
8 12 6 4.078 3.882 0.390 191.307 o
8 12 7 2.461 2.561 0.400 198.559 o
8 13 0 9.843 9.714 0.440 120.461 o
8 13 1 22.382 20.879 0.570 56.248 o
8 13 2 8.102 7.353 0.460 123.578 o
8 13 3 7.958 7.813 0.460 123.272 o
8 13 4 4.253 3.692 0.370 207.471 o
8 13 5 10.765 10.785 0.390 132.871 o
8 13 6 3.423 3.241 0.400 189.893 o
8 14 0 12.006 10.184 0.590 75.615 o
8 14 1 6.552 5.572 0.450 137.070 o
8 14 3 12.204 11.605 0.630 67.428 o
8 14 4 7.621 7.813 0.420 141.723 o
8 14 5 1.166 1.070 0.360 259.293 o
8 14 6 7.816 6.833 0.910 39.844 o
8 15 0 13.242 10.835 0.630 66.603 o
8 15 1 5.498 4.262 0.480 129.589 o
8 16 0 12.075 9.474 0.630 68.950 o
8 16 2 3.218 1.851 0.470 147.098 o
8 16 3 3.351 2.161 0.760 59.663 o
9 -16 -1 2.015 2.071 0.720 67.211 o
9 -15 -3 9.566 9.604 0.490 105.156 o
9 -15 -2 7.182 7.213 0.840 46.310 o
9 -15 -1 6.395 6.343 0.490 119.200 o
9 -14 -4 5.103 5.292 0.480 129.185 o
9 -14 -3 3.587 3.482 0.400 188.039 o
9 -14 -2 7.595 7.523 0.390 157.690 o
9 -14 -1 13.846 13.656 0.510 84.753 o
9 -13 -5 2.932 3.181 0.490 135.163 o
9 -13 -4 46.126 50.382 0.790 21.444 o
9 -13 -3 2.062 1.781 0.360 246.415 o
9 -13 -2 5.497 5.422 0.360 198.685 o
9 -13 -1 12.505 12.115 0.420 112.872 o
9 -12 -6 22.387 22.680 0.730 41.816 o
9 -12 -5 7.286 6.793 0.480 119.548 o
9 -12 -3 2.579 2.311 0.350 250.444 o
9 -12 -2 29.370 30.093 0.650 39.201 o
9 -12 -1 49.285 50.172 0.760 21.076 o
9 -11 -6 7.146 7.283 0.480 119.214 o
9 -11 -5 16.366 17.067 0.420 92.579 o
9 -11 -4 11.212 10.845 0.380 134.426 o
9 -11 -3 12.502 12.415 0.340 138.662 o
9 -11 -2 1.186 1.090 0.350 272.924 o
9 -11 -1 59.610 60.947 0.790 16.482 o
9 -10 -7 11.602 11.275 0.650 65.229 o
9 -10 -6 2.404 2.331 0.470 149.275 o
9 -10 -5 12.024 12.055 0.360 134.849 o
9 -10 -4 4.690 3.852 0.330 241.499 o
9 -10 -3 30.213 30.143 0.390 54.312 o
9 -10 -2 72.416 75.543 0.570 14.221 o
9 -10 -1 3.800 3.522 0.240 397.523 o
9 -9 -7 3.007 2.721 0.490 135.667 o
9 -9 -6 20.327 20.269 0.380 84.287 o
9 -9 -5 9.033 8.824 0.290 202.181 o
9 -9 -4 26.835 27.862 0.370 62.954 o
9 -9 -3 13.369 13.126 0.310 142.402 o
9 -9 -1 38.860 39.387 0.400 38.914 o
9 -8 -8 15.507 15.997 0.580 67.593 o
9 -8 -7 12.106 12.656 0.520 87.449 o
9 -8 -6 7.675 7.603 0.320 200.479 o
9 -8 -5 2.998 2.641 0.230 462.867 o
9 -8 -4 5.082 5.022 0.280 286.897 o
9 -8 -3 85.923 86.878 0.610 10.919 o
9 -8 -2 19.473 19.639 0.320 97.395 o
9 -8 -1 66.332 66.979 0.480 17.225 o
9 -7 -8 7.954 7.903 0.620 77.379 o
9 -7 -7 0.526 0.780 0.320 335.544 o
9 -7 -6 5.302 5.012 0.280 283.372 o
9 -7 -5 98.474 102.495 0.730 8.316 o
9 -7 -4 26.284 25.871 0.390 64.014 o
9 -7 -3 19.668 19.789 0.300 99.788 o
9 -7 -2 11.756 11.335 0.220 200.582 o
9 -7 -1 94.626 95.042 0.500 9.706 o
9 -6 -8 2.732 2.831 0.500 131.450 o
9 -6 -7 28.638 29.373 0.430 54.372 o
9 -6 -6 3.258 3.071 0.240 420.974 o
9 -6 -5 12.667 12.405 0.270 164.726 o
9 -6 -4 68.339 68.180 0.550 16.024 o
9 -6 -3 50.050 49.952 0.450 26.678 o
9 -6 -2 97.867 98.543 0.460 9.252 o
9 -6 -1 71.427 71.511 0.460 15.553 o
9 -5 -9 2.898 3.081 0.650 80.308 o
9 -5 -8 18.737 18.198 0.590 60.334 o
9 -5 -7 26.791 27.352 0.450 56.903 o
9 -5 -6 44.426 45.530 0.470 30.584 o
9 -5 -5 6.074 6.203 0.230 322.181 o
9 -5 -4 39.336 39.237 0.390 38.893 o
9 -5 -3 60.255 61.077 0.460 20.084 o
9 -5 -2 44.524 44.469 0.430 31.829 o
9 -5 -1 51.378 50.382 0.490 25.236 o
9 -4 -9 8.220 7.903 0.530 98.916 o
9 -4 -8 9.078 9.144 0.400 140.739 o
9 -4 -7 7.140 6.893 0.330 201.326 o
9 -4 -6 32.327 32.654 0.400 49.258 o
9 -4 -5 12.987 12.656 0.260 165.265 o
9 -4 -4 3.997 4.042 0.220 426.384 o
9 -4 -3 143.216 142.573 0.660 4.647 o
9 -4 -2 142.587 141.292 0.740 4.628 o
9 -4 -1 6.428 6.693 0.210 334.690 o
9 -3 -9 1.662 1.881 0.650 82.374 o
9 -3 -8 8.649 8.424 0.400 144.644 o
9 -3 -7 3.411 2.981 0.290 319.343 o
9 -3 -6 5.532 4.922 0.300 257.146 o
9 -3 -5 138.877 138.981 0.780 4.775 o
9 -3 -4 50.461 50.502 0.440 26.510 o
9 -3 -3 5.792 5.652 0.190 396.860 o
9 -3 -2 99.411 95.962 0.460 9.225 o
9 -3 -1 25.273 24.431 0.250 80.738 o
9 -2 -9 2.705 2.641 0.540 114.389 o
9 -2 -8 8.549 8.284 0.410 140.885 o
9 -2 -7 25.285 25.781 0.460 59.444 o
9 -2 -6 4.560 4.232 0.380 194.595 o
9 -2 -5 29.237 28.332 0.410 55.673 o
9 -2 -4 67.133 65.309 0.530 16.828 o
9 -2 -3 4.031 3.922 0.170 556.015 o
9 -2 -2 218.734 218.096 0.650 2.169 o
9 -2 -1 392.817 396.244 0.920 0.706 o
9 -1 -9 5.684 5.662 0.520 110.998 o
9 -1 -8 14.156 13.896 0.410 106.707 o
9 -1 -7 53.535 53.143 0.670 20.828 o
9 -1 -6 4.413 4.472 0.310 263.749 o
9 -1 -5 77.188 75.863 0.680 12.656 o
9 -1 -4 52.672 53.013 0.540 23.281 o
9 -1 -3 149.707 149.055 0.530 4.381 o
9 -1 -2 3.961 3.722 0.130 697.748 o
9 -1 -1 84.379 83.287 0.450 12.020 o
9 0 0 430.049 428.388 1.040 0.596 o
9 0 1 31.775 30.814 0.260 58.846 o
9 0 2 299.259 300.662 0.920 1.184 o
9 0 3 142.106 142.983 0.500 4.797 o
9 0 4 76.949 77.014 0.410 14.051 o
9 0 5 11.121 10.595 0.240 201.233 o
9 0 6 7.231 6.643 0.310 217.212 o
9 0 7 72.532 71.842 0.730 13.435 o
9 0 8 3.320 3.291 0.340 248.870 o
9 0 9 87.037 91.480 1.030 8.729 o
9 1 0 178.698 180.559 0.670 3.106 o
9 1 1 148.131 149.186 0.570 4.410 o
9 1 2 233.648 234.473 0.810 1.888 o
9 1 3 6.387 7.213 0.160 396.596 o
9 1 4 42.948 42.669 0.300 36.751 o
9 1 5 208.577 206.911 0.930 2.307 o
9 1 6 123.805 123.694 0.790 5.778 o
9 1 7 6.589 6.373 0.340 201.009 o
9 1 8 2.390 2.131 0.310 311.354 o
9 1 9 0.795 0.910 0.310 350.153 o
9 1 10 23.218 23.420 0.640 47.689 o
9 2 0 58.495 57.255 0.480 21.123 o
9 2 1 0.465 0.730 0.150 1338.420 o
9 2 2 124.947 122.644 0.740 5.818 o
9 2 3 68.210 68.150 0.450 16.808 o
9 2 4 286.880 288.617 0.760 1.292 o
9 2 5 2.761 2.781 0.170 682.915 o
9 2 6 3.177 2.951 0.240 425.490 o
9 2 7 17.931 17.618 0.380 94.944 o
9 2 8 76.620 79.065 0.730 12.193 o
9 2 10 6.073 5.763 0.610 83.843 o
9 3 0 318.506 322.092 0.940 1.048 o
9 3 1 136.845 136.690 0.500 5.153 o
9 3 2 56.715 56.335 0.460 22.195 o
9 3 3 0.609 0.540 0.150 1325.440 o
9 3 4 183.753 185.401 0.660 2.959 o
9 3 5 58.582 58.986 0.430 21.350 o
9 3 6 14.305 13.946 0.330 128.549 o
9 3 7 76.483 77.654 0.660 12.746 o
9 3 9 26.833 26.172 0.490 54.423 o
9 4 0 101.656 100.634 0.500 8.676 o
9 4 1 14.137 13.426 0.220 167.531 o
9 4 2 92.205 94.612 0.580 9.778 o
9 4 3 185.763 186.272 0.710 2.896 o
9 4 4 23.519 23.620 0.280 83.830 o
9 4 5 3.778 3.381 0.230 422.305 o
9 4 6 7.175 6.863 0.290 233.514 o
9 4 7 66.888 66.969 0.590 16.177 o
9 4 8 18.193 17.528 0.390 92.411 o
9 4 9 55.242 58.516 0.750 18.346 o
9 5 0 140.955 141.692 0.630 4.775 o
9 5 1 106.862 108.057 0.560 7.767 o
9 5 2 0.725 0.840 0.160 1135.340 o
9 5 3 102.553 102.585 0.630 8.213 o
9 5 4 64.555 64.829 0.450 18.259 o
9 5 5 109.384 111.009 0.710 7.169 o
9 5 6 51.572 51.032 0.550 23.962 o
9 5 7 1.421 1.090 0.270 430.521 o
9 5 8 2.316 2.041 0.320 297.024 o
9 5 9 1.817 1.781 0.310 323.947 o
9 5 10 4.939 4.122 0.520 114.899 o
9 6 0 24.393 24.241 0.320 76.425 o
9 6 1 5.154 5.042 0.170 470.211 o
9 6 2 222.977 223.358 0.770 2.067 o
9 6 3 15.917 15.697 0.280 129.724 o
9 6 4 40.088 40.078 0.380 38.184 o
9 6 5 39.635 39.457 0.470 35.889 o
9 6 6 8.492 7.984 0.320 191.460 o
9 6 7 9.366 8.854 0.320 180.503 o
9 6 8 30.987 32.214 0.480 46.569 o
9 6 9 3.990 3.412 0.430 164.530 o
9 7 0 93.959 93.701 0.530 9.778 o
9 7 1 31.412 31.464 0.330 55.180 o
9 7 2 66.007 65.719 0.510 17.232 o
9 7 3 9.146 8.454 0.230 246.221 o
9 7 4 140.296 140.012 0.740 4.739 o
9 7 5 24.653 23.550 0.470 61.193 o
9 7 6 4.296 4.272 0.330 243.583 o
9 7 7 5.215 5.242 0.320 238.011 o
9 7 9 3.532 2.871 0.440 161.653 o
9 8 0 17.637 17.128 0.310 111.036 o
9 8 1 144.501 147.665 0.650 4.513 o
9 8 2 5.243 5.092 0.210 388.806 o
9 8 3 80.945 82.066 0.500 12.472 o
9 8 4 29.611 29.223 0.390 55.854 o
9 8 5 7.748 7.283 0.350 180.946 o
9 8 6 11.295 11.195 0.420 119.080 o
9 8 7 25.881 25.931 0.500 55.006 o
9 8 8 8.981 8.634 0.340 172.847 o
9 8 9 1.644 1.661 0.350 264.373 o
9 9 0 57.412 58.396 0.530 20.688 o
9 9 1 73.693 75.123 0.490 14.492 o
9 9 2 31.988 31.754 0.390 50.805 o
9 9 3 20.749 19.849 0.310 94.331 o
9 9 4 12.570 12.015 0.310 150.772 o
9 9 5 46.806 48.031 0.620 25.228 o
9 9 6 48.778 50.342 0.780 20.830 o
9 9 7 1.998 1.931 0.300 337.869 o
9 9 8 2.297 1.921 0.420 184.852 o
9 10 0 12.747 12.405 0.320 144.648 o
9 10 1 20.710 20.759 0.380 82.649 o
9 10 2 86.793 89.249 0.690 10.333 o
9 10 3 23.180 23.100 0.420 69.402 o
9 10 4 29.119 30.283 0.470 50.419 o
9 10 5 10.875 10.685 0.330 157.695 o
9 10 6 23.410 23.951 0.450 64.934 o
9 10 7 3.344 3.271 0.350 237.391 o
9 10 8 12.124 11.825 0.520 88.309 o
9 11 0 74.482 76.293 0.820 12.141 o
9 11 1 59.221 60.246 0.590 19.085 o
9 11 2 11.894 11.775 0.330 147.811 o
9 11 3 15.595 15.757 0.390 103.488 o
9 11 4 26.357 26.802 0.540 50.672 o
9 11 5 6.499 6.603 0.340 200.791 o
9 11 6 13.737 14.016 0.380 116.211 o
9 11 7 17.007 17.268 0.710 49.617 o
9 12 0 17.801 17.678 0.470 79.214 o
9 12 1 18.422 18.818 0.400 88.139 o
9 12 2 3.993 3.321 0.290 305.897 o
9 12 3 69.403 72.632 0.780 13.524 o
9 12 4 13.450 13.536 0.450 99.375 o
9 12 5 11.909 12.045 0.450 106.294 o
9 12 6 0.854 0.920 0.320 328.858 o
9 12 7 15.617 16.527 0.570 68.514 o
9 13 0 22.234 22.680 0.570 55.329 o
9 13 1 17.288 17.117 0.530 71.321 o
9 13 2 17.826 18.118 0.550 66.775 o
9 13 3 20.717 21.079 0.580 57.150 o
9 13 4 5.590 5.703 0.350 204.756 o
9 13 5 29.183 30.113 0.570 44.027 o
9 13 6 5.435 4.792 0.480 128.910 o
9 14 1 3.607 3.231 0.400 188.721 o
9 14 2 35.606 36.926 0.880 24.854 o
9 14 3 11.046 11.785 0.620 70.472 o
9 14 4 5.085 5.092 0.450 144.053 o
9 14 5 8.737 8.264 0.390 149.344 o
9 15 0 2.033 1.411 0.430 179.868 o
9 15 1 27.626 30.133 0.810 32.060 o
9 15 2 2.700 2.431 0.460 153.846 o
9 15 4 2.458 1.991 0.480 144.025 o
9 16 0 2.401 1.881 0.490 139.006 o
10 -15 -2 3.445 3.442 0.560 104.640 o
10 -15 -1 12.200 12.896 0.520 86.989 o
10 -14 -4 3.297 3.321 0.580 98.499 o
10 -14 -3 8.480 8.744 0.480 112.769 o
10 -14 -2 17.381 18.438 0.480 77.675 o
10 -14 -1 14.513 14.777 0.540 76.650 o
10 -13 -5 20.003 20.729 0.720 45.000 o
10 -13 -4 3.055 3.131 0.470 145.299 o
10 -13 -3 2.914 2.651 0.450 158.640 o
10 -13 -2 9.620 9.364 0.470 111.612 o
10 -13 -1 24.711 25.921 0.530 53.959 o
10 -12 -5 14.749 15.067 0.540 75.964 o
10 -12 -4 5.198 5.172 0.460 138.401 o
10 -12 -3 30.117 31.164 0.560 43.289 o
10 -12 -2 16.326 16.337 0.450 87.770 o
10 -12 -1 9.813 9.764 0.450 116.994 o
10 -11 -6 9.495 9.924 0.910 38.653 o
10 -11 -5 2.593 2.791 0.380 215.269 o
10 -11 -4 21.048 21.489 0.510 64.181 o
10 -11 -3 0.937 0.860 0.280 419.815 o
10 -11 -2 10.290 10.775 0.560 84.122 o
10 -11 -1 41.244 42.209 0.590 30.132 o
10 -10 -4 21.145 21.039 0.450 71.779 o
10 -10 -3 41.233 42.979 0.500 32.584 o
10 -10 -2 27.119 26.972 0.390 61.596 o
10 -10 -1 8.639 7.943 0.330 184.033 o
10 -9 -7 4.752 4.342 0.510 119.021 o
10 -9 -6 13.515 13.726 0.350 126.785 o
10 -9 -5 27.769 29.303 0.420 56.384 o
10 -9 -4 8.543 8.414 0.290 209.298 o
10 -9 -3 7.398 7.133 0.280 237.845 o
10 -9 -2 4.388 3.982 0.220 414.250 o
10 -9 -1 41.488 41.798 0.440 34.581 o
10 -8 -7 8.012 7.533 0.500 109.179 o
10 -8 -6 4.488 4.192 0.300 277.054 o
10 -8 -5 1.366 1.371 0.270 428.017 o
10 -8 -4 12.043 12.115 0.300 158.004 o
10 -8 -3 27.699 27.522 0.430 57.039 o
10 -8 -2 20.247 20.289 0.310 95.272 o
10 -8 -1 19.936 19.829 0.280 101.993 o
10 -7 -8 2.295 2.261 0.520 124.223 o
10 -7 -7 5.560 5.222 0.460 136.906 o
10 -7 -6 10.662 10.515 0.340 155.064 o
10 -7 -5 1.601 1.521 0.270 419.103 o
10 -7 -4 14.507 14.106 0.310 133.169 o
10 -7 -3 16.268 15.937 0.330 114.829 o
10 -7 -2 32.202 32.204 0.400 49.693 o
10 -7 -1 55.558 55.414 0.420 23.351 o
10 -6 -8 7.856 7.463 0.520 103.286 o
10 -6 -7 7.210 7.273 0.340 191.879 o
10 -6 -6 1.137 1.221 0.280 409.661 o
10 -6 -5 2.632 2.341 0.240 454.304 o
10 -6 -4 14.882 15.127 0.350 117.429 o
10 -6 -3 33.433 32.354 0.400 48.099 o
10 -6 -2 62.958 62.157 0.610 17.556 o
10 -6 -1 15.453 14.977 0.300 128.729 o
10 -5 -7 3.011 2.751 0.330 268.200 o
10 -5 -6 2.982 2.751 0.280 347.718 o
10 -5 -5 40.739 41.548 0.440 35.228 o
10 -5 -4 44.686 44.459 0.470 30.751 o
10 -5 -3 21.306 20.989 0.440 72.800 o
10 -5 -2 21.343 21.610 0.350 84.079 o
10 -5 -1 6.806 7.553 0.270 252.143 o
10 -4 -8 2.714 2.391 0.460 153.869 o
10 -4 -7 5.472 5.262 0.300 255.678 o
10 -4 -6 4.361 4.082 0.260 338.759 o
10 -4 -5 26.841 25.541 0.360 65.925 o
10 -4 -4 34.148 34.035 0.400 46.295 o
10 -4 -3 40.361 40.168 0.400 37.298 o
10 -4 -2 140.853 139.841 0.660 4.791 o
10 -4 -1 10.573 10.665 0.250 201.214 o
10 -3 -9 6.157 6.153 0.560 96.521 o
10 -3 -8 1.357 1.131 0.360 256.980 o
10 -3 -7 18.235 17.838 0.440 83.037 o
10 -3 -6 49.658 50.532 0.530 25.259 o
10 -3 -5 35.570 35.135 0.400 44.142 o
10 -3 -4 28.187 27.652 0.370 60.788 o
10 -3 -3 12.246 11.565 0.230 189.475 o
10 -3 -2 22.734 23.010 0.270 88.218 o
10 -3 -1 214.890 214.284 0.770 2.217 o
10 -2 -9 3.467 3.081 0.470 143.844 o
10 -2 -8 5.816 5.442 0.420 156.212 o
10 -2 -7 25.493 26.342 0.440 60.485 o
10 -2 -6 3.189 3.001 0.250 401.123 o
10 -2 -5 6.635 5.983 0.290 245.866 o
10 -2 -4 130.652 129.407 0.680 5.440 o
10 -2 -3 135.513 135.900 0.610 5.140 o
10 -2 -2 136.792 136.940 0.560 5.103 o
10 -2 -1 9.214 10.014 0.200 255.599 o
10 -1 -9 7.510 8.064 0.620 77.887 o
10 -1 -8 3.927 3.702 0.360 219.463 o
10 -1 -7 20.179 20.099 0.430 77.499 o
10 -1 -6 44.137 44.720 0.550 28.971 o
10 -1 -5 100.500 101.194 0.710 8.251 o
10 -1 -4 31.751 31.244 0.370 52.591 o
10 -1 -3 13.164 12.696 0.210 183.319 o
10 -1 -2 115.117 114.010 0.450 7.078 o
10 -1 -1 127.287 126.956 0.470 5.889 o
10 0 0 137.810 139.541 0.540 5.019 o
10 0 1 461.699 467.305 1.090 0.515 o
10 0 3 136.699 134.549 0.550 5.168 o
10 0 4 58.907 59.796 0.400 21.397 o
10 0 5 29.561 29.063 0.350 58.756 o
10 0 6 57.953 56.705 0.620 19.618 o
10 0 7 58.725 58.796 0.680 18.319 o
10 0 8 22.855 22.090 0.510 60.967 o
10 0 9 10.162 9.134 0.500 101.256 o
10 1 0 158.067 157.869 0.550 3.956 o
10 1 1 74.440 73.112 0.410 14.982 o
10 1 2 75.241 76.834 0.430 14.319 o
10 1 3 157.580 156.559 0.520 4.005 o
10 1 4 125.041 125.305 0.510 6.021 o
10 1 5 156.645 156.449 0.780 3.888 o
10 1 6 5.899 5.773 0.310 236.864 o
10 1 7 38.808 38.487 0.580 32.995 o
10 1 8 7.818 7.003 0.340 188.011 o
10 1 9 17.812 18.028 0.570 64.194 o
10 1 10 14.363 14.906 0.700 53.957 o
10 2 0 12.807 12.415 0.210 188.260 o
10 2 1 93.991 92.381 0.490 9.961 o
10 2 2 353.066 350.014 1.090 0.867 o
10 2 3 107.016 107.237 0.540 7.825 o
10 2 4 6.328 6.203 0.160 416.787 o
10 2 5 37.478 36.946 0.360 42.803 o
10 2 6 30.049 29.303 0.490 48.598 o
10 2 7 42.559 42.659 0.610 28.733 o
10 2 8 7.053 7.003 0.350 187.343 o
10 2 9 10.413 10.335 0.380 139.656 o
10 2 10 2.947 2.501 0.590 96.691 o
10 3 0 205.368 207.931 0.870 2.360 o
10 3 1 8.368 8.174 0.270 227.462 o
10 3 2 1.540 1.401 0.170 874.298 o
10 3 3 52.413 53.423 0.400 25.473 o
10 3 4 33.439 33.125 0.350 50.125 o
10 3 5 120.227 121.003 0.690 6.192 o
10 3 6 47.615 47.321 0.600 25.467 o
10 3 7 1.029 0.890 0.290 391.078 o
10 3 8 35.457 35.085 0.540 38.115 o
10 3 9 4.593 4.242 0.350 220.379 o
10 3 10 4.873 4.472 0.610 86.574 o
10 4 0 126.251 126.736 0.610 5.807 o
10 4 1 51.237 51.543 0.410 26.357 o
10 4 2 66.258 64.979 0.550 16.919 o
10 4 3 107.740 106.967 0.690 7.479 o
10 4 4 12.683 12.205 0.240 177.885 o
10 4 5 0.982 0.770 0.210 699.837 o
10 4 6 31.817 31.864 0.470 46.432 o
10 4 7 19.599 19.509 0.380 87.284 o
10 4 8 21.060 21.369 0.460 70.348 o
10 4 9 17.484 17.988 0.450 82.939 o
10 4 10 2.943 2.811 0.480 140.882 o
10 5 0 166.698 166.003 0.930 3.409 o
10 5 1 25.843 24.861 0.310 73.231 o
10 5 2 11.942 12.165 0.270 171.457 o
10 5 3 2.301 2.531 0.200 598.199 o
10 5 4 125.214 125.345 0.600 5.911 o
10 5 5 31.184 31.884 0.400 51.194 o
10 5 7 45.761 46.430 0.530 28.144 o
10 5 8 1.391 1.441 0.320 315.898 o
10 5 9 13.572 13.736 0.470 93.984 o
10 5 10 3.016 2.991 0.800 54.028 o
10 6 0 14.490 13.856 0.310 133.941 o
10 6 1 60.789 62.227 0.440 19.916 o
10 6 2 77.972 77.924 0.510 13.293 o
10 6 3 49.400 47.881 0.440 27.733 o
10 6 4 30.635 30.163 0.350 56.182 o
10 6 5 3.148 3.081 0.260 379.554 o
10 6 6 19.080 18.578 0.410 85.026 o
10 6 7 21.498 22.270 0.450 69.912 o
10 6 8 6.405 6.153 0.340 203.603 o
10 6 9 8.420 8.094 0.360 167.371 o
10 7 0 11.463 11.225 0.280 174.694 o
10 7 1 60.487 60.197 0.420 20.558 o
10 7 2 21.530 21.039 0.290 92.691 o
10 7 3 56.568 56.605 0.420 22.693 o
10 7 4 5.827 5.542 0.230 335.295 o
10 7 5 54.752 54.784 0.580 21.544 o
10 7 6 31.381 32.314 0.500 44.964 o
10 7 7 1.058 1.050 0.290 388.512 o
10 7 8 0.676 0.850 0.300 375.419 o
10 8 0 23.065 23.120 0.360 76.534 o
10 8 1 55.779 54.734 0.440 23.142 o
10 8 2 28.175 27.622 0.340 63.106 o
10 8 3 71.481 71.191 0.450 15.639 o
10 8 4 2.546 2.261 0.220 519.764 o
10 8 6 4.917 4.872 0.360 205.743 o
10 8 7 23.799 24.781 0.490 59.608 o
10 8 8 9.180 8.734 0.500 104.374 o
10 8 9 1.267 1.391 0.360 256.562 o
10 9 0 56.983 57.855 0.460 21.806 o
10 9 1 26.888 26.282 0.340 66.827 o
10 9 2 1.402 1.261 0.200 704.680 o
10 9 3 5.981 5.642 0.220 344.815 o
10 9 4 39.397 39.707 0.430 37.318 o
10 9 5 23.228 23.840 0.420 68.594 o
10 9 6 21.038 21.640 0.520 62.925 o
10 9 7 3.108 2.991 0.320 278.824 o
10 9 8 2.114 1.801 0.430 178.407 o
10 10 0 10.570 10.064 0.290 182.129 o
10 10 1 30.221 30.834 0.370 55.063 o
10 10 2 32.675 33.335 0.420 47.375 o
10 10 3 27.174 27.682 0.410 59.299 o
10 10 4 12.923 12.205 0.300 151.735 o
10 10 5 11.559 11.215 0.340 147.435 o
10 10 6 14.917 14.757 0.470 89.258 o
10 10 7 3.418 2.911 0.360 227.757 o
10 10 8 11.220 10.615 0.510 94.113 o
10 11 0 51.283 52.163 0.590 23.148 o
10 11 1 13.840 13.646 0.310 138.152 o
10 11 2 6.751 5.993 0.290 244.297 o
10 11 3 9.410 9.144 0.310 184.783 o
10 11 4 18.150 17.688 0.420 86.887 o
10 11 5 28.958 29.503 0.520 47.736 o
10 11 6 9.813 9.924 0.640 69.819 o
10 11 7 3.391 2.991 0.420 175.641 o
10 12 0 9.174 8.824 0.350 165.359 o
10 12 1 12.459 13.136 0.340 136.947 o
10 12 2 80.637 83.997 0.770 11.061 o
10 12 3 8.098 7.723 0.390 154.301 o
10 12 4 6.851 6.193 0.390 165.930 o
10 12 6 16.173 17.408 0.570 67.022 o
10 12 7 9.403 9.734 0.880 41.098 o
10 13 0 13.624 12.896 0.490 90.376 o
10 13 1 8.946 8.184 0.320 186.721 o
10 13 2 1.298 1.020 0.330 303.197 o
10 13 3 7.216 6.843 0.360 180.061 o
10 13 4 65.652 70.561 0.790 14.288 o
10 13 5 7.196 6.973 0.370 173.410 o
10 13 6 2.469 2.481 0.430 174.744 o
10 14 0 24.428 22.780 0.630 47.665 o
10 14 1 12.346 12.165 0.730 53.396 o
10 14 2 17.898 18.788 0.700 49.196 o
10 14 3 4.030 3.902 0.450 151.047 o
10 14 4 6.289 5.983 0.490 120.078 o
10 14 5 1.959 1.601 0.490 140.906 o
10 15 0 8.907 7.984 0.500 106.117 o
10 15 1 10.107 9.524 0.510 98.112 o
10 15 2 6.124 6.513 0.580 90.700 o
10 15 3 2.437 1.801 0.450 162.642 o
11 -15 -1 4.806 5.002 0.630 81.439 o
11 -14 -3 8.220 8.174 0.610 78.892 o
11 -14 -2 7.434 7.163 0.490 114.819 o
11 -13 -3 12.387 12.726 0.650 63.487 o
11 -13 -2 14.839 15.157 0.450 93.194 o
11 -13 -1 0.795 0.990 0.410 205.642 o
11 -12 -5 6.511 6.353 0.620 80.481 o
11 -12 -3 9.558 10.455 0.630 71.570 o
11 -12 -2 10.784 9.714 0.400 131.407 o
11 -12 -1 18.928 19.228 0.540 65.552 o
11 -11 -6 4.252 4.102 0.640 80.409 o
11 -11 -5 22.020 23.020 0.600 52.544 o
11 -11 -4 7.385 7.663 0.420 143.169 o
11 -11 -3 6.121 5.733 0.400 165.560 o
11 -11 -2 8.812 9.144 0.540 93.483 o
11 -11 -1 22.068 22.280 0.470 66.492 o
11 -10 -5 6.865 7.183 0.450 132.642 o
11 -10 -4 34.677 36.736 0.550 37.645 o
11 -10 -3 7.319 7.023 0.350 185.197 o
11 -10 -2 3.889 3.492 0.270 338.481 o
11 -10 -1 26.590 26.522 0.500 53.706 o
11 -9 -7 15.437 15.107 0.700 52.913 o
11 -9 -6 8.122 7.994 0.420 139.017 o
11 -9 -5 1.341 1.181 0.380 232.341 o
11 -9 -4 12.771 12.486 0.350 133.508 o
11 -9 -3 29.037 29.333 0.550 45.793 o
11 -9 -2 138.915 146.544 0.990 4.419 o
11 -9 -1 56.374 57.275 0.520 21.373 o
11 -8 -7 6.839 6.423 0.500 114.030 o
11 -8 -6 0.733 0.940 0.290 397.558 o
11 -8 -5 10.986 10.385 0.320 162.593 o
11 -8 -4 24.990 25.371 0.460 60.209 o
11 -8 -3 40.031 40.368 0.590 31.346 o
11 -8 -2 39.962 40.388 0.500 34.316 o
11 -8 -1 10.652 10.545 0.270 189.980 o
11 -7 -7 2.532 2.631 0.390 206.831 o
11 -7 -6 41.458 44.049 0.500 32.094 o
11 -7 -5 36.134 36.226 0.490 39.238 o
11 -7 -4 1.881 1.801 0.250 461.819 o
11 -7 -3 22.779 22.470 0.420 70.813 o
11 -7 -2 31.561 31.484 0.400 50.965 o
11 -7 -1 40.500 40.338 0.410 36.804 o
11 -6 -8 4.166 4.072 0.540 109.430 o
11 -6 -7 7.874 7.853 0.410 145.172 o
11 -6 -6 1.574 1.561 0.300 349.647 o
11 -6 -5 1.726 1.781 0.290 365.143 o
11 -6 -4 49.670 49.502 0.520 25.677 o
11 -6 -3 82.211 83.617 0.620 11.616 o
11 -6 -2 27.552 26.992 0.460 55.286 o
11 -6 -1 5.186 4.982 0.280 285.510 o
11 -5 -8 4.504 4.202 0.530 112.130 o
11 -5 -7 12.057 11.705 0.370 131.945 o
11 -5 -6 19.228 19.409 0.400 85.192 o
11 -5 -5 34.564 35.386 0.440 43.264 o
11 -5 -4 83.980 84.857 0.750 10.681 o
11 -5 -3 13.984 13.316 0.330 131.791 o
11 -5 -2 37.299 37.186 0.500 37.488 o
11 -5 -1 253.285 252.551 1.221 1.574 o
11 -4 -8 10.790 10.495 0.520 92.752 o
11 -4 -7 2.897 2.881 0.330 268.824 o
11 -4 -6 13.671 13.166 0.350 127.380 o
11 -4 -5 69.382 70.361 0.560 15.462 o
11 -4 -4 35.796 35.806 0.470 40.565 o
11 -4 -3 42.443 42.449 0.480 32.543 o
11 -4 -2 62.328 61.807 0.530 18.606 o
11 -4 -1 50.894 49.572 0.460 26.178 o
11 -3 -8 6.075 5.412 0.490 121.616 o
11 -3 -7 14.202 13.606 0.370 117.999 o
11 -3 -6 16.199 16.207 0.360 107.468 o
11 -3 -5 66.108 67.070 0.530 16.864 o
11 -3 -4 28.689 28.613 0.390 57.715 o
11 -3 -3 42.675 42.269 0.380 35.178 o
11 -3 -2 54.468 54.034 0.450 23.698 o
11 -3 -1 123.601 122.164 0.680 5.985 o
11 -2 -8 1.492 1.311 0.400 209.556 o
11 -2 -7 6.952 6.553 0.350 189.910 o
11 -2 -6 19.621 18.948 0.350 92.982 o
11 -2 -5 3.865 3.512 0.250 375.538 o
11 -2 -4 39.550 39.237 0.470 36.037 o
11 -2 -3 93.568 93.171 0.560 9.766 o
11 -2 -2 4.753 4.872 0.180 470.145 o
11 -2 -1 19.644 19.879 0.250 107.935 o
11 -1 -8 11.973 11.665 0.500 93.521 o
11 -1 -7 11.590 11.415 0.390 127.671 o
11 -1 -6 37.861 38.767 0.520 35.703 o
11 -1 -5 27.271 27.482 0.400 60.106 o
11 -1 -4 61.313 62.077 0.510 19.073 o
11 -1 -3 39.300 38.587 0.330 41.151 o
11 -1 -2 36.747 36.156 0.330 45.129 o
11 -1 -1 95.551 94.472 0.550 9.500 o
11 0 0 1.208 1.561 0.150 1080.130 o
11 0 1 120.984 121.633 0.480 6.399 o
11 0 2 31.536 31.754 0.340 54.222 o
11 0 3 70.991 70.631 0.500 15.495 o
11 0 4 33.181 33.435 0.320 51.710 o
11 0 5 23.786 24.000 0.370 72.771 o
11 0 6 0.807 0.890 0.290 396.388 o
11 0 7 43.221 43.449 0.610 28.197 o
11 0 10 3.443 3.712 0.610 89.234 o
11 1 0 21.001 20.799 0.240 101.992 o
11 1 1 15.540 15.487 0.230 146.073 o
11 1 2 61.283 60.437 0.460 19.851 o
11 1 3 68.145 66.329 0.390 17.479 o
11 1 4 78.116 78.284 0.430 13.612 o
11 1 5 55.723 55.844 0.480 22.413 o
11 1 6 9.534 9.194 0.360 156.748 o
11 1 7 29.631 29.543 0.530 46.364 o
11 1 8 10.268 9.564 0.370 146.730 o
11 1 9 5.838 5.572 0.460 135.176 o
11 2 0 203.313 203.179 0.760 2.451 o
11 2 1 77.673 77.184 0.450 13.709 o
11 2 2 37.291 36.586 0.370 42.809 o
11 2 3 39.477 38.967 0.370 39.537 o
11 2 4 11.164 10.485 0.200 223.362 o
11 2 5 2.484 2.251 0.190 636.645 o
11 2 6 153.074 153.898 1.020 3.845 o
11 2 7 5.294 4.932 0.350 210.758 o
11 2 8 23.276 23.881 0.490 61.065 o
11 2 9 5.956 5.512 0.360 194.643 o
11 2 10 3.237 2.921 0.630 84.840 o
11 3 0 41.554 41.558 0.470 33.734 o
11 3 1 17.176 16.157 0.300 117.396 o
11 3 2 20.972 19.569 0.330 91.009 o
11 3 3 46.475 46.060 0.500 28.553 o
11 3 4 217.586 221.087 0.780 2.141 o
11 3 5 49.203 48.781 0.450 27.412 o
11 3 6 2.234 1.971 0.250 446.797 o
11 3 7 19.470 18.878 0.460 75.967 o
11 3 8 33.832 34.705 0.550 39.108 o
11 3 9 7.859 7.803 0.370 166.327 o
11 3 10 11.113 11.715 0.900 38.424 o
11 4 0 45.883 45.100 0.450 30.307 o
11 4 1 339.066 340.500 1.411 0.909 o
11 4 2 138.766 139.281 0.700 4.850 o
11 4 3 38.585 37.857 0.430 38.778 o
11 4 4 4.206 3.882 0.210 444.372 o
11 4 5 23.927 24.291 0.330 76.441 o
11 4 6 17.619 17.708 0.400 91.960 o
11 4 7 48.047 48.571 0.590 25.216 o
11 4 8 13.636 13.816 0.380 117.025 o
11 4 9 10.993 10.745 0.450 111.337 o
11 5 0 44.524 43.889 0.550 28.986 o
11 5 2 11.598 11.115 0.280 174.038 o
11 5 3 80.155 79.165 0.550 12.612 o
11 5 4 97.109 97.343 0.620 8.993 o
11 5 5 72.932 73.402 0.540 14.522 o
11 5 6 17.781 17.718 0.450 82.558 o
11 5 7 31.475 32.034 0.470 46.711 o
11 5 8 32.420 33.695 0.490 43.783 o
11 5 9 2.210 2.261 0.360 242.531 o
11 6 0 214.805 214.114 1.351 2.063 o
11 6 1 54.688 54.604 0.490 22.924 o
11 6 2 84.692 84.597 0.570 11.408 o
11 6 3 86.442 86.468 0.590 10.957 o
11 6 4 19.226 18.388 0.310 102.265 o
11 6 5 26.731 26.282 0.430 59.453 o
11 6 6 105.145 107.687 0.810 7.368 o
11 6 7 4.456 4.232 0.300 277.230 o
11 6 8 15.063 15.857 0.390 105.153 o
11 6 9 1.740 1.761 0.380 226.505 o
11 7 0 106.584 107.987 0.780 7.325 o
11 7 1 83.542 83.177 0.650 11.319 o
11 7 2 119.549 118.302 0.760 6.200 o
11 7 3 91.131 91.820 0.570 10.097 o
11 7 4 70.587 70.991 0.530 15.341 o
11 7 5 16.175 16.297 0.320 116.873 o
11 7 6 2.168 1.991 0.290 353.478 o
11 7 7 2.507 2.421 0.320 291.422 o
11 7 8 14.013 14.216 0.420 104.087 o
11 7 9 37.740 40.208 0.640 31.035 o
11 8 0 31.915 31.304 0.480 46.062 o
11 8 1 127.305 129.587 0.710 5.563 o
11 8 2 82.997 83.567 0.550 11.816 o
11 8 3 42.444 42.679 0.400 34.669 o
11 8 4 1.945 1.741 0.220 562.034 o
11 8 5 39.003 38.977 0.530 34.458 o
11 8 6 14.997 15.337 0.410 101.503 o
11 8 7 48.875 52.153 0.710 21.828 o
11 9 0 11.444 11.385 0.300 164.930 o
11 9 1 9.085 9.104 0.260 220.535 o
11 9 2 21.824 22.010 0.340 83.576 o
11 9 3 36.595 37.136 0.400 42.076 o
11 9 4 23.600 23.991 0.390 70.993 o
11 9 5 74.641 78.504 0.660 12.981 o
11 9 6 2.203 1.941 0.310 316.044 o
11 9 7 18.448 17.848 0.470 77.656 o
11 9 8 1.329 1.291 0.510 132.872 o
11 10 0 74.343 76.854 0.670 13.107 o
11 10 1 14.073 13.476 0.290 143.901 o
11 10 2 64.394 66.359 0.580 16.945 o
11 10 3 10.495 10.264 0.310 171.508 o
11 10 4 18.082 17.578 0.340 102.276 o
11 10 5 5.388 5.562 0.320 234.229 o
11 10 6 8.015 8.064 0.420 139.345 o
11 10 7 10.044 10.024 0.510 97.656 o
11 10 8 6.431 6.683 0.790 52.344 o
11 11 0 20.996 21.830 0.480 67.564 o
11 11 1 3.291 2.911 0.230 447.127 o
11 11 2 7.232 6.493 0.300 226.350 o
11 11 3 38.397 39.477 0.500 35.771 o
11 11 4 38.459 39.577 0.560 33.571 o
11 11 7 1.834 2.041 0.650 82.094 o
11 12 0 1.551 1.391 0.250 481.136 o
11 12 1 22.068 22.530 0.400 74.648 o
11 12 2 2.077 1.991 0.270 399.590 o
11 12 4 15.116 14.746 0.410 102.076 o
11 12 5 25.881 26.852 0.640 43.830 o
11 12 6 1.788 1.901 0.480 146.544 o
11 13 0 9.557 8.714 0.400 139.460 o
11 13 2 6.037 5.672 0.420 154.517 o
11 13 3 20.801 22.070 0.510 64.114 o
11 13 5 2.657 2.271 0.390 207.234 o
11 14 0 11.767 10.885 0.630 68.442 o
11 14 2 18.114 20.569 1.020 27.769 o
11 14 3 8.560 8.484 0.580 84.737 o
11 14 4 1.442 1.531 0.410 199.733 o
11 15 0 3.657 3.111 0.480 137.871 o
11 15 1 10.131 9.604 0.870 41.643 o
11 15 2 9.170 8.724 0.810 47.934 o
12 -14 -2 1.521 1.791 0.590 99.581 o
12 -14 -1 3.559 3.351 0.600 92.093 o
12 -13 -4 6.429 6.243 0.630 78.474 o
12 -13 -2 9.486 9.294 0.610 76.227 o
12 -13 -1 24.474 26.041 0.760 37.450 o
12 -12 -4 28.964 30.683 0.830 30.432 o
12 -12 -3 2.068 1.591 0.560 109.212 o
12 -12 -2 0.985 1.571 0.470 156.139 o
12 -12 -1 3.350 3.191 0.510 124.534 o
12 -11 -5 16.908 17.087 0.550 69.019 o
12 -11 -4 0.663 1.030 0.440 180.043 o
12 -11 -3 9.333 9.724 0.480 108.733 o
12 -11 -2 50.488 51.963 1.411 11.347 o
12 -11 -1 20.744 20.939 0.560 59.355 o
12 -10 -6 6.422 6.113 0.650 74.411 o
12 -10 -5 15.905 15.737 0.470 85.684 o
12 -10 -3 22.731 23.750 0.470 64.121 o
12 -10 -2 4.425 3.822 0.350 223.967 o
12 -10 -1 34.684 35.746 0.560 37.581 o
12 -9 -6 8.747 8.454 0.440 126.992 o
12 -9 -5 5.413 4.992 0.340 218.191 o
12 -9 -4 13.877 13.676 0.380 116.332 o
12 -9 -3 46.755 47.061 0.660 24.570 o
12 -9 -2 34.518 34.775 0.510 40.365 o
12 -9 -1 3.858 3.552 0.300 291.595 o
12 -8 -7 3.087 3.181 0.650 80.034 o
12 -8 -6 7.779 7.343 0.610 80.152 o
12 -8 -5 11.307 11.565 0.410 121.645 o
12 -8 -4 68.830 71.121 0.700 14.405 o
12 -8 -3 12.331 11.695 0.410 117.360 o
12 -8 -2 3.843 3.472 0.250 376.641 o
12 -8 -1 10.629 10.705 0.300 173.798 o
12 -7 -7 29.566 31.104 0.680 37.100 o
12 -7 -6 1.338 1.641 0.340 282.489 o
12 -7 -5 5.536 5.252 0.350 207.188 o
12 -7 -4 3.078 2.951 0.270 362.598 o
12 -7 -3 34.812 35.125 0.500 40.414 o
12 -7 -2 73.574 73.372 0.590 14.077 o
12 -7 -1 45.975 45.620 0.430 30.546 o
12 -6 -7 12.891 13.316 0.450 101.344 o
12 -6 -6 8.268 8.054 0.420 138.223 o
12 -6 -5 52.651 55.284 0.540 22.842 o
12 -6 -4 5.774 5.482 0.290 260.942 o
12 -6 -3 36.571 35.986 0.500 38.557 o
12 -6 -2 24.239 23.250 0.450 64.115 o
12 -6 -1 68.941 69.080 0.610 15.313 o
12 -5 -8 3.773 3.822 0.910 41.755 o
12 -5 -7 6.586 6.713 0.460 130.229 o
12 -5 -6 20.433 21.139 0.450 73.094 o
12 -5 -5 2.779 2.271 0.270 377.985 o
12 -5 -4 49.705 48.952 0.540 25.403 o
12 -5 -3 33.964 34.285 0.530 40.114 o
12 -5 -2 38.606 38.057 0.530 35.057 o
12 -5 -1 71.773 72.032 0.590 14.564 o
12 -4 -8 2.447 2.471 0.530 119.250 o
12 -4 -7 1.615 1.321 0.390 218.682 o
12 -4 -6 25.515 25.771 0.480 57.333 o
12 -4 -5 24.962 25.621 0.460 60.059 o
12 -4 -4 39.591 39.517 0.510 34.549 o
12 -4 -3 19.624 19.389 0.380 87.380 o
12 -4 -2 6.895 6.563 0.260 268.196 o
12 -4 -1 20.168 19.699 0.310 96.547 o
12 -3 -8 9.062 9.104 0.670 66.118 o
12 -3 -7 16.012 16.207 0.380 103.568 o
12 -3 -6 3.968 3.572 0.290 304.148 o
12 -3 -5 18.474 17.888 0.340 100.331 o
12 -3 -4 1.194 1.291 0.230 572.421 o
12 -3 -3 64.189 64.258 0.520 17.829 o
12 -3 -2 66.897 67.960 0.560 16.310 o
12 -3 -1 89.595 88.719 0.560 10.510 o
12 -2 -8 9.199 8.944 0.480 110.293 o
12 -2 -7 4.472 3.912 0.360 213.685 o
12 -2 -5 71.962 74.093 0.630 14.048 o
12 -2 -4 10.381 10.175 0.290 183.296 o
12 -2 -3 45.166 45.230 0.440 30.939 o
12 -2 -2 37.338 36.146 0.380 42.605 o
12 -2 -1 0.494 0.520 0.170 1094.680 o
12 -1 -8 5.506 5.282 0.470 132.313 o
12 -1 -7 17.097 17.198 0.480 79.571 o
12 -1 -6 19.375 19.218 0.430 80.330 o
12 -1 -5 6.302 5.743 0.350 198.514 o
12 -1 -4 42.613 42.859 0.520 31.179 o
12 -1 -3 20.070 20.129 0.350 89.811 o
12 -1 -2 84.682 84.907 0.580 11.346 o
12 -1 -1 80.512 80.425 0.470 12.812 o
12 0 0 191.029 191.354 0.720 2.752 o
12 0 2 210.538 208.812 0.900 2.277 o
12 0 3 4.695 4.762 0.200 431.798 o
12 0 4 6.585 6.033 0.200 352.560 o
12 0 5 60.027 61.177 0.560 19.055 o
12 0 6 79.785 80.835 0.780 11.328 o
12 0 7 1.224 1.331 0.290 381.402 o
12 0 8 9.354 9.164 0.480 109.503 o
12 0 10 1.888 2.541 0.970 37.542 o
12 1 0 65.021 64.088 0.450 18.231 o
12 1 1 49.916 49.872 0.440 26.944 o
12 1 2 113.620 113.250 0.540 7.088 o
12 1 3 38.062 37.747 0.380 41.099 o
12 1 4 112.114 111.449 0.560 7.231 o
12 1 5 56.671 57.065 0.540 21.040 o
12 1 6 8.244 7.643 0.350 175.963 o
12 1 7 18.799 18.298 0.470 76.457 o
12 1 8 19.080 19.529 0.450 77.597 o
12 1 9 19.296 19.389 0.510 68.774 o
12 1 10 2.996 2.591 0.590 96.537 o
12 2 0 53.202 53.043 0.440 24.610 o
12 2 1 208.044 207.841 0.850 2.329 o
12 2 2 45.891 46.180 0.390 31.294 o
12 2 3 2.505 2.041 0.180 688.021 o
12 2 4 35.361 35.266 0.330 47.267 o
12 2 5 49.687 49.242 0.440 27.225 o
12 2 6 32.358 32.974 0.540 41.571 o
12 2 7 59.563 60.386 0.740 17.159 o
12 2 8 3.897 3.562 0.360 220.361 o
12 2 9 4.072 3.712 0.350 227.916 o
12 3 0 94.657 93.941 0.660 9.297 o
12 3 1 3.783 3.512 0.200 494.452 o
12 3 2 31.117 30.874 0.340 55.504 o
12 3 3 93.446 91.830 0.610 9.701 o
12 3 4 117.642 117.682 0.630 6.536 o
12 3 5 6.886 6.463 0.240 290.888 o
12 3 6 1.887 1.601 0.260 436.366 o
12 3 7 45.344 46.190 0.580 27.233 o
12 3 8 8.269 8.304 0.370 162.156 o
12 3 9 14.376 15.097 0.470 90.181 o
12 4 0 203.857 205.700 0.960 2.370 o
12 4 1 36.882 36.426 0.440 40.548 o
12 4 2 19.354 18.908 0.350 93.885 o
12 4 3 63.586 63.118 0.620 17.168 o
12 4 4 2.393 1.861 0.220 536.510 o
12 4 5 99.559 102.075 0.580 8.628 o
12 4 6 47.821 48.481 0.640 24.284 o
12 4 8 12.452 12.505 0.410 115.350 o
12 4 9 21.434 21.479 0.530 61.330 o
12 5 0 3.844 3.952 0.390 192.687 o
12 5 1 3.383 3.852 0.340 245.048 o
12 5 2 98.133 98.663 0.600 8.880 o
12 5 3 94.094 92.331 0.610 9.601 o
12 5 4 40.831 40.898 0.490 33.854 o
12 5 5 51.473 51.983 0.470 25.165 o
12 5 7 18.681 19.549 0.400 86.453 o
12 5 8 9.042 8.604 0.350 166.992 o
12 5 9 8.929 8.644 0.510 102.151 o
12 6 0 97.607 93.421 1.531 6.106 o
12 6 1 102.014 103.245 0.790 7.825 o
12 6 2 23.735 23.360 0.390 71.367 o
12 6 3 10.244 9.634 0.280 192.594 o
12 6 4 62.517 62.728 0.510 18.616 o
12 6 5 28.307 28.182 0.460 53.467 o
12 6 6 6.830 6.713 0.530 103.541 o
12 6 7 6.970 6.573 0.320 212.164 o
12 6 8 5.263 4.902 0.340 220.088 o
12 6 9 1.994 2.251 0.450 163.617 o
12 7 1 49.050 48.581 0.520 26.184 o
12 7 2 54.111 54.244 0.500 23.080 o
12 7 3 15.725 15.457 0.320 120.841 o
12 7 4 17.816 17.858 0.310 108.791 o
12 7 5 14.136 13.906 0.340 126.454 o
12 7 6 10.283 9.854 0.410 129.479 o
12 7 7 28.048 28.102 0.570 46.053 o
12 7 8 5.726 5.692 0.400 167.976 o
12 8 0 116.901 120.283 0.830 6.175 o
12 8 1 8.591 8.704 0.280 214.329 o
12 8 2 72.040 70.931 0.610 14.480 o
12 8 3 6.696 6.363 0.240 295.384 o
12 8 4 20.519 20.439 0.330 91.067 o
12 8 5 25.324 25.611 0.390 66.009 o
12 8 6 10.299 10.655 0.440 117.099 o
12 8 7 2.522 2.531 0.330 275.923 o
12 8 8 1.678 1.841 0.350 262.966 o
12 9 0 13.795 13.026 0.320 136.835 o
12 9 1 8.536 8.304 0.310 196.210 o
12 9 2 35.937 36.226 0.500 38.983 o
12 9 3 29.878 30.423 0.380 55.235 o
12 9 4 34.949 35.716 0.460 41.825 o
12 9 5 1.825 1.851 0.290 362.249 o
12 9 6 29.416 30.593 0.520 46.675 o
12 9 7 20.121 20.189 0.520 65.470 o
12 9 8 10.992 10.555 0.500 97.312 o
12 10 0 30.565 30.894 0.480 47.753 o
12 10 1 43.161 42.889 0.490 31.662 o
12 10 3 6.939 6.083 0.290 241.295 o
12 10 4 14.814 14.787 0.330 124.008 o
12 10 5 11.056 11.135 0.350 146.465 o
12 10 6 21.709 23.070 0.630 50.140 o
12 10 7 10.551 10.255 0.530 91.082 o
12 11 1 7.813 7.733 0.380 161.240 o
12 11 2 4.481 3.842 0.350 223.337 o
12 11 3 60.069 62.137 0.690 17.414 o
12 11 4 3.672 3.722 0.330 254.069 o
12 11 5 13.473 13.376 0.450 99.538 o
12 11 7 13.733 13.716 0.950 33.755 o
12 12 0 3.345 3.001 0.310 289.453 o
12 12 1 27.706 28.593 0.550 47.512 o
12 12 2 22.290 23.330 0.520 59.844 o
12 12 4 1.674 1.331 0.550 114.123 o
12 12 5 12.150 12.445 0.460 102.205 o
12 12 6 4.383 4.092 0.440 154.838 o
12 13 0 16.084 14.316 0.460 88.947 o
12 13 1 8.880 8.394 0.470 115.501 o
12 13 2 2.193 2.331 0.530 120.039 o
12 13 3 6.521 6.443 0.470 126.680 o
12 13 4 15.988 16.707 0.570 67.820 o
12 13 5 4.092 3.992 0.490 130.113 o
12 14 0 2.844 2.291 0.460 153.541 o
12 14 1 19.714 21.489 1.040 26.381 o
12 14 2 6.189 6.133 0.580 90.920 o
12 14 3 14.489 14.216 0.660 58.981 o
12 14 4 4.843 5.322 0.840 47.855 o
13 -14 -1 6.453 6.463 0.620 80.486 o
13 -13 -3 8.227 8.874 0.620 76.324 o
13 -13 -2 21.410 22.260 0.750 41.201 o
13 -13 -1 7.935 8.364 0.600 81.336 o
13 -12 -4 11.754 11.885 0.640 66.235 o
13 -12 -2 1.522 1.681 0.580 103.005 o
13 -12 -1 25.099 26.682 1.141 21.200 o
13 -11 -4 19.050 20.089 0.580 59.886 o
13 -11 -3 17.715 17.438 0.560 66.097 o
13 -11 -2 11.363 11.175 0.870 40.742 o
13 -11 -1 6.467 6.203 0.550 98.778 o
13 -10 -5 2.649 2.601 0.370 225.725 o
13 -10 -4 6.602 6.633 0.400 160.261 o
13 -10 -3 2.770 2.571 0.320 286.548 o
13 -10 -2 17.618 17.148 0.540 69.273 o
13 -10 -1 13.314 12.125 0.490 92.063 o
13 -9 -5 2.490 2.301 0.410 190.695 o
13 -9 -4 0.739 0.860 0.310 351.671 o
13 -9 -3 30.706 32.604 0.580 41.023 o
13 -9 -2 21.984 21.449 0.400 76.032 o
13 -9 -1 3.284 2.911 0.350 239.850 o
13 -8 -6 2.411 2.181 0.490 138.485 o
13 -8 -5 13.190 13.476 0.410 110.844 o
13 -8 -4 6.601 6.413 0.350 193.292 o
13 -8 -3 1.145 0.940 0.350 274.285 o
13 -8 -2 6.248 5.843 0.280 262.396 o
13 -8 -1 64.451 66.379 0.630 16.459 o
13 -7 -7 2.936 3.031 0.670 75.827 o
13 -7 -6 3.376 3.181 0.600 92.508 o
13 -7 -5 1.956 1.711 0.380 224.914 o
13 -7 -4 18.572 18.368 0.400 88.344 o
13 -7 -3 9.550 8.954 0.350 162.429 o
13 -7 -2 9.956 9.584 0.280 195.602 o
13 -7 -1 11.174 10.555 0.280 179.985 o
13 -6 -7 4.129 4.022 0.490 129.947 o
13 -6 -6 2.803 2.761 0.460 152.750 o
13 -6 -5 13.173 13.566 0.450 100.141 o
13 -6 -4 20.393 20.089 0.440 75.628 o
13 -6 -2 26.927 26.322 0.500 53.406 o
13 -6 -1 4.462 4.032 0.280 306.127 o
13 -5 -7 6.103 5.853 0.480 124.920 o
13 -5 -6 2.708 2.401 0.320 288.656 o
13 -5 -4 1.987 1.881 0.280 380.020 o
13 -5 -3 20.501 20.819 0.460 71.945 o
13 -5 -2 68.172 68.220 0.700 14.818 o
13 -5 -1 12.420 11.935 0.330 144.205 o
13 -4 -7 5.969 5.963 0.420 154.130 o
13 -4 -6 22.452 22.230 0.420 71.715 o
13 -4 -5 23.296 23.300 0.420 68.984 o
13 -4 -4 15.085 14.997 0.380 109.079 o
13 -4 -3 5.191 4.582 0.310 252.834 o
13 -4 -2 14.808 14.476 0.340 121.947 o
13 -4 -1 42.854 43.369 0.440 33.059 o
13 -3 -7 2.973 3.161 0.560 105.861 o
13 -3 -6 18.894 19.319 0.490 72.319 o
13 -3 -5 9.472 9.114 0.290 196.467 o
13 -3 -4 110.943 111.589 0.790 6.878 o
13 -3 -3 20.645 20.849 0.380 82.700 o
13 -3 -2 44.126 43.939 0.490 30.744 o
13 -3 -1 12.668 12.425 0.260 168.736 o
13 -2 -8 4.725 4.152 0.560 101.370 o
13 -2 -7 10.089 9.694 0.490 103.588 o
13 -2 -6 8.424 7.663 0.370 163.192 o
13 -2 -5 27.009 27.312 0.520 51.153 o
13 -2 -4 15.826 14.906 0.420 97.312 o
13 -2 -3 12.193 11.885 0.320 149.628 o
13 -2 -2 24.548 24.741 0.350 72.399 o
13 -2 -1 122.551 122.194 0.610 6.135 o
13 -1 -8 7.009 6.993 0.590 86.237 o
13 -1 -7 29.303 30.423 0.660 38.580 o
13 -1 -5 4.986 4.262 0.340 226.008 o
13 -1 -4 35.698 36.256 0.650 32.978 o
13 -1 -3 91.599 91.480 0.870 8.978 o
13 -1 -2 164.651 164.462 0.860 3.518 o
13 -1 -1 4.975 4.802 0.220 383.339 o
13 0 0 74.332 74.133 0.460 14.631 o
13 0 1 142.060 141.802 0.760 4.620 o
13 0 2 29.732 29.873 0.340 58.473 o
13 0 3 259.233 256.223 1.040 1.545 o
13 0 4 29.251 29.723 0.370 57.375 o
13 0 5 35.388 35.446 0.460 41.539 o
13 0 6 13.879 15.027 0.580 70.743 o
13 0 7 8.944 8.254 0.390 148.267 o
13 0 8 10.359 9.754 0.490 102.769 o
13 0 9 12.951 12.315 0.460 100.068 o
13 1 0 42.589 42.589 0.410 34.327 o
13 1 1 142.957 142.503 0.710 4.617 o
13 1 2 99.498 98.723 0.610 8.719 o
13 1 3 76.319 74.593 0.540 13.744 o
13 1 4 35.607 34.895 0.430 42.916 o
13 1 5 10.831 10.064 0.410 126.694 o
13 1 6 49.400 50.362 0.640 23.296 o
13 1 7 51.312 51.553 0.680 21.656 o
13 1 8 24.830 25.001 0.490 57.958 o
13 1 9 3.266 3.592 0.420 174.669 o
13 2 0 189.747 191.764 0.860 2.724 o
13 2 1 4.487 4.492 0.220 402.855 o
13 2 2 4.456 4.212 0.230 388.468 o
13 2 3 3.167 2.951 0.210 506.742 o
13 2 4 63.207 62.948 0.470 18.759 o
13 2 5 117.189 119.783 0.780 6.260 o
13 2 6 15.446 15.137 0.500 81.717 o
13 2 7 21.764 21.509 0.720 43.407 o
13 2 8 10.627 10.235 0.380 138.826 o
13 2 9 2.166 1.861 0.390 212.432 o
13 3 0 6.633 6.453 0.250 284.284 o
13 3 1 37.178 37.176 0.440 39.941 o
13 3 2 111.855 111.019 0.640 7.127 o
13 3 3 110.707 111.379 0.660 7.159 o
13 3 4 1.082 0.980 0.190 807.519 o
13 3 5 6.706 6.113 0.250 285.999 o
13 3 7 30.415 31.124 0.510 45.978 o
13 3 8 21.186 21.499 0.470 68.746 o
13 3 9 8.921 8.944 0.380 151.310 o
13 4 0 57.784 58.035 0.590 19.858 o
13 4 1 43.837 42.899 0.520 30.437 o
13 4 2 6.558 6.083 0.230 313.032 o
13 4 3 40.947 40.058 0.440 35.634 o
13 4 4 35.145 35.806 0.370 45.530 o
13 4 5 85.897 86.968 0.650 10.752 o
13 4 6 4.063 3.622 0.290 302.093 o
13 4 7 10.890 10.885 0.380 135.900 o
13 4 8 8.704 8.364 0.380 154.177 o
13 4 9 4.725 4.542 0.380 192.261 o
13 5 0 24.558 22.900 0.610 49.094 o
13 5 1 15.047 13.816 0.500 83.984 o
13 5 2 30.765 30.784 0.420 51.253 o
13 5 3 30.896 30.013 0.440 50.340 o
13 5 4 7.903 7.433 0.280 229.679 o
13 5 5 8.938 8.434 0.280 211.995 o
13 5 6 27.784 27.612 0.480 53.035 o
13 5 7 20.486 20.489 0.460 72.296 o
13 5 9 3.896 3.842 0.380 200.999 o
13 6 0 43.457 42.559 0.780 23.866 o
13 6 1 37.048 36.516 0.750 28.546 o
13 6 2 37.004 37.196 0.460 39.300 o
13 6 3 26.608 25.431 0.420 61.190 o
13 6 4 13.991 13.776 0.340 127.471 o
13 6 5 26.151 26.592 0.460 57.554 o
13 6 6 6.887 6.903 0.340 196.147 o
13 6 7 8.522 8.434 0.380 155.016 o
13 6 8 7.561 7.303 0.390 158.515 o
13 7 1 31.178 30.814 0.740 33.293 o
13 7 2 11.200 10.855 0.310 164.065 o
13 7 3 18.215 17.918 0.350 99.268 o
13 7 4 23.154 22.720 0.370 75.620 o
13 7 5 3.489 3.031 0.300 301.754 o
13 7 6 1.966 2.161 0.350 257.961 o
13 7 7 0.819 0.870 0.380 238.169 o
13 7 8 13.349 13.636 0.540 79.848 o
13 8 0 30.517 30.073 0.520 45.809 o
13 8 1 2.886 2.471 0.230 470.397 o
13 8 2 18.547 17.848 0.390 90.912 o
13 8 3 14.322 14.116 0.310 134.146 o
13 8 4 12.246 11.865 0.310 153.373 o
13 8 5 18.360 17.868 0.360 96.965 o
13 8 6 14.863 14.736 0.470 89.418 o
13 8 7 2.384 2.441 0.450 161.456 o
13 8 8 1.802 1.561 0.460 159.337 o
13 9 0 3.754 3.562 0.300 293.163 o
13 9 1 20.448 19.939 0.370 85.913 o
13 9 2 23.114 23.170 0.450 66.131 o
13 9 3 23.879 23.470 0.390 70.954 o
13 9 4 2.761 2.371 0.300 319.857 o
13 9 6 8.108 8.334 0.520 101.606 o
13 9 7 11.127 11.745 0.460 106.327 o
13 10 0 22.259 21.309 0.490 64.692 o
13 10 1 27.205 26.672 0.530 50.542 o
13 10 2 1.571 1.461 0.260 448.627 o
13 10 3 7.158 6.313 0.340 196.349 o
13 10 4 15.257 15.277 0.410 100.766 o
13 10 5 18.496 18.858 0.450 79.618 o
13 10 6 12.900 13.946 0.550 78.490 o
13 10 7 4.272 3.982 0.410 174.883 o
13 11 0 4.723 4.332 0.350 218.735 o
13 11 1 19.056 19.238 0.490 72.090 o
13 11 2 49.102 51.873 0.700 21.987 o
13 11 3 14.368 14.406 0.460 93.265 o
13 11 4 10.091 10.585 0.510 96.858 o
13 11 5 1.435 1.351 0.420 191.506 o
13 11 6 6.990 7.113 0.620 79.278 o
13 12 0 27.585 27.342 0.540 49.008 o
13 12 1 11.954 12.456 0.500 92.613 o
13 12 2 1.132 1.131 0.320 322.559 o
13 12 3 0.707 0.820 0.340 296.077 o
13 12 4 22.346 23.700 0.530 58.486 o
13 12 5 19.540 20.329 0.740 43.881 o
13 13 0 33.239 31.584 0.680 34.606 o
13 13 1 8.167 7.373 0.420 140.225 o
13 13 2 9.389 9.954 0.600 77.876 o
13 13 3 26.658 27.532 0.640 42.901 o
13 14 0 6.250 6.233 0.650 74.544 o
13 14 1 23.637 26.602 1.110 22.394 o
13 14 3 7.474 7.863 0.840 46.012 o
14 -13 -2 5.896 5.683 0.610 84.166 o
14 -13 -1 6.285 6.663 0.610 82.863 o
14 -12 -3 1.672 1.641 0.570 106.273 o
14 -12 -2 13.972 13.696 0.660 59.810 o
14 -11 -4 3.346 3.532 0.580 98.229 o
14 -11 -3 6.068 6.123 0.570 93.877 o
14 -11 -2 8.820 7.643 0.600 80.523 o
14 -10 -5 18.667 19.759 0.570 61.799 o
14 -10 -4 4.476 4.102 0.410 173.349 o
14 -10 -3 8.800 8.944 0.380 151.987 o
14 -10 -2 4.647 4.412 0.430 158.761 o
14 -10 -1 45.218 47.711 0.770 22.591 o
14 -9 -5 3.401 3.472 0.380 206.200 o
14 -9 -4 28.942 29.723 0.570 44.431 o
14 -9 -3 17.344 17.848 0.440 85.192 o
14 -9 -2 4.777 4.412 0.320 248.039 o
14 -9 -1 23.173 23.400 0.500 60.562 o
14 -8 -6 30.413 32.144 0.800 30.717 o
14 -8 -5 1.006 1.100 0.360 260.820 o
14 -8 -4 8.899 8.714 0.380 152.079 o
14 -8 -3 3.845 3.371 0.330 254.099 o
14 -8 -2 62.235 64.948 0.600 17.483 o
14 -8 -1 14.774 14.746 0.420 100.797 o
14 -7 -5 1.410 1.581 0.470 154.497 o
14 -7 -4 9.323 9.044 0.340 168.928 o
14 -7 -3 85.124 88.779 0.710 10.480 o
14 -7 -2 37.822 38.277 0.450 38.520 o
14 -7 -1 6.942 6.663 0.270 256.580 o
14 -6 -6 7.052 6.963 0.480 120.027 o
14 -6 -5 28.853 29.703 0.520 47.741 o
14 -6 -4 8.944 8.324 0.330 180.096 o
14 -6 -3 5.400 4.772 0.320 238.581 o
14 -6 -2 4.551 4.162 0.290 289.455 o
14 -6 -1 120.913 125.105 0.840 5.814 o
14 -5 -6 4.223 4.122 0.610 87.790 o
14 -5 -5 6.614 6.123 0.360 187.183 o
14 -5 -4 76.543 78.575 0.770 11.997 o
14 -5 -3 25.689 26.332 0.520 53.334 o
14 -5 -2 15.534 15.257 0.400 102.212 o
14 -5 -1 13.596 13.176 0.350 127.714 o
14 -4 -7 3.951 3.862 0.570 99.968 o
14 -4 -6 10.525 10.605 0.600 75.665 o
14 -4 -5 4.670 4.362 0.350 219.092 o
14 -4 -4 50.530 52.193 0.680 21.813 o
14 -4 -3 20.700 20.099 0.470 70.935 o
14 -4 -2 64.958 66.149 0.570 16.921 o
14 -4 -1 21.401 20.919 0.350 84.867 o
14 -3 -7 5.102 4.872 0.560 99.895 o
14 -3 -6 6.036 5.412 0.420 155.175 o
14 -3 -5 27.769 27.182 0.490 52.575 o
14 -3 -4 13.531 13.026 0.420 107.682 o
14 -3 -3 37.633 38.667 0.500 36.652 o
14 -3 -2 58.981 59.296 0.530 20.019 o
14 -3 -1 13.081 12.656 0.300 149.244 o
14 -2 -7 6.132 5.272 0.540 103.617 o
14 -2 -6 19.557 18.768 0.490 71.598 o
14 -2 -5 10.111 9.414 0.470 110.012 o
14 -2 -4 8.757 8.634 0.440 126.605 o
14 -2 -3 12.301 11.655 0.370 130.890 o
14 -2 -2 14.701 14.326 0.310 131.538 o
14 -2 -1 121.100 121.443 0.700 6.115 o
14 -1 -6 2.608 2.121 0.390 208.157 o
14 -1 -5 7.014 5.913 0.430 144.029 o
14 -1 -4 55.356 56.295 0.790 18.035 o
14 -1 -3 27.270 27.352 0.480 53.868 o
14 -1 -2 5.775 5.392 0.240 323.974 o
14 -1 -1 13.650 13.536 0.300 142.938 o
14 0 0 82.743 82.386 0.560 11.900 o
14 0 1 28.277 28.102 0.400 58.014 o
14 0 2 15.723 15.697 0.320 120.290 o
14 0 3 5.572 5.332 0.260 301.517 o
14 0 4 35.484 36.086 0.460 41.153 o
14 0 5 17.497 17.168 0.370 99.018 o
14 0 6 7.171 7.063 0.360 179.588 o
14 0 7 29.484 28.753 0.640 40.181 o
14 0 9 5.165 4.492 0.620 83.665 o
14 1 0 40.760 40.128 0.410 36.679 o
14 1 1 86.337 87.599 0.580 10.934 o
14 1 2 75.270 74.853 0.500 14.146 o
14 1 3 59.417 58.996 0.510 20.159 o
14 1 4 14.781 14.126 0.310 131.645 o
14 1 5 24.078 23.370 0.410 68.496 o
14 1 6 16.288 15.807 0.430 92.543 o
14 1 7 6.982 6.793 0.370 175.469 o
14 1 8 15.272 16.147 0.490 82.868 o
14 1 9 3.134 2.641 0.420 178.055 o
14 2 0 25.276 25.261 0.440 61.702 o
14 2 1 82.681 82.376 0.660 11.448 o
14 2 2 35.598 35.145 0.400 44.107 o
14 2 3 87.641 86.078 0.580 10.862 o
14 2 4 15.200 14.646 0.310 128.095 o
14 2 5 20.069 20.399 0.440 75.989 o
14 2 6 3.224 2.831 0.340 252.543 o
14 2 7 4.101 3.662 0.400 184.150 o
14 2 8 25.864 25.651 0.520 53.538 o
14 3 0 22.468 21.980 0.420 71.936 o
14 3 1 60.236 60.316 0.710 17.364 o
14 3 2 63.716 63.898 0.630 16.937 o
14 3 3 85.183 83.957 0.610 11.216 o
14 3 4 15.235 14.356 0.300 131.530 o
14 3 5 9.740 9.304 0.310 181.350 o
14 3 6 74.928 76.204 0.790 12.282 o
14 3 7 23.543 23.720 0.610 49.701 o
14 3 9 1.785 1.841 0.440 172.536 o
14 4 0 104.612 105.306 0.810 7.495 o
14 4 1 13.674 13.476 0.360 123.536 o
14 4 2 4.663 4.412 0.230 379.667 o
14 4 3 8.166 7.943 0.280 223.484 o
14 4 4 151.251 152.727 0.720 4.148 o
14 4 5 18.792 18.748 0.370 92.403 o
14 4 6 2.732 2.761 0.340 258.626 o
14 4 7 18.935 18.418 0.500 71.648 o
14 4 8 4.621 4.502 0.400 178.241 o
14 4 9 10.333 10.535 0.500 99.009 o
14 5 0 14.192 13.536 0.450 97.237 o
14 5 1 109.894 108.848 0.980 6.605 o
14 5 2 64.090 63.768 0.580 17.353 o
14 5 3 31.506 31.484 0.400 51.036 o
14 5 4 9.496 9.094 0.260 215.752 o
14 5 5 12.768 12.205 0.310 148.908 o
14 5 6 20.716 21.289 0.500 66.067 o
14 5 7 7.516 7.723 0.480 117.341 o
14 5 8 38.400 40.248 0.560 33.391 o
14 6 0 30.011 30.523 0.720 34.983 o
14 6 1 42.808 42.849 0.580 29.389 o
14 6 2 22.728 22.840 0.460 65.993 o
14 6 3 25.436 25.331 0.440 61.384 o
14 6 4 31.266 31.284 0.390 52.068 o
14 6 5 53.380 55.304 0.570 22.096 o
14 6 6 1.312 1.341 0.330 300.691 o
14 6 7 19.957 20.239 0.460 73.588 o
14 6 8 41.364 44.319 0.780 24.305 o
14 7 0 20.608 20.869 0.530 62.993 o
14 7 1 17.788 17.588 0.430 86.180 o
14 7 2 51.053 50.922 0.660 22.213 o
14 7 3 86.456 86.998 0.740 10.296 o
14 7 4 17.207 17.208 0.370 99.923 o
14 7 5 13.774 14.216 0.370 118.515 o
14 7 6 31.271 32.334 0.600 39.609 o
14 7 7 18.936 18.658 0.510 70.025 o
14 7 8 0.943 0.950 0.390 225.329 o
14 8 0 37.538 37.276 0.820 25.925 o
14 8 1 8.923 8.184 0.370 158.513 o
14 8 2 4.010 3.762 0.320 261.640 o
14 8 3 53.079 53.784 0.610 21.845 o
14 8 4 15.741 15.357 0.370 108.420 o
14 8 5 20.299 20.179 0.410 80.028 o
14 8 6 27.938 28.833 0.580 45.145 o
14 8 7 24.490 25.521 0.640 45.599 o
14 9 0 4.241 3.782 0.300 283.858 o
14 9 1 69.879 71.892 0.780 13.506 o
14 9 2 27.730 28.032 0.550 47.778 o
14 9 3 1.252 1.221 0.240 531.566 o
14 9 4 3.088 2.771 0.370 221.140 o
14 9 5 13.268 13.106 0.400 114.084 o
14 9 6 4.252 4.492 0.410 173.517 o
14 9 7 14.894 14.436 0.550 74.548 o
14 10 0 0.626 0.720 0.300 377.892 o
14 10 1 8.233 7.583 0.460 122.709 o
14 10 2 2.463 2.201 0.290 345.225 o
14 10 3 12.771 12.906 0.450 102.320 o
14 10 4 32.027 32.814 0.590 39.345 o
14 10 5 18.830 19.319 0.500 71.022 o
14 10 6 11.056 10.765 0.450 111.097 o
14 11 0 21.420 20.909 0.500 65.225 o
14 11 1 9.624 9.234 0.470 111.804 o
14 11 2 8.448 7.933 0.370 162.196 o
14 11 3 3.947 3.632 0.350 229.543 o
14 11 4 13.986 13.776 0.460 95.137 o
14 11 5 18.261 18.718 0.720 47.102 o
14 11 6 4.787 5.112 0.670 72.826 o
14 12 0 28.784 27.412 0.550 47.011 o
14 12 1 4.530 3.672 0.470 138.794 o
14 12 3 15.891 15.847 0.480 83.695 o
14 12 4 4.102 4.282 0.640 80.483 o
14 12 5 2.107 2.131 0.930 40.771 o
14 13 0 4.452 3.892 0.600 90.282 o
14 13 2 19.292 20.159 1.030 27.078 o
14 13 3 2.018 1.701 0.640 84.566 o
15 -12 -2 6.870 7.013 0.620 79.517 o
15 -12 -1 8.327 7.523 0.840 45.679 o
15 -11 -3 3.772 3.542 0.620 86.257 o
15 -11 -2 6.711 6.763 0.800 50.978 o
15 -11 -1 4.330 3.081 0.610 88.396 o
15 -10 -4 2.836 2.641 0.420 179.733 o
15 -10 -3 7.526 7.373 0.410 148.077 o
15 -10 -2 15.686 15.377 0.610 63.514 o
15 -10 -1 10.460 9.994 0.600 76.221 o
15 -9 -5 6.003 5.983 0.500 117.061 o
15 -9 -4 5.910 6.023 0.360 193.002 o
15 -9 -3 10.488 10.124 0.490 101.917 o
15 -9 -2 1.831 1.631 0.340 276.331 o
15 -9 -1 21.031 21.990 0.500 64.979 o
15 -8 -5 1.734 1.771 0.410 197.113 o
15 -8 -4 12.458 11.755 0.390 123.149 o
15 -8 -3 8.662 8.074 0.370 160.439 o
15 -8 -2 44.590 46.811 0.530 28.664 o
15 -8 -1 11.678 11.125 0.400 124.432 o
15 -7 -6 4.641 4.042 0.570 98.505 o
15 -7 -5 10.289 10.685 0.500 98.930 o
15 -7 -4 50.686 54.054 0.580 23.187 o
15 -7 -2 18.000 17.448 0.350 100.824 o
15 -7 -1 3.733 3.562 0.280 324.169 o
15 -6 -6 8.018 7.483 0.490 112.616 o
15 -6 -5 0.892 1.231 0.390 224.631 o
15 -6 -4 2.730 2.351 0.330 274.385 o
15 -6 -3 26.743 27.512 0.450 56.857 o
15 -6 -2 38.145 39.778 0.490 36.204 o
15 -6 -1 35.311 36.426 0.510 38.993 o
15 -5 -6 2.715 2.671 0.800 54.266 o
15 -5 -5 33.569 34.335 0.690 33.157 o
15 -5 -4 2.306 2.261 0.320 295.548 o
15 -5 -3 30.337 31.084 0.510 46.079 o
15 -5 -2 2.483 2.221 0.280 364.518 o
15 -5 -1 65.502 66.939 0.730 15.220 o
15 -4 -6 7.934 7.453 0.570 89.180 o
15 -4 -5 8.297 8.084 0.380 157.336 o
15 -4 -4 22.408 22.620 0.510 61.237 o
15 -4 -3 20.881 20.969 0.490 67.281 o
15 -4 -2 19.659 19.929 0.410 81.873 o
15 -4 -1 37.519 37.817 0.500 37.068 o
15 -3 -6 3.513 3.792 0.500 127.650 o
15 -3 -5 23.591 23.510 0.530 56.938 o
15 -3 -4 10.509 10.204 0.480 104.619 o
15 -3 -3 18.712 19.188 0.400 86.853 o
15 -3 -2 2.506 2.351 0.240 458.613 o
15 -3 -1 5.488 5.122 0.280 279.489 o
15 -2 -7 9.263 9.024 0.590 80.886 o
15 -2 -5 1.395 1.451 0.400 209.745 o
15 -2 -4 15.313 15.217 0.530 76.530 o
15 -2 -3 61.467 62.367 0.700 16.929 o
15 -2 -2 25.808 25.881 0.440 60.351 o
15 -2 -1 25.454 25.071 0.420 63.433 o
15 -1 -5 12.701 12.896 0.520 85.921 o
15 -1 -4 11.219 11.445 0.480 100.891 o
15 -1 -3 25.694 24.951 0.440 61.275 o
15 -1 -2 7.674 7.193 0.270 242.663 o
15 -1 -1 0.965 1.141 0.210 687.341 o
15 0 0 0.641 0.830 0.230 615.001 o
15 0 1 23.985 24.041 0.390 70.153 o
15 0 2 58.574 59.936 0.570 19.568 o
15 0 3 28.193 28.433 0.490 51.281 o
15 0 4 33.215 33.105 0.470 44.319 o
15 0 5 2.704 2.481 0.320 288.131 o
15 0 6 16.329 16.627 0.660 55.805 o
15 0 7 6.461 6.043 0.550 98.959 o
15 0 8 24.253 25.341 1.171 20.640 o
15 1 0 51.481 50.752 0.540 24.234 o
15 1 1 27.380 28.102 0.420 57.862 o
15 1 2 48.735 48.601 0.520 26.329 o
15 1 3 12.098 11.635 0.280 167.927 o
15 1 4 18.963 18.798 0.380 90.089 o
15 1 5 13.404 12.936 0.400 113.890 o
15 1 6 14.634 14.066 0.430 99.904 o
15 1 7 26.914 28.503 0.660 41.043 o
15 1 8 2.809 3.241 0.490 135.466 o
15 2 0 17.887 17.288 0.360 99.510 o
15 2 1 19.618 19.769 0.380 86.873 o
15 2 2 20.770 20.899 0.380 82.316 o
15 2 3 16.176 16.137 0.310 119.685 o
15 2 4 58.811 58.256 0.540 20.123 o
15 2 5 26.352 25.731 0.450 58.750 o
15 2 6 2.828 2.611 0.390 204.725 o
15 2 7 20.013 20.289 0.500 68.093 o
15 2 8 3.329 3.041 0.490 134.104 o
15 3 0 49.270 49.722 0.610 24.057 o
15 3 1 102.701 102.025 0.820 7.738 o
15 3 2 12.467 11.575 0.320 148.884 o
15 3 3 37.353 36.076 0.450 39.881 o
15 3 4 1.692 1.311 0.230 547.042 o
15 3 5 38.376 38.847 0.600 32.449 o
15 3 6 36.912 37.547 0.720 29.397 o
15 3 8 3.985 4.052 0.370 208.194 o
15 4 0 10.412 10.064 0.360 148.943 o
15 4 2 54.813 55.775 0.600 21.055 o
15 4 3 52.090 51.282 0.530 24.040 o
15 4 4 46.460 46.911 0.440 29.648 o
15 4 5 17.423 16.907 0.420 89.868 o
15 4 6 3.261 3.161 0.360 228.053 o
15 4 7 8.295 8.694 0.610 78.400 o
15 4 8 37.352 39.968 0.650 30.971 o
15 5 0 102.567 104.086 1.010 7.140 o
15 5 1 18.307 18.228 0.630 56.227 o
15 5 2 35.315 35.556 0.550 37.609 o
15 5 3 4.146 3.922 0.240 381.999 o
15 5 4 31.706 31.964 0.410 49.903 o
15 5 5 15.998 15.707 0.340 114.025 o
15 5 6 31.009 31.014 0.810 30.287 o
15 5 7 4.764 5.552 0.550 103.067 o
15 5 8 6.805 6.233 0.430 144.250 o
15 6 0 0.682 0.740 0.310 353.887 o
15 6 1 36.682 36.646 0.510 37.792 o
15 6 2 37.625 37.507 0.590 33.698 o
15 6 3 38.813 39.167 0.450 37.332 o
15 6 4 11.682 11.565 0.270 176.129 o
15 6 5 8.874 8.584 0.330 179.624 o
15 6 6 2.316 2.171 0.360 241.926 o
15 6 7 36.808 39.217 0.650 31.482 o
15 7 0 22.784 23.020 0.440 67.974 o
15 7 1 87.381 87.879 0.950 9.215 o
15 7 2 11.734 11.005 0.410 121.057 o
15 7 3 9.100 8.474 0.290 203.273 o
15 7 4 14.348 13.676 0.340 125.985 o
15 7 5 29.831 30.233 0.470 49.598 o
15 7 6 5.981 6.533 0.450 137.436 o
15 7 7 2.055 2.471 0.460 156.411 o
15 8 0 1.796 1.521 0.380 227.046 o
15 8 1 1.855 1.811 0.290 362.029 o
15 8 2 53.053 53.243 0.700 20.478 o
15 8 3 14.293 14.316 0.360 118.949 o
15 8 4 28.636 28.873 0.400 56.876 o
15 8 5 10.014 8.894 0.380 145.484 o
15 8 6 13.787 13.626 0.470 93.568 o
15 8 7 9.438 9.374 0.500 102.840 o
15 9 0 50.933 50.722 0.690 21.745 o
15 9 1 6.018 5.683 0.360 193.486 o
15 9 2 18.053 16.847 0.480 77.930 o
15 9 3 9.940 9.204 0.380 145.051 o
15 9 4 12.405 11.915 0.440 107.744 o
15 9 5 20.033 21.049 0.520 64.930 o
15 9 6 9.094 9.164 0.500 104.030 o
15 10 0 2.355 1.971 0.350 254.718 o
15 10 1 5.972 5.803 0.340 209.105 o
15 10 2 2.348 2.011 0.360 242.400 o
15 10 3 70.485 73.532 0.960 11.892 o
15 10 4 1.741 1.391 0.330 294.253 o
15 10 5 3.380 2.961 0.420 175.783 o
15 10 6 11.457 10.935 0.510 93.177 o
15 11 0 2.560 2.271 0.380 217.639 o
15 11 1 18.131 16.968 0.440 84.341 o
15 11 2 9.784 9.134 0.430 125.447 o
15 11 3 1.837 1.991 0.420 187.307 o
15 11 4 14.430 13.966 0.990 31.222 o
15 11 5 6.969 6.543 0.610 81.939 o
15 12 0 13.023 12.335 0.390 119.572 o
15 12 1 3.687 3.211 0.410 180.613 o
15 12 2 1.635 1.441 0.550 114.089 o
15 12 4 19.489 21.039 0.740 43.667 o
15 13 0 1.960 2.031 0.600 95.562 o
15 13 1 9.812 9.254 0.520 96.437 o
15 13 2 5.196 4.952 0.830 48.861 o
16 -11 -2 3.955 3.812 0.600 91.119 o
16 -11 -1 17.277 17.017 0.980 30.411 o
16 -10 -3 17.691 18.708 0.570 63.884 o
16 -10 -2 7.507 7.053 0.490 114.767 o
16 -10 -1 3.692 3.071 0.560 104.515 o
16 -9 -4 6.716 6.783 0.390 164.972 o
16 -9 -3 4.164 3.762 0.390 191.128 o
16 -9 -2 3.635 3.181 0.400 188.704 o
16 -9 -1 6.441 6.343 0.380 174.221 o
16 -8 -4 9.287 8.914 0.430 127.872 o
16 -8 -3 2.968 2.881 0.370 221.701 o
16 -8 -2 17.165 17.828 0.550 68.027 o
16 -7 -5 14.464 13.806 0.660 59.226 o
16 -7 -3 1.680 1.401 0.320 311.649 o
16 -7 -2 1.340 0.980 0.290 382.759 o
16 -7 -1 17.093 17.017 0.410 92.554 o
16 -6 -5 0.992 0.970 0.340 291.305 o
16 -6 -4 1.443 1.261 0.370 242.825 o
16 -6 -3 13.053 12.786 0.360 128.014 o
16 -6 -2 8.812 8.094 0.330 182.048 o
16 -6 -1 7.195 6.993 0.370 173.352 o
16 -5 -6 12.196 12.295 0.510 89.898 o
16 -5 -5 7.451 6.963 0.420 144.498 o
16 -5 -4 2.992 2.801 0.320 281.773 o
16 -5 -3 1.096 0.950 0.310 344.172 o
16 -5 -2 20.594 19.999 0.490 68.622 o
16 -5 -1 5.062 4.962 0.350 212.718 o
16 -4 -5 1.454 1.461 0.480 148.496 o
16 -4 -4 13.052 12.726 0.400 115.642 o
16 -4 -3 14.751 14.767 0.400 105.693 o
16 -4 -2 36.264 37.677 0.700 30.392 o
16 -4 -1 2.301 2.161 0.270 391.459 o
16 -3 -6 2.730 2.551 0.530 118.464 o
16 -3 -5 9.367 8.584 0.860 43.078 o
16 -3 -4 17.612 17.828 0.490 76.229 o
16 -3 -3 14.442 13.986 0.450 95.898 o
16 -3 -2 7.466 7.073 0.370 171.276 o
16 -3 -1 54.407 55.014 0.600 21.323 o
16 -2 -6 12.761 12.696 0.620 67.590 o
16 -2 -5 4.086 3.452 0.500 126.444 o
16 -2 -4 45.575 47.161 0.680 24.574 o
16 -2 -3 9.992 9.964 0.400 134.453 o
16 -2 -2 9.042 8.444 0.330 178.860 o
16 -2 -1 52.526 53.003 0.590 22.516 o
16 -1 -6 11.059 11.875 0.620 70.393 o
16 -1 -5 22.440 22.420 0.520 60.281 o
16 -1 -4 14.836 14.666 0.460 91.693 o
16 -1 -3 12.429 12.145 0.370 129.121 o
16 -1 -2 8.587 8.464 0.300 201.680 o
16 -1 -1 41.768 42.329 0.480 33.031 o
16 0 0 2.191 2.231 0.320 297.476 o
16 0 1 22.693 22.720 0.410 71.909 o
16 0 2 80.949 82.896 0.810 10.880 o
16 0 3 13.264 13.266 0.330 135.727 o
16 0 4 65.021 65.779 0.720 15.536 o
16 0 6 71.499 74.983 1.161 10.253 o
16 0 7 26.027 26.792 0.790 34.690 o
16 0 8 1.352 1.491 0.540 118.754 o
16 1 0 100.084 102.065 0.860 7.827 o
16 1 1 39.775 39.027 0.570 32.563 o
16 1 2 8.602 8.194 0.340 177.271 o
16 1 3 52.920 53.123 0.530 23.321 o
16 1 4 29.570 29.853 0.460 50.794 o
16 1 5 39.554 40.158 0.600 31.360 o
16 1 6 15.683 15.857 0.540 73.619 o
16 1 7 6.720 6.843 0.580 89.363 o
16 1 8 9.932 10.325 0.530 92.355 o
16 2 0 8.532 7.683 0.350 173.748 o
16 2 1 38.652 38.917 0.560 33.661 o
16 2 2 65.327 66.999 0.620 16.273 o
16 2 3 92.171 92.931 0.700 9.479 o
16 2 4 1.740 1.281 0.250 476.193 o
16 2 5 3.935 3.512 0.340 240.887 o
16 2 6 1.009 1.151 0.390 224.034 o
16 2 7 10.103 10.375 0.490 102.621 o
16 2 8 40.954 44.820 0.970 19.887 o
16 3 0 58.800 59.976 0.610 19.006 o
16 3 1 0.642 0.970 0.230 610.979 o
16 3 2 12.500 12.215 0.340 139.220 o
16 3 3 4.155 3.872 0.260 345.702 o
16 3 4 37.817 38.457 0.440 38.818 o
16 3 5 64.058 65.089 0.610 16.903 o
16 3 6 4.710 4.202 0.410 171.714 o
16 3 7 1.495 1.561 0.420 190.545 o
16 3 8 2.161 1.921 0.410 193.938 o
16 4 0 8.721 8.284 0.360 164.761 o
16 4 1 24.702 24.561 0.480 59.390 o
16 4 2 30.413 30.463 0.480 48.164 o
16 4 3 16.890 16.687 0.360 104.040 o
16 4 4 16.088 15.577 0.310 121.414 o
16 4 5 1.096 1.211 0.290 385.757 o
16 4 6 6.756 5.913 0.390 167.349 o
16 4 7 26.422 26.392 0.560 49.299 o
16 4 8 0.753 1.020 0.370 250.521 o
16 5 0 7.301 6.833 0.510 108.720 o
16 5 1 74.092 74.583 1.120 10.276 o
16 5 2 9.481 8.954 0.390 143.638 o
16 5 3 39.781 39.517 0.500 34.752 o
16 5 4 4.679 4.422 0.240 361.196 o
16 5 5 18.820 18.708 0.400 87.207 o
16 5 6 7.765 7.793 0.470 120.144 o
16 5 8 1.199 1.120 0.430 185.103 o
16 6 0 5.101 4.622 0.410 168.294 o
16 6 1 7.208 6.763 0.330 201.300 o
16 6 2 5.748 5.392 0.360 196.778 o
16 6 3 23.647 23.430 0.460 63.923 o
16 6 4 4.541 4.042 0.240 369.723 o
16 6 5 0.961 0.660 0.280 421.874 o
16 6 6 8.629 8.484 0.420 135.655 o
16 7 0 36.460 35.196 0.600 34.827 o
16 7 1 1.112 0.970 0.340 289.738 o
16 7 2 2.418 2.001 0.300 329.387 o
16 7 3 1.108 1.020 0.270 440.910 o
16 7 4 26.119 26.352 0.360 66.537 o
16 7 5 2.097 1.881 0.320 301.513 o
16 7 6 3.462 3.051 0.420 175.078 o
16 7 7 16.501 16.497 0.490 79.859 o
16 8 1 5.966 5.933 0.340 208.568 o
16 8 2 13.833 13.266 0.400 111.663 o
16 8 3 10.565 9.504 0.390 136.869 o
16 8 4 8.029 7.543 0.330 190.713 o
16 8 5 2.722 2.561 0.340 259.912 o
16 9 0 14.717 14.206 0.410 104.280 o
16 9 1 13.304 12.796 0.360 126.806 o
16 9 2 2.861 2.741 0.330 270.171 o
16 9 3 15.402 14.376 0.420 99.413 o
16 9 4 8.313 7.533 0.420 139.195 o
16 9 5 11.004 10.815 0.400 127.992 o
16 9 6 8.064 7.633 0.450 127.181 o
16 10 0 0.962 0.970 0.340 291.706 o
16 10 1 7.912 7.693 0.360 172.152 o
16 10 2 24.899 24.941 0.630 46.236 o
16 10 3 8.014 8.054 0.570 88.483 o
16 10 5 6.011 5.743 0.510 113.643 o
16 11 0 6.181 6.033 0.400 164.352 o
16 11 1 11.025 9.764 0.480 103.780 o
16 11 4 14.715 15.077 1.000 30.451 o
16 12 0 1.490 1.401 0.430 182.790 o
16 12 1 7.711 6.973 0.440 134.076 o
16 12 2 6.490 6.153 0.500 115.414 o
17 -10 -1 1.967 1.531 0.610 92.932 o
17 -9 -2 7.058 7.083 0.430 141.205 o
17 -9 -1 22.067 22.940 0.510 61.507 o
17 -8 -4 3.052 2.981 0.480 140.204 o
17 -8 -3 13.750 13.776 0.520 82.820 o
17 -8 -2 6.307 5.753 0.400 164.434 o
17 -8 -1 17.369 17.338 0.900 34.736 o
17 -7 -3 2.695 2.301 0.420 181.496 o
17 -7 -2 12.637 12.696 0.400 117.320 o
17 -7 -1 38.435 39.517 0.570 33.255 o
17 -6 -5 2.939 2.661 0.450 158.505 o
17 -6 -4 4.170 3.982 0.420 168.657 o
17 -6 -3 30.717 31.694 0.680 36.155 o
17 -6 -2 10.747 10.345 0.340 155.068 o
17 -6 -1 3.753 3.652 0.420 171.817 o
17 -5 -5 7.822 8.054 0.590 84.023 o
17 -5 -4 9.710 9.134 0.480 108.493 o
17 -5 -3 2.666 2.381 0.350 249.132 o
17 -5 -2 9.894 9.904 0.420 127.219 o
17 -5 -1 26.276 27.082 0.630 44.078 o
17 -4 -5 6.752 6.543 0.460 129.926 o
17 -4 -4 31.256 32.384 0.690 35.115 o
17 -4 -3 1.528 1.501 0.330 296.475 o
17 -4 -2 11.355 10.935 0.430 116.075 o
17 -4 -1 25.157 25.341 0.600 48.083 o
17 -3 -5 4.484 4.342 0.450 148.164 o
17 -3 -4 15.023 14.937 0.540 75.591 o
17 -3 -3 8.827 8.404 0.410 139.295 o
17 -3 -2 33.635 34.485 0.520 40.788 o
17 -3 -1 16.008 15.947 0.440 91.079 o
17 -2 -5 14.000 13.686 0.520 82.401 o
17 -2 -4 1.808 1.891 0.370 236.507 o
17 -2 -3 27.885 27.722 0.480 52.836 o
17 -2 -2 34.284 34.815 0.520 40.086 o
17 -2 -1 42.474 43.059 0.550 30.358 o
17 -1 -6 6.485 6.263 0.490 119.046 o
17 -1 -5 1.821 1.591 0.400 206.286 o
17 -1 -4 3.016 2.861 0.370 221.375 o
17 -1 -3 39.715 40.138 0.550 32.917 o
17 -1 -2 11.497 11.135 0.360 139.981 o
17 -1 -1 56.025 57.435 0.570 20.793 o
17 0 0 14.138 13.946 0.420 104.120 o
17 0 1 44.157 45.080 0.620 27.084 o
17 0 2 29.213 29.203 0.520 47.624 o
17 0 3 4.999 4.372 0.290 280.675 o
17 0 4 4.025 3.622 0.330 250.488 o
17 0 5 15.491 14.777 0.510 80.157 o
17 0 6 12.746 12.856 0.640 64.459 o
17 0 7 9.277 8.544 0.620 75.097 o
17 0 8 52.261 57.525 1.040 15.088 o
17 1 0 13.530 13.786 0.420 106.400 o
17 1 1 1.105 1.020 0.290 387.774 o
17 1 2 8.482 8.364 0.370 160.654 o
17 1 3 37.717 37.326 0.520 36.340 o
17 1 4 38.544 39.337 0.590 32.545 o
17 1 5 8.835 8.304 0.460 119.365 o
17 1 6 2.431 2.101 0.500 133.464 o
17 1 7 2.461 2.331 0.540 115.294 o
17 1 8 9.921 9.984 0.640 69.648 o
17 2 0 0.815 0.900 0.300 371.920 o
17 2 1 60.505 62.437 0.710 17.039 o
17 2 2 12.086 12.145 0.400 120.623 o
17 2 3 33.030 32.444 0.500 43.277 o
17 2 4 8.396 7.843 0.300 206.644 o
17 2 5 3.758 3.512 0.340 242.804 o
17 2 6 19.136 19.319 0.710 47.058 o
17 2 7 24.420 25.681 0.790 35.848 o
17 2 8 8.945 8.224 0.540 94.183 o
17 3 0 8.454 7.853 0.360 167.944 o
17 3 1 41.419 41.998 0.640 28.622 o
17 3 2 3.664 3.542 0.310 280.739 o
17 3 3 53.504 54.524 0.620 21.408 o
17 3 4 27.276 27.382 0.430 57.773 o
17 3 5 23.664 23.991 0.430 66.562 o
17 3 6 1.648 1.351 0.430 182.082 o
17 3 7 1.603 1.701 0.430 181.384 o
17 4 0 46.657 48.551 0.650 24.527 o
17 4 1 21.291 21.509 0.430 73.594 o
17 4 2 36.132 36.446 0.630 33.443 o
17 4 3 15.115 14.736 0.400 104.495 o
17 4 4 11.024 10.495 0.310 166.662 o
17 4 5 1.181 0.980 0.310 342.346 o
17 4 6 31.647 32.995 0.850 28.032 o
17 4 7 3.291 3.331 0.590 95.444 o
17 5 0 29.957 30.443 0.650 38.647 o
17 5 1 3.818 3.532 0.310 278.582 o
17 5 2 4.095 3.802 0.300 285.942 o
17 5 3 6.067 5.733 0.300 244.884 o
17 5 4 81.086 85.197 0.650 11.522 o
17 5 5 36.906 37.556 0.550 35.692 o
17 5 7 1.874 1.711 0.430 179.917 o
17 6 0 4.540 4.082 0.350 221.631 o
17 6 1 43.809 45.170 0.590 27.997 o
17 6 2 12.384 12.265 0.440 107.243 o
17 6 3 39.271 39.007 0.510 34.956 o
17 6 4 2.327 2.171 0.240 468.472 o
17 6 5 12.339 11.805 0.490 94.883 o
17 6 6 2.155 2.301 0.410 192.785 o
17 6 7 17.229 17.258 0.560 66.962 o
17 7 0 21.743 21.890 0.460 68.597 o
17 7 1 15.777 14.687 0.520 77.895 o
17 7 2 4.047 3.341 0.330 251.881 o
17 7 3 44.302 44.640 0.540 29.159 o
17 7 4 10.647 10.555 0.320 164.382 o
17 7 5 11.636 11.495 0.490 97.073 o
17 7 6 26.377 27.052 0.660 42.016 o
17 8 0 13.114 12.345 0.440 104.777 o
17 8 1 1.743 1.481 0.310 327.824 o
17 8 2 45.033 44.489 0.650 26.072 o
17 8 3 4.155 3.512 0.390 192.059 o
17 8 4 1.814 1.641 0.320 307.693 o
17 9 0 7.454 6.713 0.350 185.348 o
17 9 2 21.823 22.250 0.600 53.183 o
17 9 3 12.820 12.456 0.520 86.135 o
17 9 4 38.355 38.347 0.900 23.166 o
17 9 5 4.661 4.212 0.460 142.372 o
17 10 0 3.406 3.011 0.380 207.950 o
17 10 1 39.853 39.988 0.800 25.129 o
17 10 2 2.200 1.991 0.350 256.316 o
17 10 3 1.892 1.851 0.420 187.392 o
17 10 4 8.316 8.264 0.490 110.610 o
17 11 0 15.103 14.687 0.460 90.974 o
17 11 1 1.515 1.261 0.410 200.131 o
17 11 2 5.370 5.242 0.480 128.371 o
17 11 3 12.585 12.636 0.520 86.443 o
18 -9 -1 12.013 11.435 0.530 86.725 o
18 -8 -3 15.711 16.477 0.890 36.232 o
18 -8 -2 3.773 3.502 0.460 147.319 o
18 -8 -1 17.820 18.068 0.550 66.823 o
18 -7 -3 6.083 6.153 0.850 46.068 o
18 -7 -2 36.248 38.897 0.870 24.600 o
18 -7 -1 16.034 16.107 0.530 74.406 o
18 -6 -4 18.421 18.888 0.570 62.736 o
18 -6 -3 20.311 21.249 0.730 43.789 o
18 -6 -2 3.783 3.792 0.490 131.428 o
18 -6 -1 4.395 3.722 0.440 155.633 o
18 -5 -4 4.468 4.722 0.440 153.004 o
18 -5 -3 10.706 10.405 0.500 98.225 o
18 -5 -2 10.862 11.095 0.500 96.963 o
18 -5 -1 26.034 27.892 0.800 33.882 o
18 -4 -5 13.139 13.046 0.890 38.046 o
18 -4 -4 2.484 2.371 0.430 174.954 o
18 -4 -3 24.573 25.061 0.630 46.478 o
18 -4 -2 0.964 0.930 0.340 291.942 o
18 -4 -1 22.455 23.030 0.600 52.067 o
18 -3 -5 1.189 1.281 0.400 211.796 o
18 -3 -3 18.904 19.609 0.570 61.577 o
18 -3 -2 15.418 15.287 0.460 89.403 o
18 -3 -1 7.452 7.333 0.440 134.398 o
18 -2 -5 6.329 5.562 0.460 133.335 o
18 -2 -4 7.099 6.363 0.590 86.609 o
18 -2 -3 2.604 2.531 0.360 237.335 o
18 -2 -1 2.771 2.881 0.310 299.210 o
18 -1 -5 3.843 2.841 0.700 69.078 o
18 -1 -4 1.975 1.741 0.440 171.853 o
18 -1 -3 2.732 2.571 0.370 225.125 o
18 -1 -2 6.962 7.103 0.340 194.664 o
18 -1 -1 31.542 31.964 0.500 44.979 o
18 0 0 8.391 9.134 0.390 148.867 o
18 0 1 12.032 12.085 0.420 114.646 o
18 0 2 11.915 11.445 0.400 122.765 o
18 0 3 13.255 13.146 0.420 108.420 o
18 0 4 6.893 6.643 0.370 176.592 o
18 0 5 3.172 2.851 0.450 157.063 o
18 0 6 5.088 5.222 0.550 102.729 o
18 0 7 14.000 14.086 0.660 59.571 o
18 1 1 4.105 4.002 0.360 216.528 o
18 1 2 22.889 22.660 0.490 62.604 o
18 1 3 13.823 13.706 0.380 116.490 o
18 1 4 20.297 20.269 0.490 68.906 o
18 1 5 6.680 6.063 0.500 115.000 o
18 1 6 4.976 5.692 0.580 93.449 o
18 1 7 6.927 6.883 0.610 81.750 o
18 2 0 19.972 19.519 0.490 70.156 o
18 2 1 32.462 33.295 0.570 39.816 o
18 2 2 17.861 17.508 0.540 68.588 o
18 2 3 6.266 5.903 0.330 214.184 o
18 2 4 2.433 2.111 0.340 266.009 o
18 2 5 12.451 12.315 0.450 104.189 o
18 2 6 12.871 12.505 0.640 64.518 o
18 3 0 10.013 9.404 0.400 135.656 o
18 3 1 10.168 10.004 0.400 133.547 o
18 3 2 29.372 30.043 0.660 38.665 o
18 3 3 4.924 4.572 0.320 245.321 o
18 3 4 57.526 58.836 0.730 17.984 o
18 3 5 6.648 6.563 0.360 185.271 o
18 3 6 2.918 2.221 0.580 100.124 o
18 3 7 2.517 2.511 0.520 123.316 o
18 4 0 43.526 44.890 0.790 23.192 o
18 4 1 4.815 4.372 0.500 122.902 o
18 4 2 14.956 13.846 0.450 94.666 o
18 4 3 5.321 4.492 0.310 251.752 o
18 4 4 15.711 15.397 0.410 99.136 o
18 4 5 8.677 8.464 0.410 139.858 o
18 4 6 26.784 26.862 0.760 35.862 o
18 4 7 2.844 3.141 0.610 90.519 o
18 5 0 5.363 4.932 0.420 159.834 o
18 5 1 7.476 7.253 0.310 211.525 o
18 5 2 37.821 37.526 0.570 34.308 o
18 5 3 36.689 36.206 0.540 36.741 o
18 5 4 13.445 13.036 0.360 125.592 o
18 5 6 2.316 2.591 0.600 94.593 o
18 6 0 33.255 33.515 0.480 43.565 o
18 6 1 23.727 24.061 0.430 66.385 o
18 6 2 18.396 18.198 0.420 85.591 o
18 6 3 2.111 2.131 0.290 353.198 o
18 6 4 10.927 10.245 0.310 168.314 o
18 6 5 16.457 16.187 0.470 83.871 o
18 6 6 8.161 7.773 0.440 130.640 o
18 7 1 5.931 5.102 0.310 240.459 o
18 7 2 6.732 6.203 0.340 200.501 o
18 7 3 8.171 8.154 0.360 168.832 o
18 7 4 34.855 35.756 0.520 39.211 o
18 7 5 4.366 3.802 0.490 129.542 o
18 8 0 8.037 7.323 0.360 172.567 o
18 8 1 40.001 38.877 0.710 27.950 o
18 8 2 2.344 2.081 0.740 63.508 o
18 8 4 3.417 3.031 0.480 138.845 o
18 8 5 13.560 13.646 0.530 81.365 o
18 9 0 6.615 6.083 0.470 126.982 o
18 9 2 15.116 15.097 0.470 88.351 o
18 9 3 35.797 38.957 1.171 17.415 o
18 9 4 4.516 3.512 0.490 129.527 o
18 10 0 12.614 12.996 0.510 88.170 o
18 10 1 4.041 3.722 0.450 151.387 o
18 10 2 5.885 6.103 0.470 129.507 o
18 10 3 2.281 1.671 0.560 108.713 o
19 -8 -1 1.258 1.361 0.550 114.961 o
19 -7 -2 2.868 2.871 0.540 113.755 o
19 -6 -3 4.520 4.292 0.730 62.765 o
19 -6 -1 33.516 35.606 0.680 33.239 o
19 -5 -3 13.021 12.415 0.620 67.433 o
19 -5 -2 13.416 14.036 0.940 34.419 o
19 -4 -4 2.598 2.451 0.540 114.849 o
19 -4 -3 5.186 4.482 0.520 113.794 o
19 -4 -2 11.283 10.915 0.590 76.174 o
19 -4 -1 4.322 4.452 0.580 95.700 o
19 -3 -4 9.986 9.894 0.500 100.725 o
19 -3 -3 4.318 4.742 0.890 43.216 o
19 -3 -2 5.033 5.312 0.510 116.903 o
19 -3 -1 17.199 16.607 0.540 70.407 o
19 -2 -4 15.414 15.297 0.540 74.580 o
19 -2 -3 6.913 6.383 0.430 143.422 o
19 -2 -2 2.630 2.431 0.510 127.622 o
19 -2 -1 36.138 38.367 0.900 23.857 o
19 -1 -4 5.190 4.542 0.610 86.055 o
19 -1 -3 10.040 9.324 0.560 85.937 o
19 -1 -2 39.949 43.149 0.680 27.885 o
19 -1 -1 3.418 3.071 0.430 168.299 o
19 0 0 97.984 102.245 0.930 7.770 o
19 0 1 29.885 30.744 0.570 43.102 o
19 0 3 7.743 7.593 0.390 156.654 o
19 0 4 7.809 7.213 0.400 152.101 o
19 0 5 9.482 9.644 0.600 77.970 o
19 0 6 21.562 22.450 0.750 41.039 o
19 1 0 2.084 1.441 0.380 224.969 o
19 1 1 2.434 2.521 0.370 227.982 o
19 1 2 31.897 32.564 0.690 34.669 o
19 1 3 38.227 38.367 0.550 34.487 o
19 1 4 34.796 34.795 0.700 31.932 o
19 1 5 10.229 10.024 0.500 99.930 o
19 1 6 12.556 12.836 0.650 63.231 o
19 2 0 14.327 14.206 0.460 93.642 o
19 2 1 6.181 5.993 0.400 164.468 o
19 2 2 16.331 15.837 0.470 84.567 o
19 2 3 3.489 3.081 0.370 216.367 o
19 2 4 12.742 13.546 0.630 65.533 o
19 2 5 51.079 52.283 0.820 19.191 o
19 3 0 5.238 4.812 0.410 166.990 o
19 3 1 30.137 30.934 0.660 37.815 o
19 3 2 18.830 18.368 0.490 73.335 o
19 3 3 11.102 10.685 0.380 135.350 o
19 3 4 14.973 14.526 0.440 95.909 o
19 3 6 6.954 6.733 0.600 84.136 o
19 4 0 31.001 32.064 0.680 35.854 o
19 4 1 11.260 10.675 0.390 130.835 o
19 4 2 10.145 9.504 0.420 127.007 o
19 4 3 7.141 6.793 0.370 174.391 o
19 4 4 8.783 8.284 0.450 123.306 o
19 4 5 4.602 4.172 0.470 137.608 o
19 4 6 7.082 7.603 0.780 52.871 o
19 5 0 1.710 1.551 0.390 217.070 o
19 5 1 5.845 5.432 0.360 195.844 o
19 5 2 5.196 5.102 0.420 160.259 o
19 5 3 14.990 14.656 0.530 77.652 o
19 5 4 9.441 9.174 0.380 147.815 o
19 5 5 1.131 1.110 0.420 193.997 o
19 5 6 5.726 5.152 0.980 35.538 o
19 6 0 12.905 12.035 0.430 108.718 o
19 6 1 5.098 4.722 0.410 168.025 o
19 6 2 1.800 1.591 0.360 250.033 o
19 6 3 9.620 9.384 0.480 108.387 o
19 6 5 7.464 7.353 0.500 110.953 o
19 7 1 2.724 2.861 0.340 258.137 o
19 7 2 11.852 11.185 0.400 123.574 o
19 7 3 14.983 14.596 0.380 110.211 o
19 8 0 23.870 24.411 0.470 61.745 o
19 8 1 0.537 0.650 0.260 498.721 o
19 8 2 4.576 3.952 0.330 242.223 o
19 8 3 3.038 2.451 0.430 171.859 o
19 8 4 10.060 10.445 0.870 41.488 o
19 9 1 6.295 5.993 0.360 190.124 o
19 9 2 11.476 11.635 0.390 127.690 o
20 -6 -2 2.064 2.431 0.830 50.879 o
20 -6 -1 7.447 7.603 0.460 125.467 o
20 -5 -2 1.558 1.641 0.570 106.482 o
20 -5 -1 5.271 4.822 0.450 143.842 o
20 -4 -2 8.183 7.363 0.790 51.086 o
20 -4 -1 29.209 30.794 1.050 22.474 o
20 -3 -3 4.488 4.272 0.550 105.018 o
20 -3 -2 13.786 13.956 0.610 66.943 o
20 -2 -3 17.420 16.737 0.970 30.920 o
20 -2 -2 2.028 2.031 0.520 125.221 o
20 -2 -1 10.288 11.055 0.590 77.626 o
20 -1 -3 7.015 6.653 0.880 42.725 o
20 -1 -2 5.368 4.832 0.430 154.239 o
20 -1 -1 13.591 13.866 0.850 40.645 o
20 0 1 0.725 1.060 0.370 250.597 o
20 0 2 9.238 8.584 0.470 114.049 o
20 0 4 25.892 25.711 0.730 38.465 o
20 0 5 18.662 19.218 0.710 47.476 o
20 0 6 3.286 2.561 0.740 62.692 o
20 1 1 26.246 27.942 0.780 34.793 o
20 1 2 18.901 17.418 0.680 50.836 o
20 1 3 17.216 17.508 0.460 82.391 o
20 1 4 30.904 30.623 0.640 38.431 o
20 1 5 9.108 8.614 0.490 107.833 o
20 1 6 15.503 14.796 0.890 36.676 o
20 2 0 35.610 37.366 0.850 25.697 o
20 2 2 4.115 3.742 0.420 169.600 o
20 2 3 27.100 26.852 0.620 44.141 o
20 2 4 6.631 6.553 0.450 134.801 o
20 2 5 3.775 3.432 0.810 52.264 o
20 3 0 22.639 24.561 1.030 25.599 o
20 3 1 12.362 11.145 0.490 95.663 o
20 3 2 0.830 1.010 0.370 249.826 o
20 3 3 17.797 17.308 0.540 68.853 o
20 3 4 18.719 17.428 0.540 67.281 o
20 3 5 6.092 5.452 0.610 84.046 o
20 4 0 5.357 4.872 0.700 66.830 o
20 4 1 34.265 35.846 1.191 17.529 o
20 4 2 2.797 2.651 0.420 179.922 o
20 4 3 4.936 4.652 0.440 151.037 o
20 4 4 11.925 10.985 0.430 113.935 o
20 4 5 13.090 12.796 0.520 85.205 o
20 5 1 20.276 19.899 0.580 58.439 o
20 5 2 12.171 11.715 0.430 111.783 o
20 5 3 12.978 13.046 0.510 87.306 o
20 5 4 1.490 1.261 0.450 168.105 o
20 6 0 28.019 27.832 0.650 41.066 o
20 6 2 8.214 7.573 0.400 149.033 o
20 6 3 2.223 1.951 0.440 170.132 o
20 6 4 7.072 6.523 0.590 86.522 o
20 7 0 2.379 2.381 0.370 229.103 o
20 7 1 1.416 1.231 0.360 255.837 o
20 7 2 14.393 14.326 0.520 80.961 o
20 7 3 8.615 8.054 0.410 141.117 o
21 -4 -1 12.505 13.106 0.920 36.208 o
21 -3 -1 4.588 4.002 0.830 49.377 o
21 -2 -2 13.834 13.526 0.930 34.987 o
21 -2 -1 7.691 7.173 0.840 46.074 o
21 -1 -1 1.034 1.321 0.520 128.732 o
21 0 0 4.355 3.341 0.530 113.539 o
21 0 1 0.837 1.131 0.450 171.350 o
21 0 2 1.723 1.741 0.510 131.139 o
21 0 3 2.244 2.521 0.540 115.573 o
21 0 4 10.107 9.654 0.610 75.069 o
21 1 0 4.436 4.382 0.520 115.866 o
21 1 1 10.335 10.074 0.590 78.328 o
21 1 2 3.880 3.652 0.440 158.186 o
21 2 0 0.793 1.151 0.470 157.677 o
21 2 1 3.919 3.502 0.420 171.320 o
21 2 2 7.503 6.893 0.810 49.373 o
21 2 3 5.015 4.432 0.460 140.549 o
21 2 4 13.437 13.796 0.490 89.746 o
21 3 0 17.373 17.177 0.910 34.170 o
21 3 1 5.395 5.512 0.520 111.931 o
21 3 2 11.459 11.285 0.490 97.803 o
21 3 4 10.089 9.594 0.490 103.726 o
21 4 0 9.976 9.154 0.460 114.100 o
21 4 2 25.103 23.580 0.560 52.322 o
21 4 3 5.331 5.172 0.470 133.140 o
21 4 4 8.151 7.473 0.640 73.425 o
21 5 0 17.707 17.228 0.550 67.649 o
21 5 1 7.795 7.123 0.460 125.081 o
21 5 2 3.370 3.081 0.390 199.103 o
21 5 3 5.316 4.032 0.610 86.246 o
22 0 0 7.594 7.123 0.570 90.111 o
22 0 1 3.087 2.751 0.400 193.723 o
22 0 2 2.100 1.701 0.660 79.611 o
22 1 0 20.162 21.740 0.970 29.231 o
22 1 1 8.620 7.994 0.470 116.992 o
22 1 2 13.051 12.836 0.850 41.163 o
22 2 0 14.967 15.017 0.870 38.235 o
22 2 1 13.963 13.706 0.510 84.450 o
22 2 2 16.036 15.477 0.640 59.120 o
22 3 1 12.752 12.055 0.610 69.642 o
;
_olex2_submission_special_instructions 'No special instructions were received'
loop_
_space_group_symop_id
_space_group_symop_operation_xyz
1 x,y,z
2 -x,y+1/2,-z
loop_
_atom_site_label
_atom_site_type_symbol
_atom_site_fract_x
_atom_site_fract_y
_atom_site_fract_z
_atom_site_U_iso_or_equiv
_atom_site_adp_type
_atom_site_occupancy
_atom_site_refinement_flags_posn
Cl1 Cl 0.420736(5) 0.219586(9) 0.401621(11) 0.011336(10) Uani 1.000000 .
O1 O -0.004808(19) -0.06138(2) -0.17383(3) 0.01100(2) Uani 1.000000 .
O2 O -0.095861(18) -0.06694(3) 0.25879(4) 0.01185(3) Uani 1.000000 .
N1 N 0.110005(19) 0.14221(2) 0.39043(4) 0.00888(2) Uani 1.000000 .
N2 N 0.35614(2) -0.53174(2) -0.07905(4) 0.01085(3) Uani 1.000000 .
C1 C -0.00163(2) -0.03876(3) 0.07539(4) 0.00787(2) Uani 1.000000 .
C2 C 0.13387(2) 0.02198(3) 0.16101(4) 0.00786(2) Uani 1.000000 .
C3 C 0.21360(2) -0.12790(3) 0.25235(4) 0.00947(3) Uani 1.000000 .
C4 C 0.25890(2) -0.24926(3) 0.02337(5) 0.01030(3) Uani 1.000000 .
C5 C 0.32133(2) -0.40401(3) 0.13668(5) 0.01041(3) Uani 1.000000 .
H1a H 0.0619(9) 0.2518(13) 0.3329(17) 0.0303(19) Uiso 1.000000 .
H1b H 0.2038(8) 0.1781(11) 0.4454(16) 0.0252(18) Uiso 1.000000 .
H1c H 0.0521(9) 0.0881(12) 0.5593(19) 0.0277(17) Uiso 1.000000 .
H2 H 0.1908(7) 0.0879(9) -0.0083(15) 0.0241(15) Uiso 1.000000 .
H3a H 0.3011(8) -0.0797(10) 0.3387(15) 0.0263(16) Uiso 1.000000 .
H3b H 0.1510(7) -0.1939(10) 0.4142(15) 0.0233(15) Uiso 1.000000 .
H4a H 0.3289(8) -0.1881(11) -0.1296(16) 0.0305(18) Uiso 1.000000 .
H4b H 0.1739(7) -0.2856(11) -0.0816(14) 0.0269(15) Uiso 1.000000 .
H5a H 0.4126(7) -0.3724(10) 0.2281(14) 0.0279(16) Uiso 1.000000 .
H5b H 0.2503(8) -0.4577(10) 0.2936(17) 0.0291(18) Uiso 1.000000 .
H2a H 0.3962(9) -0.6397(12) 0.0091(18) 0.0287(19) Uiso 1.000000 .
H2b H 0.4302(9) -0.4856(12) -0.2263(18) 0.0269(18) Uiso 1.000000 .
H2c H 0.2707(10) -0.5623(13) -0.1716(18) 0.0304(19) Uiso 1.000000 .
loop_
_atom_site_aniso_label
_atom_site_aniso_U_11
_atom_site_aniso_U_22
_atom_site_aniso_U_33
_atom_site_aniso_U_12
_atom_site_aniso_U_13
_atom_site_aniso_U_23
Cl1 0.009349(15) 0.011161(17) 0.013683(18) 0.000761(15) -0.002135(12)
-0.000665(16)
O1 0.01302(6) 0.01299(6) 0.00731(5) -0.00239(5) -0.00254(4) -0.00082(4)
O2 0.00876(5) 0.01793(7) 0.00891(5) -0.00264(5) -0.00133(4) 0.00259(5)
N1 0.00941(5) 0.00845(6) 0.00891(5) 0.00035(4) -0.00159(4) -0.00185(4)
N2 0.01104(6) 0.00944(6) 0.01217(6) 0.00205(5) -0.00182(5) -0.00204(5)
C1 0.00838(6) 0.00858(6) 0.00684(5) -0.00056(5) -0.00168(4) 0.00036(5)
C2 0.00776(5) 0.00804(6) 0.00783(5) -0.00019(5) -0.00108(4) -0.00068(5)
C3 0.00958(6) 0.00913(6) 0.00999(6) 0.00175(5) -0.00236(5) -0.00165(5)
C4 0.01166(7) 0.00911(7) 0.01011(6) 0.00226(5) -0.00123(5) -0.00121(5)
C5 0.01152(7) 0.00928(7) 0.01080(7) 0.00184(5) -0.00289(5) -0.00123(5)
loop_
_atom_type_symbol
_atom_type_description
_atom_type_scat_dispersion_real
_atom_type_scat_dispersion_imag
_atom_type_scat_source
_atom_type_scat_dispersion_source
C C 0.00347 0.00161
'Clementi & Roetti, C., At. Data Nucl. Data Tables 1974, 14, (177-478); Clementi & Raimondi, J. Chem. Phys., 1963, 38, (2686-2689)'
'Henke, Gullikson and Davis, At. Data and Nucl. Data Tables, 1993, 54, 2'
H H 0.00000 0.00000
'Clementi & Roetti, C., At. Data Nucl. Data Tables 1974, 14, (177-478); Clementi & Raimondi, J. Chem. Phys., 1963, 38, (2686-2689)'
'Henke, Gullikson and Davis, At. Data and Nucl. Data Tables, 1993, 54, 2'
N N 0.00653 0.00323
'Clementi & Roetti, C., At. Data Nucl. Data Tables 1974, 14, (177-478); Clementi & Raimondi, J. Chem. Phys., 1963, 38, (2686-2689)'
'Henke, Gullikson and Davis, At. Data and Nucl. Data Tables, 1993, 54, 2'
O O 0.01158 0.00611
'Clementi & Roetti, C., At. Data Nucl. Data Tables 1974, 14, (177-478); Clementi & Raimondi, J. Chem. Phys., 1963, 38, (2686-2689)'
'Henke, Gullikson and Davis, At. Data and Nucl. Data Tables, 1993, 54, 2'
loop_
_geom_angle_atom_site_label_1
_geom_angle_atom_site_label_2
_geom_angle_atom_site_label_3
_geom_angle
_geom_angle_site_symmetry_1
_geom_angle_site_symmetry_3
_geom_angle_publ_flag
O2 C1 O1 126.22(2) . . ?
C2 C1 O1 116.385(17) . . ?
C2 C1 O2 117.333(18) . . ?
C1 C2 N1 110.517(16) . . ?
C3 C2 N1 108.286(16) . . ?
C3 C2 C1 109.819(17) . . ?
C4 C3 C2 112.923(17) . . ?
C5 C4 C3 109.523(18) . . ?
C4 C5 N2 110.841(18) . . ?
loop_
_geom_bond_atom_site_label_1
_geom_bond_atom_site_label_2
_geom_bond_distance
_geom_bond_site_symmetry_2
_geom_bond_publ_flag
O1 C1 1.2589(3) . ?
O2 C1 1.2487(3) . ?
N1 C2 1.4882(3) . ?
N2 C5 1.4903(3) . ?
C1 C2 1.5396(3) . ?
C2 C3 1.5321(3) . ?
C3 C4 1.5217(3) . ?
C4 C5 1.5189(3) . ?
loop_
_refln_index_h
_refln_index_k
_refln_index_l
_refln_F_squared_meas
_refln_F_squared_sigma
0 0 -1 203.41 0.96
0 0 -2 15.5 0.52
0 0 -3 3.33 0.2
0 0 -4 182.75 0.66
0 0 -5 183.54 0.68
0 0 -6 116.71 0.64
0 0 -7 18.05 0.31
0 0 -8 8.62 0.3
0 0 -9 79.83 0.73
0 0 -10 0.21 0.35
0 0 -11 0.31 0.37
0 -1 -1 932.37 17.5
0 1 -1 903.82 17.25
0 -1 -2 900.99 4.09
0 1 -2 912.94 3.5
0 -1 -3 525.13 1.77
0 1 -3 522 2.48
0 -1 -4 275.32 0.96
0 1 -4 279.21 0.7
0 -1 -5 136.95 0.6
0 1 -5 138.02 0.58
0 -1 -6 46.12 0.38
0 1 -6 45.08 0.41
0 -1 -7 87.51 0.57
0 1 -7 83.18 0.55
0 -1 -8 22.48 0.35
0 1 -8 22.76 0.42
0 -1 -9 32.11 0.57
0 1 -9 31.95 0.65
0 -1 -10 11.21 0.62
0 1 -10 11 0.62
0 -1 -11 6.85 0.48
0 1 -11 7.72 0.48
0 -2 0 149.49 1.43
0 2 0 150.78 1.41
0 2 -1 2086.43 28.68
0 -2 -2 754.56 3.18
0 2 -2 749.6 5.65
0 -2 -3 344.34 1.11
0 2 -3 358.92 1.19
0 -2 -4 250.17 0.92
0 2 -4 239.43 0.63
0 -2 -5 268.04 0.85
0 2 -5 266.55 0.75
0 -2 -6 22.9 0.3
0 2 -6 24.42 0.37
0 -2 -7 24.36 0.3
0 2 -7 23.8 0.43
0 -2 -8 21.85 0.38
0 2 -8 22.4 0.54
0 -2 -9 1.29 0.27
0 2 -9 1.06 0.4
0 -2 -10 27.29 0.66
0 2 -10 27.75 1.14
0 -2 -11 22.89 0.75
0 2 -11 22.38 0.76
0 -3 0 0.2 0.3
0 3 0 0.2 0.33
0 -3 -1 667.36 4.68
0 3 -1 666.36 4.75
0 -3 -2 994.88 5.01
0 3 -2 1024.66 7.16
0 -3 -3 81.4 0.58
0 3 -3 81.4 2.41
0 -3 -4 103.01 0.53
0 3 -4 97.67 0.43
0 -3 -5 50.16 0.38
0 3 -5 49.63 0.38
0 -3 -6 28.38 0.33
0 3 -6 26.78 0.39
0 -3 -7 187.43 0.83
0 3 -7 188.8 1.47
0 -3 -8 17.38 0.39
0 3 -8 15.63 0.5
0 -3 -9 0.64 0.25
0 3 -9 0.75 0.35
0 -3 -10 1.89 0.5
0 3 -10 1.54 0.53
0 -4 0 1639.27 26.79
0 4 0 1643.24 8.53
0 -4 -1 69.69 0.5
0 4 -1 61.93 0.55
0 -4 -2 177.45 0.78
0 -4 -3 24.21 0.37
0 4 -3 22.27 1.02
0 -4 -4 67.17 0.36
0 4 -4 67.41 0.4
0 -4 -5 78.35 0.43
0 4 -5 76.57 0.55
0 -4 -6 102.85 0.58
0 4 -6 96.56 0.83
0 -4 -7 4.25 0.23
0 4 -7 4.5 0.35
0 -4 -8 17.7 0.37
0 4 -8 17.87 0.66
0 -4 -9 27.15 0.46
0 4 -9 27.32 0.55
0 -4 -10 7.85 0.41
0 4 -10 8.19 0.5
0 -5 0 0.6 0.64
0 5 0 0.13 0.13
0 -5 -1 156.88 0.76
0 5 -1 156.79 0.78
0 -5 -2 17.43 0.32
0 5 -2 20.86 0.66
0 -5 -3 384.07 1.23
0 5 -3 371.23 1.23
0 -5 -4 254.11 0.85
0 5 -4 257.87 0.83
0 -5 -5 88.69 0.52
0 5 -5 87.61 0.61
0 -5 -6 2.91 0.21
0 5 -6 2.49 0.3
0 -5 -7 2.53 0.23
0 5 -7 1.66 0.3
0 -5 -8 29.52 0.45
0 5 -8 29.73 0.62
0 -5 -9 9.64 0.38
0 5 -9 8.87 0.47
0 -5 -10 0.5 0.33
0 5 -10 0.49 0.4
0 -6 0 197.42 2.91
0 6 0 207.45 1.43
0 -6 -1 271.35 1.25
0 6 -1 267.73 1.4
0 -6 -2 1.64 0.12
0 6 -2 1.23 0.21
0 -6 -3 12.88 0.22
0 6 -3 12.55 0.22
0 -6 -4 7.03 0.22
0 6 -4 5.2 0.22
0 -6 -5 106.38 0.64
0 6 -5 106.34 0.61
0 -6 -6 4.13 0.25
0 6 -6 3.5 0.28
0 -6 -7 36.49 0.45
0 6 -7 37.25 0.48
0 -6 -8 11.68 0.34
0 6 -8 11.94 0.41
0 -6 -9 0.51 0.3
0 6 -9 0.57 0.46
0 -6 -10 0.43 0.4
0 6 -10 0.32 0.44
0 -7 0 0.12 0.21
0 7 0 0.26 0.25
0 -7 -1 5.77 0.16
0 7 -1 4.93 0.22
0 -7 -2 224.12 0.63
0 7 -2 229.82 1.05
0 -7 -3 82.3 0.44
0 7 -3 87.25 0.49
0 -7 -4 33.82 0.38
0 7 -4 31 0.4
0 -7 -5 50.13 0.64
0 7 -5 50.98 0.53
0 -7 -6 5.09 0.31
0 7 -6 5.72 0.35
0 -7 -7 44.03 0.56
0 7 -7 44.26 0.85
0 -7 -8 15.07 0.42
0 7 -8 13.69 0.51
0 -7 -9 26.76 0.81
0 7 -9 29.39 1.18
0 -7 -10 8.01 0.49
0 -8 0 239.12 0.94
0 -8 -1 4.31 0.15
0 8 -1 4.92 0.18
0 -8 -2 63.44 0.36
0 8 -2 66.47 0.45
0 -8 -3 21.42 0.27
0 8 -3 22.36 0.25
0 -8 -4 60.31 0.51
0 8 -4 59.1 0.56
0 -8 -5 7.69 0.32
0 8 -5 9.96 0.32
0 -8 -6 68.27 0.59
0 8 -6 69.09 0.99
0 -8 -7 1.09 0.25
0 8 -7 1.22 0.68
0 -8 -8 9.65 0.35
0 8 -8 10.41 0.6
0 -8 -9 2.02 0.38
0 8 -9 1.59 0.82
0 -9 0 0.53 0.22
0 9 0 0.28 0.16
0 -9 -1 35.51 0.36
0 9 -1 36.42 0.36
0 -9 -2 80.62 0.51
0 9 -2 83.27 0.49
0 -9 -3 36.06 0.36
0 9 -3 34.59 0.32
0 -9 -4 121.15 0.64
0 9 -4 122.56 0.7
0 -9 -5 53.46 0.62
0 9 -5 51.84 0.6
0 -9 -6 19.35 0.37
0 9 -6 18.48 0.65
0 -9 -7 2.14 0.27
0 9 -7 2.45 0.48
0 -9 -8 19.62 0.42
0 9 -8 20 0.58
0 -9 -9 7.61 0.39
0 -10 0 103.75 0.77
0 10 0 113.9 1.06
0 -10 -1 114.04 0.73
0 10 -1 117.36 0.69
0 -10 -2 1.35 0.26
0 10 -2 1.35 0.19
0 -10 -3 12.56 0.32
0 10 -3 12.62 0.28
0 -10 -4 54.58 0.6
0 10 -4 53.99 0.55
0 -10 -5 93.35 0.7
0 10 -5 91.93 0.8
0 -10 -6 0.89 0.27
0 10 -6 1.01 0.33
0 -10 -7 23.38 0.41
0 10 -7 22.15 0.59
0 -10 -8 1.63 0.37
0 10 -8 1.53 0.45
0 -10 -9 15.35 0.67
0 -11 0 0.35 0.32
0 11 0 0.3 0.23
0 -11 -1 78.95 0.66
0 11 -1 81.59 0.61
0 -11 -2 44.92 0.62
0 11 -2 45.73 0.51
0 -11 -3 91.24 0.89
0 11 -3 94.5 0.65
0 -11 -4 6.2 0.65
0 11 -4 5.04 0.37
0 -11 -5 4.08 0.41
0 11 -5 4.01 0.32
0 -11 -6 3.86 0.45
0 11 -6 3.78 0.43
0 -11 -7 36 0.72
0 11 -7 35.42 0.86
0 -11 -8 19.71 0.73
0 11 -8 17.75 0.69
0 -12 0 55.84 0.87
0 12 0 50.77 0.78
0 -12 -1 57.79 0.61
0 12 -1 58.97 0.54
0 -12 -2 39 0.62
0 12 -2 38.42 0.49
0 -12 -3 38.23 0.81
0 12 -3 38.52 0.52
0 -12 -4 29.37 1.08
0 12 -4 29.79 0.61
0 -12 -5 9.86 0.81
0 12 -5 9.98 0.39
0 -12 -6 75.89 1.69
0 12 -6 74.11 0.92
0 12 -7 9.62 0.86
0 -12 -8 1.58 0.52
0 12 -8 1.17 0.68
0 -13 0 0.34 0.38
0 13 0 0.01 0.04
0 -13 -1 10.38 0.42
0 13 -1 9.19 0.34
0 -13 -2 64.72 1.01
0 13 -2 61.87 0.73
0 -13 -3 81.58 1.15
0 13 -3 75.93 0.96
0 -13 -4 17.57 0.94
0 13 -4 17.01 0.46
0 -13 -5 3.24 0.67
0 13 -5 3.35 0.42
0 -13 -6 9.17 0.6
0 13 -6 9.05 0.6
0 -13 -7 6.31 0.57
0 13 -7 6.07 0.83
0 -14 0 59.04 0.99
0 14 0 59.4 1.42
0 -14 -1 86.62 0.95
0 14 -1 76.44 1.24
0 -14 -2 13.95 0.49
0 14 -2 11.89 0.37
0 -14 -3 5.83 0.4
0 14 -3 5.15 0.44
0 14 -4 7.42 0.4
0 14 -5 30.71 0.67
0 -14 -6 4.68 0.57
0 14 -6 3.32 0.58
0 -15 0 0.54 0.48
0 15 0 0.44 0.53
0 -15 -1 16.71 0.52
0 15 -1 13.29 0.6
0 -15 -2 20.08 0.56
0 15 -2 15.46 0.73
0 -15 -3 32.75 0.66
0 15 -3 30.14 0.68
0 -15 -4 2.3 0.75
0 15 -4 1.56 0.53
0 -15 -5 1.43 0.65
0 15 -5 1.01 0.59
0 -16 0 19.24 0.95
0 16 0 14.68 0.95
0 -16 -1 2.1 0.5
0 16 -1 1.74 0.36
0 -16 -2 8.37 0.45
0 16 -2 6.11 0.52
0 -16 -3 0.2 1.52
0 16 -3 0.32 0.29
0 16 -4 30.38 0.82
0 -17 0 0.14 0.31
0 17 0 -0.08 0.29
0 -17 -1 3.37 0.56
0 17 -1 1.65 0.46
0 17 -2 18.01 1.08
0 -17 -3 9.27 0.84
0 17 -3 6.18 0.91
1 0 11 4.74 0.49
1 0 10 25.98 0.81
1 0 9 26.72 0.44
1 0 8 83.97 0.62
1 0 7 0.31 0.26
1 0 6 6.98 0.24
1 0 5 2.98 0.15
1 0 4 355.86 0.93
1 0 3 413.76 1.29
1 0 2 66.36 1.03
1 0 1 75.88 0.66
1 0 -1 1888.69 23.64
1 0 -2 1100.67 6.01
1 0 -3 1.09 0.16
1 0 -4 0.51 0.13
1 0 -5 78.61 0.45
1 0 -6 81.75 0.49
1 0 -7 16.54 0.31
1 0 -8 31.37 0.42
1 0 -9 0.42 0.2
1 0 -10 2.48 0.44
1 0 -11 22.34 1.08
1 -1 11 1.51 0.55
1 1 11 1.57 0.45
1 -1 10 2.53 0.37
1 1 10 2.33 0.44
1 -1 9 1.91 0.28
1 1 9 1.62 0.43
1 -1 8 14.23 0.33
1 1 8 15.06 0.37
1 -1 7 36.92 0.45
1 1 7 40.18 0.41
1 -1 6 61.65 0.43
1 1 6 62.6 0.53
1 -1 5 84.34 0.4
1 1 5 80.47 0.43
1 -1 4 48.75 0.34
1 1 4 46.94 0.3
1 -1 3 50.97 0.46
1 1 3 50.23 0.35
1 1 2 469.23 2.81
1 -1 1 1236.74 19.42
1 -1 0 19.12 0.38
1 1 0 20.77 0.39
1 -1 -1 944.34 4.08
1 1 -1 947.1 4.09
1 -1 -2 262.28 2.43
1 1 -2 265.94 1.58
1 -1 -3 107.09 0.77
1 1 -3 106.09 1.07
1 -1 -4 202.39 0.85
1 1 -4 201.26 0.81
1 -1 -5 102.2 0.51
1 1 -5 101.15 0.4
1 -1 -6 17.71 0.27
1 1 -6 17.55 0.29
1 -1 -7 66.7 0.57
1 1 -7 69.39 0.53
1 -1 -8 3.48 0.26
1 1 -8 3.35 0.29
1 -1 -9 34.02 0.53
1 1 -9 32.2 0.82
1 -1 -10 8.8 0.47
1 1 -10 8.26 0.49
1 -1 -11 0.49 1.08
1 1 -11 0.7 0.62
1 -2 11 3.49 0.48
1 2 11 3.34 0.6
1 -2 10 2.81 0.42
1 2 10 3.06 0.42
1 -2 9 38.72 0.51
1 2 9 40.08 0.72
1 -2 8 6.36 0.29
1 2 8 5.61 0.4
1 -2 7 0.82 0.23
1 2 7 0.97 0.25
1 -2 6 4.19 0.19
1 2 6 3.15 0.25
1 -2 5 292.43 0.81
1 2 5 298.28 0.67
1 -2 4 27.19 0.29
1 2 4 26.15 0.22
1 -2 3 70.86 0.51
1 2 3 71.42 0.55
1 -2 2 340.02 0.91
1 2 2 341.15 3.73
1 -2 1 335.51 3.07
1 2 1 335.19 3.1
1 -2 -1 381.64 2.68
1 2 -1 387.16 1.7
1 -2 -2 206.24 1
1 2 -2 202.98 3
1 -2 -3 437.22 1.16
1 2 -3 435.27 2.9
1 -2 -4 99.98 0.54
1 2 -4 101.6 0.5
1 -2 -5 33.35 0.3
1 2 -5 30.54 0.27
1 -2 -6 90.22 0.51
1 2 -6 91.91 0.48
1 -2 -7 54.92 0.48
1 2 -7 55.72 0.71
1 -2 -8 12.48 0.36
1 2 -8 12.76 0.46
1 -2 -9 16.61 0.43
1 2 -9 16.92 0.55
1 -2 -10 0.61 0.28
1 2 -10 0.93 0.44
1 -3 10 1.75 0.45
1 3 10 1.75 0.37
1 -3 9 7.18 0.33
1 3 9 7.6 0.47
1 -3 8 18.92 0.35
1 3 8 19.84 0.54
1 -3 7 6 0.26
1 3 7 6.43 0.47
1 -3 6 114.79 0.56
1 3 6 114.16 0.67
1 -3 5 84.87 0.47
1 3 5 85.94 0.48
1 -3 4 34.41 0.27
1 3 4 35.24 0.27
1 -3 3 442.48 1.31
1 3 3 469.79 2.87
1 -3 2 31.03 0.32
1 -3 1 1006.66 6.06
1 3 1 1053.67 6.27
1 -3 0 485.08 2.12
1 3 0 473.85 2.51
1 -3 -1 65.06 0.76
1 3 -1 66.27 0.89
1 -3 -2 138.6 0.63
1 3 -2 141.09 2.73
1 -3 -3 251.95 0.93
1 3 -3 249.32 4.17
1 -3 -4 396.45 0.99
1 3 -4 403.41 0.97
1 -3 -5 46.57 0.36
1 3 -5 43.68 0.42
1 -3 -6 56.85 0.44
1 3 -6 58 0.54
1 -3 -7 8.7 0.25
1 3 -7 6.86 0.47
1 -3 -8 59.06 0.57
1 3 -8 59.93 0.98
1 -3 -9 10.4 0.38
1 3 -9 10.21 0.85
1 -3 -10 1.73 0.37
1 3 -10 1.59 0.59
1 -4 10 21.23 0.61
1 4 10 21.76 0.61
1 -4 9 5.48 0.35
1 4 9 5.04 0.44
1 -4 8 32.76 0.42
1 4 8 34.33 1.14
1 -4 7 19.82 0.32
1 4 7 18.1 0.59
1 -4 6 16.85 0.27
1 4 6 18.53 0.36
1 -4 5 69.91 0.41
1 4 5 71.23 0.53
1 -4 4 163.68 0.64
1 4 4 162.85 0.57
1 -4 3 228.69 1.03
1 4 3 240.02 2.98
1 -4 2 2.36 0.17
1 4 2 2.64 0.99
1 -4 1 884.68 5.06
1 4 1 892.02 5.15
1 -4 0 247.9 1.8
1 4 0 266.8 0.86
1 -4 -1 189.65 0.88
1 4 -1 195.03 0.85
1 -4 -2 702.65 3.25
1 4 -2 696.79 7.65
1 -4 -3 10.01 0.22
1 4 -3 10.56 0.38
1 -4 -4 7.79 0.17
1 4 -4 7.72 0.18
1 -4 -5 107.38 0.5
1 4 -5 108.73 0.75
1 -4 -6 145.24 0.71
1 4 -6 146.49 0.98
1 -4 -7 17.74 0.31
1 4 -7 16.2 0.39
1 -4 -8 0.56 0.29
1 4 -8 0.46 0.26
1 -4 -9 7.97 0.37
1 4 -9 8.07 0.46
1 -4 -10 3.62 0.39
1 4 -10 4.52 0.82
1 -5 10 3.2 0.43
1 5 10 2.65 0.63
1 -5 9 1.02 0.28
1 5 9 0.96 0.41
1 -5 8 4.83 0.29
1 5 8 3.97 0.54
1 -5 7 190.57 1.03
1 5 7 189.76 1.04
1 -5 6 65.46 0.51
1 5 6 70.73 0.62
1 -5 5 55.36 0.46
1 5 5 53.42 0.4
1 -5 4 17.98 0.27
1 5 4 17.61 0.25
1 -5 3 257.71 0.9
1 5 3 259.71 1.13
1 -5 2 235.78 1.04
1 5 2 243.64 2.27
1 -5 1 164.87 0.96
1 5 1 163.42 1.02
1 -5 0 166.59 0.85
1 5 0 169.46 0.74
1 -5 -1 39.36 0.36
1 5 -1 39.84 0.38
1 -5 -2 679.3 3.21
1 5 -2 691.98 3.66
1 -5 -3 29.11 0.25
1 5 -3 30.68 0.33
1 -5 -4 102.58 0.49
1 5 -4 97.59 0.54
1 -5 -5 51.92 0.41
1 5 -5 51.14 0.48
1 -5 -6 15.71 0.3
1 5 -6 15.24 0.41
1 -5 -7 73.08 0.55
1 5 -7 75.24 0.7
1 -5 -8 14.41 0.39
1 5 -8 13.16 0.5
1 -5 -9 6.96 0.36
1 5 -9 7.79 0.47
1 -5 -10 2.96 0.57
1 5 -10 2.79 0.61
1 -6 10 12.15 0.65
1 6 10 13.29 0.97
1 -6 9 19.17 0.46
1 6 9 17.74 0.57
1 -6 8 5.64 0.3
1 6 8 5.92 0.43
1 -6 7 9.05 0.3
1 6 7 8.59 0.35
1 -6 6 30.61 0.4
1 6 6 29.72 0.45
1 -6 5 189.98 0.92
1 6 5 189.79 1.05
1 -6 4 85.6 0.7
1 6 4 86.62 0.47
1 -6 3 89.42 0.55
1 6 3 92.3 0.61
1 -6 2 63.44 0.43
1 6 2 61.4 0.54
1 -6 1 38.46 0.51
1 6 1 41.67 0.45
1 -6 0 391.97 2.83
1 6 0 383.33 1.32
1 -6 -1 441.73 1.38
1 6 -1 448.12 2.61
1 -6 -2 26.95 0.23
1 6 -2 28.21 0.31
1 -6 -3 13.02 0.22
1 6 -3 14.24 0.26
1 -6 -4 109.21 0.6
1 6 -4 109.77 0.6
1 -6 -5 32.4 0.39
1 6 -5 32.94 0.37
1 -6 -6 56.07 0.49
1 6 -6 55.14 0.66
1 -6 -7 10.54 0.31
1 6 -7 10.48 0.33
1 -6 -8 2.53 0.3
1 6 -8 2.43 0.41
1 -6 -9 13.05 0.42
1 6 -9 13.21 0.66
1 -6 -10 13.43 0.54
1 -7 10 15.58 0.56
1 7 10 14.78 0.69
1 -7 9 15.27 0.5
1 7 9 14.24 0.95
1 -7 8 61.95 0.69
1 7 8 62.95 1.39
1 -7 7 6.24 0.32
1 7 7 5.45 0.67
1 -7 6 44.71 0.52
1 7 6 44.79 0.65
1 -7 5 51.46 0.65
1 7 5 52.49 0.53
1 -7 4 52.48 0.59
1 7 4 53.37 0.4
1 -7 3 89.2 0.47
1 7 3 87.46 0.51
1 -7 2 272.37 0.86
1 7 2 276.14 1.14
1 -7 1 305.45 0.78
1 7 1 317.28 1.36
1 -7 0 133.91 0.92
1 7 0 130.01 0.78
1 -7 -1 68.18 0.36
1 7 -1 67.87 0.41
1 -7 -2 8.6 0.14
1 7 -2 9.35 0.19
1 -7 -3 209.49 0.65
1 7 -3 210.18 1.04
1 -7 -4 205.3 0.75
1 7 -4 205.29 1.06
1 -7 -5 2.75 0.25
1 7 -5 2.46 0.24
1 -7 -6 19.08 0.38
1 7 -6 20.04 0.48
1 -7 -7 7.11 0.32
1 7 -7 7.39 0.34
1 -7 -8 9.31 0.37
1 7 -8 9.01 0.39
1 -7 -9 2.95 0.33
1 7 -9 2.89 0.56
1 -7 -10 2.08 0.39
1 -8 9 5.89 0.4
1 8 9 5.49 0.85
1 -8 8 20.13 0.45
1 8 8 19.6 0.7
1 -8 7 2.49 0.28
1 8 7 2.86 0.46
1 -8 6 19.65 0.4
1 8 6 18.62 0.42
1 -8 5 70.25 0.61
1 8 5 71.78 0.64
1 -8 4 151.3 0.85
1 8 4 149 0.74
1 -8 3 15.64 0.22
1 8 3 13.73 0.28
1 -8 2 15.97 0.23
1 8 2 16.25 0.3
1 -8 1 148.74 0.62
1 8 1 146.28 0.76
1 -8 0 231.5 1.23
1 8 0 237.49 1
1 -8 -1 126.74 0.63
1 8 -1 128.9 0.57
1 -8 -2 50.35 0.31
1 8 -2 48.65 0.33
1 -8 -3 1.16 0.14
1 8 -3 1.14 0.15
1 -8 -4 29.47 0.33
1 8 -4 29.29 0.43
1 -8 -5 79.61 0.63
1 8 -5 77.02 0.77
1 -8 -6 8.16 0.36
1 8 -6 8.7 0.51
1 -8 -7 30.7 0.5
1 8 -7 31.25 0.77
1 -8 -8 11.68 0.36
1 8 -8 12.45 0.5
1 -8 -9 21.51 0.61
1 -9 9 1.05 0.42
1 9 9 1.45 0.72
1 -9 8 1.63 0.33
1 9 8 1.63 0.54
1 -9 7 50.51 0.56
1 9 7 48.22 0.93
1 -9 6 42.12 0.54
1 9 6 41.96 0.66
1 -9 5 3 0.25
1 9 5 2.4 0.27
1 -9 4 99.13 0.74
1 9 4 97.27 0.83
1 -9 3 38.77 0.37
1 9 3 41.54 0.34
1 -9 2 113.6 0.68
1 9 2 115.14 0.69
1 -9 1 72.58 0.49
1 9 1 72.83 0.49
1 -9 0 49.91 0.36
1 9 0 52.75 0.43
1 -9 -1 4.07 0.2
1 9 -1 3.79 0.18
1 -9 -2 155.84 0.88
1 9 -2 153.77 0.77
1 -9 -3 124.97 0.67
1 9 -3 119.49 0.6
1 -9 -4 32.6 0.36
1 9 -4 36.03 0.56
1 -9 -5 48 0.53
1 9 -5 47.29 0.66
1 -9 -6 1.36 0.26
1 9 -6 0.79 0.38
1 -9 -7 30.25 0.47
1 9 -7 29.85 0.8
1 -9 -8 11.82 0.37
1 9 -8 11.25 0.59
1 -9 -9 8.93 0.45
1 -10 9 12.67 0.65
1 -10 8 3.08 0.43
1 10 8 2.74 0.47
1 -10 7 0.23 0.25
1 10 7 0.11 0.09
1 -10 6 28.15 0.54
1 10 6 26.89 0.6
1 -10 5 1.65 0.29
1 10 5 1.22 0.23
1 -10 4 55.7 0.74
1 10 4 50.56 0.54
1 -10 3 171.55 2.21
1 10 3 166.67 0.89
1 -10 2 10.94 0.3
1 10 2 11.42 0.28
1 -10 1 28.83 0.41
1 10 1 29.6 0.42
1 -10 0 89.69 0.62
1 10 0 85.85 0.52
1 -10 -1 80.71 0.64
1 10 -1 82.87 0.55
1 -10 -2 44.43 0.59
1 10 -2 47.5 0.46
1 -10 -3 16.44 0.32
1 10 -3 15.88 0.32
1 -10 -4 6.21 0.25
1 10 -4 5.2 0.34
1 -10 -5 46.09 0.59
1 10 -5 44.19 0.59
1 -10 -6 40.49 0.5
1 10 -6 40.83 0.59
1 -10 -7 2.35 0.3
1 10 -7 1.86 0.68
1 -10 -8 1.6 0.38
1 10 -8 1.59 0.52
1 -10 -9 9.99 0.87
1 -11 8 6.92 0.58
1 11 8 5.78 0.62
1 -11 7 6.73 0.48
1 11 7 6.7 0.61
1 -11 6 7.37 0.57
1 11 6 7.83 0.39
1 -11 5 28.67 1.06
1 11 5 27.83 0.46
1 -11 4 3.86 0.63
1 11 4 3.13 0.32
1 -11 3 19.6 0.6
1 11 3 17.92 0.32
1 -11 2 76.53 0.84
1 11 2 70.73 0.56
1 -11 1 40.97 0.44
1 11 1 43.9 0.53
1 -11 0 55.86 0.51
1 11 0 57.75 0.5
1 -11 -1 15.24 0.35
1 11 -1 14.25 0.32
1 -11 -2 14.6 0.42
1 11 -2 16.25 0.35
1 -11 -3 31.87 0.58
1 11 -3 30.71 0.55
1 -11 -4 67.57 0.73
1 11 -4 65.11 0.7
1 -11 -5 3.28 0.39
1 11 -5 3.61 0.32
1 -11 -6 17.19 0.42
1 11 -6 16.18 0.44
1 -11 -7 1.93 0.35
1 11 -7 1.66 0.65
1 -11 -8 19.62 0.72
1 11 -8 18.89 1.01
1 -12 8 0.94 0.49
1 12 8 0.67 0.62
1 -12 7 3.64 0.74
1 12 7 2.93 0.84
1 -12 6 6.06 0.77
1 12 6 4.72 0.46
1 -12 5 30.33 1.12
1 12 5 29.86 0.48
1 -12 4 23.2 0.99
1 12 4 21.54 0.55
1 -12 3 1.18 0.36
1 12 3 0.89 0.24
1 -12 2 80.67 1.06
1 12 2 79.39 0.88
1 -12 1 6.18 0.44
1 12 1 5.69 0.25
1 -12 0 52.56 0.6
1 12 0 53.93 0.56
1 -12 -1 40.6 0.54
1 12 -1 37.22 0.52
1 -12 -2 53.09 0.72
1 12 -2 50.64 0.61
1 -12 -3 13.66 0.46
1 12 -3 14.31 0.35
1 -12 -4 2.08 0.43
1 12 -4 1.73 0.31
1 -12 -5 4.61 0.72
1 12 -5 4.54 0.36
1 -12 -6 9.44 0.51
1 12 -6 9.05 0.47
1 -12 -7 23.67 1.1
1 12 -7 24.94 1.11
1 -12 -8 2.07 0.86
1 12 -8 1.73 1.01
1 -13 7 13.34 0.66
1 13 7 11.8 0.91
1 13 6 3 0.52
1 -13 5 4.22 0.68
1 13 5 3.8 0.33
1 -13 4 4.32 0.68
1 13 4 3.75 0.35
1 -13 3 2.94 0.43
1 13 3 3.47 0.31
1 -13 2 34.43 0.78
1 13 2 32.77 0.65
1 -13 1 25 0.63
1 13 1 23.62 0.41
1 -13 0 16.32 0.41
1 13 0 15.74 0.44
1 -13 -1 3.23 0.31
1 13 -1 3.35 0.26
1 -13 -2 5.73 0.33
1 13 -2 5.25 0.28
1 -13 -3 44.79 0.9
1 13 -3 44.65 0.65
1 -13 -4 19 0.97
1 13 -4 19.04 0.5
1 -13 -5 13.93 0.92
1 13 -5 13.11 0.63
1 -13 -6 0.76 0.52
1 13 -6 0.73 0.47
1 -13 -7 0.98 0.57
1 13 -7 0.9 1.05
1 -14 6 2.45 0.58
1 14 6 2.86 0.57
1 -14 5 2.27 0.72
1 14 5 1.92 0.37
1 -14 4 11.27 0.85
1 14 4 11.55 0.43
1 -14 3 20.07 0.68
1 14 3 19.83 0.58
1 -14 2 10.71 0.46
1 14 2 9.03 0.41
1 -14 1 1.35 0.33
1 14 1 1.16 0.32
1 -14 0 3.12 0.35
1 14 0 1.85 0.35
1 -14 -1 53.18 0.77
1 14 -1 48.15 0.82
1 -14 -2 34.37 0.65
1 14 -2 29.69 0.66
1 -14 -3 4.37 0.69
1 14 -3 3.53 0.36
1 -14 -4 1.11 0.82
1 14 -4 0.94 0.34
1 -14 -5 3.46 0.71
1 14 -5 3.05 0.59
1 -14 -6 8.48 0.58
1 14 -6 7.21 0.51
1 -15 6 3.48 0.78
1 15 6 2.56 0.85
1 -15 5 5.43 0.84
1 15 5 4.72 0.49
1 -15 4 1.79 0.51
1 15 4 1.73 0.37
1 -15 3 0.46 0.49
1 15 3 0.34 0.28
1 -15 2 31.6 0.65
1 15 2 32.56 0.85
1 -15 1 2.63 0.39
1 15 1 2.77 0.46
1 -15 0 30.25 0.77
1 15 0 25.76 1.13
1 -15 -1 0.98 0.35
1 15 -1 0.81 0.36
1 -15 -2 16.63 0.63
1 15 -2 18.03 0.7
1 -15 -3 6.15 0.53
1 15 -3 5.54 0.42
1 -15 -4 7.16 0.8
1 15 -4 5.93 0.47
1 -15 -5 16.64 0.97
1 15 -5 17.65 0.98
1 -16 4 16.57 0.93
1 16 4 15.21 0.56
1 -16 3 1.53 0.47
1 16 3 1.26 0.34
1 -16 2 3.07 0.43
1 16 2 1.91 0.37
1 -16 1 2.15 0.74
1 16 1 0.98 0.32
1 -16 0 25.06 0.72
1 16 0 23.63 0.78
1 -16 -1 9.65 0.82
1 16 -1 7.66 0.6
1 -16 -2 1.36 0.48
1 16 -2 0.84 0.39
1 -16 -3 2.32 0.71
1 16 -3 1.87 0.41
1 -16 -4 9.25 0.83
1 16 -4 8.86 0.43
1 17 3 2.68 0.5
1 -17 2 7.36 0.87
1 17 2 6.82 0.48
1 -17 1 4.4 0.57
1 17 1 4.24 0.61
1 -17 0 2.29 0.58
1 17 0 1.85 0.4
1 17 -1 7.48 0.5
1 -17 -2 1.56 0.68
1 17 -2 0.96 0.46
1 -17 -3 32.54 1.16
1 17 -3 29.04 0.7
2 0 11 3.31 0.48
2 0 10 28.49 0.57
2 0 9 16.73 0.39
2 0 8 0.38 0.14
2 0 7 60.64 0.54
2 0 6 20.33 0.26
2 0 5 94.03 0.39
2 0 4 267.03 0.87
2 0 3 46.42 0.36
2 0 2 459.2 2.81
2 0 1 134.94 0.79
2 0 0 206.44 0.86
2 0 -1 538.56 1.97
2 0 -2 206.19 1.37
2 0 -3 17.45 0.64
2 0 -4 24.16 0.25
2 0 -5 8.5 0.2
2 0 -6 15.85 0.23
2 0 -7 11.94 0.31
2 0 -8 56.64 0.64
2 0 -9 22.49 0.74
2 0 -10 0.18 0.28
2 -1 11 3.21 0.47
2 1 11 4.02 0.47
2 -1 10 1.35 0.35
2 1 10 1.5 0.4
2 -1 9 5.72 0.34
2 1 9 6.18 0.43
2 -1 8 43.89 0.48
2 1 8 44.01 0.53
2 -1 7 24.42 0.38
2 1 7 22.68 0.37
2 -1 6 112.75 0.57
2 1 6 113.13 0.51
2 -1 5 42.99 0.31
2 1 5 44.85 0.3
2 -1 4 7.09 0.15
2 1 4 7.95 0.17
2 -1 3 20.37 0.22
2 1 3 20.58 0.24
2 -1 2 272.15 1.14
2 1 2 279.58 1.68
2 -1 1 1376.94 23.29
2 1 1 1340.19 23.37
2 -1 0 614.15 3.41
2 1 0 631.78 2.37
2 -1 -1 498.63 2.03
2 1 -1 489.29 1.78
2 -1 -2 163.78 1.81
2 1 -2 157.02 1.06
2 -1 -3 306.09 1.2
2 1 -3 305.44 1.98
2 -1 -4 298.26 0.98
2 1 -4 316.48 1.02
2 -1 -5 62.26 0.37
2 1 -5 61.52 0.45
2 -1 -6 14.8 0.25
2 1 -6 13.52 0.25
2 -1 -7 10.21 0.3
2 1 -7 9.65 0.26
2 -1 -8 16.08 0.39
2 1 -8 16.55 0.51
2 -1 -9 0.75 0.3
2 1 -9 1.21 0.53
2 -1 -10 7.9 0.46
2 1 -10 7.75 0.57
2 -2 11 7.63 0.49
2 2 11 7.47 0.62
2 -2 10 4.4 0.38
2 2 10 4.35 0.5
2 -2 9 13.09 0.37
2 2 9 14.71 0.66
2 -2 8 39.52 0.47
2 2 8 39.66 0.57
2 -2 7 0.27 0.17
2 2 7 0.63 0.32
2 -2 6 35.64 0.39
2 2 6 35.09 0.35
2 -2 5 5.53 0.16
2 2 5 4.78 0.15
2 -2 4 202.46 0.6
2 2 4 209.1 0.58
2 -2 3 701.12 4.04
2 2 3 709.36 3.98
2 -2 2 86.91 0.49
2 2 2 92.89 1.14
2 -2 1 433.33 3.71
2 2 1 454.84 3.82
2 -2 0 99.84 1.68
2 2 0 100.4 1.16
2 -2 -1 1357.5 4.63
2 2 -1 1363.82 13.8
2 -2 -2 41.1 0.42
2 2 -2 47.19 0.84
2 -2 -3 260.33 0.93
2 2 -3 270.9 1.72
2 -2 -4 10.07 0.2
2 2 -4 9.83 0.19
2 -2 -5 29.11 0.27
2 2 -5 28.99 0.26
2 -2 -6 82.61 0.64
2 2 -6 83.11 0.51
2 -2 -7 10.38 0.31
2 2 -7 11.31 0.42
2 -2 -8 7.93 0.33
2 2 -8 8.68 0.36
2 -2 -9 13.34 0.37
2 2 -9 13.76 0.64
2 -2 -10 4.2 0.37
2 2 -10 4.91 0.54
2 -3 11 9.27 0.87
2 3 11 9.94 0.88
2 -3 10 0.38 0.2
2 3 10 0.41 0.46
2 -3 9 5.97 0.3
2 3 9 5.86 0.45
2 -3 8 36.8 0.43
2 3 8 35.13 0.65
2 -3 7 61.98 0.53
2 3 7 64.75 1.28
2 -3 6 80.76 0.52
2 3 6 83.94 0.49
2 -3 5 50.16 0.38
2 3 5 46.85 0.38
2 -3 4 149.22 0.6
2 3 4 150.73 0.59
2 -3 3 210.12 1.27
2 3 3 213.83 1.01
2 -3 2 182.06 1.02
2 3 2 183.34 2.97
2 -3 1 145.04 2.43
2 3 1 156.02 2.55
2 -3 0 1103.09 6.15
2 3 0 1114.03 5.38
2 -3 -1 486.39 2.01
2 3 -1 492.81 2.66
2 -3 -2 312.48 0.97
2 3 -2 327.54 2.26
2 -3 -3 95.27 0.59
2 3 -3 97.27 1.47
2 -3 -4 157.15 0.53
2 3 -4 149.38 0.58
2 -3 -5 198.5 0.83
2 3 -5 205.12 0.87
2 -3 -6 1.11 0.21
2 3 -6 1.39 0.24
2 -3 -7 6.1 0.26
2 3 -7 6.13 0.37
2 -3 -8 23.13 0.4
2 3 -8 23.59 0.57
2 -3 -9 20.84 0.42
2 3 -9 20.83 0.72
2 -3 -10 3.02 0.38
2 -4 10 0.21 0.25
2 4 10 0.24 0.26
2 -4 9 17.89 0.41
2 4 9 17.5 0.57
2 -4 8 26.6 0.39
2 4 8 26.79 0.73
2 -4 7 43.92 0.43
2 4 7 44.68 0.63
2 -4 6 0.66 0.16
2 4 6 0.51 0.24
2 -4 5 62.29 0.4
2 4 5 60.79 0.39
2 -4 4 201.64 0.71
2 4 4 203.81 0.67
2 -4 3 46.88 0.67
2 4 3 54.64 0.68
2 -4 2 1034.35 7.8
2 4 2 1030.93 7.71
2 -4 1 208.59 1.04
2 4 1 210.73 2.21
2 -4 0 753.56 4.8
2 4 0 740.54 4.07
2 -4 -1 148.96 0.91
2 4 -1 149.71 0.67
2 -4 -2 361.41 1.14
2 4 -2 375.05 3.86
2 -4 -3 84.54 0.38
2 4 -3 88.53 0.53
2 -4 -4 0.36 0.11
2 4 -4 0.35 0.18
2 -4 -5 11.34 0.22
2 4 -5 9.51 0.27
2 -4 -6 135.49 0.7
2 4 -6 138.11 0.74
2 -4 -7 51.98 0.5
2 4 -7 53.72 0.61
2 -4 -8 26.59 0.42
2 4 -8 26.63 0.74
2 -4 -9 11.66 0.36
2 4 -9 12.49 0.64
2 -4 -10 0.47 0.42
2 4 -10 0.45 0.66
2 -5 10 18.41 0.59
2 5 10 17.1 0.57
2 -5 9 1.55 0.32
2 5 9 2.03 0.38
2 -5 8 19.95 0.39
2 5 8 20.93 0.99
2 -5 7 66.16 0.59
2 5 7 61.85 0.64
2 -5 6 129.43 0.78
2 5 6 132.95 0.74
2 -5 5 112.13 0.66
2 5 5 117.04 0.61
2 -5 4 36.17 0.38
2 5 4 37.85 0.37
2 -5 3 0.73 0.13
2 5 3 0.48 0.26
2 -5 2 274.03 1.48
2 5 2 284.39 3.2
2 -5 1 444.87 1.59
2 5 1 439.17 4.59
2 -5 0 118.38 0.59
2 5 0 120.49 0.56
2 -5 -1 42.89 0.57
2 5 -1 44.34 0.44
2 -5 -2 111.33 0.83
2 5 -2 109.79 1.11
2 -5 -3 128.17 0.52
2 5 -3 130.36 0.65
2 -5 -4 349.54 0.83
2 5 -4 356.59 0.99
2 -5 -5 78.14 0.46
2 5 -5 76.23 0.55
2 -5 -6 4.44 0.23
2 5 -6 4.67 0.25
2 -5 -7 1.58 0.26
2 5 -7 1.64 0.28
2 -5 -8 20.67 0.44
2 5 -8 21.38 0.99
2 -5 -9 6.93 0.42
2 5 -9 7.49 0.6
2 -5 -10 22.62 0.52
2 5 -10 25.21 1.1
2 -6 10 3.38 0.46
2 6 10 2.64 0.53
2 -6 9 12.36 0.41
2 6 9 12.33 0.44
2 -6 8 13.66 0.36
2 6 8 14.58 0.89
2 -6 7 25.59 0.4
2 6 7 25.47 0.42
2 -6 6 31.86 0.39
2 6 6 32.65 0.54
2 -6 5 27.22 0.36
2 6 5 26.8 0.32
2 -6 4 105.68 0.76
2 6 4 109.45 0.74
2 -6 3 400.95 1.17
2 6 3 405.1 1.39
2 -6 2 81.59 0.39
2 6 2 83.83 0.42
2 -6 1 88.63 0.65
2 6 1 88.49 0.54
2 -6 0 20.17 0.35
2 6 0 23.77 0.33
2 -6 -1 508.8 2.11
2 6 -1 545.62 2.52
2 -6 -2 351.14 0.75
2 6 -2 344.8 0.94
2 -6 -3 249.75 0.65
2 6 -3 252.55 1.01
2 -6 -4 10.46 0.21
2 6 -4 10.43 0.27
2 -6 -5 11.56 0.29
2 6 -5 11.48 0.27
2 -6 -6 48.97 0.52
2 6 -6 49.18 0.65
2 -6 -7 58.4 0.64
2 6 -7 58.57 0.67
2 -6 -8 21.21 0.46
2 6 -8 23.45 0.57
2 -6 -9 36.96 0.57
2 6 -9 37.37 0.88
2 -6 -10 5.07 0.42
2 6 -10 5.21 0.98
2 -7 10 1.56 0.4
2 7 10 1.22 0.92
2 -7 9 35.12 0.72
2 7 9 34.38 1.26
2 -7 8 1.79 0.28
2 7 8 1.49 0.49
2 -7 7 67.81 0.66
2 7 7 70.14 0.82
2 -7 6 58.47 0.58
2 7 6 58.64 0.61
2 -7 5 24.16 0.41
2 7 5 22.84 0.35
2 -7 4 38.41 0.44
2 7 4 39.12 0.38
2 -7 3 16.86 0.24
2 7 3 18.29 0.26
2 -7 2 66.06 0.39
2 7 2 61.91 0.5
2 -7 1 299.85 0.81
2 7 1 305.92 1
2 -7 0 452.64 1.23
2 7 0 457.66 1.16
2 -7 -1 31.74 0.23
2 7 -1 32.66 0.3
2 -7 -2 66.36 0.34
2 7 -2 66.08 0.38
2 -7 -3 53.35 0.33
2 7 -3 55.64 0.48
2 -7 -4 46.62 0.38
2 7 -4 42.43 0.45
2 -7 -5 188.96 1.01
2 7 -5 193.4 1.04
2 -7 -6 50.89 0.56
2 7 -6 50.15 0.68
2 -7 -7 10.34 0.39
2 7 -7 10.67 0.38
2 -7 -8 18.43 0.45
2 7 -8 18.48 0.55
2 -7 -9 11.05 0.44
2 7 -9 10.46 0.95
2 -7 -10 3.58 0.83
2 -8 9 1.87 0.4
2 8 9 1.3 0.83
2 -8 8 24.73 0.49
2 8 8 23.42 0.59
2 -8 7 19.96 0.43
2 8 7 19.83 0.66
2 -8 6 2.19 0.25
2 8 6 2.22 0.3
2 -8 5 12.22 0.31
2 8 5 11.13 0.3
2 -8 4 160.7 0.82
2 8 4 161.54 0.69
2 -8 3 151.63 0.7
2 8 3 157.21 0.72
2 -8 2 41.12 0.37
2 8 2 39.95 0.36
2 -8 1 146.02 0.63
2 8 1 148.25 0.79
2 -8 0 138.74 0.68
2 8 0 134.53 0.55
2 -8 -1 154.74 0.7
2 8 -1 155.2 0.64
2 -8 -2 152.78 0.56
2 8 -2 155.62 0.76
2 -8 -3 45.78 0.31
2 8 -3 46.94 0.41
2 -8 -4 57.66 0.43
2 8 -4 56.55 0.64
2 -8 -5 66.9 0.54
2 8 -5 65.83 0.74
2 -8 -6 29.5 0.42
2 8 -6 30.16 0.74
2 -8 -7 15.6 0.4
2 8 -7 14.65 0.53
2 -8 -8 55.19 0.6
2 -8 -9 6.57 0.46
2 -9 9 0.01 0.03
2 9 9 0.42 0.7
2 -9 8 12.25 0.45
2 9 8 12.53 0.51
2 -9 7 1.95 0.3
2 9 7 1.26 0.46
2 -9 6 38.06 0.58
2 9 6 41.54 0.58
2 -9 5 180.93 1.05
2 9 5 177.14 1.02
2 -9 4 4.89 0.27
2 9 4 4.16 0.28
2 -9 3 10.99 0.26
2 9 3 10.17 0.3
2 -9 2 78.32 0.68
2 9 2 82.32 0.57
2 -9 1 158.15 0.7
2 9 1 159.27 0.78
2 -9 0 22.68 0.34
2 9 0 23.5 0.3
2 -9 -1 40.53 0.39
2 9 -1 40.35 0.33
2 -9 -2 25.33 0.3
2 9 -2 25.53 0.34
2 -9 -3 95.82 0.56
2 9 -3 94.21 0.6
2 -9 -4 162.12 0.67
2 9 -4 158.49 1.33
2 -9 -5 8.85 0.26
2 9 -5 7.7 0.37
2 -9 -6 5.44 0.28
2 9 -6 5.86 0.4
2 -9 -7 3.37 0.29
2 9 -7 3.75 0.46
2 -9 -8 5.56 0.31
2 9 -8 5.18 0.76
2 -9 -9 19.88 0.59
2 -10 9 7.09 0.6
2 10 9 7.26 1
2 -10 8 9.29 0.49
2 10 8 8.3 0.61
2 -10 7 10.18 0.43
2 10 7 9.84 0.59
2 -10 6 1.09 0.35
2 10 6 0.97 0.32
2 -10 5 92.34 1.21
2 10 5 91.02 0.64
2 -10 4 1.08 0.38
2 10 4 1.77 0.25
2 -10 3 122.23 0.94
2 10 3 119.16 0.93
2 -10 2 71.42 0.85
2 10 2 74.1 0.55
2 -10 1 3.04 0.23
2 10 1 2.93 0.24
2 -10 0 71.37 0.52
2 10 0 74.32 0.49
2 -10 -1 105.25 0.68
2 10 -1 104.09 0.61
2 -10 -2 38.98 0.48
2 10 -2 35.89 0.41
2 -10 -3 19.46 0.34
2 10 -3 18.44 0.34
2 -10 -4 23.06 0.36
2 10 -4 22.13 0.49
2 -10 -5 11.59 0.39
2 10 -5 9.96 0.41
2 -10 -6 15.78 0.37
2 10 -6 15.85 0.91
2 -10 -7 56.89 0.57
2 10 -7 57.62 1.03
2 -10 -8 2.38 0.42
2 10 -8 1.99 0.84
2 -10 -9 2.11 0.84
2 -11 8 2.53 0.55
2 11 8 2.64 0.62
2 -11 7 23.58 0.62
2 11 7 22.77 0.61
2 -11 6 21.82 0.7
2 11 6 19.36 0.48
2 -11 5 2.08 0.58
2 11 5 1.98 0.29
2 -11 4 12.39 0.78
2 11 4 14.37 0.47
2 -11 3 62.1 0.76
2 11 3 63.9 0.85
2 -11 2 55.42 0.67
2 11 2 54.9 0.68
2 -11 1 23.59 0.42
2 11 1 22.87 0.42
2 -11 0 47.31 0.45
2 11 0 45.57 0.43
2 -11 -1 16.18 0.32
2 11 -1 16.15 0.33
2 -11 -2 18.69 0.46
2 11 -2 18.5 0.4
2 -11 -3 33.36 0.53
2 11 -3 32.03 0.45
2 -11 -4 7.07 0.28
2 11 -4 7.45 0.38
2 -11 -5 16.06 0.51
2 11 -5 15.35 0.42
2 -11 -6 49.71 0.56
2 11 -6 49.72 1.37
2 -11 -7 23.32 0.45
2 11 -7 23.36 0.74
2 -11 -8 0.41 0.33
2 11 -8 0.61 0.97
2 -12 8 8.81 0.61
2 12 8 9.03 0.9
2 -12 7 4.06 0.71
2 12 7 3.86 0.79
2 -12 6 2.83 0.71
2 12 6 2.44 0.44
2 -12 5 1.77 0.7
2 12 5 1.08 0.34
2 -12 4 59.85 1.39
2 12 4 60.84 0.7
2 -12 3 23.28 0.66
2 12 3 22.29 0.48
2 -12 2 0.21 0.14
2 12 2 0.01 0.02
2 -12 1 4.5 0.34
2 12 1 4.28 0.32
2 -12 0 29.22 0.42
2 12 0 27.44 0.48
2 -12 -1 10.97 0.31
2 12 -1 13.27 0.34
2 -12 -2 109.59 0.84
2 12 -2 106.14 0.95
2 -12 -3 0.74 0.31
2 12 -3 0.19 0.17
2 -12 -4 1.4 0.33
2 12 -4 1.49 0.43
2 -12 -5 11.64 0.86
2 12 -5 10.39 0.46
2 -12 -6 7.92 0.45
2 12 -6 9.31 0.59
2 -12 -7 1.06 0.42
2 12 -7 0.59 0.64
2 -12 -8 3.01 0.57
2 -13 7 14.71 0.67
2 13 7 14.24 0.95
2 -13 6 8.44 0.82
2 13 6 8.95 0.59
2 -13 5 7.85 0.79
2 13 5 6.82 0.46
2 -13 4 1.48 0.7
2 13 4 1.26 0.34
2 -13 3 3.79 0.44
2 13 3 3.52 0.32
2 -13 2 19.84 0.63
2 13 2 18.5 0.42
2 -13 1 16.15 0.47
2 13 1 15.71 0.4
2 -13 0 41.54 0.58
2 13 0 40.12 0.72
2 -13 -1 5.55 0.33
2 13 -1 5.36 0.3
2 -13 -2 13.76 0.4
2 13 -2 12.74 0.41
2 -13 -3 3.64 0.37
2 13 -3 4.09 0.3
2 -13 -4 38.98 1.25
2 13 -4 36.78 0.59
2 -13 -5 3.31 0.69
2 13 -5 2.7 0.52
2 -13 -6 6.14 0.54
2 13 -6 6.37 0.49
2 -13 -7 2.47 0.72
2 13 -7 2.98 0.56
2 -14 6 1.16 0.53
2 14 6 1.44 0.63
2 -14 5 30.19 1.15
2 14 5 31.26 1.15
2 -14 4 3.27 0.74
2 14 4 2.43 0.32
2 -14 3 15.73 0.89
2 14 3 13.99 0.53
2 -14 2 0.17 1.22
2 14 2 0.19 0.12
2 -14 1 1.82 0.35
2 14 1 1.54 0.32
2 -14 0 19.27 0.53
2 14 0 17.83 0.56
2 -14 -1 11.19 0.45
2 14 -1 10.14 0.44
2 -14 -2 12 0.47
2 14 -2 11.99 0.42
2 -14 -3 6.89 0.53
2 14 -3 7.07 0.4
2 -14 -4 2.97 0.67
2 14 -4 2.57 0.44
2 -14 -5 3.67 0.77
2 14 -5 3.21 0.5
2 -14 -6 0.6 0.44
2 14 -6 0.13 0.25
2 -15 6 3.7 0.78
2 15 6 3.89 0.8
2 -15 5 7.67 0.82
2 15 5 8.26 0.59
2 -15 4 0.16 1.3
2 15 4 0.14 0.35
2 -15 3 2.78 0.74
2 15 3 1.89 0.36
2 -15 2 18.29 0.54
2 15 2 13.97 0.55
2 -15 1 45.1 0.73
2 15 1 47.57 1.04
2 -15 0 2.59 0.48
2 15 0 1.41 0.34
2 -15 -1 3.45 0.49
2 15 -1 3.07 0.37
2 -15 -2 4.28 0.49
2 15 -2 3.29 0.37
2 -15 -3 23.92 1.06
2 15 -3 23.71 0.52
2 -15 -4 1.49 0.74
2 15 -4 1.34 0.42
2 -15 -5 4.96 0.78
2 15 -5 5.17 0.62
2 -16 4 2.62 0.61
2 16 4 2.69 0.4
2 -16 3 20.24 0.95
2 16 3 19.3 1.02
2 -16 2 1.37 0.47
2 16 2 1.15 0.39
2 -16 1 1.64 0.5
2 16 1 1.84 0.35
2 -16 0 6.9 0.54
2 16 0 5.75 0.46
2 -16 -1 8.42 0.77
2 16 -1 8.26 0.48
2 -16 -2 23.59 0.75
2 16 -2 20.53 0.74
2 -16 -3 3.15 0.83
2 16 -3 2.79 0.44
2 -16 -4 10.92 0.86
2 16 -4 9.65 0.65
2 17 3 0.27 0.39
2 -17 2 7.24 0.83
2 17 2 7.11 0.6
2 -17 1 10.54 0.6
2 17 1 9.7 0.61
2 -17 0 20.04 0.97
2 17 0 19.86 1.04
2 -17 -1 4.27 0.76
2 17 -1 3.72 0.59
2 -17 -2 1.17 0.78
2 17 -2 1.15 0.41
2 -17 -3 2.78 0.78
2 17 -3 1.99 0.89
3 0 11 0.62 0.54
3 0 10 1.79 0.37
3 0 9 33.76 0.53
3 0 8 101.84 0.85
3 0 7 3.99 0.23
3 0 6 23.52 0.26
3 0 5 22.79 0.21
3 0 4 104.32 0.65
3 0 3 1184.25 4.92
3 0 2 1073.45 3.48
3 0 1 737.13 3.19
3 0 0 322.09 1.74
3 0 -1 871.86 3.03
3 0 -2 309.59 2.08
3 0 -3 307.53 2.5
3 0 -4 401.49 0.88
3 0 -5 198.95 0.78
3 0 -6 45.67 0.39
3 0 -7 53.22 0.52
3 0 -8 0.49 0.29
3 0 -9 26.44 0.78
3 0 -10 0.44 0.71
3 -1 11 6.84 0.49
3 1 11 7.05 0.43
3 -1 10 6.59 0.47
3 1 10 5.92 0.41
3 -1 9 40.45 0.57
3 1 9 39.55 0.61
3 -1 8 61.87 0.61
3 1 8 64.11 0.7
3 -1 7 27.04 0.36
3 1 7 27.27 0.36
3 -1 6 113.36 0.55
3 1 6 118.94 0.47
3 -1 5 420.02 0.93
3 1 5 409.66 1.01
3 -1 4 85.91 0.55
3 1 4 89.15 0.5
3 -1 3 47.13 0.42
3 1 3 46.2 0.36
3 -1 2 107.91 0.51
3 1 2 106.51 0.65
3 1 1 1161.86 5.48
3 -1 -1 320.37 1.75
3 1 -1 337.18 1.09
3 -1 -2 197.12 0.97
3 1 -2 201.41 1.94
3 -1 -3 440.6 3.5
3 1 -3 439.9 2.17
3 -1 -4 563.63 1.47
3 1 -4 547.08 1.47
3 -1 -5 143.04 0.69
3 1 -5 147.73 0.69
3 -1 -6 62.98 0.46
3 1 -6 65.85 0.51
3 -1 -7 16.47 0.39
3 1 -7 15.83 0.34
3 -1 -8 42.14 0.53
3 1 -8 40.86 0.68
3 -1 -9 21.62 0.42
3 1 -9 22.95 0.59
3 -1 -10 9.31 0.6
3 1 -10 7.89 0.54
3 -2 11 2.49 0.48
3 2 11 2.16 0.58
3 -2 10 0.48 0.54
3 2 10 0.3 0.48
3 -2 9 25.01 0.49
3 2 9 24.58 0.62
3 -2 8 0.46 0.32
3 2 8 0.26 0.4
3 -2 7 298.37 1.06
3 2 7 298.19 1.01
3 -2 6 19.24 0.28
3 2 6 17.42 0.27
3 -2 5 60.64 0.36
3 2 5 60.31 0.32
3 -2 4 168.71 0.65
3 2 4 167.69 0.5
3 -2 3 81.01 0.57
3 2 3 82.81 0.64
3 -2 2 344.95 1.02
3 2 2 342.23 3.66
3 -2 1 1699.03 30.88
3 2 1 1577.05 29.94
3 -2 0 547.5 4.33
3 2 0 552.71 4.35
3 -2 -1 409.35 1.51
3 2 -1 394.38 1.72
3 -2 -2 949.05 4.72
3 2 -2 960.15 4.03
3 -2 -3 134.62 0.92
3 2 -3 141.31 1.08
3 -2 -4 2.37 0.15
3 2 -4 3.1 0.16
3 -2 -5 20.55 0.28
3 2 -5 20.64 0.33
3 -2 -6 43.42 0.45
3 2 -6 43.2 0.43
3 -2 -7 52.42 0.53
3 2 -7 51.9 0.65
3 -2 -8 71.28 0.74
3 2 -8 68.72 1.03
3 -2 -9 11.51 0.36
3 2 -9 12.22 0.63
3 -2 -10 11.32 0.44
3 2 -10 10.7 0.61
3 -3 11 3.95 0.83
3 3 11 4.3 0.83
3 -3 10 30.7 0.72
3 3 10 31.47 0.69
3 -3 9 1.86 0.36
3 3 9 1.49 0.43
3 -3 8 17.97 0.34
3 3 8 17.55 0.53
3 -3 7 24.82 0.37
3 3 7 24.41 0.35
3 -3 6 66.62 0.48
3 3 6 64.55 0.5
3 -3 5 98.46 0.51
3 3 5 102.63 0.47
3 -3 4 252.43 0.94
3 3 4 246.31 1.06
3 -3 3 299.27 1.11
3 3 3 314.08 2.66
3 -3 2 543.75 3.8
3 3 2 548.18 3.7
3 -3 1 404.79 4.23
3 3 1 416.04 4.33
3 -3 0 270.61 1.15
3 3 0 254.6 2.28
3 -3 -1 109.65 0.75
3 3 -1 107.55 0.91
3 -3 -2 178.18 0.97
3 3 -2 178.45 1.74
3 -3 -3 210.74 0.91
3 3 -3 206.18 1.2
3 -3 -4 180.86 0.55
3 3 -4 183.04 0.67
3 -3 -5 244.04 0.76
3 3 -5 241.92 0.86
3 -3 -6 24.33 0.33
3 3 -6 21.39 0.41
3 -3 -7 30.04 0.44
3 3 -7 31.11 0.56
3 -3 -8 1.88 0.24
3 3 -8 2.46 0.44
3 -3 -9 10.9 0.35
3 3 -9 10.66 0.62
3 -3 -10 13.25 0.52
3 3 -10 14.12 0.65
3 -4 10 2.34 0.38
3 4 10 2.55 0.39
3 -4 9 0.46 0.33
3 4 9 0.62 0.48
3 -4 8 75.2 0.6
3 4 8 74.19 1.51
3 -4 7 0.27 0.14
3 4 7 0.83 0.34
3 -4 6 40.26 0.37
3 4 6 41.63 0.43
3 -4 5 6.7 0.19
3 4 5 6.87 0.21
3 -4 4 146.4 0.56
3 4 4 152.31 0.67
3 -4 3 351.23 1.13
3 4 3 334.75 1.19
3 -4 2 281.19 0.98
3 -4 1 167.76 3.03
3 4 1 168.28 2.88
3 -4 0 162.42 0.71
3 4 0 162.39 0.65
3 -4 -1 251.49 0.93
3 4 -1 252.78 0.82
3 -4 -2 153.76 0.73
3 4 -2 155.6 2.06
3 -4 -3 148.45 0.5
3 4 -3 148.09 0.63
3 -4 -4 89.03 0.41
3 4 -4 86.06 0.49
3 -4 -5 15.79 0.23
3 4 -5 15.14 0.25
3 -4 -6 62.31 0.5
3 4 -6 57.93 0.52
3 -4 -7 100.41 0.74
3 4 -7 102.71 0.94
3 -4 -8 5.2 0.27
3 4 -8 6.47 0.53
3 -4 -9 20.55 0.46
3 4 -9 19.73 1.02
3 -4 -10 1.03 0.4
3 4 -10 1.37 0.67
3 -5 10 0.29 0.3
3 5 10 0.6 0.72
3 -5 9 5.23 0.35
3 5 9 5.05 0.45
3 -5 8 4.44 0.29
3 5 8 4.87 0.52
3 -5 7 20.37 0.37
3 5 7 21.53 0.44
3 -5 6 51.33 0.44
3 5 6 49.38 0.5
3 -5 5 82.64 0.58
3 5 5 78.73 0.52
3 -5 4 61.3 0.38
3 5 4 65.46 0.45
3 -5 3 24.21 0.26
3 5 3 23.06 0.4
3 -5 2 25.54 0.34
3 5 2 24.72 0.48
3 -5 1 18.43 0.32
3 5 1 15.39 0.78
3 -5 0 574.49 1.94
3 5 0 580.96 2.27
3 -5 -1 237.61 1.38
3 5 -1 232.22 0.91
3 -5 -2 114.4 0.55
3 5 -2 117.17 0.96
3 -5 -3 60.07 0.35
3 5 -3 62.03 0.44
3 -5 -4 66.68 0.42
3 5 -4 61.9 0.51
3 -5 -5 101.33 0.58
3 5 -5 104.34 0.69
3 -5 -6 22.98 0.38
3 5 -6 22.03 0.42
3 -5 -7 18.18 0.39
3 5 -7 17.84 0.49
3 -5 -8 8.54 0.29
3 5 -8 8.37 0.44
3 -5 -9 9.28 0.35
3 5 -9 9.71 0.84
3 -5 -10 0.38 0.26
3 5 -10 0.11 0.31
3 -6 10 2.3 0.56
3 6 10 2.64 0.59
3 -6 9 20.07 0.46
3 6 9 21 0.52
3 -6 8 3.95 0.29
3 6 8 3.28 0.43
3 -6 7 40.11 0.47
3 6 7 41.79 0.51
3 -6 6 20.84 0.34
3 6 6 19.84 0.32
3 -6 5 20.69 0.33
3 6 5 20.34 0.32
3 -6 4 55.63 0.42
3 6 4 53.32 0.41
3 -6 3 127.81 0.6
3 6 3 136.71 0.66
3 -6 2 54.39 0.32
3 6 2 54.11 0.4
3 -6 1 350.48 1.35
3 6 1 348.58 1.27
3 -6 0 312 1.01
3 6 0 307.53 1.17
3 -6 -1 17 0.22
3 6 -1 17.27 0.25
3 -6 -2 89.16 0.42
3 6 -2 93.33 0.63
3 -6 -3 231.68 0.64
3 6 -3 227.65 0.9
3 -6 -4 34.46 0.31
3 6 -4 36.72 0.42
3 -6 -5 5.34 0.22
3 6 -5 5.22 0.27
3 -6 -6 24.15 0.4
3 6 -6 25.68 0.45
3 -6 -7 3.11 0.28
3 6 -7 2.56 0.3
3 -6 -8 31.9 0.52
3 6 -8 31.89 0.81
3 -6 -9 21.94 0.53
3 6 -9 21.09 1.03
3 -6 -10 1.53 0.67
3 6 -10 1.83 0.92
3 -7 10 7.41 0.49
3 7 10 6.49 0.62
3 -7 9 1.93 0.46
3 7 9 1.5 0.72
3 -7 8 0.58 0.34
3 7 8 0.34 0.64
3 -7 7 0.39 0.25
3 7 7 0.23 0.22
3 -7 6 16.01 0.36
3 7 6 15.1 0.4
3 -7 5 118.55 0.83
3 7 5 121.77 0.7
3 -7 4 60.5 0.53
3 7 4 55.76 0.49
3 -7 3 53.5 0.38
3 7 3 54.86 0.46
3 -7 2 38.79 0.35
3 7 2 40.83 0.33
3 -7 1 100.81 0.5
3 7 1 99.06 0.45
3 -7 0 72.19 0.41
3 7 0 74.72 0.42
3 -7 -1 40.73 0.27
3 7 -1 42.29 0.32
3 -7 -2 76.41 0.39
3 7 -2 76.91 0.62
3 -7 -3 5.02 0.15
3 7 -3 5 0.17
3 -7 -4 60.37 0.39
3 7 -4 60.26 0.54
3 -7 -5 11.46 0.3
3 7 -5 11.03 0.33
3 -7 -6 28.72 0.45
3 7 -6 29.35 0.48
3 -7 -7 10.08 0.36
3 7 -7 10.41 0.45
3 -7 -8 13.47 0.37
3 7 -8 15.22 0.86
3 -7 -9 6.36 0.4
3 7 -9 6.29 0.95
3 -8 9 9.99 0.5
3 8 9 11.63 0.93
3 -8 8 11.91 0.44
3 8 8 10.34 0.49
3 -8 7 13.28 0.43
3 8 7 14.44 0.43
3 -8 6 13.35 0.36
3 8 6 13.89 0.39
3 -8 5 21.96 0.42
3 8 5 21.95 0.37
3 -8 4 9.1 0.29
3 8 4 10.73 0.28
3 -8 3 96.1 0.6
3 8 3 93.57 0.54
3 -8 2 180.58 1.16
3 8 2 191.55 0.88
3 -8 1 25.55 0.39
3 8 1 28.2 0.28
3 -8 0 145.39 0.65
3 8 0 146.45 0.62
3 -8 -1 111.12 0.57
3 8 -1 111.42 0.56
3 -8 -2 84.87 0.43
3 8 -2 84.69 0.66
3 -8 -3 14.67 0.21
3 8 -3 17.23 0.31
3 -8 -4 89.25 0.46
3 8 -4 90.41 0.9
3 -8 -5 12.18 0.3
3 8 -5 12.83 0.42
3 -8 -6 3.56 0.25
3 8 -6 3.41 0.38
3 -8 -7 22.96 0.46
3 8 -7 24.97 0.71
3 -8 -8 4.32 0.32
3 8 -8 4.77 0.74
3 -8 -9 10.06 0.39
3 -9 9 8.99 0.49
3 9 9 9.03 0.91
3 -9 8 1.78 0.38
3 9 8 1.58 0.45
3 -9 7 20.18 0.49
3 9 7 20.07 0.57
3 -9 6 14.43 0.48
3 9 6 15.37 0.42
3 -9 5 17.93 0.47
3 9 5 19.19 0.41
3 -9 4 69.32 0.78
3 9 4 70.54 0.61
3 -9 3 13.68 0.31
3 9 3 13.08 0.33
3 -9 2 2.17 0.24
3 9 2 1.6 0.19
3 -9 1 68.19 0.58
3 9 1 68.46 0.42
3 -9 0 154.57 0.79
3 9 0 164.11 0.61
3 -9 -1 82.74 0.7
3 9 -1 79.8 0.46
3 -9 -2 39.66 0.38
3 9 -2 40.33 0.47
3 -9 -3 69.93 0.45
3 9 -3 71.79 0.6
3 -9 -4 11.89 0.24
3 9 -4 10.76 0.37
3 -9 -5 46.43 0.45
3 9 -5 48.5 0.67
3 -9 -6 32.23 0.42
3 9 -6 30.54 0.74
3 -9 -7 0.53 0.25
3 9 -7 0.65 0.42
3 -9 -8 0.51 0.31
3 9 -8 0.52 0.72
3 -9 -9 14.1 0.42
3 -10 9 6.01 0.62
3 10 9 6.07 1.05
3 -10 8 8.76 0.48
3 10 8 9.24 0.6
3 -10 7 22.32 0.52
3 10 7 21.69 0.72
3 -10 6 1.94 0.37
3 10 6 1.31 0.39
3 -10 5 15.28 0.56
3 10 5 14.79 0.33
3 -10 4 75.04 1.4
3 10 4 76.15 0.7
3 -10 3 78.91 0.77
3 10 3 81.54 0.82
3 -10 2 8.66 0.34
3 10 2 9.87 0.27
3 -10 1 123.33 0.89
3 10 1 125.01 0.69
3 -10 0 23.24 0.37
3 10 0 23.03 0.31
3 -10 -1 20.06 0.33
3 10 -1 21.2 0.28
3 -10 -2 82.89 0.68
3 10 -2 83.46 0.59
3 -10 -3 74.52 0.53
3 10 -3 74.3 0.58
3 -10 -4 1.4 0.21
3 10 -4 1.32 0.34
3 -10 -5 8.1 0.33
3 10 -5 8.81 0.5
3 -10 -6 18.59 0.43
3 10 -6 18.06 0.65
3 -10 -7 11.56 0.37
3 10 -7 12.86 0.64
3 -10 -8 35.29 0.62
3 10 -8 36.94 1.21
3 -11 8 3.22 0.6
3 11 8 3.39 0.49
3 -11 7 2.12 0.45
3 11 7 2.32 0.4
3 -11 6 17.66 0.93
3 11 6 18.76 0.43
3 -11 5 48.91 1.28
3 11 5 49.56 0.57
3 -11 4 24.32 0.93
3 11 4 22.96 0.46
3 -11 3 61.31 0.88
3 11 3 63.19 0.75
3 -11 2 99.08 1.05
3 11 2 102.01 0.78
3 -11 1 113.67 0.79
3 11 1 111.86 0.82
3 -11 0 40.13 0.4
3 11 0 40.66 0.46
3 -11 -1 54.73 0.51
3 11 -1 56.04 0.52
3 -11 -2 35.43 0.5
3 11 -2 33.31 0.44
3 -11 -3 1.2 0.25
3 11 -3 0.65 0.23
3 -11 -4 105.76 0.77
3 11 -4 102.31 0.97
3 -11 -5 31.09 0.49
3 11 -5 32.13 0.62
3 -11 -6 6.99 0.41
3 11 -6 7.5 0.55
3 -11 -7 1.66 0.38
3 11 -7 1.49 0.51
3 -11 -8 3.48 0.45
3 11 -8 4.04 0.78
3 -12 8 34.74 0.85
3 12 8 35.5 1.21
3 -12 7 16.21 0.95
3 12 7 17.32 0.7
3 -12 6 24.76 1.05
3 12 6 24.34 0.77
3 -12 5 15.66 0.87
3 12 5 14.95 0.45
3 -12 4 16.13 0.85
3 12 4 16.78 0.44
3 -12 3 27.1 0.55
3 12 3 26.15 0.57
3 -12 2 105.06 1.13
3 12 2 103.83 0.96
3 -12 1 8.3 0.33
3 12 1 8.97 0.35
3 -12 0 0.95 0.22
3 12 0 0.93 0.26
3 -12 -1 52.21 0.53
3 12 -1 50.67 0.54
3 -12 -2 51.83 0.73
3 12 -2 53.58 0.69
3 -12 -3 50.76 0.74
3 12 -3 48.67 0.64
3 -12 -4 8.9 0.38
3 12 -4 7.66 0.51
3 -12 -5 5.22 0.72
3 12 -5 3.16 0.42
3 -12 -6 0.81 0.45
3 12 -6 0.52 0.48
3 -12 -7 34.79 0.87
3 12 -7 35.84 0.86
3 -13 7 2.3 0.92
3 13 7 2.5 0.55
3 -13 6 54.2 1.41
3 13 6 55.43 1.42
3 -13 5 5.55 0.7
3 13 5 4.09 0.34
3 -13 4 38.51 1.19
3 13 4 39.93 0.55
3 -13 3 5.59 0.65
3 13 3 4.47 0.33
3 -13 2 15.96 0.47
3 13 2 13.81 0.41
3 -13 1 29.15 0.49
3 13 1 29.68 0.81
3 -13 0 41.62 0.57
3 13 0 39.75 0.89
3 -13 -1 140.28 0.94
3 13 -1 132.59 1.86
3 -13 -2 51.7 0.75
3 13 -2 49.59 0.59
3 -13 -3 26.46 0.6
3 13 -3 24.98 0.5
3 -13 -4 2.54 0.37
3 13 -4 2.15 0.39
3 13 -5 28.38 0.64
3 -13 -6 11.19 0.62
3 13 -6 10.98 0.62
3 -13 -7 0.74 0.56
3 13 -7 0.96 0.57
3 -14 6 -0.05 0.4
3 14 6 0.27 0.42
3 -14 5 4.24 0.77
3 14 5 4.48 0.55
3 -14 4 6.98 0.76
3 14 4 6.88 0.38
3 -14 3 92.73 1.7
3 14 3 92.05 1.03
3 -14 2 6.88 0.41
3 14 2 6.06 0.32
3 -14 1 18.02 0.51
3 14 1 15.16 0.54
3 -14 0 15.27 0.49
3 14 0 13.69 0.63
3 -14 -1 1.96 0.37
3 14 -1 1.96 0.48
3 -14 -2 38.66 0.69
3 14 -2 34.53 0.57
3 -14 -3 30.26 0.65
3 14 -3 29.03 0.65
3 -14 -4 5.72 0.77
3 14 -4 5.35 0.44
3 -14 -5 4.14 0.74
3 14 -5 3.98 0.55
3 -14 -6 40.22 0.9
3 14 -6 39.47 1.29
3 15 5 18.3 0.96
3 15 4 12.07 0.52
3 -15 3 0.56 0.48
3 15 3 0.05 0.03
3 -15 2 1.52 0.4
3 15 2 1.31 0.33
3 -15 1 48.91 0.93
3 15 1 42.17 1.1
3 -15 0 19.32 0.95
3 15 0 18.28 0.5
3 -15 -1 8.98 0.56
3 15 -1 8.38 0.58
3 -15 -2 9.29 0.57
3 15 -2 7.53 0.41
3 -15 -3 1.47 0.46
3 15 -3 1.43 0.45
3 15 -4 40.59 0.91
3 -15 -5 6.18 0.81
3 15 -5 4.17 0.61
3 -16 4 5.99 0.85
3 16 4 4.82 0.61
3 -16 3 1.06 0.54
3 16 3 0.82 0.36
3 -16 2 16.92 0.65
3 16 2 14.3 0.69
3 -16 1 3.55 0.76
3 16 1 2.93 0.33
3 -16 0 2.3 0.69
3 16 0 2 0.34
3 -16 -1 29.81 1.14
3 16 -1 27.54 1.16
3 -16 -2 6.46 0.53
3 16 -2 5.93 0.56
3 -16 -3 5.2 0.52
3 16 -3 3.9 0.63
3 -16 -4 2.24 0.76
3 16 -4 1.71 0.57
3 17 3 0.9 0.57
3 -17 2 0.36 0.65
3 17 2 0.22 0.47
3 17 1 10.87 0.64
3 -17 0 4.11 0.77
3 17 0 3.03 0.58
3 -17 -1 3.85 0.76
3 17 -1 3.18 0.61
3 -17 -2 6.53 0.75
3 17 -2 6.39 0.59
4 0 11 0.21 0.26
4 0 10 5.36 0.48
4 0 9 0.29 0.28
4 0 8 0.13 0.07
4 0 7 112.75 0.65
4 0 6 117.75 0.52
4 0 5 24.9 0.23
4 0 4 23.2 0.21
4 0 3 6.42 0.25
4 0 2 284.95 1.1
4 0 1 1439.35 6.93
4 0 0 235.48 1.73
4 0 -1 0.91 0.15
4 0 -2 271.59 1.8
4 0 -3 61.49 1.19
4 0 -4 185.49 0.65
4 0 -5 97.54 0.6
4 0 -6 3.89 0.22
4 0 -7 25.87 0.4
4 0 -8 38.62 0.51
4 0 -9 16.92 0.54
4 0 -10 0.18 0.26
4 -1 11 0.86 0.48
4 1 11 0.43 0.3
4 -1 10 32.13 0.61
4 1 10 33.99 0.62
4 -1 9 3.65 0.3
4 1 9 3.26 0.38
4 -1 8 60.47 0.62
4 1 8 58.44 0.68
4 -1 7 11.8 0.26
4 1 7 12.25 0.29
4 -1 6 6.92 0.19
4 1 6 6.04 0.18
4 -1 5 154.84 0.62
4 1 5 160.24 0.65
4 -1 4 230.14 0.83
4 1 4 225.66 0.83
4 -1 3 189.31 0.76
4 1 3 195.98 1.04
4 -1 2 3.62 0.14
4 1 2 3.56 0.19
4 -1 1 819.01 3.73
4 1 1 832.03 2.91
4 -1 0 748.18 3.51
4 1 0 723.19 2.29
4 -1 -1 474.37 4.46
4 1 -1 457.2 1.92
4 -1 -2 563.55 2.84
4 1 -2 563.47 2.55
4 -1 -3 78.79 0.75
4 1 -3 77.09 1.33
4 -1 -4 137.82 0.56
4 1 -4 141.36 0.6
4 -1 -5 46.29 0.39
4 1 -5 45.37 0.41
4 -1 -6 74.68 0.6
4 1 -6 71.98 0.61
4 -1 -7 35.98 0.47
4 1 -7 37.5 0.51
4 -1 -8 13.95 0.38
4 1 -8 14.66 0.6
4 -1 -9 3.58 0.33
4 1 -9 2.89 0.5
4 -1 -10 2.82 0.46
4 1 -10 2.25 0.55
4 -2 11 3.17 0.49
4 2 11 2.79 0.61
4 -2 10 1.64 0.34
4 2 10 1.96 0.43
4 -2 9 0.37 0.35
4 2 9 0.45 0.43
4 -2 8 38.2 0.53
4 2 8 39.74 0.66
4 -2 7 8.14 0.27
4 2 7 9.96 0.25
4 -2 6 52.11 0.39
4 2 6 51.78 0.41
4 -2 5 108.54 0.53
4 2 5 106.2 0.46
4 -2 4 19.36 0.24
4 2 4 20.09 0.23
4 -2 3 310.65 0.85
4 2 3 313.92 1.28
4 -2 2 293.38 0.93
4 2 2 290.9 2.12
4 -2 1 457.24 3.55
4 2 1 466.88 2.63
4 -2 0 336.3 2.14
4 2 0 337.43 2.48
4 -2 -1 226.56 0.79
4 2 -1 226.49 1.25
4 -2 -2 269.77 1.12
4 2 -2 267.59 2.1
4 -2 -3 114.31 0.81
4 2 -3 116.68 0.57
4 -2 -4 346.78 0.98
4 2 -4 339.6 1.02
4 -2 -5 19.61 0.25
4 2 -5 18.09 0.26
4 -2 -6 8.04 0.25
4 2 -6 8.05 0.3
4 -2 -7 40.25 0.45
4 2 -7 43.61 0.64
4 -2 -8 2.89 0.27
4 2 -8 3.13 0.46
4 -2 -9 43.09 0.53
4 2 -9 40.26 1.29
4 -2 -10 9.11 0.48
4 2 -10 9.27 0.6
4 -3 10 5.6 0.4
4 3 10 5.23 0.48
4 -3 9 10.56 0.35
4 3 9 10.26 0.5
4 -3 8 29.55 0.44
4 3 8 30.23 0.6
4 -3 7 5.22 0.25
4 3 7 5.69 0.24
4 -3 6 51.73 0.44
4 3 6 53.63 0.48
4 -3 5 128.69 0.53
4 3 5 129.13 0.6
4 -3 4 22.48 0.24
4 3 4 23.09 0.28
4 -3 3 161.26 0.85
4 3 3 163.88 1.67
4 -3 2 222.01 1.17
4 3 2 221.95 2.39
4 -3 1 275.53 1.24
4 3 1 273.42 3.66
4 -3 0 497.81 4.07
4 3 0 506.89 3.04
4 -3 -1 570.07 3.3
4 3 -1 576.77 2.04
4 -3 -2 215.18 1.09
4 3 -2 206.96 1.4
4 -3 -3 66.61 0.46
4 3 -3 66.4 0.39
4 -3 -4 11.97 0.18
4 3 -4 10.98 0.22
4 -3 -5 51.78 0.41
4 3 -5 52.47 0.49
4 -3 -6 151.82 0.78
4 3 -6 151.93 1.04
4 -3 -7 27.72 0.4
4 3 -7 25.72 0.54
4 -3 -8 5.58 0.29
4 3 -8 6.59 0.53
4 -3 -9 12.23 0.41
4 3 -9 13.09 0.91
4 -3 -10 1.21 0.35
4 3 -10 1.6 0.42
4 -4 10 1.66 0.39
4 4 10 1.61 0.52
4 -4 9 3.29 0.33
4 4 9 3.03 0.42
4 -4 8 19.06 0.38
4 4 8 20.41 0.46
4 -4 7 55.31 0.47
4 4 7 54.97 0.64
4 -4 6 82.2 0.54
4 4 6 80.09 0.6
4 -4 5 12.14 0.2
4 4 5 12.77 0.26
4 -4 4 35.58 0.31
4 4 4 35.18 0.42
4 -4 3 421.89 1.32
4 4 3 438 0.93
4 -4 2 52.95 0.61
4 4 2 49.55 1.73
4 -4 1 567.21 4.37
4 4 1 567.38 5.81
4 -4 0 4.75 0.23
4 4 0 4.96 0.22
4 -4 -1 10.09 0.3
4 4 -1 11.42 0.28
4 -4 -2 162.48 0.83
4 4 -2 167.62 2.24
4 -4 -3 284.93 0.72
4 4 -3 285.09 0.9
4 -4 -4 57.75 0.37
4 4 -4 61.25 0.49
4 -4 -5 28.35 0.29
4 4 -5 26.28 0.35
4 -4 -6 35.62 0.44
4 4 -6 36.46 0.58
4 -4 -7 24.24 0.38
4 4 -7 22.53 0.53
4 -4 -8 46.97 0.53
4 4 -8 45.81 0.73
4 -4 -9 7.34 0.34
4 4 -9 9.55 0.84
4 -4 -10 2.4 0.57
4 4 -10 2.04 0.62
4 -5 10 28.04 0.57
4 5 10 28.85 0.57
4 -5 9 6.86 0.36
4 5 9 7.07 0.47
4 -5 8 4.63 0.3
4 5 8 5.24 0.34
4 -5 7 22.11 0.37
4 5 7 22.29 0.45
4 -5 6 20.24 0.33
4 5 6 19.73 0.31
4 -5 5 103.23 0.56
4 5 5 105.81 0.69
4 -5 4 100.99 0.44
4 5 4 97.73 0.58
4 -5 3 170.36 0.62
4 5 3 171.08 0.84
4 -5 2 52.02 0.41
4 5 2 51.54 0.5
4 -5 1 299.8 1.22
4 -5 0 86.43 0.71
4 5 0 89.73 0.53
4 -5 -1 257.36 1.11
4 5 -1 254.66 0.9
4 -5 -2 83.03 0.39
4 5 -2 82.85 0.63
4 -5 -3 9.24 0.17
4 5 -3 9.94 0.24
4 -5 -4 64.52 0.42
4 5 -4 64.79 0.53
4 -5 -5 104.39 0.52
4 5 -5 104.26 0.64
4 -5 -6 21.61 0.34
4 5 -6 21.68 0.42
4 -5 -7 1.94 0.23
4 5 -7 1.29 0.34
4 -5 -8 11.41 0.43
4 5 -8 11.88 0.58
4 -5 -9 4.02 0.36
4 5 -9 4.25 0.83
4 -5 -10 7.05 0.43
4 5 -10 5.93 0.67
4 -6 10 0.2 0.44
4 6 10 0.38 0.69
4 -6 9 8.2 0.38
4 6 9 8.53 0.5
4 -6 8 73.58 0.8
4 6 8 72.61 1.08
4 -6 7 45.27 0.56
4 6 7 45.81 0.56
4 -6 6 64.06 0.52
4 6 6 68.56 0.56
4 -6 5 63.21 0.5
4 6 5 60.75 0.55
4 -6 4 19.34 0.28
4 6 4 19.83 0.25
4 -6 3 162.57 0.59
4 6 3 159.72 0.6
4 -6 2 215.95 0.66
4 6 2 217.39 0.76
4 -6 1 113.97 0.48
4 6 1 119.68 0.56
4 -6 0 55.92 0.34
4 6 0 53.84 0.32
4 -6 -1 111.4 0.5
4 6 -1 108.82 0.52
4 -6 -2 176.72 0.52
4 6 -2 182.56 0.83
4 -6 -3 20.41 0.24
4 6 -3 20.95 0.37
4 -6 -4 149.5 0.61
4 6 -4 145.05 0.79
4 -6 -5 7.95 0.22
4 6 -5 6.75 0.29
4 -6 -6 37.53 0.44
4 6 -6 36.7 0.46
4 -6 -7 24.46 0.46
4 6 -7 25.73 0.58
4 -6 -8 4.48 0.33
4 6 -8 5.57 0.51
4 -6 -9 3.11 0.46
4 6 -9 2.34 0.85
4 -6 -10 1.97 0.85
4 -7 10 3.84 0.57
4 7 10 4.49 0.61
4 -7 9 6.9 0.56
4 7 9 5.45 0.56
4 -7 8 11.16 0.5
4 7 8 10.83 0.61
4 -7 7 3.13 0.38
4 7 7 3.45 0.32
4 -7 6 25.69 0.5
4 7 6 25 0.4
4 -7 5 120.8 1.12
4 7 5 123.3 0.93
4 -7 4 125.72 0.9
4 7 4 129.02 0.76
4 -7 3 1.3 0.16
4 7 3 1.2 0.16
4 -7 2 1.01 0.14
4 7 2 0.82 0.14
4 -7 1 21.11 0.26
4 7 1 18.69 0.22
4 -7 0 227.27 0.79
4 7 0 231.61 0.68
4 -7 -1 211.6 0.66
4 7 -1 208.96 0.71
4 -7 -2 37.34 0.31
4 7 -2 39.71 0.34
4 -7 -3 23.34 0.24
4 7 -3 23.18 0.34
4 -7 -4 49.61 0.37
4 7 -4 50.3 0.59
4 -7 -5 26.87 0.34
4 7 -5 24.23 0.49
4 -7 -6 24.48 0.36
4 7 -6 25.74 0.47
4 -7 -7 9.43 0.32
4 7 -7 9.79 0.54
4 -7 -8 0.6 0.39
4 7 -8 0.35 0.41
4 -7 -9 7.14 0.41
4 7 -9 6.78 0.96
4 -8 9 26.44 0.8
4 8 9 25.97 1.13
4 -8 8 10.76 0.43
4 8 8 11.78 0.5
4 -8 7 26.68 0.63
4 8 7 27.14 0.52
4 -8 6 55.68 0.65
4 8 6 53.93 0.56
4 -8 5 8.59 0.37
4 8 5 8.52 0.29
4 -8 4 51.58 0.6
4 8 4 50.42 0.42
4 -8 3 68.95 0.65
4 8 3 71.91 0.49
4 -8 2 200.92 0.87
4 8 2 203.08 0.77
4 -8 1 55.09 0.42
4 8 1 57.05 0.44
4 -8 0 1.52 0.14
4 8 0 2.21 0.14
4 -8 -1 2.11 0.14
4 8 -1 2.37 0.14
4 -8 -2 78.86 0.46
4 8 -2 78.44 0.5
4 -8 -3 152.97 0.59
4 8 -3 148.09 1
4 -8 -4 75.06 0.44
4 -8 -5 10.25 0.27
4 8 -5 10.77 0.5
4 -8 -6 10.56 0.32
4 8 -6 11.05 0.43
4 -8 -7 10.92 0.34
4 8 -7 11.09 0.79
4 -8 -8 14.15 0.39
4 8 -8 12.66 0.85
4 -8 -9 5.63 0.43
4 -9 9 13.95 0.66
4 9 9 13.78 0.96
4 -9 8 9.21 0.5
4 9 8 9.66 0.48
4 -9 7 0.61 0.34
4 9 7 0.34 0.3
4 -9 6 23.47 0.48
4 9 6 21.77 0.55
4 -9 5 36.99 0.6
4 9 5 36.38 0.47
4 -9 4 46.83 0.65
4 9 4 45.75 0.43
4 -9 3 52.32 1.04
4 9 3 52.43 0.54
4 -9 2 3.49 0.27
4 9 2 3.67 0.19
4 -9 1 122.02 0.72
4 9 1 120.56 0.59
4 -9 0 109.44 0.67
4 9 0 108.38 0.49
4 -9 -1 56.56 0.52
4 9 -1 62.7 0.43
4 -9 -2 37.07 0.34
4 9 -2 36.22 0.44
4 -9 -3 24.11 0.29
4 9 -3 23.86 0.45
4 -9 -4 55.36 0.42
4 9 -4 56.11 1.24
4 -9 -5 24.62 0.38
4 9 -5 24.71 0.67
4 -9 -6 16.67 0.34
4 9 -6 16.84 0.62
4 -9 -7 7.63 0.37
4 9 -7 6.15 0.7
4 -9 -8 16.6 0.43
4 9 -8 16 0.91
4 -9 -9 2.11 0.49
4 -10 9 1.86 0.6
4 10 9 1.42 1.1
4 -10 8 6.89 0.46
4 10 8 6.47 0.51
4 -10 7 14.94 0.54
4 10 7 14.53 0.54
4 -10 6 21.5 0.55
4 10 6 21.92 0.48
4 -10 5 17.29 0.58
4 10 5 17.73 0.35
4 -10 4 18.36 0.8
4 10 4 17.85 0.41
4 -10 3 34.91 0.67
4 10 3 33.14 0.56
4 -10 2 70.11 0.71
4 10 2 67.7 0.54
4 -10 1 75.59 0.64
4 10 1 82.13 0.49
4 -10 0 71.01 0.59
4 10 0 72.38 0.45
4 -10 -1 17.45 0.42
4 10 -1 17.39 0.26
4 -10 -2 62.67 0.54
4 10 -2 61.04 0.54
4 -10 -3 38.53 0.39
4 10 -3 39.01 0.5
4 -10 -4 25.39 0.36
4 10 -4 25.67 0.53
4 -10 -5 4.73 0.28
4 10 -5 4.39 0.64
4 -10 -6 22.31 0.51
4 10 -6 21.64 0.7
4 -10 -7 0.41 0.33
4 10 -7 0.68 0.78
4 -10 -8 23.47 0.54
4 11 8 8.82 0.53
4 -11 7 3.89 0.55
4 11 7 4.71 0.37
4 -11 6 10.13 0.78
4 11 6 10.27 0.5
4 11 5 1.85 0.25
4 -11 4 73.17 1.41
4 11 4 70.59 0.64
4 -11 3 47.11 0.8
4 11 3 49.51 0.6
4 -11 2 9.16 0.44
4 11 2 9.41 0.3
4 -11 1 6.49 0.29
4 11 1 7.31 0.32
4 -11 0 47.28 0.53
4 11 0 46.34 0.56
4 -11 -1 119.56 0.84
4 11 -1 116.52 0.64
4 -11 -2 20.51 0.42
4 11 -2 21.05 0.37
4 -11 -3 5.49 0.32
4 11 -3 4.99 0.36
4 -11 -4 6.31 0.34
4 11 -4 6.38 0.46
4 -11 -5 36.98 0.59
4 11 -5 35.15 0.82
4 -11 -6 26.62 0.55
4 11 -6 27.31 1.12
4 -11 -7 2.74 0.4
4 11 -7 3.02 0.69
4 -11 -8 5.25 0.67
4 -12 8 2.53 0.62
4 12 8 2.68 0.62
4 -12 7 11.48 0.61
4 12 7 9.87 0.5
4 12 6 4.83 0.38
4 -12 5 21.52 0.96
4 12 5 20.68 0.5
4 -12 4 0.98 0.71
4 12 4 0.77 0.24
4 -12 3 17.96 0.58
4 12 3 17.68 0.43
4 -12 2 39.37 0.61
4 12 2 39.19 0.65
4 -12 1 47.08 0.77
4 12 1 45.29 0.69
4 -12 0 14.36 0.3
4 12 0 14.35 0.4
4 -12 -1 11.15 0.37
4 12 -1 10.15 0.35
4 -12 -2 2.8 0.3
4 12 -2 2.8 0.27
4 -12 -3 71.77 0.74
4 12 -3 69.58 0.83
4 -12 -4 24.54 0.51
4 12 -4 24.92 0.73
4 -12 -5 13.61 0.9
4 12 -5 13.55 0.89
4 -12 -6 2.5 0.44
4 12 -6 2.18 0.51
4 -12 -7 3.96 0.74
4 -13 7 27.08 0.77
4 13 7 27.61 0.65
4 -13 6 2.47 0.79
4 13 6 2.42 0.49
4 -13 5 23.81 1.01
4 13 5 21.61 0.52
4 -13 4 7.46 0.72
4 13 4 6.78 0.38
4 -13 3 27.79 0.7
4 13 3 24.93 0.57
4 -13 2 4.41 0.36
4 13 2 3.84 0.3
4 -13 1 16.56 0.42
4 13 1 14.94 0.44
4 -13 0 2.63 0.33
4 13 0 3.29 0.29
4 -13 -1 47.64 0.68
4 13 -1 48.3 0.75
4 -13 -2 61.54 0.7
4 13 -2 55.97 0.78
4 -13 -3 1.26 0.34
4 13 -3 1.42 0.36
4 -13 -4 6.97 0.44
4 13 -4 6.76 0.55
4 -13 -5 2.42 0.67
4 13 -5 2.77 0.65
4 -13 -6 7.13 0.79
4 13 -6 7.59 0.47
4 -13 -7 14.85 0.93
4 13 -7 16.14 0.92
4 -14 6 5.54 0.6
4 14 6 5.47 0.6
4 14 5 4.34 0.54
4 -14 4 2.98 0.79
4 14 4 3.02 0.36
4 -14 3 3.55 0.71
4 14 3 3.8 0.35
4 -14 2 37.13 0.7
4 14 2 35.08 0.68
4 -14 1 29.08 0.52
4 14 1 28.09 0.68
4 -14 0 13.89 0.61
4 14 0 12.64 0.42
4 -14 -1 1.1 0.32
4 14 -1 1.11 0.28
4 -14 -2 6.15 0.38
4 14 -2 6.56 0.44
4 -14 -3 27.09 0.62
4 14 -3 24.16 0.61
4 -14 -4 5.69 0.73
4 14 -4 5.96 0.57
4 -14 -5 11.97 0.88
4 14 -5 11.11 0.62
4 -14 -6 8.57 0.58
4 14 -6 8.79 0.62
4 -15 5 0.81 0.93
4 15 5 1.15 0.61
4 -15 4 38.1 1.18
4 15 4 38.96 1.29
4 -15 3 1.78 0.5
4 15 3 1.68 0.32
4 -15 2 7.85 0.55
4 15 2 6.4 0.39
4 -15 1 0.57 0.46
4 15 1 0.65 0.21
4 -15 0 18.34 0.98
4 15 0 17.82 0.56
4 -15 -1 18.3 0.69
4 15 -1 16.27 0.68
4 -15 -2 7.22 0.45
4 15 -2 6.89 0.58
4 -15 -3 1.46 0.52
4 15 -3 1.54 0.37
4 -15 -4 14.78 0.92
4 15 -4 13.73 0.54
4 15 -5 16.6 0.7
4 -16 4 1.58 0.87
4 16 4 1.28 0.48
4 -16 3 18.1 0.95
4 16 3 17.24 0.99
4 -16 2 12.07 0.86
4 16 2 8.68 0.66
4 -16 1 0.9 0.76
4 16 1 0.47 0.22
4 -16 0 23.91 1.07
4 16 0 12.94 0.99
4 -16 -1 4.7 0.74
4 16 -1 4.11 0.47
4 -16 -2 5.23 0.75
4 16 -2 4.13 0.49
4 -16 -3 9.04 0.58
4 16 -3 7.56 0.46
4 -16 -4 4.01 0.79
4 16 -4 3.46 0.62
4 -17 2 1.36 0.75
4 17 2 0.58 0.53
4 -17 1 7.18 0.78
4 17 1 8.7 0.89
4 -17 0 13.46 0.91
4 17 0 13.04 0.67
4 -17 -1 3.83 0.76
4 17 -1 2.49 0.53
4 -17 -2 2.1 0.74
4 17 -2 1.33 0.54
5 0 11 0.11 0.42
5 0 10 3.08 0.39
5 0 9 0.17 0.29
5 0 8 36.87 0.5
5 0 7 0.58 0.22
5 0 6 149.26 0.65
5 0 5 0.52 0.13
5 0 4 77.56 0.38
5 0 3 149.69 0.7
5 0 2 219.57 0.81
5 0 1 52.09 0.53
5 0 0 193.5 0.83
5 0 -1 15.54 0.22
5 0 -2 0.02 0.05
5 0 -3 78.98 0.61
5 0 -4 5.52 0.16
5 0 -5 168.15 0.83
5 0 -6 0.03 0.14
5 0 -7 27.82 0.47
5 0 -8 10.24 0.46
5 0 -9 11.94 0.61
5 0 -10 5.08 0.41
5 -1 11 0.85 0.55
5 1 11 0.85 0.43
5 -1 10 12.15 0.41
5 1 10 11.44 0.45
5 -1 9 6.67 0.4
5 1 9 7.26 0.47
5 -1 8 30.13 0.48
5 1 8 33.06 0.48
5 -1 7 21.14 0.34
5 1 7 19.47 0.31
5 -1 6 41.16 0.36
5 1 6 40.03 0.33
5 -1 5 8.92 0.2
5 1 5 8.68 0.18
5 -1 4 298.2 0.84
5 1 4 306.63 1.03
5 -1 3 199.44 0.84
5 1 3 191.62 1.04
5 -1 2 101.12 0.56
5 1 2 106.5 1.03
5 -1 1 65.22 0.59
5 1 1 64.77 0.6
5 -1 0 48.41 0.48
5 1 0 45.19 0.36
5 -1 -1 603.18 3.4
5 1 -1 606.32 2.14
5 -1 -2 42.64 0.41
5 1 -2 39.99 0.55
5 -1 -3 131.7 0.64
5 1 -3 129.13 0.74
5 -1 -4 43.69 0.4
5 1 -4 44.19 0.36
5 -1 -5 48.9 0.4
5 1 -5 52.64 0.44
5 -1 -6 38.48 0.48
5 1 -6 37.2 0.43
5 -1 -7 7.62 0.27
5 1 -7 7.44 0.32
5 -1 -8 25.08 0.41
5 1 -8 26.27 1.05
5 -1 -9 4.61 0.35
5 1 -9 4.27 0.51
5 -1 -10 0.77 0.5
5 1 -10 1.01 0.42
5 -2 11 10.24 0.66
5 2 11 10.65 0.65
5 -2 10 1.01 0.42
5 2 10 0.99 0.37
5 -2 9 16.29 0.39
5 2 9 16.76 0.57
5 -2 8 4.43 0.31
5 2 8 4.3 0.3
5 -2 7 36.63 0.45
5 2 7 38.09 0.39
5 -2 6 82.46 0.45
5 2 6 81.21 0.48
5 -2 5 62.65 0.45
5 2 5 64.63 0.41
5 -2 4 35.97 0.3
5 2 4 35.82 0.32
5 -2 3 38.33 0.41
5 2 3 39.01 0.83
5 -2 2 99.95 0.6
5 2 2 94.74 1.07
5 -2 1 704.57 4.04
5 2 1 709.34 2.92
5 -2 0 183.6 0.96
5 2 0 201.93 1.81
5 -2 -1 205.06 0.82
5 2 -1 201.75 1.24
5 -2 -2 112.61 1.01
5 2 -2 111.36 1.07
5 -2 -3 89.57 0.52
5 2 -3 88.42 0.54
5 -2 -4 106.83 0.48
5 2 -4 111.71 0.51
5 -2 -5 17.49 0.26
5 2 -5 17.57 0.29
5 -2 -6 4.54 0.21
5 2 -6 5.14 0.33
5 -2 -7 18.03 0.34
5 2 -7 18.57 0.48
5 -2 -8 85.14 0.67
5 2 -8 86.6 1.69
5 -2 -9 0.4 0.18
5 2 -9 0.57 0.36
5 -2 -10 2.64 0.54
5 2 -10 2.66 0.47
5 -3 10 3.63 0.39
5 3 10 4.14 0.48
5 -3 9 29.35 0.47
5 3 9 29.62 0.67
5 -3 8 24.79 0.41
5 3 8 22.82 0.39
5 -3 7 53.42 0.55
5 3 7 56.41 0.5
5 -3 6 0.46 0.2
5 3 6 0 0.01
5 -3 5 75.19 0.54
5 3 5 75.41 0.55
5 -3 4 121.37 0.56
5 3 4 118.46 0.53
5 -3 3 321.21 1.04
5 3 3 337.71 0.9
5 -3 2 252.93 0.97
5 3 2 253.5 3.31
5 -3 1 175.03 0.61
5 3 1 178.74 1.8
5 -3 0 102.55 0.57
5 3 0 101.64 0.7
5 -3 -1 228.57 1.23
5 3 -1 220.45 0.96
5 -3 -2 194.38 1.31
5 3 -2 203.06 1.6
5 -3 -3 148.13 0.72
5 3 -3 153.57 0.7
5 -3 -4 50.2 0.31
5 3 -4 49.66 0.48
5 -3 -5 21.79 0.26
5 3 -5 19.62 0.35
5 -3 -6 124.63 0.63
5 3 -6 131.52 1
5 -3 -7 26.3 0.39
5 3 -7 26.72 0.94
5 -3 -8 8.3 0.32
5 3 -8 7.94 0.52
5 -3 -9 6.35 0.34
5 3 -9 5.41 0.82
5 -3 -10 1.37 0.47
5 3 -10 1.72 0.59
5 -4 10 6.84 0.47
5 4 10 7.55 0.49
5 -4 9 3.1 0.34
5 4 9 3.27 0.43
5 -4 8 41.44 0.5
5 4 8 41.31 0.53
5 -4 7 9.91 0.29
5 4 7 10.08 0.36
5 -4 6 81.61 0.55
5 4 6 86.88 0.63
5 -4 5 51.51 0.4
5 4 5 50.28 0.52
5 -4 4 239.7 0.74
5 4 4 239.96 0.88
5 -4 3 320.79 0.94
5 4 3 319.84 0.82
5 -4 2 175.23 1.12
5 4 2 186.76 1.19
5 -4 1 203.47 0.8
5 4 1 215.89 2.65
5 -4 0 342.07 1.42
5 4 0 352.23 1.39
5 -4 -1 97.34 0.86
5 4 -1 100.48 0.73
5 -4 -2 40.37 0.4
5 4 -2 40.7 0.34
5 -4 -3 182.44 0.56
5 4 -3 187.85 0.84
5 -4 -4 239.52 0.67
5 4 -4 238.59 0.9
5 -4 -5 56.39 0.38
5 4 -5 57.17 0.55
5 -4 -6 5.01 0.2
5 4 -6 5.35 0.29
5 -4 -7 7.28 0.31
5 4 -7 7.7 0.49
5 -4 -8 5.72 0.33
5 4 -8 6.15 0.5
5 -4 -9 17.68 0.48
5 4 -9 16.47 0.68
5 -4 -10 11.71 0.45
5 4 -10 12.43 0.67
5 -5 10 1.63 0.39
5 5 10 1.14 0.5
5 -5 9 16.96 0.44
5 5 9 16.7 0.58
5 -5 8 61.72 0.65
5 5 8 64.36 0.68
5 -5 7 39.41 0.55
5 5 7 39.45 0.56
5 -5 6 1.05 0.22
5 5 6 1.19 0.21
5 -5 5 55.75 0.44
5 5 5 55.68 0.47
5 -5 4 163.6 0.72
5 5 4 168.57 0.92
5 -5 3 193.91 0.64
5 5 3 186.44 0.69
5 -5 2 196.51 0.82
5 5 2 201.09 0.65
5 -5 1 13.09 0.16
5 5 1 13.69 0.25
5 -5 0 20.75 0.23
5 5 0 19.12 0.3
5 -5 -1 824.73 3.95
5 5 -1 844.51 3.42
5 -5 -2 232.07 0.64
5 5 -2 230.02 0.93
5 -5 -3 7.62 0.17
5 5 -3 6.3 0.19
5 -5 -4 14.95 0.23
5 5 -4 15.71 0.36
5 -5 -5 7.66 0.21
5 5 -5 8.59 0.3
5 -5 -6 114.88 0.75
5 5 -6 114.25 1.08
5 -5 -7 24.28 0.39
5 5 -7 26.37 0.7
5 -5 -8 18.09 0.39
5 5 -8 19.1 0.68
5 -5 -9 10.32 0.42
5 5 -9 9.47 0.61
5 -5 -10 11.24 0.64
5 -6 10 3.02 0.61
5 6 10 3.33 0.58
5 -6 9 9.41 0.4
5 6 9 8.77 0.5
5 -6 8 39.98 0.61
5 6 8 41.81 0.72
5 -6 7 82.07 0.73
5 6 7 81.16 0.69
5 -6 6 97.36 0.75
5 6 6 97.47 0.62
5 -6 5 79.85 0.56
5 6 5 81.35 0.63
5 -6 4 19.15 0.28
5 6 4 19.89 0.34
5 -6 3 23.21 0.25
5 6 3 24.52 0.27
5 -6 2 158.25 0.61
5 6 2 159.55 0.59
5 -6 1 378.87 0.78
5 6 1 379.4 1.04
5 -6 0 129.17 0.55
5 6 0 127.84 0.48
5 -6 -1 113.24 0.45
5 6 -1 113.36 0.55
5 -6 -2 130.07 0.51
5 6 -2 130.33 0.67
5 -6 -3 78.2 0.4
5 6 -3 76.71 0.65
5 -6 -4 95.42 0.47
5 6 -4 100.58 0.67
5 -6 -5 87.95 0.47
5 6 -5 88.55 0.71
5 -6 -6 45.75 0.42
5 6 -6 44.47 0.66
5 -6 -7 0.84 0.25
5 6 -7 0.52 0.67
5 -6 -8 60.99 0.64
5 6 -8 59.92 0.83
5 -6 -9 3.44 0.49
5 6 -9 3.83 0.67
5 -7 10 6.26 0.51
5 7 10 6.25 0.62
5 -7 9 24.68 0.63
5 7 9 25.46 0.8
5 -7 8 12.64 0.51
5 7 8 11.91 0.51
5 -7 7 4.3 0.33
5 7 7 4.59 0.3
5 -7 6 5.68 0.32
5 7 6 6.48 0.29
5 -7 5 16.03 0.41
5 7 5 14.52 0.41
5 -7 4 144.4 0.71
5 7 4 148.59 0.83
5 -7 3 285 0.92
5 7 3 282.63 0.98
5 -7 2 72.97 0.44
5 7 2 71.24 0.36
5 -7 1 32.88 0.34
5 7 1 33 0.27
5 -7 0 82.51 0.41
5 7 0 83.54 0.4
5 -7 -1 43.33 0.34
5 7 -1 43.63 0.29
5 -7 -2 190.97 0.62
5 7 -2 186.95 0.85
5 -7 -3 320.98 0.91
5 7 -3 329.8 1.34
5 -7 -4 64.34 0.4
5 7 -4 65.56 0.69
5 -7 -5 69.82 0.5
5 7 -5 68.95 0.76
5 -7 -6 24.41 0.36
5 7 -6 23.83 0.54
5 -7 -7 26.43 0.43
5 7 -7 26.21 0.73
5 -7 -8 4.18 0.33
5 7 -8 4.11 0.55
5 -7 -9 0.73 0.37
5 7 -9 0.49 0.94
5 -8 9 1.91 0.44
5 8 9 1.82 0.47
5 -8 8 14.21 0.46
5 8 8 13.99 0.54
5 -8 7 2.17 0.32
5 8 7 2.29 0.31
5 -8 6 125.73 1.09
5 8 6 128.37 0.83
5 -8 5 73.29 0.77
5 8 5 70.39 0.77
5 -8 4 25 0.4
5 8 4 24.15 0.37
5 -8 3 22.16 0.37
5 8 3 21.21 0.29
5 -8 2 72.48 0.56
5 8 2 70.35 0.41
5 -8 1 155.86 0.74
5 8 1 159.59 0.66
5 -8 0 207.06 0.91
5 8 0 205.97 0.83
5 -8 -1 2.84 0.16
5 8 -1 3.18 0.14
5 -8 -2 26.29 0.26
5 8 -2 28.26 0.36
5 -8 -3 118.29 0.58
5 8 -3 118.39 1.1
5 -8 -4 111.9 0.53
5 8 -4 107.61 1.09
5 -8 -5 40.29 0.37
5 8 -5 39.96 0.63
5 -8 -6 17.66 0.32
5 8 -6 18.39 0.44
5 -8 -7 8.41 0.3
5 8 -7 8.8 0.56
5 -8 -8 11.39 0.39
5 8 -8 12.98 0.63
5 -8 -9 27.89 0.56
5 8 -9 27.82 1.05
5 -9 9 1.53 0.85
5 9 9 1.01 0.5
5 -9 8 40.94 0.67
5 9 8 40.45 0.73
5 -9 7 9.22 0.4
5 9 7 8.7 0.36
5 -9 6 1.71 0.31
5 9 6 1.46 0.3
5 -9 5 12.89 0.43
5 9 5 11.81 0.44
5 -9 4 104.9 0.94
5 9 4 101.13 0.82
5 -9 3 21.15 0.8
5 9 3 20.89 0.31
5 -9 2 31.82 0.48
5 9 2 33.08 0.33
5 -9 1 214.03 0.85
5 9 1 217.23 0.85
5 -9 0 159.16 0.84
5 9 0 154.37 0.73
5 -9 -1 216.27 1.09
5 9 -1 214.54 0.8
5 -9 -2 38.97 0.39
5 9 -2 39.31 0.52
5 -9 -3 11.05 0.23
5 9 -3 10.09 0.46
5 -9 -4 5.47 0.21
5 9 -4 5.46 0.42
5 -9 -5 13.58 0.34
5 9 -5 13.5 0.57
5 -9 -6 13.25 0.3
5 9 -6 13.05 0.59
5 -9 -7 40.05 0.48
5 9 -7 37.58 1.24
5 -9 -8 5.44 0.39
5 9 -8 5.24 0.75
5 -10 9 0.61 1.03
5 10 9 0.91 0.63
5 -10 8 12.85 0.64
5 10 8 12.35 0.53
5 -10 7 18.1 0.49
5 10 7 17.11 0.44
5 -10 6 7.87 0.53
5 10 6 6.07 0.37
5 -10 5 47.31 1.18
5 10 5 45.84 0.54
5 10 4 12.41 0.33
5 -10 3 30.23 0.64
5 10 3 30.46 0.45
5 -10 2 149.9 1.25
5 10 2 149.6 0.74
5 -10 1 48.59 0.54
5 10 1 46.63 0.43
5 -10 0 0.63 0.29
5 10 0 0.58 0.19
5 -10 -1 83.52 0.8
5 10 -1 83.02 0.53
5 -10 -2 20.89 0.36
5 10 -2 20.22 0.57
5 -10 -3 25.94 0.37
5 10 -3 24.44 0.63
5 -10 -4 57.41 0.59
5 10 -4 57.26 0.94
5 -10 -5 27.23 0.43
5 10 -5 26.54 0.72
5 -10 -6 12.02 0.36
5 10 -6 12.03 0.49
5 -10 -7 1.28 0.35
5 10 -7 0.69 0.61
5 -10 -8 2.12 0.4
5 10 -8 1.41 0.69
5 -11 8 1.52 0.66
5 11 8 1.25 0.42
5 -11 7 7.08 0.79
5 11 7 8.44 0.42
5 11 6 2.55 0.49
5 -11 5 37.63 1.11
5 11 5 37.29 0.59
5 -11 4 1.28 0.53
5 11 4 0.67 0.26
5 -11 3 89.24 1.05
5 11 3 84.74 0.87
5 -11 2 12.14 0.49
5 11 2 12.7 0.3
5 -11 1 26.92 0.44
5 11 1 26.44 0.41
5 -11 0 15.03 0.41
5 11 0 15.44 0.33
5 -11 -1 18.36 0.41
5 11 -1 19.79 0.3
5 -11 -2 103.1 0.8
5 11 -2 98.4 0.92
5 -11 -3 0.97 0.26
5 11 -3 0.67 0.33
5 -11 -4 3.76 0.29
5 11 -4 3.82 0.48
5 -11 -5 19.55 0.45
5 11 -5 17.37 0.66
5 -11 -6 15.66 0.48
5 11 -6 15.63 0.53
5 -11 -7 8.15 0.49
5 11 -7 6.67 0.75
5 -11 -8 0.9 0.48
5 11 -8 1.43 0.84
5 12 8 0.42 0.73
5 -12 7 8.72 0.6
5 12 7 8.48 0.48
5 -12 6 15.48 0.9
5 12 6 15.26 0.55
5 -12 5 0.57 0.46
5 12 5 0.35 0.24
5 -12 4 0.32 0.58
5 12 4 0.37 0.16
5 -12 3 11.44 0.52
5 12 3 11.93 0.39
5 -12 2 1.91 0.33
5 12 2 1.84 0.24
5 -12 1 24.04 0.59
5 12 1 24.9 0.46
5 -12 0 79.58 0.8
5 12 0 78.49 0.83
5 -12 -1 19.97 0.47
5 12 -1 19.4 0.38
5 -12 -2 3.44 0.33
5 12 -2 3.29 0.36
5 -12 -3 19.51 0.46
5 12 -3 19.26 0.52
5 -12 -4 7.27 0.43
5 12 -4 7.03 0.41
5 -12 -5 2.88 0.42
5 12 -5 2.18 0.42
5 -12 -6 15.75 0.54
5 12 -6 15.75 0.65
5 -12 -7 4.61 0.62
5 12 -7 4.72 0.77
5 -13 7 3.88 0.81
5 13 7 4.23 0.51
5 -13 6 0.62 1.03
5 13 6 0.97 0.4
5 -13 5 3.37 0.74
5 13 5 3.07 0.37
5 -13 4 24.92 0.96
5 13 4 24.83 0.53
5 -13 3 7.07 0.5
5 13 3 5.97 0.33
5 -13 2 7.15 0.48
5 13 2 7.87 0.33
5 -13 1 21.92 0.63
5 13 1 20.61 0.48
5 -13 0 21.29 0.47
5 13 0 20.05 0.46
5 -13 -1 1.51 0.33
5 13 -1 1.31 0.37
5 -13 -2 20.23 0.47
5 13 -2 19.05 0.53
5 -13 -3 1.3 0.32
5 13 -3 1.15 0.38
5 -13 -4 2.63 0.35
5 13 -4 2.4 0.53
5 -13 -5 20.38 0.71
5 13 -5 20.37 0.72
5 -13 -6 0.85 0.45
5 13 -6 0.78 0.5
5 14 6 13.48 0.54
5 14 5 17.93 0.57
5 14 4 2.29 0.31
5 14 3 3.1 0.35
5 -14 2 13.7 0.83
5 14 2 14.08 0.52
5 -14 1 8.52 0.55
5 14 1 8.26 0.35
5 -14 0 7.17 0.43
5 14 0 7.08 0.42
5 -14 -1 2.64 0.34
5 14 -1 3.16 0.45
5 -14 -2 12.69 0.43
5 14 -2 11.89 0.62
5 -14 -3 1.15 0.31
5 14 -3 0.99 0.41
5 -14 -4 17.48 0.68
5 14 -4 15.49 0.54
5 -14 -5 10.64 0.6
5 14 -5 10.89 0.87
5 -14 -6 0.37 0.4
5 14 -6 0.1 0.65
5 15 5 9.53 0.62
5 15 4 4.07 0.56
5 15 3 25.44 1.02
5 -15 2 4.51 0.7
5 15 2 2.7 0.35
5 -15 1 9.43 0.58
5 15 1 7.77 0.38
5 -15 0 9.06 0.58
5 15 0 8.32 0.46
5 -15 -1 8.29 0.47
5 15 -1 6.97 0.57
5 -15 -2 11.98 0.44
5 15 -2 10 0.84
5 -15 -3 5.19 0.43
5 15 -3 5.45 0.41
5 -15 -4 1.96 0.72
5 15 -4 1.74 0.85
5 -15 -5 0.15 0.54
5 15 -5 0.44 0.79
5 -16 4 0.76 0.84
5 16 4 0.36 0.43
5 16 3 0.27 0.21
5 -16 2 25.06 1.07
5 16 2 17.88 1.47
5 -16 1 7.02 0.76
5 16 1 6.18 0.49
5 -16 0 2.08 0.78
5 16 0 2 0.47
5 -16 -1 3.01 0.77
5 16 -1 2.62 0.55
5 -16 -2 0.42 0.44
5 16 -2 0.08 0.19
5 -16 -3 21.59 0.72
5 16 -3 19 0.72
5 -17 2 9.56 0.82
5 17 2 11.12 0.88
5 -17 1 3.92 0.77
5 17 1 3.27 0.44
5 17 0 9.46 0.63
5 -17 -1 3.3 0.82
5 17 -1 3 0.64
5 17 -2 7.6 0.87
6 0 11 14.82 0.7
6 0 10 12.68 0.47
6 0 9 0.44 0.35
6 0 8 18.84 0.37
6 0 7 15.3 0.29
6 0 6 147.7 0.69
6 0 5 384.97 0.9
6 0 4 8.27 0.16
6 0 3 0.63 0.3
6 0 2 0.81 0.19
6 0 1 966.01 4.36
6 0 0 151.18 0.83
6 0 -1 521.58 2.34
6 0 -2 6.56 0.25
6 0 -3 779.73 2.31
6 0 -4 0.36 0.2
6 0 -5 53.08 0.45
6 0 -6 34.4 0.54
6 0 -7 22.97 0.4
6 0 -8 64.27 0.72
6 0 -9 5.49 0.54
6 0 -10 2.44 0.59
6 -1 11 2.41 0.84
6 1 11 1.5 0.89
6 -1 10 2.58 0.35
6 1 10 2.31 0.37
6 -1 9 32.43 0.52
6 1 9 34.62 0.87
6 -1 8 34.18 0.49
6 1 8 34.27 0.49
6 -1 7 81.13 0.53
6 1 7 80.25 0.54
6 -1 6 4.09 0.2
6 1 6 3.42 0.19
6 -1 5 1.4 0.17
6 1 5 1.84 0.14
6 -1 4 359.68 0.76
6 1 4 349.78 0.72
6 -1 3 424.41 1.19
6 1 3 437.03 1.74
6 -1 2 533.66 3.57
6 1 2 545.58 3.39
6 -1 1 253.83 1.23
6 1 1 250.92 1.38
6 -1 0 73.23 0.69
6 1 0 68.83 0.66
6 -1 -1 272.51 1.29
6 1 -1 262.17 1.2
6 -1 -2 219.4 1.12
6 1 -2 212.67 1.59
6 -1 -3 229.95 0.85
6 1 -3 234.62 0.9
6 -1 -4 34.89 0.38
6 1 -4 34.31 0.38
6 -1 -5 43.91 0.48
6 1 -5 44.55 0.43
6 -1 -6 41.81 0.45
6 1 -6 43.91 0.52
6 -1 -7 51.71 0.46
6 1 -7 53.28 0.71
6 -1 -8 46.05 0.52
6 1 -8 42.38 0.7
6 -1 -9 20.08 0.51
6 1 -9 21.2 0.7
6 -1 -10 0.28 0.27
6 1 -10 0.61 0.46
6 -2 10 16.97 0.52
6 2 10 16.1 0.5
6 -2 9 52.94 0.59
6 2 9 53.7 1.03
6 -2 8 48.72 0.58
6 2 8 49.16 0.57
6 -2 7 10.17 0.28
6 2 7 9.81 0.26
6 -2 6 42.91 0.35
6 2 6 42.23 0.37
6 -2 5 108.04 0.5
6 2 5 105.86 0.64
6 -2 4 161.31 0.57
6 2 4 161.29 0.58
6 -2 3 20.7 0.22
6 2 3 20.59 0.28
6 -2 2 483.14 1.37
6 2 2 500.12 2.84
6 -2 1 306.77 1.08
6 2 1 287.57 2.08
6 -2 0 902.72 4.29
6 2 0 917.35 2.85
6 -2 -1 33.57 0.39
6 2 -1 36.83 0.5
6 -2 -2 27.69 0.31
6 2 -2 26.36 0.31
6 -2 -3 0.31 0.14
6 2 -3 0.4 0.17
6 -2 -4 222.4 0.66
6 2 -4 218.86 0.94
6 -2 -5 162.11 0.68
6 2 -5 163.19 0.99
6 -2 -6 4.66 0.22
6 2 -6 4.31 0.4
6 -2 -7 28.81 0.41
6 2 -7 29.63 0.71
6 -2 -8 0.74 0.3
6 2 -8 1.08 0.43
6 -2 -9 7.16 0.37
6 2 -9 7.87 0.59
6 -2 -10 12.7 0.63
6 2 -10 12.9 0.95
6 -3 10 2.26 0.59
6 3 10 2.24 0.47
6 -3 9 6.99 0.32
6 3 9 6.92 0.58
6 -3 8 14.99 0.36
6 3 8 14.39 0.35
6 -3 7 57.9 0.57
6 3 7 58.16 0.57
6 -3 6 15.7 0.28
6 3 6 15.44 0.36
6 -3 5 23.78 0.34
6 3 5 22.72 0.35
6 -3 4 293.8 0.73
6 3 4 300.26 0.79
6 -3 3 382.61 0.92
6 3 3 368.15 0.88
6 -3 2 87.55 0.48
6 3 2 92.58 1.41
6 -3 1 220.56 2.83
6 3 1 227.68 2.65
6 -3 0 20.05 0.3
6 3 0 19.87 0.32
6 -3 -1 339.78 1.62
6 3 -1 335.68 1.88
6 -3 -2 392.54 1.16
6 3 -2 401.14 1.06
6 -3 -3 64.8 0.43
6 3 -3 59.16 0.5
6 -3 -4 33.27 0.28
6 3 -4 34.33 0.57
6 -3 -5 3.56 0.18
6 3 -5 3.47 0.27
6 -3 -6 15.43 0.3
6 3 -6 13.61 0.51
6 -3 -7 25.82 0.36
6 3 -7 25.2 0.68
6 -3 -8 31.61 0.42
6 3 -8 33.07 0.8
6 -3 -9 7.19 0.56
6 3 -9 7.79 0.58
6 -3 -10 10.93 0.46
6 3 -10 11.57 0.65
6 -4 10 4.3 0.48
6 4 10 4.11 0.51
6 -4 9 1.41 0.36
6 4 9 2.15 0.35
6 -4 8 56.99 0.57
6 4 8 56.67 0.56
6 -4 7 73.38 0.6
6 4 7 73.17 0.74
6 -4 6 63.78 0.49
6 4 6 59.13 0.52
6 -4 5 42.33 0.37
6 4 5 42.03 0.46
6 -4 4 56.3 0.37
6 4 4 55.16 0.42
6 -4 3 28.73 0.33
6 4 3 28.9 0.29
6 -4 2 6.35 0.2
6 4 2 5.04 0.19
6 -4 1 276.75 1.2
6 4 1 283.16 2.55
6 -4 0 128.28 0.86
6 4 0 129.18 0.81
6 -4 -1 254.75 0.95
6 4 -1 247.38 1.46
6 -4 -2 100.24 0.5
6 4 -2 102.14 0.53
6 -4 -3 85.84 0.38
6 4 -3 83.97 0.51
6 -4 -4 9.54 0.17
6 4 -4 10.13 0.31
6 -4 -5 135.67 0.59
6 4 -5 134.71 1.27
6 -4 -6 6.13 0.21
6 4 -6 5.29 0.44
6 -4 -7 30.13 0.42
6 4 -7 29.47 0.74
6 -4 -8 20.05 0.37
6 4 -8 19.68 0.56
6 -4 -9 4.88 0.41
6 4 -9 4.19 0.57
6 -4 -10 0.82 0.82
6 4 -10 0.75 0.84
6 -5 10 0.46 0.57
6 5 10 0.5 0.38
6 -5 9 24.81 0.48
6 5 9 25.16 0.54
6 -5 8 23.66 0.45
6 5 8 21.01 0.4
6 -5 7 13.33 0.35
6 5 7 13.89 0.4
6 -5 6 20.28 0.32
6 5 6 20.46 0.33
6 -5 5 2.98 0.2
6 5 5 3.28 0.24
6 -5 4 35.71 0.32
6 5 4 32.77 0.4
6 -5 3 87.99 0.48
6 5 3 91.6 0.49
6 -5 2 352.65 1.08
6 5 2 351.29 1.01
6 -5 1 10.76 0.21
6 5 1 9.1 0.2
6 -5 0 104.51 0.63
6 5 0 103.08 0.55
6 -5 -1 16.75 0.24
6 5 -1 18.01 0.28
6 -5 -2 154.48 0.5
6 5 -2 150.31 0.85
6 -5 -3 234.66 0.61
6 5 -3 240.85 0.82
6 -5 -4 14.81 0.21
6 5 -4 13.3 0.28
6 -5 -5 5.16 0.19
6 5 -5 5.01 0.28
6 -5 -6 23.2 0.31
6 5 -6 21.07 0.43
6 -5 -7 46.65 0.47
6 5 -7 46.84 0.72
6 -5 -8 3.77 0.29
6 5 -8 3.39 0.42
6 -5 -9 13.79 0.46
6 5 -9 14.82 0.66
6 -6 10 4.04 0.62
6 6 10 3.76 0.62
6 -6 9 4.91 0.43
6 6 9 5.25 0.41
6 -6 8 16.75 0.41
6 6 8 17.63 0.43
6 -6 7 14.22 0.36
6 6 7 14.14 0.42
6 -6 6 38.47 0.46
6 6 6 39.79 0.43
6 -6 5 75.95 0.54
6 6 5 72.62 0.66
6 -6 4 40.65 0.39
6 6 4 37.9 0.45
6 -6 3 43.15 0.33
6 6 3 44.21 0.36
6 -6 2 40 0.33
6 6 2 40.58 0.39
6 -6 1 0.5 0.15
6 6 1 0.41 0.16
6 -6 0 335.82 0.83
6 6 0 336.16 0.93
6 -6 -1 35.5 0.27
6 6 -1 37.56 0.35
6 -6 -2 39.44 0.29
6 6 -2 38.42 0.47
6 -6 -3 38.46 0.28
6 6 -3 40.67 0.38
6 -6 -4 138.96 0.58
6 6 -4 134.96 0.99
6 -6 -5 9.16 0.23
6 6 -5 11.1 0.35
6 -6 -6 54.17 0.44
6 6 -6 56.07 0.67
6 -6 -7 4 0.35
6 6 -7 4.21 0.4
6 -6 -8 1.21 0.27
6 6 -8 1.1 0.64
6 -6 -9 3.45 0.39
6 6 -9 3.17 0.91
6 -7 10 2.11 0.77
6 7 10 2.2 0.66
6 -7 9 1.82 0.4
6 7 9 1.31 0.37
6 -7 8 26.61 0.76
6 7 8 26.94 0.64
6 -7 7 22.81 0.56
6 7 7 23.94 0.59
6 -7 6 48.48 0.68
6 7 6 45.98 0.52
6 -7 5 55.43 0.56
6 7 5 53.19 0.66
6 -7 4 59.76 0.46
6 7 4 63.1 0.56
6 -7 3 48.5 0.37
6 7 3 46.77 0.42
6 -7 2 35.98 0.43
6 7 2 36.78 0.28
6 -7 1 118.81 0.7
6 7 1 120.72 0.53
6 -7 0 4.82 0.16
6 7 0 5.12 0.16
6 -7 -1 143.88 0.61
6 7 -1 143.56 0.63
6 -7 -2 30.34 0.27
6 7 -2 31.85 0.45
6 -7 -3 32.94 0.35
6 7 -3 29.19 0.4
6 -7 -4 143.91 0.64
6 7 -4 148.35 1.03
6 -7 -5 18.74 0.28
6 7 -5 19.04 0.42
6 -7 -6 5.92 0.24
6 7 -6 6.53 0.38
6 -7 -7 7.18 0.32
6 7 -7 6.63 0.53
6 -7 -8 26.6 0.43
6 7 -8 27.82 0.78
6 -7 -9 3.18 0.43
6 7 -9 2.79 0.98
6 -8 9 1.02 0.57
6 8 9 1.41 0.41
6 -8 8 16.88 0.69
6 8 8 17.11 0.57
6 -8 7 21.18 0.5
6 8 7 20.39 0.43
6 -8 6 2.61 0.3
6 8 6 2.31 0.28
6 -8 5 76.24 0.78
6 8 5 79.52 0.83
6 -8 4 33.85 0.45
6 8 4 32.6 0.45
6 -8 3 6.01 0.25
6 8 3 6.1 0.23
6 -8 2 10.74 0.41
6 8 2 11.9 0.19
6 -8 1 141.36 1
6 8 1 138.28 0.58
6 -8 0 33.89 0.36
6 8 0 38.3 0.32
6 -8 -1 176.04 0.7
6 8 -1 175.38 0.72
6 -8 -2 15.67 0.24
6 8 -2 15.8 0.47
6 -8 -3 28.16 0.32
6 8 -3 29.76 0.5
6 -8 -4 5.64 0.21
6 8 -4 6.82 0.36
6 -8 -5 95.88 0.55
6 8 -5 97.48 0.81
6 -8 -6 10.29 0.28
6 8 -6 9.17 0.43
6 -8 -7 3.12 0.28
6 8 -7 3.72 0.52
6 -8 -8 1.22 0.38
6 8 -8 1.59 0.86
6 -8 -9 4.86 0.53
6 -9 9 18.55 0.57
6 9 9 20.17 0.6
6 -9 8 1.22 0.65
6 9 8 1.26 0.45
6 -9 7 15.97 0.46
6 9 7 15.97 0.46
6 -9 6 7.21 0.36
6 9 6 7.47 0.32
6 -9 5 22.77 0.5
6 9 5 23.46 0.45
6 -9 4 3.73 0.38
6 9 4 3.89 0.28
6 -9 3 135.52 1.16
6 9 3 135.77 0.69
6 -9 2 45.71 0.74
6 9 2 47.43 0.39
6 -9 1 6.19 0.32
6 9 1 5.75 0.19
6 -9 0 13.44 0.37
6 9 0 13.48 0.23
6 -9 -1 32.8 0.36
6 9 -1 34.46 0.35
6 -9 -2 68.64 0.52
6 9 -2 64.81 0.67
6 -9 -3 98.25 0.57
6 9 -3 101.02 1.11
6 -9 -4 18.14 0.29
6 9 -4 17.3 0.6
6 -9 -5 0.29 0.19
6 9 -5 0.3 0.18
6 -9 -6 2.82 0.26
6 9 -6 2.45 0.47
6 -9 -7 36.81 0.51
6 9 -7 38.17 1.25
6 -9 -8 14.11 0.47
6 9 -8 13.34 0.89
6 10 9 7.34 0.82
6 -10 8 12.63 0.63
6 10 8 13.75 0.56
6 -10 7 7.2 0.59
6 10 7 8.55 0.37
6 -10 6 67.25 1.42
6 10 6 69.04 0.64
6 -10 5 13.53 0.74
6 10 5 14.81 0.42
6 -10 4 3.32 0.4
6 10 4 2.56 0.3
6 -10 3 22.83 0.89
6 10 3 22.75 0.41
6 -10 2 33.68 1
6 10 2 35.35 0.37
6 -10 1 71.91 0.94
6 10 1 70.66 0.48
6 -10 0 100.6 1.53
6 10 0 103.2 0.6
6 -10 -1 4.66 0.27
6 10 -1 4.56 0.24
6 -10 -2 7.12 0.27
6 10 -2 6.82 0.44
6 -10 -3 21.38 0.35
6 10 -3 22.69 0.63
6 -10 -4 58.42 0.47
6 10 -4 58.45 0.96
6 -10 -5 1.63 0.24
6 10 -5 1.7 0.32
6 -10 -6 55.84 0.55
6 10 -6 53.01 1.37
6 -10 -7 3.27 0.38
6 10 -7 3.92 0.66
6 -10 -8 14.43 0.47
6 10 -8 14.63 0.91
6 -11 8 11.94 0.89
6 11 8 12.43 0.91
6 -11 7 6.53 0.78
6 11 7 6.74 0.41
6 -11 6 19.09 0.65
6 11 6 21.2 0.46
6 -11 5 16.19 0.83
6 11 5 15.55 0.45
6 11 4 95.52 0.98
6 -11 3 12.57 0.78
6 11 3 12.2 0.44
6 -11 2 42.46 1.14
6 11 2 44.03 0.49
6 -11 1 41.12 0.79
6 11 1 39.36 0.4
6 -11 0 8.76 0.48
6 11 0 9.05 0.31
6 -11 -1 31.41 0.58
6 11 -1 30.38 0.46
6 -11 -2 136.07 0.93
6 11 -2 137.78 1.09
6 -11 -3 35.36 0.49
6 11 -3 31.88 0.76
6 -11 -4 2.07 0.28
6 11 -4 2.03 0.34
6 -11 -5 4.61 0.34
6 11 -5 4.83 0.4
6 -11 -6 7 0.42
6 11 -6 7.45 0.78
6 -11 -7 6.84 0.42
6 11 -7 6.52 0.75
6 -12 7 25.07 1.08
6 12 7 27.08 0.71
6 -12 6 1.94 0.74
6 12 6 1.89 0.37
6 12 5 24.96 0.63
6 12 4 68.22 0.87
6 -12 3 24.96 1
6 12 3 23.79 0.7
6 -12 2 14.85 0.83
6 12 2 15.35 0.38
6 -12 1 58.96 1.34
6 12 1 56.58 0.7
6 -12 0 41.91 0.68
6 12 0 44.54 0.67
6 -12 -1 63.06 0.69
6 12 -1 62.03 0.75
6 -12 -2 9 0.37
6 12 -2 7.98 0.41
6 -12 -3 2.2 0.32
6 12 -3 1.46 0.32
6 -12 -4 28.22 0.54
6 12 -4 27.6 0.61
6 -12 -5 51.6 0.69
6 12 -5 50.16 1.4
6 -12 -6 3.9 0.45
6 12 -6 3.25 0.52
6 -12 -7 4.77 0.52
6 12 -7 4 0.79
6 -13 7 4.72 0.89
6 13 7 4.42 0.64
6 13 6 2.18 0.38
6 13 5 9.62 0.43
6 13 4 0.29 0.21
6 13 3 85.49 0.96
6 -13 2 37.96 1.17
6 13 2 36.22 0.83
6 -13 1 3.98 0.64
6 13 1 4.35 0.32
6 -13 0 11.65 0.39
6 13 0 11.38 0.41
6 -13 -1 38.61 0.59
6 13 -1 38.12 0.84
6 -13 -2 37 0.59
6 13 -2 33.11 0.64
6 -13 -3 15.62 0.52
6 13 -3 15.06 0.52
6 -13 -4 2.59 0.44
6 13 -4 1.64 0.51
6 -13 -5 1.52 0.4
6 13 -5 1.22 0.44
6 -13 -6 35.43 0.85
6 13 -6 34.36 0.85
6 -14 6 41.22 1.27
6 14 6 38.19 1.3
6 14 5 12.87 0.53
6 14 4 9.56 0.5
6 -14 3 0.99 0.71
6 14 3 0.97 0.48
6 -14 2 18.74 0.94
6 14 2 18.98 0.69
6 -14 1 11.27 0.6
6 14 1 11.02 0.44
6 -14 0 42.53 0.71
6 14 0 41.88 1.2
6 -14 -1 21.65 0.5
6 14 -1 21.77 1.01
6 -14 -2 6.26 0.38
6 14 -2 5.31 0.44
6 -14 -3 15.65 0.46
6 14 -3 15.48 0.96
6 -14 -4 29.32 0.65
6 -14 -5 3.8 0.74
6 14 -5 3.08 0.53
6 15 5 9.42 0.6
6 15 4 12.06 0.65
6 15 3 6.44 0.65
6 -15 2 14.8 0.65
6 15 2 10.83 0.54
6 -15 1 4.93 0.55
6 15 1 5.16 0.41
6 -15 0 6.86 0.75
6 15 0 5.69 0.55
6 -15 -1 18.89 0.48
6 15 -1 13.95 0.66
6 -15 -2 15.25 0.46
6 15 -2 12.85 0.65
6 -15 -3 9.22 0.41
6 15 -3 7.42 0.49
6 -15 -4 5.17 0.63
6 15 -4 5.44 0.46
6 -16 4 3.33 0.82
6 16 4 4.1 0.48
6 -16 3 0.38 1.44
6 16 3 0.23 0.3
6 -16 2 1.58 0.92
6 16 2 1.44 0.37
6 -16 1 73.59 1.63
6 16 1 49.51 2.53
6 -16 0 0.54 0.61
6 16 0 0.94 0.46
6 -16 -1 3.61 0.79
6 16 -1 3.06 0.49
6 -16 -2 0.1 0.27
6 16 -2 0.43 0.34
6 -16 -3 0.7 0.53
6 16 -3 0.58 0.53
6 17 1 4.63 0.67
6 17 0 4.59 0.54
6 17 -1 9.44 0.64
7 0 10 9.77 0.44
7 0 9 56.2 1.04
7 0 8 0.36 0.24
7 0 7 8.46 0.25
7 0 6 74.77 0.53
7 0 5 205.78 0.77
7 0 4 299.83 0.83
7 0 3 77.83 0.41
7 0 2 11.21 0.32
7 0 1 57.93 0.64
7 0 0 380.9 1.37
7 0 -1 38 0.54
7 0 -2 216.23 0.75
7 0 -3 159.48 0.6
7 0 -4 128.25 0.6
7 0 -5 144.99 0.8
7 0 -6 20.31 0.4
7 0 -7 6.99 0.34
7 0 -8 22.82 0.45
7 0 -9 5.11 0.54
7 0 -10 3.92 0.62
7 -1 10 2.55 0.37
7 1 10 2.32 0.4
7 -1 9 0.65 0.31
7 1 9 0.81 0.39
7 -1 8 8.58 0.33
7 1 8 9.04 0.38
7 -1 7 67.13 0.47
7 1 7 67.62 0.55
7 -1 6 73.55 0.51
7 1 6 75.13 0.52
7 -1 5 33.45 0.33
7 1 5 32.26 0.3
7 -1 4 65.36 0.38
7 1 4 68.14 0.46
7 -1 3 193.16 0.6
7 1 3 185.89 0.68
7 -1 2 153.89 0.75
7 1 2 150.37 1.48
7 -1 1 546.47 1.93
7 1 1 566.87 3.27
7 -1 0 109.56 0.93
7 1 0 109.48 1.31
7 -1 -1 40.4 0.57
7 1 -1 40.53 0.39
7 -1 -2 174.11 0.58
7 1 -2 177.45 0.59
7 -1 -3 53.39 0.35
7 1 -3 52.3 0.42
7 -1 -4 274 0.83
7 1 -4 268.23 0.91
7 -1 -5 8.34 0.25
7 1 -5 8.85 0.25
7 -1 -6 9.14 0.29
7 1 -6 8.3 0.36
7 -1 -7 23.79 0.39
7 1 -7 23.91 0.55
7 -1 -8 33.68 0.57
7 1 -8 32.51 0.56
7 -1 -9 12.65 0.52
7 1 -9 12.19 0.65
7 -1 -10 1.87 0.47
7 1 -10 1.3 0.56
7 -2 10 19.23 0.51
7 2 10 21.37 0.62
7 -2 9 3.21 0.33
7 2 9 2.62 0.39
7 -2 8 80.91 0.71
7 2 8 80.4 0.79
7 -2 7 2.99 0.27
7 2 7 2.75 0.25
7 -2 6 64.8 0.45
7 2 6 65.33 0.6
7 -2 5 104.99 0.5
7 2 5 104.9 0.6
7 -2 4 23.52 0.26
7 2 4 23.89 0.26
7 -2 3 202.66 0.57
7 2 3 205.74 0.76
7 -2 2 154.26 0.6
7 2 2 157.61 0.76
7 -2 1 23.66 0.35
7 2 1 23.56 0.45
7 -2 0 158.3 0.83
7 2 0 154 1.01
7 -2 -1 506.2 1.53
7 2 -1 510.74 1.68
7 -2 -2 147.05 0.48
7 2 -2 147.81 0.51
7 -2 -3 43.79 0.32
7 2 -3 43.58 0.34
7 -2 -4 12.25 0.21
7 2 -4 14.58 0.31
7 -2 -5 9.37 0.22
7 2 -5 10.11 0.3
7 -2 -6 168.45 0.8
7 2 -6 163.57 1.42
7 -2 -7 23.45 0.36
7 2 -7 23.21 0.55
7 -2 -8 1.7 0.32
7 2 -8 1.44 0.4
7 -2 -9 1.16 0.37
7 2 -9 0.74 0.5
7 2 -10 3.89 0.62
7 -3 10 0.72 0.43
7 3 10 1.1 0.43
7 -3 9 13.16 0.37
7 3 9 13.13 0.52
7 -3 8 18.72 0.38
7 3 8 21.02 0.39
7 -3 7 17.45 0.31
7 3 7 16.8 0.34
7 -3 6 57.63 0.52
7 3 6 55.85 0.52
7 -3 5 12.4 0.24
7 3 5 11.84 0.29
7 -3 4 1.73 0.14
7 3 4 1.62 0.14
7 -3 3 208.42 0.66
7 3 3 214.87 0.64
7 -3 2 356.39 0.82
7 3 2 364.47 0.98
7 -3 1 72.19 0.39
7 3 1 67.73 0.55
7 -3 0 93.19 0.47
7 3 0 89.08 0.53
7 -3 -1 87.55 0.42
7 3 -1 86.72 0.53
7 -3 -2 164.39 0.57
7 3 -2 165.57 0.7
7 -3 -3 225.28 0.71
7 3 -3 222.76 0.79
7 -3 -4 54.67 0.43
7 3 -4 52.99 0.45
7 -3 -5 6.88 0.2
7 3 -5 6.91 0.29
7 -3 -6 1.97 0.22
7 3 -6 1.94 0.32
7 -3 -7 41.69 0.48
7 3 -7 43.24 0.87
7 -3 -8 14.4 0.37
7 3 -8 13.13 0.5
7 -3 -9 16.03 0.56
7 3 -9 15.53 0.68
7 -4 10 13.5 0.53
7 4 10 12.14 0.67
7 -4 9 13.89 0.41
7 4 9 12.86 0.52
7 -4 8 15.91 0.37
7 4 8 16.77 0.41
7 -4 7 19.76 0.35
7 4 7 19.75 0.36
7 -4 6 22.6 0.31
7 4 6 23.21 0.37
7 -4 5 82.75 0.51
7 4 5 83.21 0.64
7 -4 4 83.07 0.46
7 4 4 78.93 0.43
7 -4 3 78.33 0.45
7 4 3 76.12 0.41
7 -4 2 11.41 0.19
7 4 2 11.7 0.24
7 -4 1 54.73 0.3
7 4 1 52.93 0.67
7 -4 0 346.27 0.81
7 4 0 349.25 1.02
7 -4 -1 89.78 0.46
7 4 -1 91.8 0.42
7 -4 -2 54.9 0.36
7 4 -2 50.49 0.37
7 -4 -3 57.43 0.35
7 4 -3 57.7 0.43
7 -4 -4 23.41 0.24
7 4 -4 22.87 0.38
7 -4 -5 110.63 0.57
7 4 -5 109.31 0.69
7 -4 -6 15.74 0.32
7 4 -6 15.15 0.47
7 -4 -7 3.05 0.24
7 4 -7 3.45 0.37
7 -4 -8 3.08 0.29
7 4 -8 2.79 0.4
7 -4 -9 13.29 0.41
7 4 -9 13.84 0.66
7 -5 10 1.37 0.49
7 5 10 1.07 0.47
7 -5 9 4.13 0.36
7 5 9 4.49 0.36
7 -5 8 44.82 0.63
7 5 8 45.79 0.53
7 -5 7 10.81 0.33
7 5 7 11 0.39
7 -5 6 38.8 0.41
7 5 6 38.85 0.46
7 -5 5 8.82 0.25
7 5 5 8.59 0.27
7 -5 4 153.01 0.7
7 5 4 154.05 0.68
7 -5 3 77.69 0.46
7 5 3 82.29 0.51
7 -5 2 56.15 0.43
7 5 2 50.29 0.43
7 -5 1 300.05 0.85
7 5 1 301.04 0.92
7 -5 0 8.06 0.21
7 5 0 6.63 0.21
7 -5 -1 74.82 0.42
7 5 -1 74.65 0.51
7 -5 -2 85.17 0.44
7 5 -2 86.55 0.54
7 -5 -3 48.49 0.34
7 5 -3 47.35 0.41
7 -5 -4 56.59 0.39
7 5 -4 58.67 0.56
7 -5 -5 41.92 0.35
7 5 -5 39.68 0.53
7 -5 -6 0.68 0.18
7 5 -6 0.49 0.35
7 -5 -7 9.92 0.36
7 5 -7 9.35 0.44
7 -5 -8 22.84 0.47
7 5 -8 23.02 0.6
7 -5 -9 2.59 0.49
7 5 -9 2.85 0.48
7 -6 10 12.72 0.89
7 6 10 13.41 0.68
7 -6 9 3.7 0.44
7 6 9 3.96 0.4
7 -6 8 7.72 0.34
7 6 8 7.06 0.32
7 -6 7 12.3 0.35
7 6 7 12.76 0.41
7 -6 6 24.28 0.36
7 6 6 22.92 0.4
7 -6 5 67.22 0.56
7 6 5 69.62 0.64
7 -6 4 108.79 0.62
7 6 4 106.53 0.65
7 -6 3 13.72 0.25
7 6 3 14.66 0.26
7 -6 2 35.96 0.35
7 6 2 35.82 0.34
7 -6 1 55.35 0.4
7 6 1 56.88 0.45
7 -6 0 81.72 0.4
7 6 0 83.14 0.59
7 -6 -1 158.5 0.59
7 6 -1 151.47 0.79
7 -6 -2 38.07 0.28
7 6 -2 39.7 0.49
7 -6 -3 3.55 0.15
7 6 -3 3.59 0.23
7 -6 -4 49.56 0.34
7 6 -4 49.12 0.54
7 -6 -5 23.01 0.29
7 6 -5 21.84 0.42
7 -6 -6 9.54 0.26
7 6 -6 11.77 0.38
7 -6 -7 10.45 0.34
7 6 -7 9.75 0.46
7 -6 -8 0.86 0.3
7 6 -8 0.96 0.38
7 -6 -9 2.84 0.61
7 6 -9 2.14 0.68
7 7 10 1.86 0.81
7 -7 9 5.06 0.59
7 7 9 4.96 0.47
7 -7 8 8.02 0.39
7 7 8 7.75 0.41
7 -7 7 70.78 0.74
7 7 7 71.96 0.75
7 -7 6 4.6 0.3
7 7 6 5.57 0.34
7 -7 5 30.62 0.52
7 7 5 29.11 0.47
7 -7 4 24.84 0.35
7 7 4 23.52 0.4
7 -7 3 110.76 0.69
7 7 3 113.89 0.61
7 -7 2 205.95 1.33
7 7 2 206.78 0.76
7 -7 1 8.99 0.25
7 7 1 9.16 0.2
7 -7 0 0.04 0.02
7 7 0 0.15 0.06
7 -7 -1 11.94 0.23
7 7 -1 11 0.26
7 -7 -2 95.37 0.46
7 7 -2 98.88 0.97
7 -7 -3 46.44 0.42
7 7 -3 41.93 0.52
7 -7 -4 17.37 0.27
7 7 -4 18.89 0.46
7 -7 -5 15.35 0.26
7 7 -5 15.67 0.47
7 -7 -6 9.78 0.27
7 7 -6 10.07 0.44
7 -7 -7 31.94 0.48
7 7 -7 31.94 0.81
7 -7 -8 1.2 0.35
7 7 -8 0.46 0.71
7 -7 -9 0.01 0.01
7 7 -9 -0.02 0.07
7 -8 9 9.26 0.82
7 8 9 8.6 0.43
7 -8 8 11.09 0.49
7 8 8 12.99 0.64
7 -8 7 0.54 0.42
7 8 7 0.21 0.14
7 -8 6 23.06 0.54
7 8 6 22.58 0.44
7 -8 5 88.83 1.03
7 8 5 91.91 0.79
7 -8 4 14.52 0.38
7 8 4 14.15 0.35
7 -8 3 20.64 0.54
7 8 3 21.73 0.31
7 -8 2 3.38 0.34
7 8 2 3.02 0.17
7 -8 1 108.51 0.83
7 8 1 107.49 0.56
7 -8 0 48.34 0.49
7 8 0 44.89 0.37
7 -8 -1 68.32 0.43
7 8 -1 72.24 0.51
7 -8 -2 53.4 0.42
7 8 -2 55.33 0.84
7 -8 -3 16.2 0.28
7 8 -3 15.99 0.36
7 -8 -4 14.79 0.27
7 8 -4 15.11 0.44
7 -8 -5 4.81 0.23
7 8 -5 4.18 0.37
7 -8 -6 34.88 0.46
7 8 -6 35.13 0.65
7 -8 -7 1.45 0.29
7 8 -7 1.73 0.48
7 -8 -8 2.92 0.45
7 8 -8 3.27 0.57
7 -9 9 5.14 0.89
7 9 9 5.53 0.48
7 -9 8 8.75 0.58
7 9 8 8.92 0.51
7 -9 7 10.24 0.48
7 9 7 9.85 0.42
7 -9 6 19.03 0.54
7 9 6 19.88 0.38
7 -9 5 12.04 0.73
7 9 5 13.3 0.35
7 -9 4 36.65 1.07
7 9 4 35.66 0.51
7 -9 3 41.02 0.75
7 9 3 41.86 0.46
7 -9 2 33.64 0.67
7 9 2 31.75 0.37
7 -9 1 89.55 0.81
7 9 1 95.69 0.56
7 -9 0 29.15 0.5
7 9 0 29.67 0.37
7 -9 -1 23.56 0.3
7 9 -1 23.42 0.32
7 -9 -2 36.63 0.37
7 9 -2 36.15 0.55
7 -9 -3 35.02 0.36
7 9 -3 33.91 0.62
7 -9 -4 51.62 0.41
7 9 -4 52.61 0.9
7 -9 -5 1.89 0.22
7 9 -5 1.98 0.43
7 -9 -6 1.73 0.27
7 9 -6 1.78 0.43
7 -9 -7 2.83 0.37
7 9 -7 3.81 0.68
7 -9 -8 23.68 0.62
7 9 -8 23.49 1.04
7 -10 8 2.96 0.83
7 10 8 3.6 0.49
7 -10 7 3.2 0.74
7 10 7 3.11 0.4
7 10 6 9.44 0.33
7 10 5 15.72 0.39
7 -10 4 59.49 1.35
7 10 4 61.21 0.67
7 -10 3 12.95 0.77
7 10 3 13.86 0.34
7 -10 2 8.2 0.47
7 10 2 8.32 0.26
7 -10 1 26.56 0.53
7 10 1 25.06 0.38
7 -10 0 127.19 1.03
7 10 0 134.5 0.76
7 -10 -1 32.22 0.49
7 10 -1 32.71 0.46
7 -10 -2 2.95 0.25
7 10 -2 2.7 0.32
7 -10 -3 42 0.51
7 10 -3 42.18 0.64
7 -10 -4 5.38 0.24
7 10 -4 5.74 0.67
7 -10 -5 41.73 0.46
7 10 -5 41.82 0.88
7 -10 -6 7.71 0.34
7 10 -6 7.64 0.55
7 -10 -7 3.66 0.59
7 10 -7 3.2 0.65
7 -10 -8 3.17 0.58
7 10 -8 3.75 0.79
7 -11 8 3.41 0.94
7 11 8 3.56 0.6
7 11 7 9.69 0.43
7 -11 6 15.57 0.88
7 11 6 18.05 0.44
7 11 5 13.56 0.44
7 -11 4 0.54 0.53
7 11 4 0.1 0.16
7 -11 3 38.41 1.16
7 11 3 39.04 0.66
7 -11 2 62.21 1.36
7 11 2 61.21 0.53
7 -11 1 22.22 0.92
7 11 1 24.61 0.4
7 -11 0 9.81 0.51
7 11 0 10.37 0.28
7 -11 -1 24.7 0.55
7 11 -1 23.81 0.43
7 -11 -2 12.13 0.34
7 11 -2 14.27 0.57
7 -11 -3 79.19 0.69
7 11 -3 76.28 1.08
7 -11 -4 10.87 0.36
7 11 -4 11.5 0.81
7 -11 -5 10.97 0.38
7 11 -5 11.64 0.59
7 -11 -6 5.78 0.55
7 11 -6 4.76 0.51
7 -11 -7 7.04 0.61
7 11 -7 6.71 0.78
7 -12 7 7.95 0.9
7 12 7 9.36 0.48
7 -12 6 17.6 0.94
7 12 6 18.93 0.48
7 12 5 4.45 0.33
7 12 4 32.18 0.66
7 -12 3 40.69 1.21
7 12 3 42.7 0.71
7 -12 2 0.72 0.65
7 12 2 1.08 0.31
7 -12 1 5.98 0.71
7 12 1 5.37 0.39
7 -12 0 6.71 0.4
7 12 0 6.09 0.29
7 -12 -1 112.06 0.96
7 12 -1 113.8 1.03
7 -12 -2 19.46 0.46
7 12 -2 18.2 0.51
7 -12 -3 4.81 0.4
7 12 -3 4.09 0.45
7 -12 -4 2.85 0.34
7 12 -4 2.46 0.44
7 -12 -5 8.71 0.47
7 12 -5 7.85 0.54
7 -12 -6 18.53 0.7
7 12 -6 18.85 0.69
7 12 -7 10.75 0.85
7 13 7 5.88 0.63
7 -13 6 14.88 0.9
7 13 6 16.97 0.58
7 13 5 1.83 0.31
7 13 4 11.23 0.44
7 -13 3 9.06 0.8
7 13 3 10.5 0.47
7 -13 2 61.18 1.46
7 13 2 59.32 1.44
7 -13 1 41.49 0.88
7 13 1 41.36 0.69
7 -13 0 6.45 0.36
7 13 0 6.73 0.36
7 -13 -1 0.87 0.3
7 13 -1 0.57 0.32
7 -13 -2 11.09 0.42
7 13 -2 10.3 0.57
7 -13 -3 29.09 0.55
7 13 -3 27.11 1.12
7 -13 -4 6.58 0.45
7 13 -4 6.38 0.44
7 -13 -5 17.35 0.48
7 13 -5 16.67 0.67
7 -13 -6 1.83 0.47
7 13 -6 1.33 0.46
7 -14 6 3.25 0.86
7 14 6 3.16 0.86
7 14 5 4.56 0.4
7 14 4 43.91 0.92
7 -14 3 9.81 0.83
7 14 3 9.43 0.58
7 -14 2 1.9 0.66
7 14 2 1.88 0.49
7 -14 1 4.96 0.51
7 14 1 4.83 0.38
7 -14 0 18.97 0.55
7 14 0 17.42 0.93
7 -14 -1 16.77 0.46
7 14 -1 13.59 0.63
7 -14 -2 15.8 0.46
7 14 -2 14.64 0.93
7 -14 -3 9.74 0.42
7 14 -3 9.42 0.6
7 -14 -4 11.74 0.5
7 14 -4 11.92 0.61
7 -14 -5 18.69 0.68
7 14 -5 18 0.68
7 15 5 6.96 0.61
7 15 4 2.55 0.44
7 15 3 9.64 0.88
7 -15 2 9.77 0.6
7 15 2 8.98 0.85
7 -15 1 7.01 0.56
7 15 1 5.84 0.58
7 -15 0 19.89 0.71
7 15 0 19.17 0.69
7 -15 -1 21.93 0.51
7 -15 -2 0.95 0.4
7 15 -2 0.83 0.43
7 -15 -3 23.1 0.52
7 15 -3 22.09 0.98
7 15 -4 5.4 0.56
7 -16 3 0.43 0.55
7 16 3 0.37 0.31
7 -16 2 5.47 0.6
7 16 2 4.96 0.56
7 -16 1 11.08 0.63
7 16 1 9.11 0.83
7 -16 0 13.16 0.65
7 16 0 9.52 0.63
7 -16 -1 12.93 0.65
7 16 -1 8.92 0.62
7 -16 -2 1.48 0.47
7 16 -2 1.28 0.43
7 16 -3 2.65 0.8
8 0 10 0.23 0.36
8 0 9 0.61 0.31
8 0 8 68.96 0.66
8 0 7 3.56 0.27
8 0 6 5.11 0.25
8 0 5 23.7 0.38
8 0 4 39.49 0.29
8 0 3 111.36 0.41
8 0 2 16.86 0.2
8 0 1 37.72 0.36
8 0 0 28.05 0.32
8 0 -1 568.42 1.73
8 0 -2 18.88 0.25
8 0 -3 27.81 0.27
8 0 -4 1.52 0.18
8 0 -5 0.2 0.17
8 0 -6 36.86 0.47
8 0 -7 15.59 0.43
8 0 -8 0.1 0.15
8 0 -9 11.53 0.65
8 -1 10 2.25 0.4
8 1 10 2.84 0.57
8 -1 9 0.34 0.31
8 1 9 0.38 0.3
8 -1 8 2.72 0.27
8 1 8 2.55 0.3
8 -1 7 17.99 0.31
8 1 7 18.7 0.38
8 -1 6 80.99 0.61
8 1 6 80.59 0.6
8 -1 5 3.59 0.21
8 1 5 5.04 0.19
8 -1 4 53.55 0.36
8 1 4 54.16 0.38
8 -1 3 133.27 0.49
8 1 3 136.87 0.49
8 -1 2 108.52 0.45
8 1 2 104.01 0.58
8 -1 1 112.15 0.51
8 1 1 119.71 0.69
8 -1 0 105.92 0.54
8 1 0 101.14 0.69
8 -1 -1 28.29 0.27
8 1 -1 28.64 0.23
8 -1 -2 70.39 0.34
8 1 -2 68.48 0.37
8 -1 -3 75.47 0.42
8 1 -3 81.27 0.58
8 -1 -4 46.56 0.49
8 1 -4 44.27 0.48
8 -1 -5 65.86 0.54
8 1 -5 68.47 0.55
8 -1 -6 0.41 0.24
8 1 -6 0.43 0.3
8 -1 -7 4.2 0.34
8 1 -7 4.3 0.39
8 -1 -8 3.31 0.37
8 1 -8 3.31 0.39
8 -1 -9 3.38 0.57
8 1 -9 3.55 0.54
8 -2 10 10.87 0.52
8 2 10 12 0.45
8 -2 9 35.15 0.71
8 2 9 36.81 0.62
8 -2 8 2.27 0.32
8 2 8 2.7 0.3
8 -2 7 10.58 0.29
8 2 7 10.63 0.3
8 -2 6 2.65 0.2
8 2 6 2.66 0.24
8 -2 5 9.73 0.23
8 2 5 9.68 0.25
8 -2 4 228.34 0.67
8 2 4 228.11 0.67
8 -2 3 41.39 0.27
8 2 3 45.84 0.33
8 -2 2 124.44 0.48
8 2 2 127.44 0.57
8 -2 1 20.16 0.21
8 2 1 19.91 0.29
8 -2 0 330.46 0.95
8 2 0 331.12 1.13
8 -2 -1 32.35 0.27
8 2 -1 38.04 0.3
8 -2 -2 100.15 0.41
8 2 -2 99.71 0.47
8 -2 -3 134.56 0.58
8 2 -3 136.45 0.68
8 -2 -4 14.09 0.32
8 2 -4 13.46 0.31
8 -2 -5 11.62 0.26
8 2 -5 12.67 0.34
8 -2 -6 44.74 0.46
8 2 -6 45.27 0.68
8 -2 -7 1.01 0.28
8 2 -7 1.04 0.35
8 -2 -8 22.7 0.61
8 2 -8 23.16 0.6
8 -2 -9 5.69 0.49
8 2 -9 6.42 0.57
8 -3 10 7.38 0.61
8 3 10 6.56 0.42
8 -3 9 18.45 0.5
8 3 9 18.52 0.44
8 -3 8 43.68 0.56
8 3 8 45.91 0.63
8 -3 7 7.74 0.3
8 3 7 6.14 0.28
8 -3 6 99.52 0.69
8 3 6 104.57 0.78
8 -3 5 77.54 0.54
8 3 5 78.96 0.5
8 -3 4 46 0.39
8 3 4 44.84 0.36
8 -3 3 31.71 0.32
8 3 3 30.51 0.33
8 -3 2 25.89 0.24
8 3 2 25.28 0.29
8 -3 1 518.37 0.9
8 3 1 522.8 1.64
8 -3 0 92.43 0.39
8 3 0 97.65 0.53
8 -3 -1 2.01 0.12
8 3 -1 1.58 0.16
8 -3 -2 24.01 0.24
8 3 -2 25.93 0.3
8 -3 -3 116.8 0.47
8 3 -3 116.61 0.61
8 -3 -4 133.03 0.67
8 3 -4 135.39 0.73
8 -3 -5 25.99 0.32
8 3 -5 23.54 0.42
8 -3 -6 17.44 0.33
8 3 -6 17.62 0.49
8 -3 -7 0.04 0.13
8 3 -7 0.13 0.2
8 -3 -8 38.89 0.47
8 3 -8 40.51 0.73
8 -3 -9 0.97 0.59
8 3 -9 0.88 0.48
8 -4 10 4.28 0.65
8 4 10 5.59 0.62
8 -4 9 0.9 0.4
8 4 9 1.84 0.37
8 -4 8 44.76 0.63
8 4 8 44.9 0.53
8 -4 7 25.71 0.35
8 4 7 26.45 0.41
8 -4 6 2.19 0.27
8 4 6 2.34 0.24
8 -4 5 111.35 0.77
8 4 5 113.33 0.69
8 -4 4 58.48 0.49
8 4 4 61.56 0.4
8 -4 3 174.01 0.79
8 4 3 181.21 0.67
8 -4 2 23.5 0.25
8 4 2 23.57 0.29
8 -4 1 17.12 0.19
8 4 1 17.13 0.23
8 -4 0 15.94 0.22
8 4 0 16.09 0.23
8 -4 -1 846.45 2.16
8 4 -1 854.54 2.52
8 -4 -2 40.71 0.31
8 4 -2 39.99 0.37
8 -4 -3 12.61 0.23
8 4 -3 13.43 0.26
8 -4 -4 1.46 0.18
8 4 -4 1.54 0.25
8 -4 -5 15.08 0.24
8 4 -5 15.81 0.38
8 -4 -6 36.16 0.4
8 4 -6 37.24 0.65
8 -4 -7 40.91 0.42
8 4 -7 39.84 0.7
8 -4 -8 3.91 0.3
8 4 -8 4.25 0.55
8 -4 -9 1.36 0.65
8 4 -9 1.47 0.49
8 5 10 5.02 0.52
8 -5 9 5.09 0.5
8 5 9 5.07 0.38
8 -5 8 7.29 0.45
8 5 8 7.18 0.32
8 -5 7 63.36 0.7
8 5 7 66.58 0.68
8 -5 6 30.23 0.42
8 5 6 29.9 0.48
8 -5 5 38.07 0.68
8 5 5 36.45 0.43
8 -5 4 222.61 0.98
8 5 4 225.16 0.77
8 -5 3 124.53 0.63
8 5 3 127.59 0.64
8 -5 2 249.74 0.85
8 5 2 254 0.99
8 -5 1 159.98 0.63
8 5 1 165.74 0.72
8 -5 0 85.68 0.49
8 5 0 81.87 0.45
8 -5 -1 27.08 0.31
8 5 -1 27.12 0.29
8 -5 -2 31.62 0.29
8 5 -2 31.39 0.35
8 -5 -3 95.56 0.52
8 5 -3 97.54 0.6
8 -5 -4 59.85 0.41
8 5 -4 58.95 0.58
8 -5 -5 143.26 0.67
8 5 -5 146.48 0.84
8 -5 -6 32.37 0.39
8 5 -6 31.3 0.54
8 -5 -7 22.57 0.37
8 5 -7 22.8 0.58
8 -5 -8 2.37 0.31
8 5 -8 2.08 0.41
8 -5 -9 5.24 0.64
8 5 -9 5.49 0.51
8 -6 10 11.43 0.9
8 6 10 10.76 0.89
8 -6 9 26.21 0.78
8 6 9 25.12 0.49
8 -6 8 17.78 0.55
8 6 8 18.22 0.49
8 -6 7 20.12 0.45
8 6 7 20.5 0.42
8 -6 6 18.18 0.36
8 6 6 19.13 0.39
8 -6 5 7.43 0.25
8 6 5 8.95 0.33
8 -6 4 187.42 0.93
8 6 4 188.08 0.75
8 -6 3 193.75 0.71
8 6 3 187.09 0.76
8 -6 2 60.16 0.51
8 6 2 62.91 0.47
8 -6 1 8.88 0.21
8 6 1 8.78 0.2
8 -6 0 182.24 0.7
8 6 0 182.5 0.78
8 -6 -1 73.96 0.5
8 6 -1 78.38 0.49
8 -6 -2 156.96 0.62
8 6 -2 155.88 0.84
8 -6 -3 39.19 0.33
8 6 -3 39.57 0.42
8 -6 -4 34.17 0.32
8 6 -4 34.17 0.48
8 -6 -5 64.45 0.47
8 6 -5 62.1 0.66
8 -6 -6 87.81 0.58
8 6 -6 87 0.93
8 -6 -7 6.99 0.3
8 6 -7 8.16 0.45
8 -6 -8 12.73 0.45
8 6 -8 12.62 0.63
8 -6 -9 3.23 0.63
8 6 -9 3 0.58
8 -7 9 2.41 0.75
8 7 9 2.04 0.46
8 -7 8 5.22 0.57
8 7 8 5.49 0.35
8 -7 7 23.52 0.69
8 7 7 23.41 0.5
8 -7 6 174.37 1.27
8 7 6 175.59 1.1
8 -7 5 65.1 0.62
8 7 5 64.85 0.67
8 -7 4 32.69 0.42
8 7 4 32.29 0.42
8 -7 3 16.23 0.33
8 7 3 15.13 0.25
8 -7 2 26.18 0.56
8 7 2 26.86 0.34
8 -7 1 218.84 0.84
8 7 1 217.5 0.77
8 -7 0 179.1 0.73
8 7 0 181.73 0.79
8 -7 -1 1.85 0.15
8 7 -1 2.01 0.23
8 -7 -2 52.13 0.35
8 7 -2 52.05 0.74
8 -7 -3 107.13 0.59
8 7 -3 102.73 0.74
8 -7 -4 70.09 0.51
8 7 -4 70.86 0.79
8 -7 -5 17.97 0.32
8 7 -5 15.92 0.48
8 -7 -6 10.02 0.31
8 7 -6 10.09 0.38
8 -7 -7 3.15 0.32
8 7 -7 3.07 0.5
8 -7 -8 52.37 0.82
8 7 -8 53.64 1
8 8 9 26.94 0.56
8 -8 8 26.73 0.78
8 8 8 27.22 0.66
8 -8 7 6.67 0.43
8 8 7 6.51 0.31
8 -8 6 20.74 0.58
8 8 6 20.77 0.48
8 8 5 83.58 0.67
8 -8 4 68.32 1.08
8 8 4 67.92 0.53
8 -8 3 50.39 0.8
8 8 3 51.74 0.41
8 -8 2 73.15 0.9
8 8 2 73.75 0.57
8 -8 1 36.72 0.53
8 8 1 37.97 0.37
8 -8 0 61.3 0.64
8 8 0 61.56 0.45
8 -8 -1 123.98 0.61
8 8 -1 122.49 0.74
8 -8 -2 56.65 0.43
8 8 -2 53.62 0.62
8 -8 -3 110.37 0.68
8 8 -3 111.36 0.96
8 -8 -4 16.15 0.29
8 8 -4 14.94 0.46
8 -8 -5 25.93 0.35
8 8 -5 25.99 0.57
8 -8 -6 5.67 0.28
8 8 -6 6.06 0.35
8 -8 -7 63.31 0.68
8 8 -7 61.03 1.05
8 -8 -8 2.55 0.61
8 8 -8 2.29 0.56
8 9 9 0.53 0.36
8 -9 8 5.04 0.85
8 9 8 4.62 0.4
8 -9 7 33.75 0.82
8 9 7 33.82 0.59
8 -9 6 6.71 0.77
8 9 6 6.85 0.34
8 9 5 13.35 0.41
8 -9 4 59.19 0.92
8 9 4 62.87 0.54
8 -9 3 40.27 0.77
8 9 3 43.91 0.45
8 -9 2 240.34 1.66
8 9 2 232.46 0.98
8 -9 1 30.11 0.53
8 9 1 31.63 0.36
8 -9 0 26.22 0.43
8 9 0 25.34 0.41
8 -9 -1 7.55 0.22
8 9 -1 7.83 0.26
8 -9 -2 8.96 0.24
8 9 -2 8.87 0.36
8 -9 -3 23.59 0.35
8 9 -3 25.09 0.63
8 -9 -4 88.53 0.55
8 9 -4 82.06 1.13
8 -9 -5 57.36 0.47
8 9 -5 57.22 0.99
8 -9 -6 4.75 0.31
8 9 -6 4.54 0.5
8 -9 -7 9 0.52
8 9 -7 7.86 0.77
8 -9 -8 0.25 0.18
8 9 -8 0.43 0.47
8 10 8 6.2 0.5
8 10 7 26.26 0.64
8 10 6 23.85 0.43
8 10 5 4.15 0.3
8 -10 4 52.69 1.32
8 10 4 54.24 0.58
8 -10 3 20.03 0.92
8 10 3 20.5 0.43
8 -10 2 4.53 0.44
8 10 2 3.73 0.29
8 -10 1 16.83 0.58
8 10 1 17.35 0.34
8 -10 0 85.26 0.85
8 10 0 82.33 0.65
8 -10 -1 76.47 0.63
8 10 -1 78.91 0.99
8 -10 -2 110.8 0.76
8 10 -2 109.7 1.17
8 -10 -3 21.33 0.37
8 10 -3 20.72 0.62
8 -10 -4 2.54 0.25
8 10 -4 2.46 0.4
8 -10 -5 7.03 0.27
8 10 -5 5.79 0.5
8 -10 -6 26.5 0.42
8 10 -6 25.76 0.76
8 -10 -7 3.26 0.47
8 10 -7 2.82 0.72
8 11 8 19.85 0.74
8 11 7 12.36 0.65
8 -11 6 8.63 0.78
8 11 6 8.15 0.34
8 11 5 18.29 0.48
8 -11 4 4.13 0.68
8 11 4 4.03 0.31
8 -11 3 5.7 0.7
8 11 3 4.49 0.38
8 -11 2 23.96 0.98
8 11 2 24.84 0.43
8 -11 1 32.58 1.09
8 11 1 32.21 0.43
8 -11 0 37.02 0.64
8 11 0 34.51 0.47
8 -11 -1 0.76 0.32
8 11 -1 0.47 0.28
8 -11 -2 12.72 0.35
8 11 -2 11.88 0.8
8 -11 -3 15.42 0.39
8 11 -3 15.82 0.86
8 -11 -4 28.13 0.44
8 11 -4 30.93 0.8
8 -11 -5 7.52 0.41
8 11 -5 6.59 0.53
8 -11 -6 2.45 0.55
8 11 -6 2.42 0.52
8 -11 -7 0.47 0.52
8 11 -7 0.09 0.31
8 12 7 2.56 0.4
8 12 6 3.88 0.39
8 12 5 17.33 0.45
8 12 4 0.95 0.34
8 -12 3 49.13 1.34
8 12 3 46.28 0.92
8 -12 2 4.93 0.71
8 12 2 6.35 0.36
8 -12 1 7.96 0.76
8 12 1 7.28 0.28
8 -12 0 4.9 0.38
8 12 0 5.29 0.29
8 -12 -1 10.61 0.45
8 12 -1 9.53 0.42
8 -12 -2 2.83 0.31
8 12 -2 2.24 0.33
8 -12 -3 26.09 0.47
8 12 -3 27.5 1.12
8 -12 -4 4.59 0.4
8 12 -4 4.47 0.4
8 -12 -5 25.21 0.76
8 12 -5 23.62 0.74
8 -12 -6 2.17 0.82
8 12 -6 2.01 0.56
8 13 6 3.24 0.4
8 13 5 10.78 0.39
8 13 4 3.69 0.37
8 13 3 7.81 0.46
8 13 2 7.35 0.46
8 -13 1 22.34 0.72
8 13 1 20.87 0.57
8 -13 0 10.27 0.47
8 13 0 9.71 0.44
8 -13 -1 0.2 0.32
8 13 -1 0.25 1.19
8 -13 -2 0.47 0.25
8 13 -2 0.47 0.28
8 -13 -3 16.38 0.47
8 13 -3 16.08 0.53
8 -13 -4 5.11 0.75
8 13 -4 3.6 0.4
8 -13 -5 4.13 0.87
8 13 -5 4.78 0.76
8 14 6 6.83 0.91
8 14 5 1.07 0.36
8 14 4 7.81 0.42
8 -14 3 10.76 0.88
8 14 3 11.6 0.63
8 -14 2 0.48 0.71
8 14 2 0.5 0.34
8 -14 1 6.37 0.54
8 14 1 5.57 0.45
8 -14 0 12.89 0.51
8 14 0 10.18 0.59
8 -14 -1 1.86 0.36
8 14 -1 2.29 0.47
8 -14 -2 26.63 0.55
8 14 -2 24.14 1.08
8 -14 -3 2.49 0.38
8 14 -3 2.7 0.44
8 -14 -4 3.52 0.46
8 14 -4 3.44 0.5
8 14 -5 0.61 0.48
8 15 4 0.73 0.58
8 -15 3 0.23 0.44
8 15 3 0.29 0.3
8 -15 2 41.58 0.92
8 -15 1 6.2 0.57
8 15 1 4.26 0.48
8 -15 0 12.17 0.63
8 15 0 10.83 0.63
8 -15 -1 3.01 0.45
8 15 -1 2.83 0.51
8 -15 -2 12.89 0.44
8 15 -2 11.93 0.63
8 -15 -3 1.17 0.41
8 15 -3 0.82 0.34
8 15 -4 6.72 0.88
8 -16 3 3.27 0.8
8 16 3 2.16 0.76
8 -16 2 2.85 0.63
8 16 2 1.85 0.47
8 -16 1 0.13 0.29
8 16 1 0.26 0.47
8 -16 0 10.92 0.64
8 16 0 9.47 0.63
8 -16 -1 6.79 0.6
8 16 -1 5.05 0.51
8 -16 -2 4.61 0.8
8 16 -2 3.84 0.59
9 0 10 0.39 0.32
9 0 9 91.44 1.03
9 0 8 3.29 0.34
9 0 7 71.81 0.73
9 0 6 6.64 0.31
9 0 5 10.59 0.24
9 0 4 76.98 0.41
9 0 3 142.92 0.5
9 0 2 300.53 0.92
9 0 1 30.8 0.26
9 0 0 428.2 1.04
9 0 -1 17.52 0.24
9 0 -2 30.04 0.31
9 0 -3 270.27 0.81
9 0 -4 3.24 0.21
9 0 -5 0.31 0.13
9 0 -6 45.38 0.59
9 0 -7 43.43 0.62
9 0 -8 0.82 0.41
9 0 -9 0.78 0.46
9 -1 10 23.73 1.05
9 1 10 23.41 0.64
9 -1 9 0.69 0.39
9 1 9 0.91 0.31
9 -1 8 2.25 0.3
9 1 8 2.13 0.31
9 -1 7 6.88 0.29
9 1 7 6.37 0.34
9 -1 6 126.26 0.77
9 1 6 123.64 0.79
9 -1 5 200.44 1
9 1 5 206.82 0.93
9 -1 4 46.19 0.36
9 1 4 42.65 0.3
9 -1 3 7.05 0.19
9 1 3 7.21 0.16
9 -1 2 238.51 0.63
9 1 2 234.37 0.81
9 -1 1 151.13 0.54
9 1 1 149.12 0.57
9 -1 0 179.65 0.56
9 1 0 180.48 0.67
9 -1 -1 83.25 0.45
9 1 -1 87.59 0.47
9 -1 -2 3.72 0.13
9 1 -2 3.71 0.17
9 -1 -3 148.99 0.53
9 1 -3 148.08 0.81
9 -1 -4 52.99 0.54
9 1 -4 55.23 0.55
9 -1 -5 75.83 0.68
9 1 -5 73.89 0.6
9 -1 -6 4.47 0.31
9 1 -6 3.36 0.35
9 -1 -7 53.12 0.67
9 1 -7 54.77 0.8
9 -1 -8 13.89 0.41
9 1 -8 14.94 0.53
9 -1 -9 5.66 0.52
9 1 -9 5.51 0.59
9 -2 10 5.55 0.64
9 2 10 5.76 0.61
9 -2 9 0.26 0.3
9 2 9 0.45 0.23
9 -2 8 79.65 0.8
9 2 8 79.03 0.73
9 -2 7 16.86 0.34
9 2 7 17.61 0.38
9 -2 6 3.42 0.22
9 2 6 2.95 0.24
9 -2 5 3.24 0.24
9 2 5 2.78 0.17
9 -2 4 289.69 1
9 2 4 288.49 0.76
9 -2 3 70.07 0.4
9 2 3 68.12 0.45
9 -2 2 119.78 0.49
9 2 2 122.59 0.74
9 -2 1 0.69 0.1
9 2 1 0.73 0.15
9 -2 0 57.89 0.32
9 2 0 57.23 0.48
9 -2 -1 396.07 0.92
9 2 -1 396.43 1.05
9 -2 -2 218 0.65
9 2 -2 214.19 0.76
9 -2 -3 3.92 0.17
9 2 -3 3.4 0.19
9 -2 -4 65.28 0.53
9 2 -4 67.77 0.61
9 -2 -5 28.32 0.41
9 2 -5 28.74 0.47
9 -2 -6 4.23 0.38
9 2 -6 4.83 0.31
9 -2 -7 25.77 0.46
9 2 -7 25.35 0.6
9 -2 -8 8.28 0.41
9 2 -8 9.1 0.47
9 -2 -9 2.64 0.54
9 2 -9 2.03 0.8
9 -3 10 0.56 0.62
9 3 10 0.65 0.34
9 -3 9 27.01 0.79
9 3 9 26.16 0.49
9 -3 8 0.33 0.33
9 3 8 0.19 0.16
9 -3 7 78.36 0.7
9 3 7 77.62 0.66
9 -3 6 16.25 0.38
9 3 6 13.94 0.33
9 -3 5 61.85 0.66
9 3 5 58.96 0.43
9 -3 4 177.99 1.01
9 3 4 185.32 0.66
9 -3 3 0.74 0.14
9 3 3 0.54 0.15
9 -3 2 56.91 0.33
9 3 2 56.31 0.46
9 -3 1 141.7 0.47
9 3 1 136.63 0.5
9 -3 0 317.12 0.88
9 3 0 321.95 0.94
9 -3 -1 24.42 0.25
9 3 -1 20.95 0.31
9 -3 -2 95.92 0.46
9 3 -2 99.38 0.58
9 -3 -3 5.65 0.19
9 3 -3 6.45 0.21
9 -3 -4 50.48 0.44
9 3 -4 47.43 0.53
9 -3 -5 138.92 0.78
9 3 -5 140.27 0.98
9 -3 -6 4.92 0.3
9 3 -6 5.75 0.32
9 -3 -7 2.98 0.29
9 3 -7 2.99 0.39
9 -3 -8 8.42 0.4
9 3 -8 7.57 0.46
9 -3 -9 1.88 0.65
9 3 -9 1.26 0.41
9 -4 10 0.34 0.67
9 4 10 0.29 0.27
9 -4 9 58.7 1.03
9 4 9 58.49 0.75
9 -4 8 19.12 0.55
9 4 8 17.52 0.39
9 -4 7 66.45 0.7
9 4 7 66.94 0.59
9 -4 6 6.46 0.35
9 4 6 6.86 0.29
9 -4 5 3.62 0.38
9 4 5 3.38 0.23
9 -4 4 22.57 0.53
9 4 4 23.61 0.28
9 -4 3 187 1.01
9 4 3 186.19 0.71
9 -4 2 93.43 0.48
9 4 2 94.57 0.58
9 -4 1 14.11 0.2
9 4 1 13.42 0.22
9 -4 0 102.99 0.48
9 4 0 100.59 0.5
9 -4 -1 6.69 0.21
9 4 -1 5.69 0.21
9 -4 -2 141.23 0.74
9 4 -2 146.93 0.77
9 -4 -3 142.51 0.66
9 4 -3 141.69 0.72
9 -4 -4 4.04 0.22
9 4 -4 3.32 0.23
9 -4 -5 12.65 0.26
9 4 -5 12.68 0.37
9 -4 -6 32.64 0.4
9 4 -6 31.78 0.53
9 -4 -7 6.89 0.33
9 4 -7 7.71 0.45
9 -4 -8 9.14 0.4
9 4 -8 9.27 0.48
9 -4 -9 7.9 0.53
9 4 -9 8.79 0.5
9 -5 10 5.27 0.7
9 5 10 4.12 0.52
9 -5 9 1.57 0.59
9 5 9 1.78 0.31
9 -5 8 2.14 0.43
9 5 8 2.04 0.32
9 -5 7 1.54 0.32
9 5 7 1.09 0.27
9 -5 6 51.28 0.68
9 5 6 51.01 0.55
9 -5 5 109.64 0.89
9 5 5 110.96 0.71
9 -5 4 68.5 0.59
9 5 4 64.8 0.45
9 -5 3 100.11 0.78
9 5 3 102.54 0.63
9 -5 2 1.33 0.15
9 5 2 0.84 0.16
9 -5 1 106.78 0.58
9 5 1 108.01 0.56
9 -5 0 141.58 0.67
9 5 0 141.63 0.63
9 -5 -1 50.36 0.49
9 5 -1 51.18 0.46
9 -5 -2 44.45 0.43
9 5 -2 44.03 0.47
9 -5 -3 61.05 0.46
9 5 -3 59.33 0.5
9 -5 -4 39.22 0.39
9 5 -4 37.95 0.52
9 -5 -5 6.2 0.23
9 5 -5 7.16 0.3
9 -5 -6 45.51 0.47
9 5 -6 44.68 0.63
9 -5 -7 27.34 0.45
9 5 -7 26.64 0.77
9 -5 -8 18.19 0.59
9 5 -8 19.55 0.72
9 -5 -9 3.08 0.65
9 5 -9 2.36 0.87
9 -6 9 3.33 0.63
9 6 9 3.41 0.43
9 -6 8 31.47 0.65
9 6 8 32.2 0.48
9 -6 7 9.03 0.43
9 6 7 8.85 0.32
9 -6 6 8.47 0.35
9 6 6 7.98 0.32
9 -6 5 41.09 0.6
9 6 5 39.44 0.47
9 -6 4 35.85 0.47
9 6 4 40.06 0.38
9 -6 3 16.89 0.34
9 6 3 15.69 0.28
9 -6 2 225.96 0.99
9 6 2 223.26 0.77
9 -6 1 4.4 0.2
9 6 1 5.04 0.17
9 -6 0 23.09 0.29
9 6 0 24.23 0.32
9 -6 -1 71.48 0.46
9 6 -1 70.06 0.48
9 -6 -2 98.5 0.46
9 6 -2 93.09 0.79
9 -6 -3 49.93 0.45
9 6 -3 53.24 0.49
9 -6 -4 68.15 0.55
9 6 -4 67.92 0.66
9 -6 -5 12.4 0.27
9 6 -5 12.83 0.34
9 -6 -6 3.07 0.24
9 6 -6 2.41 0.32
9 -6 -7 29.36 0.43
9 6 -7 29.28 0.79
9 -6 -8 2.83 0.5
9 6 -8 3.02 0.82
9 -7 9 4.02 0.89
9 7 9 2.87 0.44
9 -7 8 0.34 0.59
9 7 8 0.38 0.24
9 -7 7 5.31 0.51
9 7 7 5.24 0.32
9 -7 6 3.29 0.34
9 7 6 4.27 0.33
9 -7 5 26.92 0.5
9 7 5 23.54 0.47
9 -7 4 140.03 1.29
9 7 4 139.95 0.74
9 -7 3 8.88 0.29
9 7 3 8.45 0.23
9 -7 2 66.44 0.67
9 7 2 65.69 0.51
9 -7 1 35.45 0.44
9 7 1 31.45 0.33
9 -7 0 90.37 0.53
9 7 0 93.66 0.53
9 -7 -1 95 0.5
9 7 -1 93.72 0.58
9 -7 -2 11.33 0.22
9 7 -2 11.68 0.37
9 -7 -3 19.78 0.3
9 7 -3 20.87 0.46
9 -7 -4 25.86 0.39
9 7 -4 24 0.53
9 -7 -5 102.45 0.73
9 7 -5 102.75 1.01
9 -7 -6 5.01 0.28
9 7 -6 4.59 0.4
9 -7 -7 0.78 0.32
9 7 -7 0.14 0.28
9 -7 -8 7.9 0.62
9 7 -8 8.08 0.59
9 -8 9 1.69 0.96
9 8 9 1.66 0.35
9 -8 8 9.06 0.8
9 8 8 8.63 0.34
9 -8 7 25.19 0.73
9 8 7 25.92 0.5
9 -8 6 12.27 0.83
9 8 6 11.19 0.42
9 -8 5 5.94 0.43
9 8 5 7.28 0.35
9 -8 4 29.48 1.01
9 8 4 29.21 0.39
9 -8 3 82.3 1.01
9 8 3 82.03 0.5
9 -8 2 3.42 0.37
9 8 2 5.09 0.21
9 -8 1 148.66 1.27
9 8 1 147.6 0.65
9 -8 0 17.81 0.32
9 8 0 17.12 0.31
9 -8 -1 66.95 0.48
9 8 -1 69.05 0.55
9 -8 -2 19.63 0.32
9 8 -2 19.89 0.46
9 -8 -3 86.84 0.61
9 8 -3 84.43 0.88
9 -8 -4 5.02 0.28
9 8 -4 4.1 0.45
9 -8 -5 2.64 0.23
9 8 -5 2.68 0.37
9 -8 -6 7.6 0.32
9 8 -6 7.75 0.44
9 -8 -7 12.65 0.52
9 8 -7 13.75 0.63
9 -8 -8 15.99 0.58
9 8 -8 15.31 0.66
9 9 8 1.92 0.42
9 -9 7 1.08 0.95
9 9 7 1.93 0.3
9 9 6 50.32 0.78
9 9 5 48.01 0.62
9 -9 4 12.94 0.55
9 9 4 12.01 0.31
9 -9 3 20.72 0.62
9 9 3 19.84 0.31
9 -9 2 30.27 0.69
9 9 2 31.74 0.39
9 -9 1 73.28 0.98
9 9 1 75.09 0.49
9 -9 0 58.63 0.61
9 9 0 58.37 0.53
9 -9 -1 39.37 0.4
9 9 -1 38.67 0.45
9 -9 -2 0.16 0.09
9 9 -2 -0.01 0.17
9 -9 -3 13.12 0.31
9 9 -3 14.17 0.44
9 -9 -4 27.85 0.37
9 9 -4 28.09 0.73
9 -9 -5 8.82 0.29
9 9 -5 8.51 0.54
9 -9 -6 20.26 0.38
9 9 -6 19.96 0.7
9 -9 -7 2.72 0.49
9 9 -7 3.56 0.71
9 10 8 11.82 0.52
9 10 7 3.27 0.35
9 10 6 23.94 0.45
9 10 5 10.68 0.33
9 -10 4 27.71 1.06
9 10 4 30.27 0.47
9 -10 3 22.09 0.66
9 10 3 23.09 0.42
9 -10 2 87.86 1.12
9 10 2 89.21 0.69
9 -10 1 21.86 0.64
9 10 1 20.75 0.38
9 -10 0 11.54 0.42
9 10 0 12.4 0.32
9 -10 -1 3.52 0.24
9 10 -1 2.99 0.4
9 -10 -2 75.51 0.57
9 10 -2 74.32 0.71
9 -10 -3 30.13 0.39
9 10 -3 30.16 0.59
9 -10 -4 3.85 0.33
9 10 -4 3.67 0.46
9 -10 -5 12.05 0.36
9 10 -5 11.81 0.59
9 -10 -6 2.33 0.47
9 10 -6 2.84 0.41
9 -10 -7 11.27 0.65
9 10 -7 11.89 0.85
9 11 8 0.17 0.56
9 11 7 17.26 0.71
9 11 6 14.01 0.38
9 11 5 6.6 0.34
9 -11 4 26.22 1.08
9 11 4 26.79 0.54
9 -11 3 16.72 0.91
9 11 3 15.75 0.39
9 -11 2 11.89 0.84
9 11 2 11.77 0.33
9 -11 1 59.53 0.98
9 11 1 60.22 0.59
9 -11 0 70.37 0.73
9 11 0 76.26 0.82
9 -11 -1 60.92 0.79
9 11 -1 59.11 0.95
9 -11 -2 1.09 0.35
9 11 -2 1.16 0.36
9 -11 -3 12.41 0.34
9 11 -3 13.21 0.58
9 -11 -4 10.84 0.38
9 11 -4 11.01 0.58
9 -11 -5 17.06 0.42
9 11 -5 16.62 0.67
9 -11 -6 7.28 0.48
9 11 -6 6.52 0.46
9 12 7 16.52 0.57
9 12 6 0.92 0.32
9 12 5 12.04 0.45
9 12 4 13.53 0.45
9 -12 3 72.04 1.61
9 12 3 72.6 0.78
9 -12 2 5.14 0.74
9 12 2 3.32 0.29
9 -12 1 18.51 0.97
9 12 1 18.81 0.4
9 -12 0 17.61 0.52
9 12 0 17.67 0.47
9 -12 -1 50.15 0.76
9 12 -1 52.24 1.02
9 -12 -2 30.08 0.65
9 12 -2 29.38 0.58
9 -12 -3 2.31 0.35
9 12 -3 1.76 0.36
9 -12 -4 0.29 0.31
9 12 -4 0.71 0.44
9 -12 -5 6.79 0.48
9 12 -5 7.11 0.57
9 -12 -6 22.67 0.73
9 12 -6 22.78 0.73
9 13 6 4.79 0.48
9 13 5 30.1 0.57
9 13 4 5.7 0.35
9 -13 3 21.83 1.06
9 13 3 21.07 0.58
9 -13 2 18.11 1.01
9 13 2 18.11 0.55
9 -13 1 18.46 0.7
9 13 1 17.11 0.53
9 -13 0 23.45 0.74
9 13 0 22.67 0.57
9 -13 -1 12.11 0.42
9 13 -1 12.25 0.5
9 -13 -2 5.42 0.36
9 13 -2 4.62 0.36
9 -13 -3 1.78 0.36
9 13 -3 1.4 0.36
9 -13 -4 50.36 0.79
9 13 -4 50.07 0.98
9 -13 -5 3.18 0.49
9 13 -5 3.74 0.56
9 14 5 8.26 0.39
9 14 4 5.09 0.45
9 -14 3 12.24 0.9
9 14 3 11.78 0.62
9 -14 2 37.66 0.9
9 14 2 36.91 0.88
9 -14 1 3.04 0.52
9 14 1 3.23 0.4
9 -14 0 18.3 0.56
9 -14 -1 13.65 0.51
9 14 -1 11.8 0.63
9 -14 -2 7.52 0.39
9 14 -2 6.74 0.39
9 -14 -3 3.48 0.4
9 14 -3 3.25 0.55
9 -14 -4 5.29 0.48
9 14 -4 4.43 0.55
9 15 4 1.99 0.48
9 -15 3 0.09 0.26
9 15 3 0.05 0.03
9 -15 2 2.11 0.75
9 15 2 2.43 0.46
9 -15 1 30.48 0.82
9 15 1 30.12 0.81
9 -15 0 1.87 0.48
9 15 0 1.41 0.43
9 -15 -1 6.34 0.49
9 15 -1 5.87 0.46
9 -15 -2 7.21 0.84
9 15 -2 6.14 0.5
9 -15 -3 9.6 0.49
9 15 -3 8.67 0.64
9 -16 2 1.42 0.78
9 16 2 0.92 0.46
9 -16 1 9.24 0.63
9 -16 0 2.27 0.57
9 16 0 1.88 0.49
9 -16 -1 2.07 0.72
9 16 -1 1.56 0.47
10 0 10 1.08 0.53
10 0 9 9.13 0.5
10 0 8 22.08 0.51
10 0 7 58.77 0.68
10 0 6 56.68 0.62
10 0 5 29.05 0.35
10 0 4 59.77 0.4
10 0 3 134.49 0.55
10 0 2 0.15 0.1
10 0 1 467.1 1.09
10 0 0 139.48 0.54
10 0 -1 91.29 0.48
10 0 -2 153.91 0.64
10 0 -3 68.36 0.4
10 0 -4 78.43 0.5
10 0 -5 0.34 0.31
10 0 -6 10.54 0.45
10 0 -7 27.09 0.53
10 0 -8 38.01 0.87
10 0 -9 9.03 0.63
10 -1 10 14.26 0.69
10 1 10 14.9 0.7
10 -1 9 17.99 0.73
10 1 9 18.02 0.57
10 -1 8 7.36 0.39
10 1 8 7 0.34
10 -1 7 38.86 0.57
10 1 7 38.47 0.58
10 -1 6 6.56 0.31
10 1 6 5.77 0.31
10 -1 5 160.96 0.81
10 1 5 156.38 0.78
10 -1 4 119.72 0.61
10 1 4 125.25 0.51
10 -1 3 155.54 0.65
10 1 3 156.49 0.52
10 -1 2 76.66 0.39
10 1 2 76.8 0.43
10 -1 1 72.91 0.37
10 1 1 73.08 0.41
10 -1 0 160.75 0.5
10 1 0 157.8 0.55
10 -1 -1 126.9 0.47
10 1 -1 123.69 0.6
10 -1 -2 113.96 0.45
10 1 -2 112.58 0.64
10 -1 -3 12.69 0.21
10 1 -3 12.59 0.31
10 -1 -4 31.23 0.37
10 1 -4 30.6 0.46
10 -1 -5 101.15 0.71
10 1 -5 103.28 0.73
10 -1 -6 44.7 0.55
10 1 -6 44.43 0.71
10 -1 -7 20.09 0.43
10 1 -7 18.55 0.56
10 -1 -8 3.7 0.36
10 1 -8 3.62 0.44
10 -1 -9 8.06 0.62
10 1 -9 7.04 0.6
10 -2 10 3.23 0.79
10 2 10 2.5 0.59
10 -2 9 10.04 0.65
10 2 9 10.33 0.38
10 -2 8 7.65 0.45
10 2 8 7 0.35
10 -2 7 42.76 0.67
10 2 7 42.64 0.61
10 -2 6 29.11 0.54
10 2 6 29.29 0.49
10 -2 5 38.26 0.43
10 2 5 36.93 0.36
10 -2 4 5.75 0.2
10 2 4 6.2 0.16
10 -2 3 109.2 0.55
10 2 3 107.19 0.54
10 -2 2 357.2 0.83
10 2 2 349.86 1.09
10 -2 1 96.29 0.41
10 2 1 92.34 0.49
10 -2 0 12.15 0.19
10 2 0 12.41 0.21
10 -2 -1 10.01 0.2
10 2 -1 9.91 0.2
10 -2 -2 136.88 0.56
10 2 -2 143.44 0.72
10 -2 -3 135.84 0.61
10 2 -3 127.48 0.75
10 -2 -4 129.35 0.68
10 2 -4 128.4 0.86
10 -2 -5 5.98 0.29
10 2 -5 7.08 0.29
10 -2 -6 3 0.25
10 2 -6 3.17 0.37
10 -2 -7 26.33 0.44
10 2 -7 26.12 0.62
10 -2 -8 5.44 0.42
10 2 -8 4.83 0.45
10 -2 -9 3.08 0.47
10 2 -9 3.76 0.91
10 -3 10 4.66 0.96
10 3 10 4.47 0.61
10 -3 9 6.13 0.86
10 3 9 4.24 0.35
10 -3 8 36.65 0.69
10 3 8 35.07 0.54
10 -3 7 1.01 0.41
10 3 7 0.89 0.29
10 -3 6 48.09 0.85
10 3 6 47.3 0.6
10 -3 5 118.73 1.07
10 3 5 120.95 0.69
10 -3 4 37.21 0.63
10 3 4 33.11 0.35
10 -3 3 55.12 0.45
10 3 3 53.4 0.4
10 -3 2 1.23 0.13
10 3 2 1.4 0.17
10 -3 1 9.58 0.17
10 3 1 8.17 0.27
10 -3 0 203.62 0.62
10 3 0 207.84 0.87
10 -3 -1 214.19 0.77
10 3 -1 208.41 0.77
10 -3 -2 23 0.27
10 3 -2 23.11 0.29
10 -3 -3 11.56 0.23
10 3 -3 11.85 0.28
10 -3 -4 27.64 0.37
10 3 -4 29.95 0.47
10 -3 -5 35.12 0.4
10 3 -5 31.88 0.51
10 -3 -6 50.51 0.53
10 3 -6 49.32 0.64
10 -3 -7 17.83 0.44
10 3 -7 18.6 0.56
10 -3 -8 1.13 0.36
10 3 -8 1.14 0.41
10 -3 -9 6.15 0.56
10 3 -9 5.74 0.65
10 -4 10 2.21 0.99
10 4 10 2.81 0.48
10 -4 9 18.11 1.03
10 4 9 17.98 0.45
10 -4 8 21.64 1.05
10 4 8 21.36 0.46
10 -4 7 21.55 0.98
10 4 7 19.5 0.38
10 -4 6 32 1.02
10 4 6 31.85 0.47
10 -4 5 1.43 0.55
10 4 5 0.77 0.21
10 -4 4 11.9 0.45
10 4 4 12.2 0.24
10 -4 3 108.07 0.71
10 4 3 106.92 0.69
10 -4 2 65.75 0.4
10 4 2 64.95 0.55
10 -4 1 51.68 0.36
10 4 1 51.52 0.41
10 -4 0 129.68 0.53
10 4 0 126.68 0.61
10 -4 -1 10.66 0.25
10 4 -1 9.36 0.26
10 -4 -2 139.78 0.66
10 4 -2 135.87 0.92
10 -4 -3 40.15 0.4
10 4 -3 40.46 0.4
10 -4 -4 34.02 0.4
10 4 -4 34.33 0.5
10 -4 -5 25.53 0.36
10 4 -5 25.51 0.47
10 -4 -6 4.08 0.26
10 4 -6 3.74 0.32
10 -4 -7 5.26 0.3
10 4 -7 4.62 0.42
10 -4 -8 2.39 0.46
10 4 -8 2.05 0.47
10 5 10 2.99 0.8
10 -5 9 14.1 0.98
10 5 9 13.73 0.47
10 -5 8 1.73 0.72
10 5 8 1.44 0.32
10 -5 7 45.98 0.87
10 5 7 46.41 0.53
10 -5 6 0.77 0.5
10 5 6 0.42 0.28
10 -5 5 30.26 0.96
10 5 5 31.87 0.4
10 -5 4 127.92 0.95
10 5 4 125.29 0.6
10 -5 3 2.59 0.26
10 5 3 2.53 0.2
10 -5 2 12.45 0.25
10 5 2 12.16 0.27
10 -5 1 25.8 0.33
10 5 1 24.85 0.31
10 -5 0 167.03 0.77
10 5 0 165.93 0.93
10 -5 -1 7.55 0.27
10 5 -1 6.6 0.3
10 -5 -2 21.6 0.35
10 5 -2 18.84 0.42
10 -5 -3 20.98 0.44
10 5 -3 20.26 0.34
10 -5 -4 44.44 0.47
10 5 -4 41.88 0.51
10 -5 -5 41.53 0.44
10 5 -5 41.46 0.58
10 -5 -6 2.75 0.28
10 5 -6 3.1 0.33
10 -5 -7 2.75 0.33
10 5 -7 2.38 0.53
10 -5 -8 0.05 0.04
10 5 -8 0.16 0.23
10 6 9 8.09 0.36
10 -6 8 6.42 0.88
10 6 8 6.15 0.34
10 -6 7 20.48 0.64
10 6 7 22.26 0.45
10 -6 6 19.78 0.86
10 6 6 18.57 0.41
10 -6 5 2.83 0.38
10 6 5 3.08 0.26
10 -6 4 30.16 0.53
10 6 4 30.15 0.35
10 -6 3 45.32 0.52
10 6 3 47.86 0.44
10 -6 2 82.38 0.64
10 6 2 77.89 0.51
10 -6 1 61.14 0.49
10 6 1 62.2 0.44
10 -6 0 14.1 0.29
10 6 0 13.85 0.31
10 -6 -1 14.97 0.3
10 6 -1 14.98 0.34
10 -6 -2 62.13 0.61
10 6 -2 65.68 0.7
10 -6 -3 32.34 0.4
10 6 -3 30.01 0.46
10 -6 -4 15.12 0.35
10 6 -4 15.13 0.39
10 -6 -5 2.34 0.24
10 6 -5 1.94 0.31
10 -6 -6 1.22 0.28
10 6 -6 0.97 0.3
10 -6 -7 7.27 0.34
10 6 -7 7.25 0.47
10 -6 -8 7.46 0.52
10 6 -8 7.47 0.9
10 7 9 0.32 0.24
10 7 8 0.85 0.3
10 7 7 1.05 0.29
10 -7 6 33.08 1.07
10 7 6 32.3 0.5
10 -7 5 54.72 1.27
10 7 5 54.76 0.58
10 -7 4 6.96 0.36
10 7 4 5.54 0.23
10 -7 3 54.61 0.58
10 7 3 56.58 0.42
10 -7 2 21.18 0.44
10 7 2 21.03 0.29
10 -7 1 59.5 0.57
10 7 1 60.17 0.42
10 -7 0 12.63 0.25
10 7 0 11.22 0.28
10 -7 -1 55.39 0.42
10 7 -1 54.92 0.55
10 -7 -2 32.19 0.4
10 7 -2 32.89 0.55
10 -7 -3 15.93 0.33
10 7 -3 15.27 0.44
10 -7 -4 14.1 0.31
10 7 -4 13.83 0.46
10 -7 -5 1.52 0.27
10 7 -5 1.83 0.33
10 -7 -6 10.51 0.34
10 7 -6 12.02 0.48
10 -7 -7 5.22 0.46
10 7 -7 4.64 0.53
10 -7 -8 2.26 0.52
10 7 -8 2.4 0.55
10 8 9 1.39 0.36
10 8 8 8.73 0.5
10 8 7 24.77 0.49
10 8 6 4.87 0.36
10 -8 5 0.3 0.7
10 8 5 0.17 0.14
10 -8 4 2.25 0.42
10 8 4 2.26 0.22
10 -8 3 71.54 0.98
10 8 3 71.16 0.45
10 -8 2 26.8 0.65
10 8 2 27.61 0.34
10 -8 1 52.55 0.56
10 8 1 54.71 0.44
10 -8 0 23.83 0.37
10 8 0 23.11 0.36
10 -8 -1 19.82 0.28
10 8 -1 18.64 0.39
10 -8 -2 20.28 0.31
10 8 -2 20.23 0.47
10 -8 -3 27.51 0.43
10 8 -3 28.61 0.56
10 -8 -4 12.11 0.3
10 8 -4 12.63 0.56
10 -8 -5 1.37 0.27
10 8 -5 1.48 0.33
10 -8 -6 4.19 0.3
10 8 -6 3.71 0.42
10 -8 -7 7.53 0.5
10 8 -7 9.32 0.6
10 9 8 1.8 0.43
10 9 7 2.99 0.32
10 9 6 21.63 0.52
10 9 5 23.83 0.42
10 -9 4 38.23 1.18
10 9 4 39.69 0.43
10 -9 3 5.17 0.45
10 9 3 5.64 0.22
10 -9 2 1.2 0.44
10 9 2 1.26 0.2
10 -9 1 28.67 0.68
10 9 1 26.27 0.34
10 -9 0 54.48 0.61
10 9 0 57.83 0.46
10 -9 -1 41.78 0.44
10 9 -1 40.22 0.63
10 -9 -2 3.98 0.22
10 9 -2 4.77 0.3
10 -9 -3 7.13 0.28
10 -9 -4 8.41 0.29
10 9 -4 9.28 0.53
10 -9 -5 29.29 0.42
10 9 -5 30.36 1.12
10 -9 -6 13.72 0.35
10 9 -6 13.55 0.61
10 -9 -7 4.34 0.51
10 9 -7 5.41 0.73
10 10 8 10.61 0.51
10 10 7 2.91 0.36
10 10 6 14.75 0.47
10 10 5 11.21 0.34
10 -10 4 12.31 0.84
10 10 4 12.2 0.3
10 -10 3 26.92 0.73
10 10 3 27.67 0.41
10 -10 2 33.25 0.77
10 10 2 33.32 0.42
10 -10 1 29.67 0.73
10 10 1 30.82 0.37
10 -10 0 9.67 0.41
10 10 0 10.06 0.29
10 -10 -1 7.94 0.33
10 10 -1 7.61 0.3
10 -10 -2 26.96 0.39
10 10 -2 30.18 0.51
10 -10 -3 42.96 0.5
10 10 -3 40.84 0.68
10 -10 -4 21.03 0.45
10 10 -4 22.32 0.72
10 -10 -5 0.05 0.06
10 10 -5 0.68 0.62
10 -10 -6 0.17 0.19
10 10 -6 0.39 0.62
10 -10 -7 1.28 0.85
10 10 -7 1.4 0.66
10 11 7 2.99 0.42
10 11 6 9.92 0.64
10 11 5 29.49 0.52
10 -11 4 18.97 1.01
10 11 4 17.68 0.42
10 -11 3 8.05 0.79
10 11 3 9.14 0.31
10 -11 2 5.95 0.49
10 11 2 5.99 0.29
10 -11 1 13.89 0.61
10 11 1 13.64 0.31
10 -11 0 50.18 0.64
10 11 0 52.14 0.59
10 -11 -1 42.19 0.59
10 11 -1 42.71 0.7
10 -11 -2 10.77 0.56
10 11 -2 10.31 0.37
10 -11 -3 0.86 0.28
10 11 -3 0.98 0.36
10 -11 -4 21.48 0.51
10 11 -4 20.4 0.69
10 -11 -5 2.79 0.38
10 11 -5 3.08 0.5
10 -11 -6 9.92 0.91
10 11 -6 10.27 0.59
10 12 7 9.73 0.88
10 12 6 17.4 0.57
10 12 5 0.05 0.04
10 12 4 6.19 0.39
10 -12 3 7.58 0.84
10 12 3 7.72 0.39
10 -12 2 81.93 1.71
10 12 2 83.96 0.77
10 -12 1 12.43 0.88
10 12 1 13.13 0.34
10 -12 0 10.03 0.56
10 12 0 8.82 0.35
10 -12 -1 9.76 0.45
10 12 -1 8.14 0.37
10 -12 -2 16.33 0.45
10 12 -2 16.46 0.51
10 -12 -3 31.15 0.56
10 12 -3 32.7 0.81
10 -12 -4 5.17 0.46
10 12 -4 5.06 0.41
10 -12 -5 15.06 0.54
10 12 -5 14.98 0.64
10 13 6 2.48 0.43
10 13 5 6.97 0.37
10 13 4 70.53 0.79
10 -13 3 8.36 0.84
10 13 3 6.84 0.36
10 -13 2 1.17 0.76
10 13 2 1.02 0.33
10 -13 1 9.04 0.57
10 13 1 8.18 0.32
10 -13 0 13.84 0.64
10 13 0 12.89 0.49
10 -13 -1 25.91 0.53
10 13 -1 25.43 0.6
10 -13 -2 9.36 0.47
10 13 -2 9.26 0.56
10 -13 -3 2.65 0.45
10 13 -3 1.98 0.47
10 -13 -4 3.13 0.47
10 13 -4 2.67 0.4
10 -13 -5 20.72 0.72
10 13 -5 20.4 0.98
10 14 5 1.6 0.49
10 14 4 5.98 0.49
10 -14 3 3.42 0.75
10 14 3 3.9 0.45
10 -14 2 19.99 0.73
10 14 2 18.78 0.7
10 -14 1 11.25 0.51
10 14 1 12.16 0.73
10 -14 0 25.81 0.63
10 14 0 22.77 0.63
10 -14 -1 14.77 0.54
10 14 -1 13.96 0.64
10 -14 -2 18.43 0.48
10 14 -2 16.77 0.67
10 -14 -3 8.74 0.48
10 14 -3 8.07 0.48
10 -14 -4 3.32 0.58
10 14 -4 3.12 0.83
10 -15 3 2.24 0.8
10 15 3 1.8 0.45
10 -15 2 5.94 0.58
10 15 2 6.51 0.58
10 -15 1 9.87 0.6
10 15 1 9.52 0.51
10 -15 0 9.2 0.49
10 15 0 7.98 0.5
10 -15 -1 12.89 0.52
10 15 -1 9.81 0.49
10 -15 -2 3.44 0.56
10 15 -2 2.63 0.6
11 0 10 3.71 0.61
11 0 9 0.54 0.37
11 0 8 0.53 0.25
11 0 7 43.43 0.61
11 0 6 0.89 0.29
11 0 5 23.99 0.37
11 0 4 33.42 0.32
11 0 3 70.6 0.5
11 0 2 31.74 0.34
11 0 1 121.58 0.48
11 0 0 1.56 0.15
11 0 -1 67.77 0.5
11 0 -2 30.17 0.33
11 0 -3 6.26 0.22
11 0 -4 59.19 0.56
11 0 -5 33.04 0.53
11 0 -6 3.24 0.33
11 0 -7 11.5 0.44
11 0 -8 15.08 0.65
11 -1 10 1.14 0.74
11 1 10 0.61 0.46
11 -1 9 5.8 0.9
11 1 9 5.57 0.46
11 -1 8 10.93 0.47
11 1 8 9.56 0.37
11 -1 7 28.03 0.51
11 1 7 29.53 0.53
11 -1 6 8.68 0.4
11 1 6 9.19 0.36
11 -1 5 53.16 0.57
11 1 5 55.82 0.48
11 -1 4 83.75 0.52
11 1 4 78.25 0.43
11 -1 3 62.59 0.44
11 1 3 66.3 0.39
11 -1 2 61.95 0.42
11 1 2 60.41 0.46
11 -1 1 15.87 0.26
11 1 1 15.48 0.23
11 -1 0 19.66 0.24
11 1 0 20.79 0.24
11 -1 -1 94.43 0.55
11 1 -1 96.35 0.52
11 -1 -2 36.14 0.33
11 1 -2 35.98 0.41
11 -1 -3 38.57 0.33
11 1 -3 40.36 0.44
11 -1 -4 62.05 0.51
11 1 -4 61.21 0.57
11 -1 -5 27.47 0.4
11 1 -5 24.51 0.42
11 -1 -6 38.75 0.52
11 1 -6 37.82 0.69
11 -1 -7 11.41 0.39
11 1 -7 12.83 0.51
11 -1 -8 11.66 0.5
11 1 -8 11.4 0.64
11 -2 10 2.65 1.03
11 2 10 2.92 0.63
11 -2 9 5.42 0.87
11 2 9 5.51 0.36
11 -2 8 23.46 0.77
11 2 8 23.87 0.49
11 -2 7 6.57 0.41
11 2 7 4.93 0.35
11 -2 6 152.16 1.28
11 2 6 153.83 1.02
11 -2 5 1.81 0.28
11 2 5 2.25 0.19
11 -2 4 10.87 0.24
11 2 4 10.48 0.2
11 -2 3 39.23 0.4
11 2 3 38.95 0.37
11 -2 2 34.2 0.33
11 2 2 36.57 0.37
11 -2 1 75.56 0.42
11 2 1 77.15 0.45
11 -2 0 205.84 0.7
11 2 0 203.09 0.76
11 -2 -1 19.87 0.25
11 2 -1 19.98 0.27
11 -2 -2 4.87 0.18
11 2 -2 5.26 0.22
11 -2 -3 93.13 0.56
11 2 -3 96.74 0.74
11 -2 -4 39.22 0.47
11 2 -4 39.53 0.57
11 -2 -5 3.51 0.25
11 2 -5 3.27 0.27
11 -2 -6 18.94 0.35
11 2 -6 19 0.54
11 -2 -7 6.55 0.35
11 2 -7 7.81 0.46
11 -2 -8 1.31 0.4
11 2 -8 2.05 0.43
11 -3 10 11.17 0.98
11 3 10 11.71 0.9
11 -3 9 6.87 0.87
11 3 9 7.8 0.37
11 3 8 34.69 0.55
11 -3 7 19.51 0.9
11 3 7 18.87 0.46
11 -3 6 2.4 0.56
11 3 6 1.97 0.25
11 -3 5 52.37 0.79
11 3 5 48.76 0.45
11 -3 4 213.09 1.47
11 3 4 220.99 0.78
11 -3 3 47.45 0.45
11 3 3 46.04 0.5
11 -3 2 19.25 0.24
11 3 2 19.56 0.33
11 -3 1 15.88 0.23
11 3 1 16.15 0.3
11 -3 0 39.6 0.32
11 3 0 41.54 0.47
11 -3 -1 122.11 0.68
11 3 -1 125.4 0.66
11 -3 -2 54.01 0.45
11 3 -2 50.98 0.45
11 -3 -3 42.25 0.38
11 3 -3 41.43 0.45
11 -3 -4 28.6 0.39
11 3 -4 28.47 0.48
11 -3 -5 67.04 0.53
11 3 -5 70.29 0.73
11 -3 -6 16.2 0.36
11 3 -6 17.42 0.45
11 -3 -7 13.6 0.37
11 3 -7 13.31 0.52
11 -3 -8 5.41 0.49
11 3 -8 5.79 0.54
11 -4 9 10.97 0.92
11 4 9 10.74 0.45
11 -4 8 13.36 0.62
11 4 8 13.81 0.38
11 -4 7 48.75 0.92
11 4 7 48.55 0.59
11 -4 6 16.51 0.85
11 4 6 17.7 0.4
11 -4 5 22.59 0.58
11 4 5 24.28 0.33
11 -4 4 3.85 0.54
11 4 4 3.88 0.21
11 -4 3 35.52 0.47
11 4 3 37.84 0.43
11 -4 2 140.92 0.67
11 4 2 139.22 0.7
11 -4 1 339.58 1.02
11 4 1 340.35 1.41
11 -4 0 42.82 0.33
11 4 0 45.08 0.45
11 -4 -1 49.55 0.46
11 4 -1 50.28 0.5
11 -4 -2 61.78 0.53
11 4 -2 63.74 0.52
11 -4 -3 42.43 0.48
11 4 -3 41.14 0.52
11 -4 -4 35.79 0.47
11 4 -4 37.05 0.53
11 -4 -5 70.33 0.56
11 4 -5 70.77 0.74
11 -4 -6 13.16 0.35
11 4 -6 12.64 0.48
11 -4 -7 2.88 0.33
11 4 -7 2.66 0.41
11 -4 -8 10.49 0.52
11 4 -8 10.5 0.5
11 -5 9 1.56 1.11
11 5 9 2.26 0.36
11 -5 8 34.89 1.22
11 5 8 33.68 0.49
11 -5 7 31.31 0.78
11 5 7 32.02 0.47
11 -5 6 18.35 0.87
11 5 6 17.71 0.45
11 -5 5 71.18 1.42
11 5 5 73.37 0.54
11 -5 4 96.14 0.87
11 5 4 97.3 0.62
11 -5 3 77.52 0.76
11 5 3 79.13 0.55
11 -5 2 12.85 0.28
11 5 2 11.11 0.28
11 -5 1 0.18 0.16
11 5 1 0 0.02
11 -5 0 45.67 0.47
11 5 0 43.87 0.55
11 -5 -1 252.44 1.22
11 5 -1 253.27 1.38
11 -5 -2 37.17 0.5
11 5 -2 37.56 0.56
11 -5 -3 13.31 0.33
11 5 -3 12.95 0.41
11 -5 -4 84.82 0.75
11 5 -4 86.09 0.77
11 -5 -5 35.37 0.44
11 5 -5 32.66 0.55
11 -5 -6 19.4 0.4
11 5 -6 20.02 0.48
11 -5 -7 11.7 0.37
11 5 -7 12.82 0.52
11 -5 -8 4.2 0.53
11 5 -8 3.75 0.58
11 6 9 1.76 0.38
11 -6 8 16.28 0.95
11 6 8 15.85 0.39
11 -6 7 4.1 0.52
11 6 7 4.23 0.3
11 -6 6 107.53 1.78
11 6 6 107.64 0.81
11 -6 5 26.19 1.06
11 6 5 26.27 0.43
11 -6 4 18 0.47
11 6 4 18.38 0.31
11 -6 3 87 0.77
11 6 3 86.43 0.59
11 -6 2 82.65 0.67
11 6 2 84.56 0.57
11 -6 1 51 0.53
11 6 1 54.58 0.49
11 -6 0 218.02 0.94
11 6 0 214.02 1.35
11 -6 -1 4.98 0.28
11 6 -1 4.81 0.31
11 -6 -2 26.98 0.46
11 6 -2 26.43 0.51
11 -6 -3 83.58 0.62
11 6 -3 84.7 0.93
11 -6 -4 49.48 0.52
11 6 -4 50.77 0.63
11 -6 -5 1.78 0.29
11 6 -5 1.34 0.36
11 -6 -6 1.56 0.3
11 6 -6 1.54 0.36
11 -6 -7 7.85 0.41
11 6 -7 7.64 0.48
11 -6 -8 4.07 0.54
11 6 -8 4.29 0.59
11 7 9 40.19 0.64
11 7 8 14.21 0.42
11 -7 7 1.98 0.72
11 7 7 2.42 0.32
11 -7 6 1.68 0.74
11 7 6 1.99 0.29
11 -7 5 15.54 0.56
11 7 5 16.29 0.32
11 -7 4 69.75 0.9
11 7 4 70.96 0.53
11 -7 3 95.17 0.77
11 7 3 91.78 0.57
11 -7 2 117.2 0.95
11 7 2 118.25 0.76
11 -7 1 82.8 0.69
11 7 1 83.14 0.65
11 -7 0 108.6 0.65
11 7 0 107.94 0.78
11 -7 -1 40.32 0.41
11 7 -1 38.71 0.58
11 -7 -2 31.47 0.4
11 7 -2 32.52 0.56
11 -7 -3 22.46 0.42
11 7 -3 21.73 0.5
11 -7 -4 1.8 0.25
11 7 -4 1.11 0.4
11 -7 -5 36.21 0.49
11 7 -5 36.91 0.84
11 -7 -6 44.03 0.5
11 7 -6 43.86 0.74
11 -7 -7 2.63 0.39
11 7 -7 2.3 0.57
11 8 8 0.49 0.24
11 8 7 52.13 0.71
11 8 6 15.33 0.41
11 8 5 38.96 0.53
11 -8 4 1.84 0.42
11 8 4 1.74 0.22
11 -8 3 39.87 0.79
11 8 3 42.66 0.4
11 -8 2 89.01 1.1
11 8 2 83.53 0.55
11 -8 1 134.49 0.9
11 8 1 129.53 0.71
11 -8 0 28.45 0.46
11 8 0 31.29 0.48
11 -8 -1 10.54 0.27
11 8 -1 10.58 0.34
11 -8 -2 40.37 0.5
11 8 -2 40.1 0.8
11 -8 -3 40.35 0.59
11 8 -3 40.55 0.65
11 -8 -4 25.36 0.46
11 8 -4 24.04 0.69
11 -8 -5 10.38 0.32
11 8 -5 9.82 0.45
11 -8 -6 0.94 0.29
11 8 -6 0.87 0.62
11 -8 -7 6.42 0.5
11 8 -7 6.22 0.78
11 9 8 1.29 0.51
11 9 7 17.84 0.47
11 9 6 1.94 0.31
11 9 5 78.47 0.66
11 -9 4 24.61 0.71
11 9 4 23.98 0.39
11 -9 3 34.45 0.78
11 9 3 37.12 0.4
11 -9 2 24.11 0.68
11 9 2 22 0.34
11 -9 1 8.83 0.5
11 9 1 9.1 0.26
11 -9 0 11.67 0.43
11 9 0 11.38 0.3
11 -9 -1 57.25 0.52
11 9 -1 58.12 0.64
11 -9 -2 146.48 0.99
11 9 -2 138.73 0.96
11 -9 -3 29.32 0.55
11 9 -3 30.74 0.61
11 -9 -4 12.48 0.35
11 9 -4 12.96 0.6
11 -9 -5 1.18 0.38
11 9 -5 0.91 0.39
11 -9 -6 7.99 0.42
11 9 -6 8.29 0.55
11 -9 -7 15.1 0.7
11 9 -7 14.53 0.91
11 10 8 6.68 0.79
11 10 7 10.02 0.51
11 10 6 8.06 0.42
11 10 5 5.56 0.32
11 -10 4 16.19 0.65
11 10 4 17.57 0.34
11 -10 3 10.85 0.57
11 10 3 10.26 0.31
11 -10 2 66.48 1.04
11 10 2 66.33 0.58
11 -10 1 12.56 0.58
11 10 1 13.47 0.29
11 -10 0 78.93 1.11
11 10 0 76.82 0.67
11 -10 -1 26.51 0.5
11 10 -1 26.21 0.5
11 -10 -2 3.49 0.27
11 10 -2 3.07 0.31
11 -10 -3 7.02 0.35
11 10 -3 6.45 0.51
11 -10 -4 36.72 0.55
11 10 -4 35.06 0.84
11 -10 -5 7.18 0.45
11 10 -5 7.46 0.43
11 -10 -6 0.1 0.41
11 10 -6 0.28 0.73
11 11 7 2.04 0.65
11 11 6 0.14 0.17
11 11 5 0.46 0.25
11 -11 4 39.16 1.3
11 11 4 39.56 0.56
11 11 3 39.46 0.5
11 -11 2 5.36 0.52
11 11 2 6.49 0.3
11 -11 1 3.38 0.48
11 11 1 2.91 0.23
11 -11 0 22.34 0.57
11 11 0 21.82 0.48
11 -11 -1 22.27 0.47
11 11 -1 22.62 0.7
11 -11 -2 9.14 0.54
11 11 -2 10.06 0.44
11 -11 -3 5.73 0.4
11 11 -3 5.25 0.48
11 -11 -4 7.66 0.42
11 11 -4 7.33 0.52
11 -11 -5 23.01 0.6
11 11 -5 21.52 0.58
11 -11 -6 4.1 0.64
11 11 -6 3.12 0.74
11 12 6 1.9 0.48
11 12 5 26.84 0.64
11 12 4 14.74 0.41
11 -12 3 0.75 0.74
11 12 3 0.51 0.24
11 -12 2 2.28 0.71
11 12 2 1.99 0.27
11 -12 1 22.8 0.72
11 12 1 22.52 0.4
11 -12 0 1.37 0.51
11 12 0 1.39 0.25
11 -12 -1 19.22 0.54
11 12 -1 18.93 0.55
11 -12 -2 9.71 0.4
11 12 -2 9.6 0.45
11 -12 -3 10.45 0.63
11 12 -3 9.82 0.55
11 -12 -4 0.12 0.16
11 12 -4 0.4 0.53
11 -12 -5 6.35 0.62
11 12 -5 6.56 0.44
11 13 5 2.27 0.39
11 13 4 0.69 0.34
11 13 3 22.06 0.51
11 -13 2 6.8 0.83
11 13 2 5.67 0.42
11 -13 1 -0.04 0.45
11 13 1 0.35 0.22
11 -13 0 9.75 0.59
11 13 0 8.71 0.4
11 -13 -1 0.99 0.41
11 13 -1 1.02 0.31
11 -13 -2 15.15 0.45
11 13 -2 13.92 0.63
11 -13 -3 12.72 0.65
11 13 -3 12.53 0.49
11 -13 -4 1.27 0.58
11 13 -4 1.29 0.69
11 14 4 1.53 0.41
11 -14 3 7.54 0.85
11 14 3 8.48 0.58
11 -14 2 19.21 0.72
11 14 2 20.56 1.02
11 -14 1 0.56 0.32
11 14 1 0.24 0.21
11 -14 0 11.91 0.61
11 14 0 10.88 0.63
11 -14 -1 0.11 0.18
11 14 -1 0.04 0.12
11 -14 -2 7.16 0.49
11 14 -2 6.59 0.47
11 -14 -3 8.17 0.61
11 14 -3 7.41 0.61
11 -15 3 1.67 0.93
11 15 3 1.49 0.8
11 -15 2 8.91 0.82
11 15 2 8.72 0.81
11 -15 1 10.43 0.6
11 15 1 9.6 0.87
11 -15 0 2.98 0.83
11 15 0 3.11 0.48
11 -15 -1 5 0.63
11 15 -1 3.57 0.63
12 0 10 2.54 0.97
12 0 9 0.85 0.42
12 0 8 9.16 0.48
12 0 7 1.33 0.29
12 0 6 80.8 0.78
12 0 5 61.15 0.56
12 0 4 6.03 0.2
12 0 3 4.76 0.2
12 0 2 208.72 0.9
12 0 1 0.08 0.06
12 0 0 191.27 0.72
12 0 -1 28.66 0.33
12 0 -2 9.37 0.24
12 0 -3 38.75 0.45
12 0 -4 53.09 0.63
12 0 -5 8.42 0.37
12 0 -6 0.1 0.07
12 0 -7 1.44 0.34
12 0 -8 0.68 0.38
12 -1 10 3.08 1
12 1 10 2.59 0.59
12 -1 9 19.91 0.59
12 1 9 19.38 0.51
12 -1 8 17.74 0.57
12 1 8 19.52 0.45
12 -1 7 19.07 0.53
12 1 7 18.29 0.47
12 -1 6 8.36 0.35
12 1 6 7.64 0.35
12 -1 5 58.54 0.54
12 1 5 57.04 0.54
12 -1 4 108.08 0.62
12 1 4 111.4 0.56
12 -1 3 40.45 0.43
12 1 3 37.73 0.38
12 -1 2 113.59 0.62
12 1 2 113.2 0.54
12 -1 1 48.27 0.39
12 1 1 49.85 0.44
12 -1 0 62.8 0.41
12 1 0 64.06 0.45
12 -1 -1 80.39 0.47
12 1 -1 80.05 0.51
12 -1 -2 84.87 0.58
12 1 -2 80.77 0.58
12 -1 -3 20.12 0.35
12 1 -3 19.68 0.39
12 -1 -4 42.84 0.52
12 1 -4 43.41 0.52
12 -1 -5 5.74 0.35
12 1 -5 6.58 0.35
12 -1 -6 19.21 0.43
12 1 -6 19.92 0.49
12 -1 -7 17.19 0.48
12 1 -7 16.98 0.67
12 -1 -8 5.28 0.47
12 1 -8 5.92 0.45
12 -2 9 4.05 0.88
12 2 9 3.71 0.35
12 -2 8 3.76 0.54
12 2 8 3.56 0.36
12 -2 7 63.03 0.83
12 2 7 60.36 0.74
12 -2 6 35.29 0.62
12 2 6 32.96 0.54
12 -2 5 46.24 0.64
12 2 5 49.22 0.44
12 -2 4 34.83 0.46
12 2 4 35.25 0.33
12 -2 3 2.54 0.21
12 2 3 2.04 0.18
12 -2 2 48.29 0.44
12 2 2 46.16 0.39
12 -2 1 209.19 0.86
12 2 1 207.75 0.85
12 -2 0 52.04 0.39
12 2 0 53.02 0.44
12 -2 -1 0.52 0.17
12 2 -1 0.83 0.15
12 -2 -2 36.13 0.38
12 2 -2 35.72 0.41
12 -2 -3 45.21 0.44
12 2 -3 45.7 0.55
12 -2 -4 10.17 0.29
12 2 -4 11.43 0.37
12 -2 -5 74.06 0.63
12 2 -5 72.33 0.67
12 -2 -6 0.07 0.1
12 2 -6 0.06 0.22
12 -2 -7 3.91 0.36
12 2 -7 4.43 0.42
12 -2 -8 8.94 0.48
12 2 -8 9.16 0.63
12 -3 9 14.65 0.99
12 3 9 15.09 0.47
12 -3 8 9.6 0.59
12 3 8 8.3 0.37
12 -3 7 42.92 1.24
12 3 7 46.17 0.58
12 -3 6 1.51 0.52
12 3 6 1.6 0.26
12 -3 5 6.1 0.61
12 3 5 6.46 0.24
12 -3 4 121.62 1.18
12 3 4 117.63 0.63
12 -3 3 90.69 0.65
12 3 3 91.79 0.61
12 -3 2 29.92 0.34
12 3 2 30.86 0.34
12 -3 1 4.21 0.18
12 3 1 3.51 0.2
12 -3 0 97.29 0.49
12 3 0 93.9 0.66
12 -3 -1 88.68 0.56
12 3 -1 91.9 0.61
12 -3 -2 67.93 0.56
12 3 -2 66.84 0.54
12 -3 -3 64.23 0.52
12 3 -3 65.49 0.65
12 -3 -4 1.29 0.23
12 3 -4 1.05 0.27
12 -3 -5 17.88 0.34
12 3 -5 18.54 0.41
12 -3 -6 3.57 0.29
12 3 -6 2.82 0.33
12 -3 -7 16.2 0.38
12 3 -7 17.53 0.59
12 -3 -8 9.1 0.67
12 3 -8 9.04 0.48
12 -4 9 21.74 1.08
12 4 9 21.47 0.53
12 -4 8 12.62 0.63
12 4 8 12.5 0.41
12 -4 7 -0.01 1.1
12 4 7 0.2 0.12
12 -4 6 47.09 1.25
12 4 6 48.46 0.64
12 -4 5 102.63 1.7
12 4 5 102.03 0.58
12 -4 4 1.49 0.49
12 4 4 1.86 0.22
12 -4 3 64.27 0.62
12 4 3 63.09 0.62
12 -4 2 18.27 0.27
12 4 2 18.9 0.35
12 -4 1 35.62 0.34
12 4 1 36.41 0.44
12 -4 0 205.48 0.78
12 4 0 205.61 0.96
12 -4 -1 19.69 0.31
12 4 -1 20.69 0.34
12 -4 -2 6.56 0.26
12 4 -2 6.28 0.29
12 -4 -3 19.38 0.38
12 4 -3 19.5 0.47
12 -4 -4 39.5 0.51
12 4 -4 37.24 0.64
12 -4 -5 25.61 0.46
12 4 -5 27.45 0.52
12 -4 -6 25.76 0.48
12 4 -6 26.77 0.53
12 -4 -7 1.32 0.39
12 4 -7 1.09 0.38
12 -4 -8 2.47 0.53
12 4 -8 2.27 0.47
12 -5 9 8.24 1.06
12 5 9 8.64 0.51
12 -5 8 9.37 0.61
12 5 8 8.6 0.35
12 -5 7 20.32 0.69
12 5 7 19.54 0.4
12 -5 6 0.68 0.58
12 5 6 0.21 0.13
12 -5 5 51.39 1.27
12 5 5 51.96 0.47
12 -5 4 37.27 0.75
12 5 4 40.88 0.49
12 -5 3 94.77 0.87
12 5 3 92.29 0.61
12 -5 2 96.56 0.64
12 5 2 98.62 0.6
12 -5 1 3.28 0.23
12 5 1 3.85 0.34
12 -5 0 3.1 0.24
12 5 0 3.95 0.39
12 -5 -1 72 0.59
12 5 -1 70.39 0.89
12 -5 -2 38.04 0.53
12 5 -2 38.62 0.46
12 -5 -3 34.27 0.53
12 5 -3 34.33 0.58
12 -5 -4 48.93 0.54
12 5 -4 49.51 0.9
12 -5 -5 2.27 0.27
12 5 -5 2.77 0.37
12 -5 -6 21.13 0.45
12 5 -6 20.86 0.72
12 -5 -7 6.71 0.46
12 5 -7 5.87 0.53
12 -5 -8 3.82 0.91
12 5 -8 3.9 0.56
12 6 9 2.25 0.45
12 6 8 4.9 0.34
12 -6 7 7.1 0.55
12 6 7 6.57 0.32
12 -6 6 5.84 0.7
12 6 6 6.71 0.53
12 -6 5 25.87 0.98
12 6 5 28.17 0.46
12 -6 4 62.17 0.89
12 6 4 62.7 0.51
12 -6 3 9.91 0.36
12 6 3 9.63 0.28
12 -6 2 25.14 0.43
12 6 2 23.35 0.39
12 -6 1 107.28 0.77
12 6 1 103.2 0.79
12 -6 0 89.24 0.65
12 6 0 93.38 1.53
12 -6 -1 69.05 0.61
12 6 -1 66.68 0.74
12 -6 -2 23.24 0.45
12 6 -2 24.54 0.51
12 -6 -3 35.97 0.5
12 6 -3 35.37 0.53
12 -6 -4 5.48 0.29
12 6 -4 5.75 0.47
12 -6 -5 55.26 0.54
12 6 -5 54.59 0.97
12 -6 -6 8.05 0.42
12 6 -6 7.44 0.45
12 -6 -7 13.31 0.45
12 6 -7 11.95 0.86
12 7 8 5.69 0.4
12 -7 7 29.97 1.09
12 7 7 28.09 0.57
12 -7 6 10.06 0.8
12 7 6 9.85 0.41
12 -7 5 13.62 0.61
12 7 5 13.9 0.34
12 -7 4 17.27 0.49
12 7 4 17.85 0.31
12 -7 3 17.51 0.41
12 7 3 15.45 0.32
12 -7 2 53.68 0.84
12 7 2 54.22 0.5
12 -7 1 49.92 0.58
12 7 1 48.56 0.52
12 -7 0 0.5 0.24
12 7 0 0.33 0.28
12 -7 -1 45.6 0.43
12 7 -1 47.27 0.65
12 -7 -2 73.34 0.59
12 7 -2 71.38 0.81
12 -7 -3 35.11 0.5
12 7 -3 35.92 0.62
12 -7 -4 2.95 0.27
12 7 -4 2.44 0.42
12 -7 -5 5.25 0.35
12 7 -5 5.53 0.5
12 -7 -6 1.64 0.34
12 7 -6 1.12 0.45
12 -7 -7 31.09 0.68
12 8 8 1.84 0.35
12 8 7 2.53 0.33
12 8 6 10.65 0.44
12 8 5 25.6 0.39
12 -8 4 19.89 0.83
12 8 4 20.43 0.33
12 -8 3 6.79 0.49
12 8 3 6.36 0.24
12 -8 2 69.37 0.82
12 8 2 70.9 0.61
12 -8 1 7.7 0.33
12 8 1 8.7 0.28
12 -8 0 124.88 1.13
12 8 0 120.23 0.83
12 -8 -1 10.7 0.3
12 8 -1 10.31 0.35
12 -8 -2 3.47 0.25
12 8 -2 3.5 0.35
12 -8 -3 11.69 0.41
12 8 -3 13.5 0.77
12 -8 -4 71.09 0.7
12 8 -4 69.01 0.89
12 -8 -5 11.56 0.41
12 8 -5 12.47 0.59
12 -8 -6 7.34 0.61
12 8 -6 7.13 0.53
12 -8 -7 3.18 0.65
12 8 -7 3 0.74
12 9 8 10.55 0.5
12 9 7 20.18 0.52
12 9 6 30.58 0.52
12 -9 5 0.94 0.61
12 9 5 1.85 0.29
12 -9 4 35.06 1.18
12 9 4 35.7 0.46
12 -9 3 30.88 0.77
12 9 3 30.41 0.38
12 -9 2 37.14 0.82
12 9 2 36.21 0.5
12 -9 1 9.15 0.53
12 9 1 8.3 0.31
12 -9 0 13.5 0.39
12 9 0 13.02 0.32
12 -9 -1 3.55 0.3
12 9 -1 3.66 0.38
12 -9 -2 34.76 0.51
12 9 -2 36.21 0.56
12 -9 -3 47.04 0.66
12 9 -3 46.37 0.72
12 -9 -4 13.67 0.38
12 9 -4 13.22 0.5
12 -9 -5 4.99 0.34
12 9 -5 4.56 0.67
12 -9 -6 8.45 0.44
12 9 -6 9.28 0.57
12 10 7 10.25 0.53
12 10 6 23.06 0.63
12 10 5 11.13 0.35
12 -10 4 14.83 0.66
12 10 4 14.78 0.33
12 -10 3 6.46 0.53
12 10 3 6.08 0.29
12 -10 2 0.37 0.68
12 10 2 0.22 0.14
12 -10 1 44.22 0.9
12 10 1 42.87 0.49
12 -10 0 29.49 0.61
12 10 0 30.88 0.48
12 -10 -1 35.73 0.56
12 10 -1 33.69 0.56
12 -10 -2 3.82 0.35
12 10 -2 3.77 0.33
12 -10 -3 23.74 0.47
12 10 -3 23 0.7
12 -10 -4 0.57 0.26
12 10 -4 0.36 0.45
12 -10 -5 15.73 0.47
12 10 -5 15.05 0.64
12 -10 -6 6.11 0.65
12 10 -6 5.72 0.75
12 11 7 13.71 0.95
12 11 6 0.09 0.16
12 11 5 13.37 0.45
12 -11 4 2.99 0.77
12 11 4 3.72 0.33
12 -11 3 58.81 1.05
12 11 3 62.11 0.69
12 -11 2 5.25 0.52
12 11 2 3.84 0.35
12 -11 1 7.85 0.56
12 11 1 7.73 0.38
12 -11 0 0.05 0.1
12 11 0 0.25 0.21
12 -11 -1 20.93 0.56
12 11 -1 21.36 0.58
12 -11 -2 51.94 1.41
12 11 -2 50.49 0.66
12 -11 -3 9.72 0.48
12 11 -3 9.91 0.55
12 -11 -4 1.03 0.44
12 11 -4 0.57 0.47
12 -11 -5 17.08 0.55
12 11 -5 17.98 0.67
12 12 6 4.09 0.44
12 12 5 12.44 0.46
12 12 4 1.33 0.55
12 -12 3 0.68 0.63
12 12 3 0.31 0.29
12 -12 2 23.83 1.09
12 12 2 23.32 0.52
12 -12 1 29 0.79
12 12 1 28.58 0.55
12 -12 0 3.57 0.52
12 12 0 3 0.31
12 -12 -1 3.19 0.51
12 12 -1 2.72 0.41
12 -12 -2 1.57 0.47
12 12 -2 0.87 0.48
12 -12 -3 1.59 0.56
12 12 -3 1.75 0.52
12 -12 -4 30.67 0.83
12 12 -4 31.4 0.79
12 13 5 3.99 0.49
12 13 4 16.7 0.57
12 -13 3 7.24 0.82
12 13 3 6.44 0.47
12 -13 2 1.33 0.53
12 13 2 2.33 0.53
12 -13 1 8.85 0.58
12 13 1 8.39 0.47
12 -13 0 15.47 0.65
12 13 0 14.31 0.46
12 -13 -1 26.03 0.76
12 13 -1 22.61 0.7
12 -13 -2 9.29 0.61
12 13 -2 9.86 0.48
12 -13 -3 0.99 0.7
12 13 -3 0.95 0.61
12 -13 -4 6.24 0.63
12 13 -4 5.55 0.82
12 14 4 5.32 0.84
12 -14 3 14.93 0.67
12 14 3 14.21 0.66
12 -14 2 5.57 0.81
12 14 2 6.13 0.58
12 -14 1 22.31 0.59
12 14 1 21.48 1.04
12 -14 0 2.32 0.47
12 14 0 2.29 0.46
12 -14 -1 3.35 0.6
12 14 -1 3.05 0.48
12 -14 -2 1.79 0.59
12 14 -2 1.3 0.45
12 -15 1 0.45 0.72
12 15 1 0.98 0.66
12 -15 0 1.54 0.84
13 0 9 12.31 0.46
13 0 8 9.75 0.49
13 0 7 8.25 0.39
13 0 6 15.02 0.58
13 0 5 35.43 0.46
13 0 4 29.71 0.37
13 0 3 256.11 1.04
13 0 2 29.86 0.34
13 0 1 141.74 0.76
13 0 0 74.1 0.46
13 0 -1 50.29 0.45
13 0 -2 27.77 0.36
13 0 -3 4.5 0.29
13 0 -4 21.55 0.53
13 0 -5 69.96 0.76
13 0 -6 33.54 0.68
13 0 -7 0.27 0.39
13 0 -8 4.17 0.56
13 -1 9 3.33 0.61
13 1 9 3.59 0.42
13 -1 8 26.4 0.81
13 1 8 24.99 0.49
13 -1 7 49.87 0.76
13 1 7 51.53 0.68
13 -1 6 51.31 0.74
13 1 6 50.34 0.64
13 -1 5 10.23 0.35
13 1 5 10.06 0.41
13 -1 4 35.25 0.44
13 1 4 34.88 0.43
13 -1 3 73.45 0.6
13 1 3 74.56 0.54
13 -1 2 104.72 0.68
13 1 2 98.68 0.61
13 -1 1 146.97 0.69
13 1 1 142.44 0.71
13 -1 0 41.44 0.37
13 1 0 42.57 0.41
13 -1 -1 4.8 0.22
13 1 -1 4.45 0.21
13 -1 -2 164.39 0.86
13 1 -2 169.37 0.79
13 -1 -3 91.44 0.87
13 1 -3 90.01 0.68
13 -1 -4 36.24 0.65
13 1 -4 33.53 0.54
13 -1 -5 4.26 0.34
13 1 -5 4.57 0.36
13 -1 -6 0.62 0.28
13 1 -6 0.83 0.33
13 -1 -7 30.41 0.66
13 1 -7 29.92 0.83
13 -1 -8 6.99 0.59
13 1 -8 7.17 0.58
13 -2 9 1.86 0.7
13 2 9 1.86 0.39
13 -2 8 10.18 0.61
13 2 8 10.23 0.38
13 -2 7 21.19 0.69
13 2 7 21.5 0.72
13 -2 6 16.65 0.61
13 2 6 15.13 0.5
13 -2 5 123.73 1.26
13 2 5 119.73 0.78
13 -2 4 64.02 0.67
13 2 4 62.92 0.47
13 -2 3 2.57 0.26
13 2 3 2.95 0.21
13 -2 2 3.95 0.22
13 2 2 4.21 0.23
13 -2 1 3.04 0.19
13 2 1 4.49 0.22
13 -2 0 193.17 0.75
13 2 0 191.68 0.86
13 -2 -1 122.14 0.61
13 2 -1 117.74 0.64
13 -2 -2 24.73 0.35
13 2 -2 24.27 0.38
13 -2 -3 11.88 0.32
13 2 -3 11.78 0.35
13 -2 -4 14.9 0.42
13 2 -4 14.29 0.37
13 -2 -5 27.3 0.52
13 2 -5 26.93 0.47
13 -2 -6 7.66 0.37
13 2 -6 7.81 0.41
13 -2 -7 9.69 0.49
13 2 -7 9.69 0.62
13 -2 -8 4.15 0.56
13 2 -8 4.28 0.58
13 -3 9 8.41 0.98
13 3 9 8.94 0.38
13 -3 8 21.92 0.74
13 3 8 21.49 0.47
13 -3 7 33.76 1.16
13 3 7 31.11 0.51
13 -3 6 0.64 0.62
13 3 6 0.61 0.3
13 -3 5 6.53 0.65
13 3 5 6.11 0.25
13 -3 4 1.06 0.34
13 3 4 0.98 0.19
13 -3 3 112.28 0.72
13 3 3 111.33 0.66
13 -3 2 113.5 0.72
13 3 2 110.97 0.64
13 -3 1 38.07 0.36
13 3 1 37.16 0.44
13 -3 0 6.77 0.2
13 3 0 6.45 0.25
13 -3 -1 12.42 0.26
13 3 -1 12 0.3
13 -3 -2 43.92 0.49
13 3 -2 42.41 0.47
13 -3 -3 20.84 0.38
13 3 -3 17.81 0.46
13 -3 -4 111.54 0.79
13 3 -4 113.3 1.29
13 -3 -5 9.11 0.29
13 3 -5 8.27 0.39
13 -3 -6 19.31 0.49
13 3 -6 18.81 0.7
13 -3 -7 3.16 0.56
13 3 -7 2.89 0.51
13 -3 -8 1.23 0.8
13 3 -8 1.33 0.82
13 4 9 4.54 0.38
13 -4 8 8.22 0.61
13 4 8 8.36 0.38
13 -4 7 11.47 0.83
13 4 7 10.88 0.38
13 -4 6 5.37 0.68
13 4 6 3.62 0.29
13 -4 5 82.39 1.59
13 4 5 86.93 0.65
13 -4 4 38.95 1.11
13 4 4 35.79 0.37
13 -4 3 42.61 0.64
13 4 3 40.04 0.44
13 -4 2 6.49 0.21
13 4 2 6.08 0.23
13 -4 1 45.8 0.4
13 4 1 42.88 0.52
13 -4 0 56.7 0.44
13 4 0 58.01 0.59
13 -4 -1 43.35 0.44
13 4 -1 41.56 0.46
13 -4 -2 14.47 0.34
13 4 -2 14.35 0.37
13 -4 -3 4.58 0.31
13 4 -3 4.86 0.34
13 -4 -4 14.99 0.38
13 4 -4 14.53 0.58
13 -4 -5 23.29 0.42
13 4 -5 20.71 0.49
13 -4 -6 22.22 0.42
13 4 -6 22.97 0.6
13 -4 -7 5.96 0.42
13 4 -7 6.22 0.57
13 -5 9 4.28 1.02
13 5 9 3.84 0.38
13 -5 8 0.23 0.46
13 5 8 0.63 0.31
13 -5 7 21.18 0.71
13 5 7 20.48 0.46
13 -5 6 29.31 1.08
13 5 6 27.6 0.48
13 -5 5 8.3 0.48
13 5 5 8.43 0.28
13 -5 4 8.04 0.68
13 5 4 7.43 0.28
13 -5 3 29.8 0.56
13 5 3 30 0.44
13 -5 2 32.16 0.47
13 5 2 30.77 0.42
13 -5 1 14.17 0.32
13 5 1 13.81 0.5
13 -5 0 25.12 0.4
13 5 0 22.89 0.61
13 -5 -1 11.93 0.33
13 5 -1 10.93 0.34
13 -5 -2 68.19 0.7
13 5 -2 66.74 0.67
13 -5 -3 20.81 0.46
13 5 -3 20.17 0.5
13 -5 -4 1.88 0.28
13 5 -4 1.86 0.42
13 -5 -5 0.06 0.07
13 5 -5 0.37 0.33
13 -5 -6 2.4 0.32
13 5 -6 2.71 0.46
13 -5 -7 5.85 0.48
13 5 -7 6.12 0.75
13 -6 8 6.55 0.83
13 6 8 7.3 0.39
13 -6 7 8.47 0.58
13 6 7 8.43 0.38
13 -6 6 6.8 0.75
13 6 6 6.9 0.34
13 -6 5 28.87 1.05
13 6 5 26.58 0.46
13 -6 4 13.41 0.46
13 6 4 13.77 0.34
13 -6 3 24.03 0.46
13 6 3 25.42 0.42
13 -6 2 35.73 0.51
13 6 2 37.18 0.46
13 -6 1 37.34 0.51
13 6 1 36.5 0.75
13 -6 0 44.76 0.56
13 6 0 42.54 0.78
13 -6 -1 4.03 0.28
13 6 -1 5.52 0.3
13 -6 -2 26.31 0.5
13 6 -2 26.38 0.47
13 -6 -3 0.66 0.3
13 6 -3 0.41 0.33
13 -6 -4 20.08 0.44
13 6 -4 19.32 0.66
13 -6 -5 13.56 0.45
13 6 -5 14.93 0.62
13 -6 -6 2.76 0.46
13 6 -6 2.34 0.51
13 -6 -7 4.02 0.49
13 6 -7 3.04 0.69
13 7 8 13.63 0.54
13 -7 7 0.96 0.7
13 7 7 0.87 0.38
13 -7 6 1.89 0.69
13 7 6 2.16 0.35
13 -7 5 2.97 0.47
13 7 5 3.03 0.3
13 -7 4 21.41 0.54
13 7 4 22.71 0.37
13 -7 3 18.62 0.43
13 7 3 17.91 0.35
13 -7 2 11.24 0.43
13 7 2 10.85 0.31
13 -7 1 30.41 0.5
13 7 1 30.8 0.74
13 -7 0 0.27 0.21
13 7 0 0.37 0.6
13 -7 -1 10.55 0.28
13 7 -1 10.76 0.41
13 -7 -2 9.58 0.28
13 7 -2 10.06 0.36
13 -7 -3 8.95 0.35
13 7 -3 7.92 0.4
13 -7 -4 18.36 0.4
13 7 -4 19.25 0.68
13 -7 -5 1.71 0.38
13 7 -5 1.54 0.42
13 -7 -6 3.18 0.6
13 7 -6 2.57 0.52
13 -7 -7 3.03 0.67
13 7 -7 3.87 0.71
13 8 8 1.56 0.46
13 8 7 2.44 0.45
13 8 6 14.73 0.47
13 8 5 17.86 0.36
13 -8 4 11.64 0.59
13 8 4 11.86 0.31
13 -8 3 14.05 0.6
13 8 3 14.11 0.31
13 -8 2 18.56 0.5
13 8 2 17.84 0.39
13 -8 1 3.16 0.35
13 8 1 2.47 0.23
13 -8 0 27.13 0.49
13 8 0 30.06 0.52
13 -8 -1 66.35 0.63
13 8 -1 63.98 0.82
13 -8 -2 5.84 0.28
13 8 -2 5.9 0.46
13 -8 -3 0.94 0.35
13 8 -3 1.02 0.3
13 -8 -4 6.41 0.35
13 8 -4 7.47 0.53
13 -8 -5 13.47 0.41
13 8 -5 13.82 0.62
13 -8 -6 2.18 0.49
13 8 -6 1.94 0.51
13 9 7 11.74 0.46
13 9 6 8.33 0.52
13 9 5 0.27 0.16
13 -9 4 2.69 0.5
13 9 4 2.37 0.3
13 -9 3 22.56 0.72
13 9 3 23.46 0.39
13 -9 2 22.99 0.7
13 9 2 23.16 0.45
13 -9 1 18.64 0.65
13 9 1 19.93 0.37
13 -9 0 3.94 0.33
13 9 0 3.56 0.3
13 -9 -1 2.91 0.35
13 9 -1 2.29 0.38
13 -9 -2 21.44 0.4
13 9 -2 23.25 0.49
13 -9 -3 32.59 0.58
13 9 -3 34.4 0.79
13 -9 -4 0.86 0.31
13 9 -4 0.92 0.44
13 -9 -5 2.3 0.41
13 9 -5 2.27 0.47
13 -9 -6 0.03 0.13
13 9 -6 0.08 0.5
13 10 7 3.98 0.41
13 10 6 13.94 0.55
13 10 5 18.85 0.45
13 -10 4 15.08 0.81
13 10 4 15.27 0.41
13 -10 3 5.52 0.52
13 10 3 6.31 0.34
13 -10 2 1 0.42
13 10 2 1.46 0.26
13 -10 1 26.65 0.77
13 10 1 26.66 0.53
13 -10 0 22.43 0.72
13 10 0 21.3 0.49
13 -10 -1 12.12 0.49
13 10 -1 13.61 0.44
13 -10 -2 17.14 0.54
13 10 -2 17.39 0.46
13 -10 -3 2.57 0.32
13 10 -3 2.37 0.48
13 -10 -4 6.63 0.4
13 10 -4 6.54 0.53
13 -10 -5 2.6 0.37
13 10 -5 3.03 0.69
13 11 6 7.11 0.62
13 11 5 1.35 0.42
13 11 4 10.58 0.51
13 -11 3 13.09 0.93
13 11 3 14.4 0.46
13 -11 2 48.81 0.99
13 11 2 51.85 0.7
13 -11 1 20.11 0.72
13 11 1 19.23 0.49
13 -11 0 4.26 0.42
13 11 0 4.33 0.35
13 -11 -1 6.2 0.55
13 11 -1 6.1 0.42
13 -11 -2 11.17 0.87
13 11 -2 11.86 0.49
13 -11 -3 17.43 0.56
13 11 -3 17.74 0.65
13 -11 -4 20.08 0.58
13 11 -4 20.17 0.68
13 -11 -5 1.24 0.9
13 11 -5 1.35 0.86
13 12 5 20.32 0.74
13 12 4 23.69 0.53
13 -12 3 1.44 0.85
13 12 3 0.82 0.34
13 -12 2 1.38 0.7
13 12 2 1.13 0.32
13 -12 1 12.9 0.63
13 12 1 12.45 0.5
13 -12 0 28.51 0.78
13 12 0 27.33 0.54
13 -12 -1 26.67 1.14
13 12 -1 24.96 0.61
13 -12 -2 1.68 0.58
13 12 -2 1.18 0.53
13 -12 -3 1.26 0.58
13 12 -3 1.49 0.58
13 -12 -4 11.88 0.64
13 12 -4 12.04 0.63
13 13 4 0.39 0.38
13 -13 3 28.35 1.16
13 13 3 27.52 0.64
13 -13 2 10.15 0.6
13 13 2 9.95 0.6
13 -13 1 6.62 0.56
13 13 1 7.37 0.42
13 -13 0 36.54 0.85
13 13 0 31.57 0.68
13 -13 -1 8.36 0.6
13 13 -1 6.32 0.47
13 -13 -2 22.25 0.75
13 13 -2 19.81 0.57
13 -13 -3 8.87 0.62
13 13 -3 7.29 0.94
13 14 3 7.86 0.84
13 -14 2 0.65 0.68
13 14 2 0.47 0.35
13 -14 1 25.07 0.61
13 14 1 26.59 1.11
13 -14 0 7.05 0.51
13 14 0 6.23 0.65
13 -14 -1 6.46 0.62
13 14 -1 6.06 0.51
14 0 9 4.49 0.62
14 0 8 0.53 0.49
14 0 7 28.74 0.64
14 0 6 7.06 0.36
14 0 5 17.16 0.37
14 0 4 36.07 0.46
14 0 3 5.33 0.26
14 0 2 15.69 0.32
14 0 1 28.09 0.4
14 0 0 82.35 0.56
14 0 -1 45.23 0.45
14 0 -2 20.53 0.38
14 0 -3 22.87 0.45
14 0 -4 2.11 0.37
14 0 -6 17.5 0.43
14 0 -7 1 0.88
14 -1 9 2.18 0.86
14 1 9 2.64 0.42
14 -1 8 15.48 0.56
14 1 8 16.14 0.49
14 -1 7 8.33 0.55
14 1 7 6.79 0.37
14 -1 6 15.5 0.62
14 1 6 15.8 0.43
14 -1 5 23.73 0.53
14 1 5 23.36 0.41
14 -1 4 14.37 0.38
14 1 4 14.12 0.31
14 -1 3 60.39 0.64
14 1 3 58.97 0.51
14 -1 2 68.67 0.57
14 1 2 74.82 0.5
14 -1 1 88.09 0.64
14 1 1 87.56 0.58
14 -1 0 42.52 0.39
14 1 0 40.11 0.41
14 -1 -1 13.53 0.3
14 1 -1 13.17 0.29
14 -1 -2 5.39 0.24
14 1 -2 6.6 0.23
14 -1 -3 27.34 0.48
14 1 -3 26.17 0.42
14 -1 -4 56.27 0.79
14 1 -4 56.4 0.79
14 -1 -5 5.91 0.43
14 1 -5 5.15 0.42
14 -1 -6 2.12 0.39
14 1 -6 1.92 0.52
14 -1 -7 0.56 0.46
14 1 -7 0.65 0.53
14 -2 9 0.29 0.32
14 2 9 0.87 0.43
14 -2 8 26.53 0.8
14 2 8 25.64 0.52
14 -2 7 3.8 0.68
14 2 7 3.66 0.4
14 -2 6 2.46 0.47
14 2 6 2.83 0.34
14 -2 5 19.04 0.61
14 2 5 20.39 0.44
14 -2 4 14.77 0.38
14 2 4 14.64 0.31
14 -2 3 88.94 0.83
14 2 3 86.04 0.58
14 -2 2 35.22 0.44
14 2 2 35.13 0.4
14 -2 1 82.02 0.56
14 2 1 82.34 0.66
14 -2 0 22.26 0.34
14 2 0 25.25 0.44
14 -2 -1 121.39 0.7
14 2 -1 122.28 0.74
14 -2 -2 14.32 0.31
14 2 -2 13.47 0.3
14 -2 -3 11.65 0.37
14 2 -3 11.71 0.37
14 -2 -4 8.63 0.44
14 2 -4 8.19 0.37
14 -2 -5 9.41 0.47
14 2 -5 9.12 0.47
14 -2 -6 18.76 0.49
14 2 -6 20.19 0.57
14 -2 -7 5.27 0.54
14 -3 9 0.93 1.28
14 3 9 1.84 0.44
14 -3 8 0.91 0.4
14 3 8 0.82 0.37
14 -3 7 23.87 1.04
14 3 7 23.71 0.61
14 -3 6 77.2 1.62
14 3 6 76.17 0.79
14 -3 5 9.67 0.73
14 3 5 9.3 0.31
14 -3 4 14.74 0.57
14 3 4 14.35 0.3
14 -3 3 80.48 0.74
14 3 3 83.92 0.61
14 -3 2 65.25 0.66
14 3 2 63.87 0.63
14 -3 1 61.27 0.5
14 3 1 60.29 0.71
14 -3 0 21.09 0.32
14 3 0 21.97 0.42
14 -3 -1 12.65 0.3
14 3 -1 12.64 0.31
14 -3 -2 59.27 0.53
14 3 -2 59.74 0.58
14 -3 -3 38.65 0.5
14 3 -3 40.92 0.57
14 -3 -4 13.02 0.42
14 3 -4 11.72 0.47
14 -3 -5 27.17 0.49
14 3 -5 28.52 0.63
14 -3 -6 5.41 0.42
14 3 -6 4.98 0.68
14 -3 -7 4.87 0.56
14 3 -7 5.57 0.7
14 -4 9 11.04 1.03
14 4 9 10.53 0.5
14 -4 8 3.96 0.63
14 4 8 4.5 0.4
14 -4 7 19.42 0.97
14 4 7 18.41 0.5
14 -4 6 2.64 0.6
14 4 6 2.76 0.34
14 -4 5 18.87 0.62
14 4 5 18.74 0.37
14 -4 4 149.06 2.07
14 4 4 152.66 0.72
14 -4 3 6.65 0.38
14 4 3 7.94 0.28
14 -4 2 5.06 0.24
14 4 2 4.41 0.23
14 -4 1 12.65 0.29
14 4 1 13.47 0.36
14 -4 0 104.75 0.66
14 4 0 105.26 0.81
14 -4 -1 20.91 0.35
14 4 -1 22.36 0.38
14 -4 -2 66.12 0.57
14 4 -2 64.01 0.67
14 -4 -3 20.09 0.47
14 4 -3 20.91 0.64
14 -4 -4 52.17 0.68
14 4 -4 53.05 0.96
14 -4 -5 4.36 0.35
14 4 -5 5 0.42
14 -4 -6 10.6 0.6
14 4 -6 11.32 0.82
14 -4 -7 3.86 0.57
14 -5 8 38.91 0.88
14 5 8 40.23 0.56
14 -5 7 7.12 0.75
14 5 7 7.72 0.48
14 -5 6 21.35 1
14 5 6 21.28 0.5
14 -5 5 12.27 0.55
14 5 5 12.2 0.31
14 -5 4 8.95 0.7
14 5 4 9.09 0.26
14 -5 3 31.85 0.6
14 5 3 31.47 0.4
14 -5 2 63.37 0.58
14 5 2 63.74 0.58
14 -5 1 107.99 0.77
14 5 1 108.8 0.98
14 -5 0 15.09 0.39
14 5 0 13.53 0.45
14 -5 -1 13.17 0.35
14 5 -1 12.68 0.44
14 -5 -2 15.25 0.4
14 5 -2 16.29 0.41
14 -5 -3 26.32 0.52
14 5 -3 23.93 0.54
14 -5 -4 78.54 0.77
14 5 -4 81.78 1.17
14 -5 -5 6.12 0.36
14 5 -5 5.64 0.43
14 -5 -6 4.12 0.61
14 5 -6 3.76 0.51
14 -5 -7 1.23 0.55
14 -6 8 44.82 1.26
14 6 8 44.3 0.78
14 -6 7 18.97 0.7
14 6 7 20.23 0.46
14 -6 6 1.43 0.62
14 6 6 1.34 0.33
14 -6 5 54.08 1.39
14 6 5 55.28 0.57
14 -6 4 31.73 0.76
14 6 4 31.27 0.39
14 -6 3 26.16 0.49
14 6 3 25.32 0.44
14 -6 2 22.6 0.45
14 6 2 22.83 0.46
14 -6 1 43.16 0.57
14 6 1 42.83 0.58
14 -6 0 31.61 0.51
14 6 0 30.51 0.72
14 -6 -1 125.05 0.84
14 6 -1 124.76 1.09
14 -6 -2 4.16 0.29
14 6 -2 5.88 0.37
14 -6 -3 4.77 0.32
14 6 -3 3.72 0.46
14 -6 -4 8.32 0.33
14 6 -4 8.84 0.55
14 -6 -5 29.69 0.52
14 6 -5 28.96 0.78
14 -6 -6 6.96 0.48
14 6 -6 7.45 0.54
14 7 8 0.95 0.39
14 -7 7 20.7 1
14 7 7 18.65 0.51
14 -7 6 32.22 1.16
14 7 6 32.32 0.6
14 -7 5 13.95 0.6
14 7 5 14.21 0.37
14 -7 4 16.34 0.52
14 7 4 17.2 0.37
14 -7 3 85.92 1.04
14 7 3 86.96 0.74
14 -7 2 53.6 0.75
14 7 2 50.9 0.66
14 -7 1 15.7 0.47
14 7 1 17.58 0.43
14 -7 0 20.52 0.46
14 7 0 20.86 0.53
14 -7 -1 6.66 0.27
14 7 -1 6.22 0.41
14 -7 -2 38.26 0.45
14 7 -2 37.26 0.66
14 -7 -3 88.74 0.71
14 7 -3 90.09 0.96
14 -7 -4 9.04 0.34
14 7 -4 7.49 0.54
14 -7 -5 1.58 0.47
14 7 -5 1.13 0.5
14 -7 -6 0.16 0.18
14 7 -6 0.01 0.01
14 8 7 25.51 0.64
14 8 6 28.82 0.58
14 8 5 20.17 0.41
14 -8 4 16.78 0.66
14 8 4 15.35 0.37
14 -8 3 53.9 0.98
14 8 3 53.76 0.61
14 -8 2 3.18 0.38
14 8 2 3.76 0.32
14 -8 1 7.68 0.36
14 8 1 8.18 0.37
14 -8 0 38.74 0.58
14 8 0 37.26 0.82
14 -8 -1 14.74 0.42
14 8 -1 15.01 0.38
14 -8 -2 64.92 0.6
14 8 -2 63.47 1
14 -8 -3 3.37 0.33
14 8 -3 3.78 0.4
14 -8 -4 8.71 0.38
14 8 -4 8.97 0.55
14 -8 -5 1.1 0.36
14 8 -5 0.9 0.43
14 -8 -6 32.13 0.8
14 8 -6 34.38 0.81
14 9 7 14.43 0.55
14 9 6 4.49 0.41
14 9 5 13.1 0.4
14 -9 4 2.7 0.51
14 9 4 2.77 0.37
14 -9 3 1.3 0.46
14 9 3 1.22 0.24
14 -9 2 28.87 0.79
14 9 2 28.02 0.55
14 -9 1 74 1.13
14 9 1 71.86 0.78
14 -9 0 3.43 0.34
14 9 0 3.78 0.3
14 -9 -1 23.39 0.5
14 9 -1 22.73 0.58
14 -9 -2 4.41 0.32
14 9 -2 4.85 0.35
14 -9 -3 17.84 0.44
14 9 -3 17.03 0.87
14 -9 -4 29.71 0.57
14 9 -4 31.4 0.8
14 -9 -5 3.47 0.38
14 9 -5 2.7 0.53
14 10 6 10.76 0.45
14 10 5 19.31 0.5
14 10 4 32.8 0.59
14 -10 3 13.48 0.65
14 10 3 12.9 0.45
14 -10 2 2.55 0.5
14 10 2 2.2 0.29
14 -10 1 8.8 0.59
14 10 1 7.58 0.46
14 -10 0 0.45 0.51
14 10 0 0.72 0.3
14 -10 -1 47.69 0.77
14 10 -1 45.86 0.75
14 -10 -2 4.41 0.43
14 10 -2 4.32 0.53
14 -10 -3 8.94 0.38
14 10 -3 9.45 0.54
14 -10 -4 4.1 0.41
14 10 -4 4.81 0.51
14 -10 -5 19.75 0.57
14 10 -5 18.26 0.66
14 11 6 5.11 0.67
14 11 5 18.71 0.72
14 11 4 13.77 0.46
14 -11 3 3.45 0.54
14 11 3 3.63 0.35
14 -11 2 8.98 0.6
14 11 2 7.93 0.37
14 -11 1 8.44 0.6
14 11 1 9.23 0.47
14 -11 0 23.29 1.08
14 11 0 20.9 0.5
14 -11 -1 0.5 0.44
14 11 -1 0.69 0.31
14 -11 -2 7.64 0.6
14 11 -2 7.05 0.46
14 -11 -3 6.12 0.57
14 11 -3 5.41 0.73
14 -11 -4 3.53 0.58
14 11 -4 2.84 0.56
14 12 5 2.13 0.93
14 12 4 4.28 0.64
14 -12 3 16.87 0.99
14 12 3 15.84 0.48
14 -12 2 0.34 3.8
14 12 2 0.73 0.51
14 -12 1 3.92 0.77
14 12 1 3.67 0.47
14 12 0 27.4 0.55
14 -12 -1 1.23 0.75
14 12 -1 1.32 0.5
14 -12 -2 13.69 0.66
14 12 -2 14.54 0.89
14 -12 -3 1.64 0.57
14 12 -3 1.47 0.61
14 -13 3 1.83 0.74
14 13 3 1.7 0.64
14 -13 2 19.64 0.7
14 13 2 20.15 1.03
14 -13 1 1.41 0.54
14 13 1 0.9 0.41
14 -13 0 3.86 0.86
14 13 0 3.89 0.6
14 -13 -1 6.66 0.61
14 13 -1 5.8 0.41
14 -13 -2 5.68 0.61
14 13 -2 6.12 0.55
15 0 9 1.96 0.86
15 0 8 25.33 1.17
15 0 7 6.04 0.55
15 0 6 16.62 0.66
15 0 5 2.48 0.32
15 0 4 33.09 0.47
15 0 3 28.42 0.49
15 0 2 59.91 0.57
15 0 1 24.03 0.39
15 0 0 0.83 0.23
15 0 -1 89.24 0.63
15 0 -2 35.63 0.44
15 0 -3 7.49 0.32
15 0 -4 19.67 0.67
15 0 -5 0.17 0.36
15 0 -6 27.63 0.78
15 0 -7 0.91 0.51
15 -1 9 1.01 0.84
15 1 9 1.18 0.91
15 -1 8 3.07 0.51
15 1 8 3.24 0.49
15 -1 7 29.83 0.8
15 1 7 28.49 0.66
15 -1 6 14.15 0.62
15 1 6 14.06 0.43
15 -1 5 12.45 0.38
15 1 5 12.93 0.4
15 -1 4 17.59 0.42
15 1 4 18.79 0.38
15 -1 3 11.62 0.37
15 1 3 11.63 0.28
15 -1 2 48.74 0.52
15 1 2 48.58 0.52
15 -1 1 29.71 0.42
15 1 1 28.09 0.42
15 -1 0 50.96 0.53
15 1 0 50.73 0.54
15 -1 -1 1.14 0.21
15 1 -1 1.1 0.21
15 -1 -2 7.19 0.27
15 1 -2 6.98 0.27
15 -1 -3 24.94 0.44
15 1 -3 26.65 0.44
15 -1 -4 11.44 0.48
15 1 -4 11.46 0.41
15 -1 -5 12.89 0.52
15 1 -5 12.35 0.63
15 -1 -6 0.56 0.44
15 1 -6 0.77 0.41
15 -1 -7 0.3 0.43
15 1 -7 0.33 1.21
15 -2 8 2.47 0.55
15 2 8 3.04 0.49
15 -2 7 19.9 1
15 2 7 20.28 0.5
15 -2 6 2.74 0.51
15 2 6 2.61 0.39
15 -2 5 28.16 0.73
15 2 5 25.72 0.45
15 -2 4 57.2 0.65
15 2 4 58.23 0.54
15 -2 3 16.92 0.41
15 2 3 16.13 0.31
15 -2 2 20.11 0.38
15 2 2 20.89 0.38
15 -2 1 18.33 0.36
15 2 1 19.76 0.38
15 -2 0 17.81 0.32
15 2 0 17.28 0.36
15 -2 -1 25.06 0.42
15 2 -1 26.54 0.38
15 -2 -2 25.87 0.44
15 2 -2 24.58 0.38
15 -2 -3 62.34 0.7
15 2 -3 64.38 0.57
15 -2 -4 15.21 0.53
15 2 -4 15.78 0.46
15 -2 -5 1.45 0.4
15 2 -5 0.97 0.38
15 -2 -6 0.57 0.55
15 -2 -7 9.02 0.59
15 2 -7 9.5 0.77
15 3 8 4.05 0.37
15 -3 7 1.13 0.72
15 3 7 0.76 0.38
15 -3 6 36.68 1.21
15 3 6 37.53 0.72
15 -3 5 40.38 1.21
15 3 5 38.83 0.6
15 -3 4 1.6 0.43
15 3 4 1.31 0.23
15 -3 3 37.1 0.55
15 3 3 36.06 0.45
15 -3 2 10.97 0.37
15 3 2 11.57 0.32
15 -3 1 101.25 0.65
15 3 1 101.98 0.82
15 -3 0 52.23 0.52
15 3 0 49.7 0.61
15 -3 -1 5.12 0.28
15 3 -1 5.92 0.28
15 -3 -2 2.35 0.24
15 3 -2 1.94 0.26
15 -3 -3 19.18 0.4
15 3 -3 18.5 0.44
15 -3 -4 10.2 0.48
15 3 -4 10.09 0.47
15 -3 -5 23.5 0.53
15 3 -5 25.72 0.76
15 -3 -6 3.79 0.5
15 3 -6 2.95 0.69
15 -3 -7 0.84 0.54
15 -4 8 41.02 0.9
15 4 8 39.95 0.65
15 -4 7 7.25 0.75
15 4 7 8.69 0.61
15 -4 6 3 0.65
15 4 6 3.16 0.36
15 -4 5 16.97 0.61
15 4 5 16.9 0.42
15 -4 4 45.97 1.26
15 4 4 46.89 0.44
15 -4 3 50.77 0.91
15 4 3 51.26 0.53
15 -4 2 53.86 0.91
15 4 2 55.75 0.6
15 -4 1 0.32 0.16
15 4 1 0.3 0.35
15 -4 0 10.89 0.36
15 4 0 10.06 0.36
15 -4 -1 37.8 0.5
15 4 -1 38.13 0.55
15 -4 -2 19.92 0.41
15 4 -2 20.89 0.46
15 -4 -3 20.96 0.49
15 4 -3 21.5 0.67
15 -4 -4 22.61 0.51
15 4 -4 21.77 0.58
15 -4 -5 8.08 0.38
15 4 -5 7.56 0.47
15 -4 -6 7.45 0.57
15 4 -6 8.57 0.76
15 5 8 6.23 0.43
15 -5 7 6.43 0.76
15 5 7 5.55 0.55
15 -5 6 29.19 1.13
15 5 6 31 0.81
15 -5 5 16.32 0.62
15 5 5 15.7 0.34
15 -5 4 31.58 1.1
15 5 4 31.95 0.41
15 -5 3 3.94 0.38
15 5 3 3.92 0.24
15 -5 2 35.62 0.63
15 5 2 35.54 0.55
15 -5 1 21.13 0.44
15 5 1 18.22 0.63
15 -5 0 99.76 0.83
15 5 0 104.04 1.01
15 -5 -1 66.91 0.73
15 5 -1 65.92 0.83
15 -5 -2 2.22 0.28
15 5 -2 2.27 0.32
15 -5 -3 31.07 0.51
15 5 -3 32.11 0.78
15 -5 -4 2.26 0.32
15 5 -4 1.68 0.44
15 -5 -5 34.32 0.69
15 5 -5 35.14 1.18
15 -5 -6 2.67 0.8
15 5 -6 2.67 0.72
15 6 8 0.74 0.46
15 -6 7 39.86 1.25
15 6 7 39.2 0.65
15 -6 6 2.33 0.71
15 6 6 2.17 0.36
15 -6 5 8.26 0.54
15 6 5 8.58 0.33
15 -6 4 11.26 0.58
15 6 4 11.56 0.27
15 -6 3 39.12 0.59
15 6 3 39.15 0.45
15 -6 2 35.81 1.13
15 6 2 37.49 0.59
15 -6 1 37.97 0.56
15 6 1 36.63 0.51
15 -6 0 0.81 0.31
15 6 0 0.74 0.31
15 -6 -1 36.41 0.51
15 6 -1 35.01 0.65
15 -6 -2 39.76 0.49
15 6 -2 38.62 0.67
15 -6 -3 27.5 0.45
15 6 -3 28.93 0.61
15 -6 -4 2.35 0.33
15 6 -4 2.33 0.65
15 -6 -5 1.23 0.39
15 6 -5 0.7 0.49
15 -6 -6 7.48 0.49
15 6 -6 8 0.56
15 7 7 2.47 0.46
15 -7 6 6.75 0.77
15 7 6 6.53 0.45
15 -7 5 30.53 1.16
15 7 5 30.22 0.47
15 -7 4 14.15 0.64
15 7 4 13.67 0.34
15 -7 3 8.32 0.55
15 7 3 8.47 0.29
15 -7 2 11.06 0.46
15 7 2 11 0.41
15 -7 1 87.92 0.94
15 7 1 87.84 0.95
15 -7 0 23.66 0.44
15 7 0 23.01 0.44
15 -7 -1 3.56 0.28
15 7 -1 2.4 0.37
15 -7 -2 17.44 0.35
15 7 -2 17.87 0.52
15 -7 -3 0.5 0.23
15 7 -3 0.61 0.34
15 -7 -4 54.03 0.58
15 7 -4 54.53 1.43
15 -7 -5 10.68 0.5
15 7 -5 10.46 0.56
15 -7 -6 4.04 0.57
15 7 -6 4.45 0.81
15 8 7 9.37 0.5
15 8 6 13.62 0.47
15 -8 5 7.49 0.83
15 8 5 8.89 0.38
15 -8 4 26.16 1.09
15 8 4 28.86 0.4
15 -8 3 16.67 0.67
15 8 3 14.31 0.36
15 -8 2 54.26 0.79
15 8 2 53.22 0.7
15 -8 1 1.86 0.38
15 8 1 1.81 0.29
15 -8 0 1.88 0.32
15 8 0 1.52 0.38
15 -8 -1 11.12 0.4
15 8 -1 11.51 0.38
15 -8 -2 46.79 0.53
15 8 -2 44.81 0.92
15 -8 -3 8.07 0.37
15 8 -3 7.75 0.52
15 -8 -4 11.75 0.39
15 8 -4 12.36 0.87
15 -8 -5 1.77 0.41
15 8 -5 1.14 0.5
15 9 6 9.16 0.5
15 9 5 21.04 0.52
15 -9 4 11.08 0.87
15 9 4 11.91 0.44
15 -9 3 9.44 0.6
15 9 3 9.2 0.38
15 -9 2 15.89 0.95
15 9 2 16.84 0.48
15 -9 1 6.13 0.79
15 9 1 5.68 0.36
15 -9 0 53.41 0.69
15 9 0 50.7 0.69
15 -9 -1 21.98 0.5
15 9 -1 20.51 0.46
15 -9 -2 1.63 0.34
15 9 -2 1.5 0.42
15 -9 -3 10.12 0.49
15 9 -3 10.99 0.83
15 -9 -4 6.02 0.36
15 9 -4 5.15 0.51
15 -9 -5 5.98 0.5
15 9 -5 6.22 0.81
15 10 6 10.93 0.51
15 10 5 2.96 0.42
15 -10 4 0.71 0.74
15 10 4 1.39 0.33
15 -10 3 72.69 1.2
15 10 3 73.5 0.96
15 -10 2 2.54 0.53
15 10 2 2.01 0.36
15 -10 1 6.25 0.56
15 10 1 5.8 0.34
15 -10 0 2.53 0.52
15 10 0 1.97 0.35
15 -10 -1 9.99 0.6
15 10 -1 10.71 0.39
15 -10 -2 15.37 0.61
15 10 -2 14.05 0.51
15 -10 -3 7.37 0.41
15 10 -3 6.73 0.75
15 -10 -4 2.64 0.42
15 10 -4 2.8 0.54
15 11 5 6.54 0.61
15 11 4 13.96 0.99
15 -11 3 1.8 0.62
15 11 3 1.99 0.42
15 -11 2 9.92 0.62
15 11 2 9.13 0.43
15 -11 1 18.1 0.72
15 11 1 16.96 0.44
15 -11 0 2.57 0.55
15 11 0 2.27 0.38
15 -11 -1 3.08 0.61
15 11 -1 4.2 0.45
15 -11 -2 6.76 0.8
15 11 -2 5.99 0.57
15 -11 -3 3.54 0.62
15 11 -3 3.84 0.78
15 12 4 21.03 0.74
15 -12 3 1.43 0.73
15 12 3 0.9 0.56
15 -12 2 1.31 0.84
15 12 2 1.44 0.55
15 12 1 3.21 0.41
15 -12 0 13.52 0.94
15 12 0 12.33 0.39
15 -12 -1 7.52 0.84
15 12 -1 7.23 0.47
15 -12 -2 7.01 0.62
15 12 -2 6.48 0.58
15 -13 2 4.73 0.87
15 13 2 4.95 0.83
15 -13 1 11 0.92
15 13 1 9.25 0.52
15 -13 0 1.24 0.85
15 13 0 2.03 0.6
16 0 8 1.49 0.54
16 0 7 26.78 0.79
16 0 6 74.95 1.16
16 0 5 0.09 0.12
16 0 4 65.75 0.72
16 0 3 13.26 0.33
16 0 2 82.86 0.81
16 0 1 22.71 0.41
16 0 0 2.23 0.32
16 0 -1 16.11 0.34
16 0 -2 186.4 0.93
16 0 -3 53.15 0.6
16 0 -4 0.68 0.32
16 0 -5 0.6 0.38
16 0 -6 0.76 0.36
16 -1 8 9.76 0.63
16 1 8 10.32 0.53
16 -1 7 6.91 0.57
16 1 7 6.84 0.58
16 -1 6 15.97 0.66
16 1 6 15.85 0.54
16 -1 5 41.61 0.69
16 1 5 40.14 0.6
16 -1 4 30.91 0.53
16 1 4 29.84 0.46
16 -1 3 50.89 0.59
16 1 3 53.1 0.53
16 -1 2 8.17 0.35
16 1 2 8.19 0.34
16 -1 1 38.41 0.49
16 1 1 39.01 0.57
16 -1 0 101.01 0.75
16 1 0 102.02 0.86
16 -1 -1 42.31 0.48
16 1 -1 38 0.47
16 -1 -2 8.46 0.3
16 1 -2 8.19 0.3
16 -1 -3 12.14 0.37
16 1 -3 11.91 0.36
16 -1 -4 14.66 0.46
16 1 -4 14.14 0.44
16 -1 -5 22.41 0.52
16 1 -5 22.79 0.59
16 -1 -6 11.87 0.62
16 1 -6 11.21 0.5
16 -2 8 44.45 0.94
16 2 8 44.8 0.97
16 -2 7 9.6 0.81
16 2 7 10.37 0.49
16 -2 6 1.38 0.5
16 2 6 1.15 0.39
16 -2 5 3.07 0.5
16 2 5 3.51 0.34
16 -2 4 0.96 0.36
16 2 4 1.28 0.25
16 -2 3 91.22 0.83
16 2 3 92.89 0.7
16 -2 2 70.12 0.73
16 2 2 66.97 0.62
16 -2 1 39.85 0.51
16 2 1 38.9 0.56
16 -2 0 7.77 0.3
16 2 0 7.68 0.35
16 -2 -1 52.98 0.59
16 2 -1 53.23 0.53
16 -2 -2 8.44 0.33
16 2 -2 8.48 0.33
16 -2 -3 9.96 0.4
16 2 -3 9.14 0.43
16 -2 -4 47.14 0.68
16 2 -4 47.08 0.76
16 -2 -5 3.45 0.5
16 -2 -6 12.69 0.62
16 2 -6 12.08 0.82
16 3 8 1.92 0.41
16 -3 7 1.86 0.69
16 3 7 1.56 0.42
16 -3 6 5.97 0.76
16 3 6 4.2 0.41
16 -3 5 65.17 1.52
16 3 5 65.06 0.61
16 -3 4 39.98 0.85
16 3 4 38.44 0.44
16 -3 3 4.79 0.33
16 3 3 3.87 0.26
16 -3 2 12.86 0.39
16 3 2 12.21 0.34
16 -3 1 1.3 0.25
16 3 1 0.97 0.23
16 -3 0 61.82 0.62
16 3 0 59.95 0.61
16 -3 -1 54.99 0.6
16 3 -1 54.83 0.65
16 -3 -2 7.07 0.37
16 3 -2 7.81 0.35
16 -3 -3 13.98 0.45
16 3 -3 14.95 0.43
16 -3 -4 17.82 0.49
16 3 -4 16.49 0.67
16 -3 -5 8.58 0.86
16 3 -5 9.98 0.79
16 -3 -6 2.55 0.53
16 -4 8 0.74 0.58
16 4 8 1.02 0.37
16 -4 7 27.75 1.1
16 4 7 26.38 0.56
16 4 6 5.91 0.39
16 -4 5 1.1 0.42
16 4 5 1.21 0.29
16 -4 4 16.43 0.9
16 4 4 15.57 0.31
16 -4 3 18.03 0.64
16 4 3 16.68 0.36
16 -4 2 28.42 0.74
16 4 2 30.45 0.48
16 -4 1 25.42 0.43
16 4 1 24.55 0.48
16 -4 0 8.63 0.36
16 4 0 8.28 0.36
16 -4 -1 2.16 0.27
16 4 -1 1.6 0.39
16 -4 -2 37.66 0.7
16 4 -2 35.58 0.56
16 -4 -3 14.76 0.4
16 4 -3 13.01 0.47
16 -4 -4 12.72 0.4
16 4 -4 13.72 0.51
16 -4 -5 1.46 0.48
16 4 -5 1.89 0.68
16 -4 -6 -0.09 3.55
16 5 8 1.12 0.43
16 -5 7 0.75 0.61
16 5 7 0.71 0.41
16 -5 6 8.38 0.78
16 5 6 7.79 0.47
16 -5 5 18.25 0.65
16 5 5 18.7 0.4
16 -5 4 5.26 0.48
16 5 4 4.42 0.24
16 -5 3 40.14 0.86
16 5 3 39.5 0.5
16 -5 2 8.47 0.54
16 5 2 8.95 0.39
16 -5 1 77.92 0.87
16 5 1 74.55 1.12
16 -5 0 7.15 0.54
16 5 0 6.83 0.51
16 -5 -1 4.96 0.35
16 5 -1 3.8 0.39
16 -5 -2 19.99 0.49
16 5 -2 20.05 0.64
16 -5 -3 0.95 0.31
16 5 -3 1 0.38
16 -5 -4 2.8 0.32
16 5 -4 2.83 0.42
16 -5 -5 6.96 0.42
16 5 -5 6.45 0.51
16 -5 -6 12.29 0.51
16 5 -6 13.42 0.87
16 -6 7 0.38 1.32
16 6 7 0.63 0.45
16 -6 6 8.09 0.79
16 6 6 8.48 0.42
16 -6 5 1.15 0.46
16 6 5 0.66 0.28
16 -6 4 3.46 0.5
16 6 4 4.04 0.24
16 -6 3 25.08 0.52
16 6 3 23.42 0.46
16 -6 2 6.12 0.52
16 6 2 5.39 0.36
16 -6 1 6.18 0.42
16 6 1 6.76 0.33
16 -6 0 4.59 0.34
16 6 0 4.62 0.41
16 -6 -1 6.99 0.37
16 6 -1 6.41 0.43
16 -6 -2 8.09 0.33
16 6 -2 8.97 0.43
16 -6 -3 12.78 0.36
16 6 -3 13.4 0.6
16 -6 -4 1.26 0.37
16 6 -4 1.39 0.51
16 -6 -5 0.97 0.34
16 6 -5 1.1 0.47
16 7 7 16.49 0.49
16 7 6 3.05 0.42
16 -7 5 1.47 0.79
16 7 5 1.88 0.32
16 -7 4 24.85 1.08
16 7 4 26.34 0.36
16 -7 3 1.27 0.42
16 7 3 1.02 0.27
16 -7 2 2.29 0.41
16 7 2 2 0.3
16 -7 1 1.43 0.31
16 7 1 0.97 0.34
16 -7 0 36.19 0.54
16 7 0 35.18 0.6
16 -7 -1 17.01 0.41
16 7 -1 15.68 0.52
16 -7 -2 0.98 0.29
16 7 -2 1.02 0.4
16 -7 -3 1.4 0.32
16 7 -3 1.35 0.53
16 -7 -4 0.69 0.38
16 7 -4 0.67 0.48
16 -7 -5 13.8 0.66
16 7 -5 15.52 0.88
16 8 6 0.25 0.35
16 -8 5 1.98 0.78
16 8 5 2.56 0.34
16 -8 4 8.13 0.82
16 8 4 7.54 0.33
16 -8 3 9.05 0.58
16 8 3 9.5 0.39
16 -8 2 13 0.51
16 8 2 13.26 0.4
16 -8 1 6.01 0.44
16 8 1 5.93 0.34
16 -8 0 0.3 0.34
16 8 0 0.22 0.21
16 -8 -1 0.03 0.24
16 8 -1 0.4 0.34
16 -8 -2 17.82 0.55
16 8 -2 19.66 0.96
16 -8 -3 2.88 0.37
16 8 -3 2.42 0.42
16 -8 -4 8.91 0.43
16 8 -4 9.15 0.56
16 9 6 7.63 0.45
16 9 5 10.81 0.4
16 -9 4 8.43 0.83
16 9 4 7.53 0.42
16 -9 3 14.88 0.95
16 9 3 14.37 0.42
16 -9 2 2.86 0.5
16 9 2 2.74 0.33
16 -9 1 13.1 0.52
16 9 1 12.79 0.36
16 -9 0 12.77 0.52
16 9 0 14.2 0.41
16 -9 -1 6.34 0.38
16 9 -1 6.01 0.4
16 -9 -2 3.18 0.4
16 9 -2 3.51 0.52
16 -9 -3 3.76 0.39
16 9 -3 3.86 0.71
16 -9 -4 6.78 0.39
16 9 -4 6.59 0.75
16 10 5 5.74 0.51
16 -10 4 0.25 0.43
16 10 4 0.57 0.44
16 -10 3 6.51 0.58
16 10 3 8.05 0.57
16 -10 2 26.4 0.8
16 10 2 24.93 0.63
16 -10 1 7.62 0.59
16 10 1 7.69 0.36
16 -10 0 0.58 0.54
16 10 0 0.97 0.34
16 -10 -1 3.07 0.56
16 10 -1 3.27 0.37
16 -10 -2 7.05 0.49
16 10 -2 7.31 0.48
16 -10 -3 18.7 0.57
16 10 -3 19.78 0.98
16 11 4 15.07 1
16 -11 3 0.07 0.16
16 11 3 0.37 0.47
16 -11 2 0.43 0.52
16 11 2 0.48 0.69
16 -11 1 9.8 0.62
16 11 1 9.76 0.48
16 -11 0 5.12 0.73
16 11 0 6.03 0.4
16 -11 -1 17.01 0.98
16 11 -1 17.88 0.56
16 -11 -2 3.81 0.6
16 11 -2 3.73 0.48
16 -12 2 6.26 0.93
16 12 2 6.15 0.5
16 -12 1 7.93 0.87
16 12 1 6.97 0.44
16 -12 0 1.29 0.79
16 12 0 1.4 0.43
16 12 -1 12.43 0.89
17 0 8 57.5 1.04
17 0 7 8.54 0.62
17 0 6 12.85 0.64
17 0 5 14.77 0.51
17 0 4 3.62 0.33
17 0 3 4.37 0.29
17 0 2 29.19 0.52
17 0 1 45.06 0.62
17 0 0 13.94 0.42
17 0 -1 3 0.3
17 0 -2 4.32 0.28
17 0 -3 6.66 0.37
17 0 -4 62.1 0.75
17 0 -5 0.44 0.42
17 0 -6 2.2 0.72
17 -1 8 9.62 0.65
17 1 8 9.98 0.64
17 -1 7 2.37 0.53
17 1 7 2.33 0.54
17 -1 6 1.78 0.49
17 1 6 2.1 0.5
17 -1 5 8.2 0.56
17 1 5 8.3 0.46
17 -1 4 36.2 0.67
17 1 4 39.32 0.59
17 -1 3 41.22 0.55
17 1 3 37.31 0.52
17 -1 2 7.74 0.36
17 1 2 8.36 0.37
17 -1 1 1.39 0.27
17 1 1 1.02 0.29
17 -1 0 13.19 0.42
17 1 0 13.78 0.42
17 -1 -1 57.41 0.57
17 1 -1 58.42 0.81
17 -1 -2 11.13 0.36
17 1 -2 12.52 0.34
17 -1 -3 40.12 0.55
17 1 -3 39.29 0.54
17 -1 -4 2.86 0.37
17 1 -4 3.02 0.62
17 -1 -5 1.59 0.4
17 1 -5 1.46 0.5
17 -1 -6 6.26 0.49
17 1 -6 7.13 0.71
17 -2 8 7.41 0.63
17 2 8 8.22 0.54
17 -2 7 23.97 1.07
17 2 7 25.67 0.79
17 -2 6 19.28 0.7
17 2 6 19.31 0.71
17 -2 5 3.31 0.67
17 2 5 3.51 0.34
17 -2 4 8.57 0.44
17 2 4 7.84 0.3
17 -2 3 31.64 0.49
17 2 3 32.43 0.5
17 -2 2 10.12 0.38
17 2 2 12.14 0.4
17 -2 1 64.05 0.67
17 2 1 62.41 0.71
17 -2 0 1.22 0.25
17 2 0 0.9 0.3
17 -2 -1 43.04 0.55
17 2 -1 43.69 0.63
17 -2 -2 34.8 0.52
17 2 -2 36.21 0.59
17 -2 -3 27.71 0.48
17 2 -3 27.19 0.52
17 -2 -4 1.89 0.37
17 2 -4 2.47 0.44
17 -2 -5 13.68 0.52
17 2 -5 14.19 0.84
17 2 -6 4.12 0.67
17 -3 7 1.73 0.72
17 3 7 1.7 0.43
17 -3 6 1.44 0.69
17 3 6 1.35 0.43
17 3 5 23.98 0.43
17 -3 4 29.67 1.1
17 3 4 27.37 0.43
17 -3 3 52.9 0.69
17 3 3 54.5 0.62
17 -3 2 3.97 0.32
17 3 2 3.54 0.31
17 -3 1 41.38 0.54
17 3 1 41.98 0.64
17 -3 0 7.56 0.35
17 3 0 7.85 0.36
17 -3 -1 15.94 0.44
17 3 -1 16.54 0.52
17 -3 -2 34.47 0.52
17 3 -2 32.88 0.57
17 -3 -3 8.4 0.41
17 3 -3 9.01 0.55
17 -3 -4 14.93 0.54
17 -3 -5 4.34 0.45
17 3 -5 3.59 0.64
17 -4 7 2.96 0.79
17 4 7 3.33 0.59
17 -4 6 32.6 1.18
17 4 6 32.98 0.85
17 -4 5 1.14 0.48
17 4 5 0.98 0.31
17 -4 4 9.15 0.8
17 4 4 10.49 0.31
17 -4 3 14.61 0.63
17 4 3 14.73 0.4
17 -4 2 38.57 0.85
17 4 2 36.43 0.63
17 -4 1 19.1 0.67
17 4 1 21.5 0.43
17 -4 0 48.76 0.65
17 4 0 48.53 0.65
17 -4 -1 25.33 0.6
17 4 -1 25.35 0.59
17 -4 -2 10.93 0.43
17 4 -2 11.81 0.45
17 -4 -3 1.5 0.33
17 4 -3 1.77 0.38
17 -4 -4 32.37 0.69
17 4 -4 34.14 1.14
17 -4 -5 6.54 0.46
17 -5 7 1.93 0.74
17 5 7 1.71 0.43
17 -5 6 0.47 0.82
17 5 6 0.68 0.33
17 -5 5 40.01 1.27
17 5 5 37.54 0.55
17 -5 4 80.36 1.16
17 5 4 85.16 0.65
17 -5 3 7.29 0.55
17 5 3 5.73 0.3
17 -5 2 4.04 0.74
17 5 2 3.8 0.3
17 -5 1 3.09 0.5
17 5 1 3.53 0.31
17 -5 0 29.87 0.8
17 5 0 30.43 0.65
17 -5 -1 27.07 0.63
17 5 -1 25.86 0.61
17 -5 -2 9.9 0.42
17 5 -2 10.49 0.56
17 -5 -3 2.38 0.35
17 5 -3 2.73 0.63
17 -5 -4 9.13 0.48
17 5 -4 9.94 0.56
17 -5 -5 8.05 0.59
17 5 -5 8.35 0.75
17 -6 7 18.32 0.95
17 6 7 17.25 0.56
17 -6 6 2.41 0.82
17 6 6 2.3 0.41
17 -6 5 12.02 0.62
17 6 5 11.8 0.49
17 -6 4 1.91 0.49
17 6 4 2.17 0.24
17 -6 3 39.96 0.88
17 6 3 38.99 0.51
17 -6 2 11.43 0.87
17 6 2 12.26 0.44
17 -6 1 45.22 0.72
17 6 1 45.15 0.59
17 -6 0 4.34 0.55
17 6 0 4.08 0.35
17 -6 -1 3.65 0.42
17 6 -1 3.43 0.41
17 -6 -2 10.34 0.34
17 6 -2 10.23 0.8
17 -6 -3 31.68 0.68
17 6 -3 31.68 0.64
17 -6 -4 3.98 0.42
17 6 -4 3.84 0.72
17 -6 -5 2.66 0.45
17 6 -5 3.3 0.71
17 7 6 27.04 0.66
17 -7 5 10.07 0.87
17 7 5 11.49 0.49
17 -7 4 11.69 0.84
17 7 4 10.55 0.32
17 -7 3 42.47 0.89
17 7 3 44.62 0.54
17 -7 2 4.14 0.53
17 7 2 3.34 0.33
17 -7 1 15.34 0.44
17 7 1 14.68 0.52
17 -7 0 22.66 0.62
17 7 0 21.88 0.46
17 -7 -1 39.5 0.57
17 7 -1 42.57 0.64
17 -7 -2 12.69 0.4
17 7 -2 11.69 0.59
17 -7 -3 2.3 0.42
17 7 -3 2.77 0.49
17 -7 -4 0.9 0.5
17 7 -4 1.21 0.52
17 -8 5 0.01 1.09
17 8 5 0.23 0.26
17 -8 4 1.68 0.73
17 8 4 1.64 0.32
17 -8 3 3.87 0.59
17 8 3 3.51 0.39
17 -8 2 46.6 0.76
17 8 2 44.47 0.65
17 -8 1 1.65 0.42
17 8 1 1.48 0.31
17 -8 0 13.78 0.52
17 8 0 12.34 0.44
17 -8 -1 17.33 0.9
17 8 -1 17.37 0.5
17 -8 -2 5.75 0.4
17 8 -2 5.98 0.55
17 -8 -3 13.77 0.52
17 8 -3 14.26 0.9
17 -8 -4 2.98 0.48
17 8 -4 3.18 0.74
17 9 5 4.21 0.46
17 9 4 38.33 0.9
17 -9 3 12.94 0.93
17 9 3 12.45 0.52
17 -9 2 21.94 0.74
17 9 2 22.24 0.6
17 -9 1 0.1 0.12
17 9 1 0.15 0.18
17 -9 0 6.78 0.59
17 9 0 6.71 0.35
17 -9 -1 22.93 0.51
17 9 -1 21.24 0.58
17 -9 -2 7.08 0.43
17 9 -2 6.98 0.58
17 -9 -3 0.7 0.36
17 9 -3 0.59 0.67
17 10 4 8.26 0.49
17 -10 3 1.59 0.65
17 10 3 1.85 0.42
17 -10 2 2.75 0.75
17 10 2 1.99 0.35
17 -10 1 43.67 1.34
17 10 1 39.97 0.8
17 -10 0 2.49 0.57
17 10 0 3.01 0.38
17 -10 -1 1.53 0.61
17 10 -1 1.64 0.4
17 -10 -2 1.72 0.8
17 10 -2 1.6 0.45
17 -11 3 11.5 0.94
17 11 3 12.63 0.52
17 -11 2 4.85 0.65
17 11 2 5.24 0.48
17 -11 1 1.42 0.67
17 11 1 1.26 0.41
17 -11 0 16.34 0.97
17 11 0 14.68 0.46
18 0 7 14.08 0.66
18 0 6 5.22 0.55
18 0 5 2.85 0.45
18 0 4 6.64 0.37
18 0 3 13.14 0.42
18 0 2 11.44 0.4
18 0 1 12.08 0.42
18 0 0 9.13 0.39
18 0 -1 1.16 0.29
18 0 -2 0.78 0.31
18 0 -3 20.16 0.5
18 0 -4 0.98 0.38
18 0 -5 4.65 0.47
18 -1 7 6.69 0.62
18 1 7 6.88 0.61
18 -1 6 4.58 0.58
18 1 6 5.69 0.58
18 -1 5 6.16 0.59
18 1 5 6.06 0.5
18 -1 4 21.18 0.49
18 1 4 20.26 0.49
18 -1 3 13.96 0.43
18 1 3 13.7 0.38
18 -1 2 21.11 0.48
18 1 2 22.65 0.49
18 -1 1 4.09 0.35
18 1 1 4 0.36
18 -1 0 0.43 0.26
18 1 0 0.26 0.3
18 -1 -1 31.95 0.5
18 1 -1 32.4 0.58
18 -1 -2 7.1 0.34
18 1 -2 7.2 0.36
18 -1 -3 2.57 0.37
18 1 -3 2.74 0.36
18 -1 -4 1.74 0.44
18 1 -4 1.82 0.49
18 -1 -5 2.84 0.7
18 1 -5 2.75 0.68
18 -2 7 1.98 0.72
18 2 7 0.95 0.85
18 -2 6 12.17 0.86
18 2 6 12.5 0.64
18 -2 5 12.51 0.87
18 2 5 12.31 0.45
18 -2 4 1.52 0.76
18 2 4 2.11 0.34
18 -2 3 6.51 0.33
18 2 3 5.9 0.33
18 -2 2 16.83 0.46
18 2 2 17.5 0.54
18 -2 1 32.83 0.61
18 2 1 33.28 0.57
18 -2 0 19.46 0.49
18 2 0 19.51 0.49
18 -2 -1 2.88 0.31
18 2 -1 2.5 0.39
18 -2 -2 0.62 0.32
18 2 -2 0.53 0.32
18 -2 -3 2.53 0.36
18 2 -3 2.68 0.37
18 -2 -4 6.36 0.59
18 2 -4 7.56 0.7
18 -2 -5 5.56 0.46
18 2 -5 6.71 0.71
18 -3 7 1.72 0.69
18 3 7 2.51 0.52
18 -3 6 1.89 0.72
18 3 6 2.22 0.58
18 -3 5 7.04 0.78
18 3 5 6.56 0.36
18 -3 4 56.08 1.44
18 3 4 58.81 0.73
18 -3 3 5.75 0.52
18 3 3 4.57 0.32
18 -3 2 29.61 0.8
18 3 2 30.03 0.66
18 -3 1 9.15 0.45
18 3 1 10 0.4
18 -3 0 9.83 0.47
18 3 0 9.4 0.4
18 -3 -1 7.33 0.44
18 3 -1 7.83 0.4
18 -3 -2 15.28 0.46
18 3 -2 16.23 0.51
18 -3 -3 19.6 0.57
18 3 -3 19.74 0.65
18 -3 -4 0.68 0.49
18 3 -4 0.54 0.57
18 -3 -5 1.28 0.4
18 4 7 3.14 0.61
18 -4 6 28.4 1.13
18 4 6 26.85 0.76
18 -4 5 8.04 0.56
18 4 5 8.46 0.41
18 -4 4 15.3 0.93
18 4 4 15.39 0.41
18 -4 3 4.98 0.52
18 4 3 4.49 0.31
18 -4 2 14.71 0.63
18 4 2 13.84 0.45
18 -4 1 5.18 0.56
18 4 1 4.37 0.5
18 -4 0 42.07 0.71
18 4 0 44.87 0.79
18 -4 -1 23.02 0.6
18 4 -1 22.77 0.51
18 -4 -2 0.93 0.34
18 4 -2 0.96 0.36
18 -4 -3 25.05 0.63
18 4 -3 24.65 0.69
18 -4 -4 2.37 0.43
18 4 -4 2.85 0.71
18 -4 -5 13.04 0.89
18 -5 6 1.96 0.69
18 5 6 2.59 0.6
18 -5 5 0.97 0.5
18 5 5 0.64 0.28
18 -5 4 14.79 0.65
18 5 4 13.03 0.36
18 -5 3 36.83 1.2
18 5 3 36.19 0.54
18 -5 2 37.39 1.26
18 5 2 37.51 0.57
18 -5 1 7.07 0.84
18 5 1 7.25 0.31
18 -5 0 5.3 0.43
18 5 0 4.93 0.42
18 -5 -1 27.88 0.8
18 5 -1 27.74 0.63
18 -5 -2 11.09 0.5
18 5 -2 10.64 0.56
18 -5 -3 10.4 0.5
18 5 -3 11.65 0.84
18 -5 -4 4.72 0.44
18 6 6 7.77 0.44
18 -6 5 16.14 0.94
18 6 5 16.18 0.47
18 -6 4 11 0.83
18 6 4 10.24 0.31
18 -6 3 1.95 0.66
18 6 3 2.13 0.29
18 -6 2 19 0.69
18 6 2 18.19 0.42
18 -6 1 24.33 1.08
18 6 1 24.05 0.43
18 -6 0 34.69 0.68
18 6 0 33.5 0.48
18 -6 -1 3.72 0.44
18 6 -1 4.76 0.45
18 -6 -2 3.79 0.49
18 6 -2 3.41 0.49
18 -6 -3 21.24 0.73
18 6 -3 22.24 0.7
18 -6 -4 18.88 0.57
18 6 -4 19.56 0.66
18 -7 5 3.89 0.9
18 7 5 3.8 0.49
18 -7 4 33.92 1.19
18 7 4 35.74 0.52
18 -7 3 8.23 0.83
18 7 3 8.15 0.36
18 -7 2 6.96 0.54
18 7 2 6.2 0.34
18 -7 1 5.58 0.55
18 7 1 5.1 0.31
18 -7 0 0.19 0.14
18 7 0 0.11 0.12
18 -7 -1 16.1 0.53
18 7 -1 15.53 0.47
18 -7 -2 38.88 0.87
18 7 -2 38.64 0.86
18 -7 -3 6.15 0.85
18 8 5 13.64 0.53
18 -8 4 2.66 0.84
18 8 4 3.03 0.48
18 -8 3 0.42 0.44
18 8 3 0.32 0.27
18 -8 2 2.18 0.6
18 8 2 2.08 0.74
18 -8 1 42.25 0.91
18 8 1 38.86 0.71
18 -8 0 8.51 0.81
18 8 0 7.32 0.36
18 -8 -1 18.06 0.55
18 8 -1 17.33 0.91
18 -8 -2 3.5 0.46
18 8 -2 3.86 0.53
18 -8 -3 16.47 0.89
18 8 -3 15.98 0.92
18 9 4 3.51 0.49
18 -9 3 37.41 1.26
18 9 3 38.94 1.17
18 -9 2 16.33 0.98
18 9 2 15.09 0.47
18 -9 1 1.09 0.68
18 9 1 0.86 0.46
18 -9 0 6.78 0.51
18 9 0 6.08 0.47
18 -9 -1 11.43 0.53
18 9 -1 12.16 0.9
18 9 -2 5.66 0.58
18 10 3 1.67 0.56
18 -10 2 5.18 0.65
18 10 2 6.1 0.47
18 -10 1 4.99 0.64
18 10 1 3.72 0.45
18 -10 0 13.04 0.93
18 10 0 12.99 0.51
19 0 6 22.44 0.75
19 0 5 9.64 0.6
19 0 4 7.21 0.4
19 0 3 7.59 0.39
19 0 2 0.69 0.37
19 0 1 30.73 0.57
19 0 0 102.2 0.93
19 0 -1 0.65 0.34
19 0 -2 3.19 0.36
19 0 -3 2.6 0.47
19 0 -4 1.86 0.44
19 -1 6 12.04 0.65
19 1 6 12.83 0.65
19 -1 5 10.2 0.6
19 1 5 10.02 0.5
19 -1 4 34.29 0.85
19 1 4 34.78 0.7
19 -1 3 40.27 0.62
19 1 3 38.35 0.55
19 -1 2 33.99 0.58
19 1 2 32.55 0.69
19 -1 1 2.32 0.37
19 1 1 2.52 0.37
19 -1 0 1.67 0.36
19 1 0 1.44 0.38
19 -1 -1 3.07 0.43
19 1 -1 3.45 0.38
19 -1 -2 43.13 0.68
19 1 -2 41.09 0.62
19 -1 -3 9.32 0.56
19 1 -3 10.14 0.57
19 -1 -4 4.54 0.61
19 1 -4 5.35 0.55
19 2 6 0.43 0.38
19 -2 5 54.25 1.41
19 2 5 52.26 0.82
19 -2 4 15.31 0.91
19 2 4 13.54 0.63
19 -2 3 2.82 0.47
19 2 3 3.08 0.37
19 -2 2 16.33 0.46
19 2 2 15.83 0.47
19 -2 1 6.42 0.44
19 2 1 5.99 0.4
19 -2 0 13.7 0.52
19 2 0 14.2 0.46
19 -2 -1 38.35 0.9
19 2 -1 36.8 0.61
19 -2 -2 2.43 0.51
19 2 -2 2.17 0.54
19 -2 -3 6.38 0.43
19 2 -3 6.01 0.53
19 -2 -4 15.29 0.54
19 2 -4 15.19 0.84
19 -3 6 8.12 0.81
19 3 6 6.73 0.6
19 -3 5 0.45 0.34
19 3 5 0.39 0.41
19 -3 4 15.79 0.92
19 3 4 14.52 0.44
19 -3 3 11.7 0.83
19 3 3 10.68 0.38
19 -3 2 20.49 0.71
19 3 2 18.36 0.49
19 -3 1 31.59 0.82
19 3 1 30.92 0.66
19 -3 0 4.52 0.43
19 3 0 4.81 0.41
19 -3 -1 16.6 0.54
19 3 -1 15.9 0.55
19 -3 -2 5.31 0.51
19 3 -2 4.49 0.66
19 -3 -3 4.74 0.89
19 3 -3 3.74 0.51
19 -3 -4 9.89 0.5
19 3 -4 9.65 0.74
19 -4 6 6.56 0.76
19 4 6 7.6 0.78
19 -4 5 4.65 0.57
19 4 5 4.17 0.47
19 -4 4 8.92 0.81
19 4 4 8.28 0.45
19 -4 3 5.99 0.74
19 4 3 6.79 0.37
19 -4 2 8.52 0.88
19 4 2 9.5 0.42
19 -4 1 12.43 0.93
19 4 1 10.67 0.39
19 -4 0 35.24 0.87
19 4 0 32.05 0.68
19 -4 -1 4.45 0.58
19 4 -1 5.02 0.68
19 -4 -2 10.91 0.59
19 4 -2 10.91 0.78
19 -4 -3 4.48 0.52
19 4 -3 4.86 0.54
19 -4 -4 2.45 0.54
19 -5 6 5.22 0.78
19 5 6 5.15 0.98
19 -5 5 0.94 0.58
19 5 5 1.11 0.42
19 -5 4 8.25 0.56
19 5 4 9.17 0.38
19 -5 3 15.94 0.88
19 5 3 14.65 0.53
19 -5 2 4.72 0.8
19 5 2 5.1 0.42
19 -5 1 5.82 0.79
19 5 1 5.43 0.36
19 5 0 1.55 0.39
19 -5 -1 0.09 0.2
19 5 -1 0.19 0.22
19 -5 -2 14.03 0.94
19 5 -2 14.54 0.85
19 -5 -3 12.41 0.62
19 -6 5 6.12 0.92
19 6 5 7.35 0.5
19 -6 4 0.12 1.08
19 6 4 0.05 0.1
19 -6 3 8.76 0.82
19 6 3 9.38 0.48
19 -6 2 1.37 0.48
19 6 2 1.59 0.36
19 -6 1 4.93 0.53
19 6 1 4.72 0.41
19 -6 0 10.98 0.47
19 6 0 12.03 0.43
19 -6 -1 35.59 0.68
19 6 -1 32.11 0.66
19 -6 -2 0.25 0.53
19 6 -2 0.44 0.35
19 -6 -3 4.29 0.73
19 -7 4 0.48 0.72
19 7 4 0.49 0.46
19 -7 3 14.55 0.93
19 7 3 14.59 0.38
19 -7 2 11.48 0.62
19 7 2 11.18 0.4
19 -7 1 1.84 0.52
19 7 1 2.86 0.34
19 -7 0 0.27 0.29
19 7 0 0.53 0.37
19 -7 -1 0.29 0.46
19 7 -1 0.21 0.21
19 -7 -2 2.87 0.54
19 7 -2 2.81 0.44
19 8 4 10.44 0.87
19 -8 3 2.26 0.84
19 8 3 2.45 0.43
19 -8 2 3.75 0.82
19 8 2 3.95 0.33
19 -8 1 0.21 5.07
19 8 1 0.65 0.26
19 -8 0 24.87 0.75
19 8 0 24.4 0.47
19 -8 -1 1.36 0.55
19 8 -1 1.49 0.37
19 -9 2 11.73 0.91
19 9 2 11.63 0.39
19 9 1 5.99 0.36
19 -9 0 1.04 0.8
19 9 0 0.66 0.43
20 0 6 2.56 0.74
20 0 5 19.21 0.71
20 0 4 25.7 0.73
20 0 3 0.18 0.34
20 0 2 8.58 0.47
20 0 1 1.06 0.37
20 0 0 0.78 0.39
20 0 -1 46.47 0.93
20 0 -2 15.53 0.63
20 0 -3 0.7 0.5
20 1 6 14.79 0.89
20 -1 5 9.6 0.95
20 1 5 8.61 0.49
20 -1 4 31.41 1.13
20 1 4 30.61 0.64
20 -1 3 16.32 0.63
20 1 3 17.5 0.46
20 -1 2 17.59 0.56
20 1 2 17.41 0.68
20 -1 1 27.49 0.65
20 1 1 27.93 0.78
20 -1 0 1.1 0.44
20 1 0 0.91 0.52
20 -1 -1 13.86 0.85
20 1 -1 13.46 0.62
20 -1 -2 4.83 0.43
20 1 -2 4.86 0.55
20 -1 -3 6.65 0.88
20 1 -3 6.27 0.58
20 -2 5 2.53 0.74
20 2 5 3.43 0.81
20 -2 4 5.23 0.76
20 2 4 6.55 0.45
20 -2 3 27.54 1.06
20 2 3 26.84 0.62
20 -2 2 3.94 0.51
20 2 2 3.74 0.42
20 -2 1 0.67 0.43
20 2 1 0.19 0.25
20 -2 0 37.42 0.87
20 2 0 37.35 0.85
20 -2 -1 11.05 0.59
20 2 -1 11.62 0.6
20 -2 -2 2.03 0.52
20 2 -2 1.87 0.7
20 -2 -3 16.73 0.97
20 2 -3 16.5 0.84
20 -3 5 4.74 0.79
20 3 5 5.45 0.61
20 3 4 17.42 0.54
20 -3 3 17.39 0.93
20 3 3 17.3 0.54
20 -3 2 1.54 0.74
20 3 2 1.01 0.37
20 -3 1 12.44 0.9
20 3 1 11.14 0.49
20 -3 0 23.38 1.07
20 3 0 24.55 1.03
20 -3 -1 0.49 0.64
20 3 -1 1.15 0.7
20 -3 -2 13.95 0.61
20 3 -2 13.93 0.84
20 -3 -3 4.27 0.55
20 -4 5 14.04 0.89
20 4 5 12.79 0.52
20 -4 4 12.06 0.58
20 4 4 10.98 0.43
20 4 3 4.65 0.44
20 -4 2 2.48 0.72
20 4 2 2.65 0.42
20 -4 1 35.24 1.25
20 4 1 35.83 1.19
20 -4 0 4.48 0.8
20 4 0 4.87 0.7
20 -4 -1 30.78 1.05
20 4 -1 28.61 1.07
20 -4 -2 7.36 0.79
20 4 -2 6.86 0.73
20 -4 -3 1.01 0.86
20 5 4 1.26 0.45
20 -5 3 12.47 0.82
20 5 3 13.04 0.51
20 -5 2 12.58 0.96
20 5 2 11.71 0.43
20 -5 1 20.41 1.05
20 5 1 19.89 0.58
20 -5 0 1.13 0.75
20 5 0 0.41 0.34
20 -5 -1 4.82 0.45
20 5 -1 5.49 0.7
20 -5 -2 1.64 0.57
20 5 -2 1.64 0.73
20 -6 4 5.28 0.99
20 6 4 6.52 0.59
20 -6 3 2.24 0.76
20 6 3 1.95 0.44
20 -6 2 6.42 0.68
20 6 2 7.57 0.4
20 -6 1 0.57 0.43
20 6 1 0.2 0.31
20 -6 0 30.56 0.8
20 6 0 27.82 0.65
20 -6 -1 7.6 0.46
20 6 -1 7.58 0.55
20 -6 -2 2.43 0.83
20 7 3 8.05 0.41
20 -7 2 13.12 0.9
20 7 2 14.32 0.52
20 -7 1 1.59 0.51
20 7 1 1.23 0.36
20 -7 0 2.65 0.61
20 7 0 2.38 0.37
21 0 4 9.65 0.61
21 0 3 2.52 0.54
21 0 2 1.74 0.51
21 0 1 1.13 0.45
21 0 0 3.34 0.53
21 0 -1 10.23 0.58
21 0 -2 0.35 0.52
21 -1 4 0.4 1.11
21 1 4 0.01 0.03
21 -1 3 0.6 0.71
21 1 3 0.82 0.43
21 -1 2 3.13 0.51
21 1 2 3.65 0.44
21 -1 1 10.1 0.59
21 1 1 10.07 0.59
21 -1 0 5.54 0.54
21 1 0 4.38 0.52
21 -1 -1 1.32 0.52
21 1 -1 1.14 0.53
21 -1 -2 0.43 1.07
21 1 -2 0 0.04
21 -2 4 13.34 0.86
21 2 4 13.79 0.49
21 -2 3 3.78 0.81
21 2 3 4.43 0.46
21 -2 2 6.77 0.62
21 2 2 6.89 0.81
21 -2 1 3.03 0.86
21 2 1 3.5 0.42
21 -2 0 0.97 0.75
21 2 0 1.15 0.47
21 -2 -1 7.17 0.84
21 2 -1 8.27 0.74
21 -2 -2 13.52 0.93
21 -3 4 8.54 0.8
21 3 4 9.59 0.49
21 3 3 0.96 0.53
21 -3 2 11.5 0.92
21 3 2 11.28 0.49
21 -3 1 5.44 0.82
21 3 1 5.51 0.52
21 -3 0 15.57 0.97
21 3 0 17.17 0.91
21 -3 -1 4 0.83
21 -3 -2 1.04 0.74
21 4 4 7.47 0.64
21 4 3 5.17 0.47
21 -4 2 25.96 1.13
21 4 2 23.57 0.56
21 -4 1 0.54 0.54
21 4 1 0.44 0.28
21 -4 0 9.93 0.9
21 4 0 9.15 0.46
21 -4 -1 13.1 0.92
21 4 -1 13.44 0.83
21 -5 3 5.12 0.76
21 5 3 4.03 0.61
21 -5 2 2.47 0.65
21 5 2 3.08 0.39
21 -5 1 7.14 0.71
21 5 1 7.12 0.46
21 -5 0 18.23 0.68
21 5 0 17.22 0.55
21 -6 1 0.8 0.87
21 6 1 0.59 0.4
22 0 2 1.7 0.66
22 0 1 2.75 0.4
22 0 0 7.12 0.57
22 -1 2 11.55 0.88
22 1 2 12.83 0.85
22 -1 1 7.81 0.48
22 1 1 7.99 0.47
22 -1 0 21.39 0.97
22 1 0 21.73 0.97
22 2 2 15.47 0.64
22 -2 1 14.38 0.95
22 2 1 13.7 0.51
22 -2 0 13.51 0.94
22 2 0 15.01 0.87
22 3 1 12.05 0.61
